MODEL 1
REMARK VINA RESULT: -6.703977340      0.000      0.000
REMARK  11 active torsions:
REMARK  status: ('A' for Active; 'I' for Inactive)
REMARK    1  A    between atoms: O1_2  and  C2_3 
REMARK    2  A    between atoms: C4_5  and  O2_6 
REMARK    3  A    between atoms: C5_8  and  O3_9 
REMARK    4  A    between atoms: O3_9  and  C6_10 
REMARK    5  A    between atoms: C7_11  and  O4_12 
REMARK    6  A    between atoms: C8_14  and  O5_15 
REMARK    7  A    between atoms: C9_18  and  C10_19 
REMARK    8  A    between atoms: C14_23  and  O7_24 
REMARK    9  A    between atoms: C20_32  and  O9_33 
REMARK   10  A    between atoms: C21_35  and  O10_36 
REMARK   11  A    between atoms: C23_39  and  O11_41 
ROOT
HETATM    1  C6  UNL     1     -11.645  -8.844   9.561  1.00  0.00     0.168 C 
HETATM    2  C7  UNL     1     -12.728  -7.823   9.987  1.00  0.00     0.202 C 
HETATM    3  C8  UNL     1     -12.182  -6.529  10.461  1.00  0.00     0.289 C 
HETATM    4  O6  UNL     1     -10.979  -6.055  10.017  1.00  0.00    -0.347 OA
HETATM    5  C9  UNL     1     -10.195  -6.964   9.298  1.00  0.00     0.082 C 
HETATM    6  C22 UNL     1      -8.769  -7.214   9.690  1.00  0.00     0.077 C 
HETATM    7  C23 UNL     1      -9.064  -8.676  10.085  1.00  0.00     0.066 C 
HETATM    8  C24 UNL     1      -8.363  -8.878  11.455  1.00  0.00     0.046 C 
HETATM    9  C25 UNL     1     -10.430  -8.213  10.076  1.00  0.00     0.087 C 
ENDROOT
BRANCH   5  10
HETATM   10  C10 UNL     1     -10.516  -6.777   7.899  1.00  0.00     0.061 C 
HETATM   11  C11 UNL     1      -9.815  -7.520   6.820  1.00  0.00     0.016 C 
HETATM   12  C12 UNL     1     -10.691  -7.492   5.551  1.00  0.00    -0.002 C 
HETATM   13  C13 UNL     1      -9.959  -7.372   4.270  1.00  0.00     0.037 C 
HETATM   14  C15 UNL     1     -11.324  -6.177   5.330  1.00  0.00     0.056 C 
HETATM   15  C14 UNL     1     -10.924  -6.292   3.851  1.00  0.00     0.126 C 
HETATM   16  C16 UNL     1     -10.547  -5.066   6.042  1.00  0.00     0.097 C 
HETATM   17  C17 UNL     1     -11.288  -3.776   5.687  1.00  0.00     0.050 C 
HETATM   18  O8  UNL     1      -9.329  -5.002   5.434  1.00  0.00    -0.377 OA
HETATM   19  C21 UNL     1     -10.494  -5.297   7.537  1.00  0.00     0.121 C 
HETATM   20  C18 UNL     1      -8.434  -4.099   5.911  1.00  0.00     0.171 C 
HETATM   21  C19 UNL     1      -8.121  -4.426   7.336  1.00  0.00     0.061 C 
HETATM   22  C20 UNL     1      -9.420  -4.470   8.120  1.00  0.00     0.158 C 
BRANCH  15  23
HETATM   23  O7  UNL     1     -10.383  -5.156   3.306  1.00  0.00    -0.395 OA
ATOM     24  H7  UNL     1     -10.925  -4.377   3.312  1.00  0.00     0.210 HD
ENDBRANCH  15  23
BRANCH  22  25
HETATM   25  O9  UNL     1      -9.871  -3.117   8.019  1.00  0.00    -0.392 OA
ATOM     26  H9  UNL     1      -9.268  -2.757   7.380  1.00  0.00     0.210 HD
ENDBRANCH  22  25
BRANCH  19  27
HETATM   27  O10 UNL     1     -11.709  -4.702   7.977  1.00  0.00    -0.384 OA
ATOM     28  H10 UNL     1     -11.695  -4.645   8.925  1.00  0.00     0.210 HD
ENDBRANCH  19  27
ENDBRANCH   5  10
BRANCH   3  29
HETATM   29  O5  UNL     1     -12.251  -6.358  11.872  1.00  0.00    -0.368 OA
ATOM     30  H5  UNL     1     -12.597  -5.515  12.140  1.00  0.00     0.212 HD
ENDBRANCH   3  29
BRANCH   7  31
HETATM   31  O11 UNL     1      -8.561  -9.655   9.305  1.00  0.00    -0.390 OA
ATOM     32  H11 UNL     1      -8.709 -10.555   9.571  1.00  0.00     0.210 HD
ENDBRANCH   7  31
BRANCH   1  33
HETATM   33  O3  UNL     1     -11.854 -10.014  10.302  1.00  0.00    -0.350 OA
BRANCH  33  34
HETATM   34  C5  UNL     1     -11.607 -11.162   9.572  1.00  0.00     0.289 C 
HETATM   35  C4  UNL     1     -12.806 -12.074   9.707  1.00  0.00     0.175 C 
HETATM   36  C3  UNL     1     -12.403 -13.476  10.104  1.00  0.00     0.071 C 
HETATM   37  C2  UNL     1     -11.752 -13.380  11.486  1.00  0.00     0.152 C 
HETATM   38  C26 UNL     1     -10.885 -12.144  11.450  1.00  0.00     0.149 C 
HETATM   39  O12 UNL     1     -10.517 -11.808  10.154  1.00  0.00    -0.351 OA
HETATM   40  C27 UNL     1      -9.580 -12.365  12.218  1.00  0.00     0.042 C 
BRANCH  35  41
HETATM   41  O2  UNL     1     -13.509 -12.179   8.503  1.00  0.00    -0.391 OA
ATOM     42  H2  UNL     1     -14.099 -11.436   8.463  1.00  0.00     0.210 HD
ENDBRANCH  35  41
BRANCH  37  43
HETATM   43  O1  UNL     1     -10.992 -14.479  11.780  1.00  0.00    -0.388 OA
HETATM   44  C1  UNL     1     -11.196 -15.480  10.852  1.00  0.00     0.202 C 
ENDBRANCH  37  43
ENDBRANCH  33  34
ENDBRANCH   1  33
BRANCH   2  45
HETATM   45  O4  UNL     1     -13.512  -8.367  11.015  1.00  0.00    -0.388 OA
ATOM     46  H4  UNL     1     -13.849  -7.668  11.564  1.00  0.00     0.210 HD
ENDBRANCH   2  45
TORSDOF 11
ENDMDL
MODEL 2
REMARK VINA RESULT: -6.414264892      2.982      7.696
REMARK  11 active torsions:
REMARK  status: ('A' for Active; 'I' for Inactive)
REMARK    1  A    between atoms: O1_2  and  C2_3 
REMARK    2  A    between atoms: C4_5  and  O2_6 
REMARK    3  A    between atoms: C5_8  and  O3_9 
REMARK    4  A    between atoms: O3_9  and  C6_10 
REMARK    5  A    between atoms: C7_11  and  O4_12 
REMARK    6  A    between atoms: C8_14  and  O5_15 
REMARK    7  A    between atoms: C9_18  and  C10_19 
REMARK    8  A    between atoms: C14_23  and  O7_24 
REMARK    9  A    between atoms: C20_32  and  O9_33 
REMARK   10  A    between atoms: C21_35  and  O10_36 
REMARK   11  A    between atoms: C23_39  and  O11_41 
ROOT
HETATM    1  C6  UNL     1     -11.905  -8.603   9.320  1.00  0.00     0.168 C 
HETATM    2  C7  UNL     1     -13.355  -9.037   8.996  1.00  0.00     0.202 C 
HETATM    3  C8  UNL     1     -13.755 -10.316   9.629  1.00  0.00     0.289 C 
HETATM    4  O6  UNL     1     -13.195 -10.739  10.802  1.00  0.00    -0.347 OA
HETATM    5  C9  UNL     1     -12.066 -10.032  11.227  1.00  0.00     0.082 C 
HETATM    6  C22 UNL     1     -10.800 -10.757  11.574  1.00  0.00     0.077 C 
HETATM    7  C23 UNL     1     -10.034 -10.122  10.394  1.00  0.00     0.066 C 
HETATM    8  C24 UNL     1      -9.270 -11.297   9.725  1.00  0.00     0.046 C 
HETATM    9  C25 UNL     1     -11.365  -9.817   9.929  1.00  0.00     0.087 C 
ENDROOT
BRANCH   5  10
HETATM   10  C10 UNL     1     -12.536  -8.982  12.106  1.00  0.00     0.061 C 
HETATM   11  C11 UNL     1     -11.624  -7.957  12.674  1.00  0.00     0.016 C 
HETATM   12  C12 UNL     1     -12.463  -6.742  13.120  1.00  0.00    -0.002 C 
HETATM   13  C13 UNL     1     -12.009  -6.071  14.359  1.00  0.00     0.037 C 
HETATM   14  C15 UNL     1     -13.724  -7.136  13.778  1.00  0.00     0.056 C 
HETATM   15  C14 UNL     1     -13.433  -6.077  14.852  1.00  0.00     0.126 C 
HETATM   16  C16 UNL     1     -13.629  -8.556  14.343  1.00  0.00     0.097 C 
HETATM   17  C17 UNL     1     -14.976  -8.802  15.024  1.00  0.00     0.050 C 
HETATM   18  O8  UNL     1     -12.689  -8.512  15.330  1.00  0.00    -0.377 OA
HETATM   19  C21 UNL     1     -13.350  -9.569  13.253  1.00  0.00     0.121 C 
HETATM   20  C18 UNL     1     -12.399  -9.672  15.975  1.00  0.00     0.171 C 
HETATM   21  C19 UNL     1     -11.857 -10.657  14.990  1.00  0.00     0.061 C 
HETATM   22  C20 UNL     1     -12.861 -10.820  13.864  1.00  0.00     0.158 C 
BRANCH  15  23
HETATM   23  O7  UNL     1     -13.639  -6.488  16.144  1.00  0.00    -0.395 OA
ATOM     24  H7  UNL     1     -14.534  -6.476  16.461  1.00  0.00     0.210 HD
ENDBRANCH  15  23
BRANCH  22  25
HETATM   25  O9  UNL     1     -13.983 -11.384  14.549  1.00  0.00    -0.392 OA
ATOM     26  H9  UNL     1     -14.699 -11.162  13.967  1.00  0.00     0.210 HD
ENDBRANCH  22  25
BRANCH  19  27
HETATM   27  O10 UNL     1     -14.658  -9.867  12.779  1.00  0.00    -0.384 OA
ATOM     28  H10 UNL     1     -15.277  -9.740  13.488  1.00  0.00     0.210 HD
ENDBRANCH  19  27
ENDBRANCH   5  10
BRANCH   3  29
HETATM   29  O5  UNL     1     -13.811 -11.413   8.724  1.00  0.00    -0.368 OA
ATOM     30  H5  UNL     1     -14.485 -11.328   8.060  1.00  0.00     0.212 HD
ENDBRANCH   3  29
BRANCH   7  31
HETATM   31  O11 UNL     1      -9.075  -9.218  10.679  1.00  0.00    -0.390 OA
ATOM     32  H11 UNL     1      -8.576  -8.857   9.955  1.00  0.00     0.210 HD
ENDBRANCH   7  31
BRANCH   1  33
HETATM   33  O3  UNL     1     -11.238  -8.415   8.102  1.00  0.00    -0.350 OA
BRANCH  33  34
HETATM   34  C5  UNL     1     -10.645  -7.171   8.001  1.00  0.00     0.289 C 
HETATM   35  C4  UNL     1     -10.860  -6.658   6.594  1.00  0.00     0.175 C 
HETATM   36  C3  UNL     1      -9.569  -6.184   5.966  1.00  0.00     0.071 C 
HETATM   37  C2  UNL     1      -8.647  -7.402   5.866  1.00  0.00     0.152 C 
HETATM   38  C26 UNL     1      -8.821  -8.161   7.160  1.00  0.00     0.149 C 
HETATM   39  O12 UNL     1      -9.273  -7.339   8.184  1.00  0.00    -0.351 OA
HETATM   40  C27 UNL     1      -7.490  -8.745   7.638  1.00  0.00     0.042 C 
BRANCH  35  41
HETATM   41  O2  UNL     1     -11.744  -5.575   6.573  1.00  0.00    -0.391 OA
ATOM     42  H2  UNL     1     -11.872  -5.306   7.475  1.00  0.00     0.210 HD
ENDBRANCH  35  41
BRANCH  37  43
HETATM   43  O1  UNL     1      -7.336  -7.049   5.701  1.00  0.00    -0.388 OA
HETATM   44  C1  UNL     1      -6.954  -7.178   4.380  1.00  0.00     0.202 C 
ENDBRANCH  37  43
ENDBRANCH  33  34
ENDBRANCH   1  33
BRANCH   2  45
HETATM   45  O4  UNL     1     -13.509  -9.172   7.609  1.00  0.00    -0.388 OA
ATOM     46  H4  UNL     1     -14.384  -9.488   7.413  1.00  0.00     0.210 HD
ENDBRANCH   2  45
TORSDOF 11
ENDMDL
MODEL 3
REMARK VINA RESULT: -6.383605414     10.886     14.485
REMARK  11 active torsions:
REMARK  status: ('A' for Active; 'I' for Inactive)
REMARK    1  A    between atoms: O1_2  and  C2_3 
REMARK    2  A    between atoms: C4_5  and  O2_6 
REMARK    3  A    between atoms: C5_8  and  O3_9 
REMARK    4  A    between atoms: O3_9  and  C6_10 
REMARK    5  A    between atoms: C7_11  and  O4_12 
REMARK    6  A    between atoms: C8_14  and  O5_15 
REMARK    7  A    between atoms: C9_18  and  C10_19 
REMARK    8  A    between atoms: C14_23  and  O7_24 
REMARK    9  A    between atoms: C20_32  and  O9_33 
REMARK   10  A    between atoms: C21_35  and  O10_36 
REMARK   11  A    between atoms: C23_39  and  O11_41 
ROOT
HETATM    1  C6  UNL     1     -17.609   2.599   6.813  1.00  0.00     0.168 C 
HETATM    2  C7  UNL     1     -19.008   1.938   6.788  1.00  0.00     0.202 C 
HETATM    3  C8  UNL     1     -20.113   2.855   7.155  1.00  0.00     0.289 C 
HETATM    4  O6  UNL     1     -20.025   4.203   6.940  1.00  0.00    -0.347 OA
HETATM    5  C9  UNL     1     -18.758   4.682   6.594  1.00  0.00     0.082 C 
HETATM    6  C22 UNL     1     -18.142   5.819   7.353  1.00  0.00     0.077 C 
HETATM    7  C23 UNL     1     -17.012   4.926   7.906  1.00  0.00     0.066 C 
HETATM    8  C24 UNL     1     -16.926   5.266   9.419  1.00  0.00     0.046 C 
HETATM    9  C25 UNL     1     -17.894   3.863   7.491  1.00  0.00     0.087 C 
ENDROOT
BRANCH   5  10
HETATM   10  C10 UNL     1     -18.693   4.687   5.148  1.00  0.00     0.061 C 
HETATM   11  C11 UNL     1     -17.439   4.990   4.413  1.00  0.00     0.016 C 
HETATM   12  C12 UNL     1     -17.559   4.432   2.980  1.00  0.00    -0.002 C 
HETATM   13  C13 UNL     1     -16.941   5.258   1.917  1.00  0.00     0.037 C 
HETATM   14  C15 UNL     1     -18.896   4.657   2.396  1.00  0.00     0.056 C 
HETATM   15  C14 UNL     1     -18.199   5.103   1.102  1.00  0.00     0.126 C 
HETATM   16  C16 UNL     1     -19.608   5.824   3.086  1.00  0.00     0.097 C 
HETATM   17  C17 UNL     1     -20.943   5.961   2.353  1.00  0.00     0.050 C 
HETATM   18  O8  UNL     1     -18.881   6.940   2.796  1.00  0.00    -0.377 OA
HETATM   19  C21 UNL     1     -19.797   5.561   4.565  1.00  0.00     0.121 C 
HETATM   20  C18 UNL     1     -19.300   8.118   3.326  1.00  0.00     0.171 C 
HETATM   21  C19 UNL     1     -19.260   8.027   4.818  1.00  0.00     0.061 C 
HETATM   22  C20 UNL     1     -20.091   6.834   5.252  1.00  0.00     0.158 C 
BRANCH  15  23
HETATM   23  O7  UNL     1     -18.709   6.240   0.529  1.00  0.00    -0.395 OA
ATOM     24  H7  UNL     1     -19.483   6.614   0.934  1.00  0.00     0.210 HD
ENDBRANCH  15  23
BRANCH  22  25
HETATM   25  O9  UNL     1     -21.401   7.215   4.823  1.00  0.00    -0.392 OA
ATOM     26  H9  UNL     1     -21.801   7.494   5.638  1.00  0.00     0.210 HD
ENDBRANCH  22  25
BRANCH  19  27
HETATM   27  O10 UNL     1     -21.017   4.830   4.587  1.00  0.00    -0.384 OA
ATOM     28  H10 UNL     1     -20.820   3.905   4.501  1.00  0.00     0.210 HD
ENDBRANCH  19  27
ENDBRANCH   5  10
BRANCH   3  29
HETATM   29  O5  UNL     1     -20.638   2.631   8.458  1.00  0.00    -0.368 OA
ATOM     30  H5  UNL     1     -20.164   3.084   9.146  1.00  0.00     0.212 HD
ENDBRANCH   3  29
BRANCH   7  31
HETATM   31  O11 UNL     1     -15.761   5.133   7.446  1.00  0.00    -0.390 OA
ATOM     32  H11 UNL     1     -15.538   4.782   6.592  1.00  0.00     0.210 HD
ENDBRANCH   7  31
BRANCH   1  33
HETATM   33  O3  UNL     1     -16.798   1.841   7.668  1.00  0.00    -0.350 OA
BRANCH  33  34
HETATM   34  C5  UNL     1     -15.539   1.609   7.147  1.00  0.00     0.289 C 
HETATM   35  C4  UNL     1     -15.243   0.130   7.269  1.00  0.00     0.175 C 
HETATM   36  C3  UNL     1     -13.898  -0.122   7.910  1.00  0.00     0.071 C 
HETATM   37  C2  UNL     1     -13.968   0.442   9.332  1.00  0.00     0.152 C 
HETATM   38  C26 UNL     1     -14.707   1.754   9.221  1.00  0.00     0.149 C 
HETATM   39  O12 UNL     1     -14.619   2.291   7.943  1.00  0.00    -0.351 OA
HETATM   40  C27 UNL     1     -14.112   2.802  10.164  1.00  0.00     0.042 C 
BRANCH  35  41
HETATM   41  O2  UNL     1     -15.220  -0.492   6.017  1.00  0.00    -0.391 OA
ATOM     42  H2  UNL     1     -14.359  -0.335   5.647  1.00  0.00     0.210 HD
ENDBRANCH  35  41
BRANCH  37  43
HETATM   43  O1  UNL     1     -12.727   0.646   9.871  1.00  0.00    -0.388 OA
HETATM   44  C1  UNL     1     -12.088  -0.556  10.104  1.00  0.00     0.202 C 
ENDBRANCH  37  43
ENDBRANCH  33  34
ENDBRANCH   1  33
BRANCH   2  45
HETATM   45  O4  UNL     1     -19.033   0.852   7.674  1.00  0.00    -0.388 OA
ATOM     46  H4  UNL     1     -19.931   0.660   7.920  1.00  0.00     0.210 HD
ENDBRANCH   2  45
TORSDOF 11
ENDMDL
MODEL 4
REMARK VINA RESULT: -6.363749449      2.411      4.539
REMARK  11 active torsions:
REMARK  status: ('A' for Active; 'I' for Inactive)
REMARK    1  A    between atoms: O1_2  and  C2_3 
REMARK    2  A    between atoms: C4_5  and  O2_6 
REMARK    3  A    between atoms: C5_8  and  O3_9 
REMARK    4  A    between atoms: O3_9  and  C6_10 
REMARK    5  A    between atoms: C7_11  and  O4_12 
REMARK    6  A    between atoms: C8_14  and  O5_15 
REMARK    7  A    between atoms: C9_18  and  C10_19 
REMARK    8  A    between atoms: C14_23  and  O7_24 
REMARK    9  A    between atoms: C20_32  and  O9_33 
REMARK   10  A    between atoms: C21_35  and  O10_36 
REMARK   11  A    between atoms: C23_39  and  O11_41 
ROOT
HETATM    1  C6  UNL     1     -10.731  -7.710  10.367  1.00  0.00     0.168 C 
HETATM    2  C7  UNL     1      -9.190  -7.863  10.414  1.00  0.00     0.202 C 
HETATM    3  C8  UNL     1      -8.622  -8.586   9.252  1.00  0.00     0.289 C 
HETATM    4  O6  UNL     1      -9.239  -8.577   8.032  1.00  0.00    -0.347 OA
HETATM    5  C9  UNL     1     -10.540  -8.063   8.012  1.00  0.00     0.082 C 
HETATM    6  C22 UNL     1     -11.660  -8.855   7.406  1.00  0.00     0.077 C 
HETATM    7  C23 UNL     1     -12.370  -9.019   8.766  1.00  0.00     0.066 C 
HETATM    8  C24 UNL     1     -12.768 -10.517   8.840  1.00  0.00     0.046 C 
HETATM    9  C25 UNL     1     -11.082  -8.625   9.282  1.00  0.00     0.087 C 
ENDROOT
BRANCH   5  10
HETATM   10  C10 UNL     1     -10.429  -6.654   7.702  1.00  0.00     0.061 C 
HETATM   11  C11 UNL     1     -11.621  -5.782   7.543  1.00  0.00     0.016 C 
HETATM   12  C12 UNL     1     -11.187  -4.313   7.726  1.00  0.00    -0.002 C 
HETATM   13  C13 UNL     1     -11.867  -3.331   6.851  1.00  0.00     0.037 C 
HETATM   14  C15 UNL     1      -9.895  -4.020   7.075  1.00  0.00     0.056 C 
HETATM   15  C14 UNL     1     -10.523  -2.730   6.527  1.00  0.00     0.126 C 
HETATM   16  C16 UNL     1      -9.601  -5.026   5.958  1.00  0.00     0.097 C 
HETATM   17  C17 UNL     1      -8.271  -4.571   5.357  1.00  0.00     0.050 C 
HETATM   18  O8  UNL     1     -10.555  -4.825   5.005  1.00  0.00    -0.377 OA
HETATM   19  C21 UNL     1      -9.530  -6.441   6.490  1.00  0.00     0.121 C 
HETATM   20  C18 UNL     1     -10.526  -5.627   3.909  1.00  0.00     0.171 C 
HETATM   21  C19 UNL     1     -10.719  -7.047   4.334  1.00  0.00     0.061 C 
HETATM   22  C20 UNL     1      -9.664  -7.391   5.369  1.00  0.00     0.158 C 
BRANCH  15  23
HETATM   23  O7  UNL     1     -10.263  -2.473   5.206  1.00  0.00    -0.395 OA
ATOM     24  H7  UNL     1      -9.350  -2.464   4.942  1.00  0.00     0.210 HD
ENDBRANCH  15  23
BRANCH  22  25
HETATM   25  O9  UNL     1      -8.458  -7.271   4.610  1.00  0.00    -0.392 OA
ATOM     26  H9  UNL     1      -7.805  -7.568   5.233  1.00  0.00     0.210 HD
ENDBRANCH  22  25
BRANCH  19  27
HETATM   27  O10 UNL     1      -8.173  -6.537   6.907  1.00  0.00    -0.384 OA
ATOM     28  H10 UNL     1      -8.130  -6.386   7.843  1.00  0.00     0.210 HD
ENDBRANCH  19  27
ENDBRANCH   5  10
BRANCH   3  29
HETATM   29  O5  UNL     1      -8.210  -9.915   9.549  1.00  0.00    -0.368 OA
ATOM     30  H5  UNL     1      -7.269 -10.016   9.635  1.00  0.00     0.212 HD
ENDBRANCH   3  29
BRANCH   7  31
HETATM   31  O11 UNL     1     -13.529  -8.356   8.957  1.00  0.00    -0.390 OA
ATOM     32  H11 UNL     1     -13.489  -7.412   9.060  1.00  0.00     0.210 HD
ENDBRANCH   7  31
BRANCH   1  33
HETATM   33  O3  UNL     1     -11.245  -8.252  11.552  1.00  0.00    -0.350 OA
BRANCH  33  34
HETATM   34  C5  UNL     1     -12.292  -7.512  12.070  1.00  0.00     0.289 C 
HETATM   35  C4  UNL     1     -12.047  -7.320  13.550  1.00  0.00     0.175 C 
HETATM   36  C3  UNL     1     -13.260  -7.693  14.373  1.00  0.00     0.071 C 
HETATM   37  C2  UNL     1     -13.510  -9.187  14.147  1.00  0.00     0.152 C 
HETATM   38  C26 UNL     1     -13.283  -9.426  12.674  1.00  0.00     0.149 C 
HETATM   39  O12 UNL     1     -13.455  -8.267  11.928  1.00  0.00    -0.351 OA
HETATM   40  C27 UNL     1     -14.288 -10.440  12.120  1.00  0.00     0.042 C 
BRANCH  35  41
HETATM   41  O2  UNL     1     -11.746  -5.989  13.852  1.00  0.00    -0.391 OA
ATOM     42  H2  UNL     1     -12.290  -5.449  13.291  1.00  0.00     0.210 HD
ENDBRANCH  35  41
BRANCH  37  43
HETATM   43  O1  UNL     1     -14.781  -9.558  14.493  1.00  0.00    -0.388 OA
HETATM   44  C1  UNL     1     -15.477  -8.492  15.026  1.00  0.00     0.202 C 
ENDBRANCH  37  43
ENDBRANCH  33  34
ENDBRANCH   1  33
BRANCH   2  45
HETATM   45  O4  UNL     1      -8.819  -8.550  11.579  1.00  0.00    -0.388 OA
ATOM     46  H4  UNL     1      -9.597  -8.849  12.035  1.00  0.00     0.210 HD
ENDBRANCH   2  45
TORSDOF 11
ENDMDL
MODEL 5
REMARK VINA RESULT: -6.311155247      2.893      7.893
REMARK  11 active torsions:
REMARK  status: ('A' for Active; 'I' for Inactive)
REMARK    1  A    between atoms: O1_2  and  C2_3 
REMARK    2  A    between atoms: C4_5  and  O2_6 
REMARK    3  A    between atoms: C5_8  and  O3_9 
REMARK    4  A    between atoms: O3_9  and  C6_10 
REMARK    5  A    between atoms: C7_11  and  O4_12 
REMARK    6  A    between atoms: C8_14  and  O5_15 
REMARK    7  A    between atoms: C9_18  and  C10_19 
REMARK    8  A    between atoms: C14_23  and  O7_24 
REMARK    9  A    between atoms: C20_32  and  O9_33 
REMARK   10  A    between atoms: C21_35  and  O10_36 
REMARK   11  A    between atoms: C23_39  and  O11_41 
ROOT
HETATM    1  C6  UNL     1     -12.018  -9.067   9.235  1.00  0.00     0.168 C 
HETATM    2  C7  UNL     1     -13.484  -9.037   8.738  1.00  0.00     0.202 C 
HETATM    3  C8  UNL     1     -14.316 -10.152   9.249  1.00  0.00     0.289 C 
HETATM    4  O6  UNL     1     -14.047 -10.754  10.447  1.00  0.00    -0.347 OA
HETATM    5  C9  UNL     1     -12.816 -10.429  11.028  1.00  0.00     0.082 C 
HETATM    6  C22 UNL     1     -11.871 -11.510  11.460  1.00  0.00     0.077 C 
HETATM    7  C23 UNL     1     -10.820 -11.105  10.406  1.00  0.00     0.066 C 
HETATM    8  C24 UNL     1     -10.364 -12.437   9.752  1.00  0.00     0.046 C 
HETATM    9  C25 UNL     1     -11.937 -10.402   9.825  1.00  0.00     0.087 C 
ENDROOT
BRANCH   5  10
HETATM   10  C10 UNL     1     -13.054  -9.310  11.914  1.00  0.00     0.061 C 
HETATM   11  C11 UNL     1     -11.946  -8.508  12.493  1.00  0.00     0.016 C 
HETATM   12  C12 UNL     1     -12.506  -7.145  12.946  1.00  0.00    -0.002 C 
HETATM   13  C13 UNL     1     -11.925  -6.596  14.192  1.00  0.00     0.037 C 
HETATM   14  C15 UNL     1     -13.825  -7.264  13.598  1.00  0.00     0.056 C 
HETATM   15  C14 UNL     1     -13.319  -6.300  14.681  1.00  0.00     0.126 C 
HETATM   16  C16 UNL     1     -14.039  -8.676  14.152  1.00  0.00     0.097 C 
HETATM   17  C17 UNL     1     -15.411  -8.631  14.827  1.00  0.00     0.050 C 
HETATM   18  O8  UNL     1     -13.117  -8.841  15.141  1.00  0.00    -0.377 OA
HETATM   19  C21 UNL     1     -13.981  -9.717  13.054  1.00  0.00     0.121 C 
HETATM   20  C18 UNL     1     -13.085 -10.040  15.777  1.00  0.00     0.171 C 
HETATM   21  C19 UNL     1     -12.762 -11.112  14.786  1.00  0.00     0.061 C 
HETATM   22  C20 UNL     1     -13.773 -11.048  13.656  1.00  0.00     0.158 C 
BRANCH  15  23
HETATM   23  O7  UNL     1     -13.614  -6.667  15.969  1.00  0.00    -0.395 OA
ATOM     24  H7  UNL     1     -12.960  -7.180  16.430  1.00  0.00     0.210 HD
ENDBRANCH  15  23
BRANCH  22  25
HETATM   25  O9  UNL     1     -14.993 -11.363  14.334  1.00  0.00    -0.392 OA
ATOM     26  H9  UNL     1     -15.630 -11.289  13.634  1.00  0.00     0.210 HD
ENDBRANCH  22  25
BRANCH  19  27
HETATM   27  O10 UNL     1     -15.320  -9.724  12.574  1.00  0.00    -0.384 OA
ATOM     28  H10 UNL     1     -15.674 -10.600  12.670  1.00  0.00     0.210 HD
ENDBRANCH  19  27
ENDBRANCH   5  10
BRANCH   3  29
HETATM   29  O5  UNL     1     -14.588 -11.157   8.280  1.00  0.00    -0.368 OA
ATOM     30  H5  UNL     1     -15.085 -11.893   8.619  1.00  0.00     0.212 HD
ENDBRANCH   3  29
BRANCH   7  31
HETATM   31  O11 UNL     1      -9.676 -10.539  10.841  1.00  0.00    -0.390 OA
ATOM     32  H11 UNL     1      -9.595 -10.359  11.771  1.00  0.00     0.210 HD
ENDBRANCH   7  31
BRANCH   1  33
HETATM   33  O3  UNL     1     -11.189  -9.057   8.107  1.00  0.00    -0.350 OA
BRANCH  33  34
HETATM   34  C5  UNL     1     -10.072  -8.258   8.268  1.00  0.00     0.289 C 
HETATM   35  C4  UNL     1     -10.353  -7.275   9.383  1.00  0.00     0.175 C 
HETATM   36  C3  UNL     1     -10.039  -5.855   8.972  1.00  0.00     0.071 C 
HETATM   37  C2  UNL     1     -10.980  -5.506   7.816  1.00  0.00     0.152 C 
HETATM   38  C26 UNL     1     -11.029  -6.733   6.937  1.00  0.00     0.149 C 
HETATM   39  O12 UNL     1      -9.901  -7.527   7.094  1.00  0.00    -0.351 OA
HETATM   40  C27 UNL     1     -11.077  -6.349   5.457  1.00  0.00     0.042 C 
BRANCH  35  41
HETATM   41  O2  UNL     1      -9.581  -7.550  10.516  1.00  0.00    -0.391 OA
ATOM     42  H2  UNL     1      -9.693  -8.474  10.708  1.00  0.00     0.210 HD
ENDBRANCH  35  41
BRANCH  37  43
HETATM   43  O1  UNL     1     -10.540  -4.430   7.095  1.00  0.00    -0.388 OA
HETATM   44  C1  UNL     1      -9.516  -3.781   7.755  1.00  0.00     0.202 C 
ENDBRANCH  37  43
ENDBRANCH  33  34
ENDBRANCH   1  33
BRANCH   2  45
HETATM   45  O4  UNL     1     -13.508  -9.083   7.337  1.00  0.00    -0.388 OA
ATOM     46  H4  UNL     1     -13.681  -8.215   6.991  1.00  0.00     0.210 HD
ENDBRANCH   2  45
TORSDOF 11
ENDMDL
