MODEL 1
REMARK VINA RESULT: -7.571387229      0.000      0.000
REMARK  9 active torsions:
REMARK  status: ('A' for Active; 'I' for Inactive)
REMARK    1  A    between atoms: N1_5  and  O1_7 
REMARK    2  A    between atoms: C6_10  and  O2_11 
REMARK    3  A    between atoms: C14_22  and  O5_23 
REMARK    4  A    between atoms: C15_25  and  O6_26 
REMARK    5  A    between atoms: O6_26  and  C16_27 
REMARK    6  A    between atoms: C19_31  and  O8_32 
REMARK    7  A    between atoms: C20_34  and  O9_35 
REMARK    8  A    between atoms: C21_37  and  O10_38 
REMARK    9  A    between atoms: C23_41  and  O11_42 
ROOT
HETATM    1  C1  UNL     1      -0.064 -10.910   4.845  1.00  0.00     0.036 C 
HETATM    2  C2  UNL     1      -1.557 -10.952   4.787  1.00  0.00    -0.021 C 
HETATM    3  C3  UNL     1      -2.244 -11.090   5.908  1.00  0.00    -0.026 C 
HETATM    4  C4  UNL     1      -1.675 -11.210   7.263  1.00  0.00     0.041 C 
HETATM    5  N1  UNL     1      -0.460 -11.475   7.589  1.00  0.00    -0.273 N 
ATOM      6  H1  UNL     1       0.244 -11.631   6.868  1.00  0.00     0.194 HD
HETATM    7  C5  UNL     1      -2.793 -10.963   8.249  1.00  0.00     0.101 C 
HETATM    8  C6  UNL     1      -3.740 -10.254   7.387  1.00  0.00     0.104 C 
HETATM    9  C7  UNL     1      -5.166 -10.238   7.648  1.00  0.00     0.200 C 
HETATM   10  O3  UNL     1      -5.507  -9.007   8.256  1.00  0.00    -0.232 OA
HETATM   11  O4  UNL     1      -6.784  -8.805   8.304  1.00  0.00    -0.232 OA
HETATM   12  C8  UNL     1      -7.329  -8.417   7.065  1.00  0.00     0.200 C 
HETATM   13  C9  UNL     1      -6.236  -8.771   6.041  1.00  0.00     0.027 C 
HETATM   14  C10 UNL     1      -6.639  -8.437   4.645  1.00  0.00     0.009 C 
HETATM   15  C11 UNL     1      -6.790  -6.907   4.592  1.00  0.00     0.015 C 
HETATM   16  C12 UNL     1      -7.869  -6.565   5.558  1.00  0.00     0.018 C 
HETATM   17  C13 UNL     1      -9.152  -7.177   5.088  1.00  0.00     0.021 C 
HETATM   18  C14 UNL     1      -8.109  -5.081   5.727  1.00  0.00     0.158 C 
HETATM   19  C15 UNL     1      -8.524  -4.909   7.168  1.00  0.00     0.157 C 
HETATM   20  C22 UNL     1      -8.550  -6.323   7.773  1.00  0.00     0.076 C 
HETATM   21  C23 UNL     1      -7.482  -6.956   6.958  1.00  0.00     0.099 C 
HETATM   22  C24 UNL     1      -5.778 -10.186   6.236  1.00  0.00     0.028 C 
HETATM   23  C25 UNL     1      -4.596 -10.403   5.274  1.00  0.00     0.025 C 
HETATM   24  C26 UNL     1      -3.678 -11.158   6.132  1.00  0.00     0.019 C 
HETATM   25  C27 UNL     1      -4.107 -12.556   6.458  1.00  0.00     0.024 C 
ENDROOT
BRANCH  19  26
HETATM   26  O6  UNL     1      -9.675  -4.223   7.380  1.00  0.00    -0.351 OA
BRANCH  26  27
HETATM   27  C16 UNL     1     -10.786  -5.018   7.639  1.00  0.00     0.292 C 
HETATM   28  O7  UNL     1     -11.753  -4.733   6.731  1.00  0.00    -0.351 OA
HETATM   29  C17 UNL     1     -12.412  -3.558   6.779  1.00  0.00     0.152 C 
HETATM   30  C18 UNL     1     -11.560  -2.495   6.077  1.00  0.00     0.042 C 
HETATM   31  C19 UNL     1     -12.905  -3.141   8.111  1.00  0.00     0.178 C 
HETATM   32  C20 UNL     1     -11.908  -3.363   9.185  1.00  0.00     0.183 C 
HETATM   33  C21 UNL     1     -11.272  -4.717   9.029  1.00  0.00     0.204 C 
BRANCH  31  34
HETATM   34  O8  UNL     1     -13.221  -1.767   8.071  1.00  0.00    -0.390 OA
ATOM     35  H8  UNL     1     -13.455  -1.480   8.946  1.00  0.00     0.210 HD
ENDBRANCH  31  34
BRANCH  32  36
HETATM   36  O9  UNL     1     -10.901  -2.398   9.104  1.00  0.00    -0.390 OA
ATOM     37  H9  UNL     1     -10.479  -2.301   9.948  1.00  0.00     0.210 HD
ENDBRANCH  32  36
BRANCH  33  38
HETATM   38  O10 UNL     1     -12.179  -5.676   9.486  1.00  0.00    -0.388 OA
ATOM     39  H10 UNL     1     -12.637  -6.100   8.770  1.00  0.00     0.210 HD
ENDBRANCH  33  38
ENDBRANCH  26  27
ENDBRANCH  19  26
BRANCH  18  40
HETATM   40  O5  UNL     1      -9.137  -4.624   4.915  1.00  0.00    -0.392 OA
ATOM     41  H5  UNL     1      -9.086  -3.687   4.768  1.00  0.00     0.210 HD
ENDBRANCH  18  40
BRANCH  21  42
HETATM   42  O11 UNL     1      -6.273  -6.350   7.262  1.00  0.00    -0.386 OA
ATOM     43  H11 UNL     1      -6.327  -5.961   8.127  1.00  0.00     0.210 HD
ENDBRANCH  21  42
BRANCH   8  44
HETATM   44  O2  UNL     1      -3.208  -9.021   7.030  1.00  0.00    -0.386 OA
ATOM     45  H2  UNL     1      -3.695  -8.667   6.294  1.00  0.00     0.210 HD
ENDBRANCH   8  44
BRANCH   5  46
HETATM   46  O1  UNL     1      -0.120 -11.545   8.906  1.00  0.00    -0.290 OA
ATOM     47  H1  UNL     1       0.770 -11.771   9.148  1.00  0.00     0.244 HD
ENDBRANCH   5  46
TORSDOF 9
ENDMDL
MODEL 2
REMARK VINA RESULT: -7.346769421      5.809      8.897
REMARK  9 active torsions:
REMARK  status: ('A' for Active; 'I' for Inactive)
REMARK    1  A    between atoms: N1_5  and  O1_7 
REMARK    2  A    between atoms: C6_10  and  O2_11 
REMARK    3  A    between atoms: C14_22  and  O5_23 
REMARK    4  A    between atoms: C15_25  and  O6_26 
REMARK    5  A    between atoms: O6_26  and  C16_27 
REMARK    6  A    between atoms: C19_31  and  O8_32 
REMARK    7  A    between atoms: C20_34  and  O9_35 
REMARK    8  A    between atoms: C21_37  and  O10_38 
REMARK    9  A    between atoms: C23_41  and  O11_42 
ROOT
HETATM    1  C1  UNL     1      -7.071  -7.297   4.084  1.00  0.00     0.036 C 
HETATM    2  C2  UNL     1      -7.304  -6.901   5.506  1.00  0.00    -0.021 C 
HETATM    3  C3  UNL     1      -8.424  -6.275   5.827  1.00  0.00    -0.026 C 
HETATM    4  C4  UNL     1      -9.510  -5.912   4.899  1.00  0.00     0.041 C 
HETATM    5  N1  UNL     1      -9.473  -5.877   3.614  1.00  0.00    -0.273 N 
ATOM      6  H1  UNL     1      -8.616  -6.120   3.118  1.00  0.00     0.194 HD
HETATM    7  C5  UNL     1     -10.724  -5.573   5.731  1.00  0.00     0.101 C 
HETATM    8  C6  UNL     1     -10.370  -6.240   6.984  1.00  0.00     0.104 C 
HETATM    9  C7  UNL     1     -10.901  -5.821   8.265  1.00  0.00     0.200 C 
HETATM   10  O3  UNL     1     -11.953  -6.695   8.634  1.00  0.00    -0.232 OA
HETATM   11  O4  UNL     1     -12.323  -6.548   9.864  1.00  0.00    -0.232 OA
HETATM   12  C8  UNL     1     -11.430  -7.130  10.784  1.00  0.00     0.200 C 
HETATM   13  C9  UNL     1     -10.149  -7.375   9.968  1.00  0.00     0.027 C 
HETATM   14  C10 UNL     1      -9.065  -7.989  10.787  1.00  0.00     0.009 C 
HETATM   15  C11 UNL     1      -9.574  -9.379  11.207  1.00  0.00     0.015 C 
HETATM   16  C12 UNL     1     -10.795  -9.143  12.023  1.00  0.00     0.018 C 
HETATM   17  C13 UNL     1     -10.413  -8.393  13.261  1.00  0.00     0.021 C 
HETATM   18  C14 UNL     1     -11.509 -10.404  12.459  1.00  0.00     0.158 C 
HETATM   19  C15 UNL     1     -12.974 -10.039  12.488  1.00  0.00     0.157 C 
HETATM   20  C22 UNL     1     -13.046  -8.551  12.106  1.00  0.00     0.076 C 
HETATM   21  C23 UNL     1     -11.866  -8.471  11.208  1.00  0.00     0.099 C 
HETATM   22  C24 UNL     1      -9.748  -6.127   9.239  1.00  0.00     0.028 C 
HETATM   23  C25 UNL     1      -8.553  -6.503   8.345  1.00  0.00     0.025 C 
HETATM   24  C26 UNL     1      -8.895  -5.787   7.112  1.00  0.00     0.019 C 
HETATM   25  C27 UNL     1      -8.800  -4.293   7.191  1.00  0.00     0.024 C 
ENDROOT
BRANCH  19  26
HETATM   26  O6  UNL     1     -13.636 -10.322  13.637  1.00  0.00    -0.351 OA
BRANCH  26  27
HETATM   27  C16 UNL     1     -15.023 -10.293  13.530  1.00  0.00     0.292 C 
HETATM   28  O7  UNL     1     -15.481  -9.130  14.055  1.00  0.00    -0.351 OA
HETATM   29  C17 UNL     1     -15.442  -8.916  15.386  1.00  0.00     0.152 C 
HETATM   30  C18 UNL     1     -14.037  -8.432  15.759  1.00  0.00     0.042 C 
HETATM   31  C19 UNL     1     -15.936 -10.022  16.238  1.00  0.00     0.178 C 
HETATM   32  C20 UNL     1     -15.457 -11.350  15.786  1.00  0.00     0.183 C 
HETATM   33  C21 UNL     1     -15.582 -11.464  14.290  1.00  0.00     0.204 C 
BRANCH  31  34
HETATM   34  O8  UNL     1     -15.492  -9.813  17.559  1.00  0.00    -0.390 OA
ATOM     35  H8  UNL     1     -16.136  -9.289  18.021  1.00  0.00     0.210 HD
ENDBRANCH  31  34
BRANCH  32  36
HETATM   36  O9  UNL     1     -14.111 -11.508  16.122  1.00  0.00    -0.390 OA
ATOM     37  H9  UNL     1     -13.717 -12.173  15.570  1.00  0.00     0.210 HD
ENDBRANCH  32  36
BRANCH  33  38
HETATM   38  O10 UNL     1     -16.925 -11.693  13.985  1.00  0.00    -0.388 OA
ATOM     39  H10 UNL     1     -17.079 -11.706  13.048  1.00  0.00     0.210 HD
ENDBRANCH  33  38
ENDBRANCH  26  27
ENDBRANCH  19  26
BRANCH  18  40
HETATM   40  O5  UNL     1     -11.129 -10.804  13.731  1.00  0.00    -0.392 OA
ATOM     41  H5  UNL     1     -11.676 -11.507  14.063  1.00  0.00     0.210 HD
ENDBRANCH  18  40
BRANCH  21  42
HETATM   42  O11 UNL     1     -12.109  -9.246  10.084  1.00  0.00    -0.386 OA
ATOM     43  H11 UNL     1     -12.961  -9.658  10.168  1.00  0.00     0.210 HD
ENDBRANCH  21  42
BRANCH   8  44
HETATM   44  O2  UNL     1     -10.359  -7.616   6.789  1.00  0.00    -0.386 OA
ATOM     45  H2  UNL     1      -9.552  -7.979   7.136  1.00  0.00     0.210 HD
ENDBRANCH   8  44
BRANCH   5  46
HETATM   46  O1  UNL     1     -10.588  -5.514   2.922  1.00  0.00    -0.290 OA
ATOM     47  H1  UNL     1     -10.773  -5.924   2.086  1.00  0.00     0.244 HD
ENDBRANCH   5  46
TORSDOF 9
ENDMDL
MODEL 3
REMARK VINA RESULT: -7.209863306      5.404      8.441
REMARK  9 active torsions:
REMARK  status: ('A' for Active; 'I' for Inactive)
REMARK    1  A    between atoms: N1_5  and  O1_7 
REMARK    2  A    between atoms: C6_10  and  O2_11 
REMARK    3  A    between atoms: C14_22  and  O5_23 
REMARK    4  A    between atoms: C15_25  and  O6_26 
REMARK    5  A    between atoms: O6_26  and  C16_27 
REMARK    6  A    between atoms: C19_31  and  O8_32 
REMARK    7  A    between atoms: C20_34  and  O9_35 
REMARK    8  A    between atoms: C21_37  and  O10_38 
REMARK    9  A    between atoms: C23_41  and  O11_42 
ROOT
HETATM    1  C1  UNL     1     -10.105  -3.176   3.771  1.00  0.00     0.036 C 
HETATM    2  C2  UNL     1      -9.950  -4.552   4.333  1.00  0.00    -0.021 C 
HETATM    3  C3  UNL     1      -9.066  -4.762   5.294  1.00  0.00    -0.026 C 
HETATM    4  C4  UNL     1      -8.182  -3.747   5.894  1.00  0.00     0.041 C 
HETATM    5  N1  UNL     1      -7.901  -2.576   5.442  1.00  0.00    -0.273 N 
ATOM      6  H1  UNL     1      -8.310  -2.252   4.566  1.00  0.00     0.194 HD
HETATM    7  C5  UNL     1      -7.633  -4.324   7.178  1.00  0.00     0.101 C 
HETATM    8  C6  UNL     1      -8.620  -5.376   7.427  1.00  0.00     0.104 C 
HETATM    9  C7  UNL     1      -8.317  -6.556   8.210  1.00  0.00     0.200 C 
HETATM   10  O3  UNL     1      -8.846  -6.391   9.513  1.00  0.00    -0.232 OA
HETATM   11  O4  UNL     1      -8.836  -7.484  10.203  1.00  0.00    -0.232 OA
HETATM   12  C8  UNL     1      -9.856  -8.381   9.833  1.00  0.00     0.200 C 
HETATM   13  C9  UNL     1     -10.344  -7.862   8.470  1.00  0.00     0.027 C 
HETATM   14  C10 UNL     1     -11.436  -8.703   7.902  1.00  0.00     0.009 C 
HETATM   15  C11 UNL     1     -12.631  -8.565   8.860  1.00  0.00     0.015 C 
HETATM   16  C12 UNL     1     -12.173  -9.096  10.171  1.00  0.00     0.018 C 
HETATM   17  C13 UNL     1     -11.861 -10.553  10.022  1.00  0.00     0.021 C 
HETATM   18  C14 UNL     1     -13.184  -8.961  11.288  1.00  0.00     0.158 C 
HETATM   19  C15 UNL     1     -12.366  -8.743  12.539  1.00  0.00     0.157 C 
HETATM   20  C22 UNL     1     -10.894  -8.804  12.097  1.00  0.00     0.076 C 
HETATM   21  C23 UNL     1     -11.032  -8.279  10.714  1.00  0.00     0.099 C 
HETATM   22  C24 UNL     1      -9.180  -7.646   7.548  1.00  0.00     0.028 C 
HETATM   23  C25 UNL     1      -9.743  -6.996   6.272  1.00  0.00     0.025 C 
HETATM   24  C26 UNL     1      -8.720  -5.981   6.005  1.00  0.00     0.019 C 
HETATM   25  C27 UNL     1      -7.392  -6.511   5.555  1.00  0.00     0.024 C 
ENDROOT
BRANCH  19  26
HETATM   26  O6  UNL     1     -12.639  -9.565  13.582  1.00  0.00    -0.351 OA
BRANCH  26  27
HETATM   27  C16 UNL     1     -12.648  -8.942  14.826  1.00  0.00     0.292 C 
HETATM   28  O7  UNL     1     -12.661  -9.892  15.794  1.00  0.00    -0.351 OA
HETATM   29  C17 UNL     1     -13.762 -10.638  16.007  1.00  0.00     0.152 C 
HETATM   30  C18 UNL     1     -13.771 -11.790  14.997  1.00  0.00     0.042 C 
HETATM   31  C19 UNL     1     -15.045  -9.901  16.081  1.00  0.00     0.178 C 
HETATM   32  C20 UNL     1     -15.167  -8.860  15.033  1.00  0.00     0.183 C 
HETATM   33  C21 UNL     1     -13.881  -8.087  14.919  1.00  0.00     0.204 C 
BRANCH  31  34
HETATM   34  O8  UNL     1     -16.106 -10.817  15.927  1.00  0.00    -0.390 OA
ATOM     35  H8  UNL     1     -16.685 -10.504  15.242  1.00  0.00     0.210 HD
ENDBRANCH  31  34
BRANCH  32  36
HETATM   36  O9  UNL     1     -15.423  -9.460  13.797  1.00  0.00    -0.390 OA
ATOM     37  H9  UNL     1     -16.173  -9.045  13.387  1.00  0.00     0.210 HD
ENDBRANCH  32  36
BRANCH  33  38
HETATM   38  O10 UNL     1     -13.819  -7.194  15.991  1.00  0.00    -0.388 OA
ATOM     39  H10 UNL     1     -14.026  -6.305  15.726  1.00  0.00     0.210 HD
ENDBRANCH  33  38
ENDBRANCH  26  27
ENDBRANCH  19  26
BRANCH  18  40
HETATM   40  O5  UNL     1     -13.938 -10.115  11.451  1.00  0.00    -0.392 OA
ATOM     41  H5  UNL     1     -14.871  -9.937  11.432  1.00  0.00     0.210 HD
ENDBRANCH  18  40
BRANCH  21  42
HETATM   42  O11 UNL     1     -11.437  -6.955  10.779  1.00  0.00    -0.386 OA
ATOM     43  H11 UNL     1     -11.616  -6.728  11.684  1.00  0.00     0.210 HD
ENDBRANCH  21  42
BRANCH   8  44
HETATM   44  O2  UNL     1      -9.851  -4.798   7.712  1.00  0.00    -0.386 OA
ATOM     45  H2  UNL     1      -9.977  -4.769   8.654  1.00  0.00     0.210 HD
ENDBRANCH   8  44
BRANCH   5  46
HETATM   46  O1  UNL     1      -7.055  -1.773   6.144  1.00  0.00    -0.290 OA
ATOM     47  H1  UNL     1      -7.381  -0.962   6.516  1.00  0.00     0.244 HD
ENDBRANCH   5  46
TORSDOF 9
ENDMDL
MODEL 4
REMARK VINA RESULT: -7.146804860      5.494      8.743
REMARK  9 active torsions:
REMARK  status: ('A' for Active; 'I' for Inactive)
REMARK    1  A    between atoms: N1_5  and  O1_7 
REMARK    2  A    between atoms: C6_10  and  O2_11 
REMARK    3  A    between atoms: C14_22  and  O5_23 
REMARK    4  A    between atoms: C15_25  and  O6_26 
REMARK    5  A    between atoms: O6_26  and  C16_27 
REMARK    6  A    between atoms: C19_31  and  O8_32 
REMARK    7  A    between atoms: C20_34  and  O9_35 
REMARK    8  A    between atoms: C21_37  and  O10_38 
REMARK    9  A    between atoms: C23_41  and  O11_42 
ROOT
HETATM    1  C1  UNL     1      -9.037  -7.264   2.642  1.00  0.00     0.036 C 
HETATM    2  C2  UNL     1      -8.697  -7.377   4.092  1.00  0.00    -0.021 C 
HETATM    3  C3  UNL     1      -9.037  -6.398   4.915  1.00  0.00    -0.026 C 
HETATM    4  C4  UNL     1      -9.744  -5.160   4.542  1.00  0.00     0.041 C 
HETATM    5  N1  UNL     1      -9.916  -4.672   3.364  1.00  0.00    -0.273 N 
ATOM      6  H1  UNL     1      -9.542  -5.155   2.548  1.00  0.00     0.194 HD
HETATM    7  C5  UNL     1     -10.255  -4.527   5.814  1.00  0.00     0.101 C 
HETATM    8  C6  UNL     1     -10.225  -5.688   6.706  1.00  0.00     0.104 C 
HETATM    9  C7  UNL     1     -10.110  -5.560   8.144  1.00  0.00     0.200 C 
HETATM   10  O3  UNL     1     -11.391  -5.727   8.723  1.00  0.00    -0.232 OA
HETATM   11  O4  UNL     1     -11.349  -5.869  10.008  1.00  0.00    -0.232 OA
HETATM   12  C8  UNL     1     -10.929  -7.152  10.409  1.00  0.00     0.200 C 
HETATM   13  C9  UNL     1     -10.305  -7.761   9.142  1.00  0.00     0.027 C 
HETATM   14  C10 UNL     1      -9.785  -9.139   9.373  1.00  0.00     0.009 C 
HETATM   15  C11 UNL     1     -11.007 -10.012   9.705  1.00  0.00     0.015 C 
HETATM   16  C12 UNL     1     -11.595  -9.445  10.948  1.00  0.00     0.018 C 
HETATM   17  C13 UNL     1     -10.604  -9.587  12.061  1.00  0.00     0.021 C 
HETATM   18  C14 UNL     1     -12.877 -10.113  11.395  1.00  0.00     0.158 C 
HETATM   19  C15 UNL     1     -13.692  -9.015  12.036  1.00  0.00     0.157 C 
HETATM   20  C22 UNL     1     -12.820  -7.750  11.974  1.00  0.00     0.076 C 
HETATM   21  C23 UNL     1     -12.066  -8.034  10.726  1.00  0.00     0.099 C 
HETATM   22  C24 UNL     1      -9.309  -6.813   8.544  1.00  0.00     0.028 C 
HETATM   23  C25 UNL     1      -8.847  -7.437   7.215  1.00  0.00     0.025 C 
HETATM   24  C26 UNL     1      -8.831  -6.257   6.346  1.00  0.00     0.019 C 
HETATM   25  C27 UNL     1      -7.753  -5.258   6.640  1.00  0.00     0.024 C 
ENDROOT
BRANCH  19  26
HETATM   26  O6  UNL     1     -14.162  -9.271  13.282  1.00  0.00    -0.351 OA
BRANCH  26  27
HETATM   27  C16 UNL     1     -13.448  -8.662  14.309  1.00  0.00     0.292 C 
HETATM   28  O7  UNL     1     -13.005  -9.617  15.163  1.00  0.00    -0.351 OA
HETATM   29  C17 UNL     1     -13.867 -10.272  15.966  1.00  0.00     0.152 C 
HETATM   30  C18 UNL     1     -14.508 -11.410  15.164  1.00  0.00     0.042 C 
HETATM   31  C19 UNL     1     -14.845  -9.433  16.696  1.00  0.00     0.178 C 
HETATM   32  C20 UNL     1     -15.438  -8.375  15.843  1.00  0.00     0.183 C 
HETATM   33  C21 UNL     1     -14.366  -7.709  15.024  1.00  0.00     0.204 C 
BRANCH  31  34
HETATM   34  O8  UNL     1     -15.885 -10.257  17.174  1.00  0.00    -0.390 OA
ATOM     35  H8  UNL     1     -16.482 -10.444  16.459  1.00  0.00     0.210 HD
ENDBRANCH  31  34
BRANCH  32  36
HETATM   36  O9  UNL     1     -16.367  -8.939  14.965  1.00  0.00    -0.390 OA
ATOM     37  H9  UNL     1     -17.220  -8.544  15.102  1.00  0.00     0.210 HD
ENDBRANCH  32  36
BRANCH  33  38
HETATM   38  O10 UNL     1     -13.665  -6.835  15.858  1.00  0.00    -0.388 OA
ATOM     39  H10 UNL     1     -13.944  -6.908  16.763  1.00  0.00     0.210 HD
ENDBRANCH  33  38
ENDBRANCH  26  27
ENDBRANCH  19  26
BRANCH  18  40
HETATM   40  O5  UNL     1     -12.648 -11.101  12.341  1.00  0.00    -0.392 OA
ATOM     41  H5  UNL     1     -12.760 -11.973  11.981  1.00  0.00     0.210 HD
ENDBRANCH  18  40
BRANCH  21  42
HETATM   42  O11 UNL     1     -12.952  -8.033   9.660  1.00  0.00    -0.386 OA
ATOM     43  H11 UNL     1     -13.839  -8.110   9.993  1.00  0.00     0.210 HD
ENDBRANCH  21  42
BRANCH   8  44
HETATM   44  O2  UNL     1     -11.168  -6.619   6.285  1.00  0.00    -0.386 OA
ATOM     45  H2  UNL     1     -10.810  -7.132   5.570  1.00  0.00     0.210 HD
ENDBRANCH   8  44
BRANCH   5  46
HETATM   46  O1  UNL     1     -10.603  -3.506   3.216  1.00  0.00    -0.290 OA
ATOM     47  H1  UNL     1     -11.100  -3.354   2.422  1.00  0.00     0.244 HD
ENDBRANCH   5  46
TORSDOF 9
ENDMDL
MODEL 5
REMARK VINA RESULT: -7.117620348      5.839      9.004
REMARK  9 active torsions:
REMARK  status: ('A' for Active; 'I' for Inactive)
REMARK    1  A    between atoms: N1_5  and  O1_7 
REMARK    2  A    between atoms: C6_10  and  O2_11 
REMARK    3  A    between atoms: C14_22  and  O5_23 
REMARK    4  A    between atoms: C15_25  and  O6_26 
REMARK    5  A    between atoms: O6_26  and  C16_27 
REMARK    6  A    between atoms: C19_31  and  O8_32 
REMARK    7  A    between atoms: C20_34  and  O9_35 
REMARK    8  A    between atoms: C21_37  and  O10_38 
REMARK    9  A    between atoms: C23_41  and  O11_42 
ROOT
HETATM    1  C1  UNL     1      -7.073  -7.233   4.114  1.00  0.00     0.036 C 
HETATM    2  C2  UNL     1      -7.307  -6.878   5.547  1.00  0.00    -0.021 C 
HETATM    3  C3  UNL     1      -8.414  -6.236   5.882  1.00  0.00    -0.026 C 
HETATM    4  C4  UNL     1      -9.485  -5.818   4.960  1.00  0.00     0.041 C 
HETATM    5  N1  UNL     1      -9.438  -5.742   3.677  1.00  0.00    -0.273 N 
ATOM      6  H1  UNL     1      -8.584  -5.988   3.178  1.00  0.00     0.194 HD
HETATM    7  C5  UNL     1     -10.696  -5.477   5.795  1.00  0.00     0.101 C 
HETATM    8  C6  UNL     1     -10.366  -6.193   7.028  1.00  0.00     0.104 C 
HETATM    9  C7  UNL     1     -10.896  -5.804   8.319  1.00  0.00     0.200 C 
HETATM   10  O3  UNL     1     -11.969  -6.664   8.652  1.00  0.00    -0.232 OA
HETATM   11  O4  UNL     1     -12.344  -6.548   9.884  1.00  0.00    -0.232 OA
HETATM   12  C8  UNL     1     -11.472  -7.181  10.790  1.00  0.00     0.200 C 
HETATM   13  C9  UNL     1     -10.191  -7.430   9.974  1.00  0.00     0.027 C 
HETATM   14  C10 UNL     1      -9.128  -8.095  10.779  1.00  0.00     0.009 C 
HETATM   15  C11 UNL     1      -9.672  -9.486  11.150  1.00  0.00     0.015 C 
HETATM   16  C12 UNL     1     -10.892  -9.247  11.967  1.00  0.00     0.018 C 
HETATM   17  C13 UNL     1     -10.500  -8.548  13.231  1.00  0.00     0.021 C 
HETATM   18  C14 UNL     1     -11.638 -10.505  12.357  1.00  0.00     0.158 C 
HETATM   19  C15 UNL     1     -13.094 -10.106  12.390  1.00  0.00     0.157 C 
HETATM   20  C22 UNL     1     -13.129  -8.605  12.056  1.00  0.00     0.076 C 
HETATM   21  C23 UNL     1     -11.942  -8.524  11.167  1.00  0.00     0.099 C 
HETATM   22  C24 UNL     1      -9.756  -6.169   9.289  1.00  0.00     0.028 C 
HETATM   23  C25 UNL     1      -8.565  -6.543   8.389  1.00  0.00     0.025 C 
HETATM   24  C26 UNL     1      -8.882  -5.779   7.179  1.00  0.00     0.019 C 
HETATM   25  C27 UNL     1      -8.752  -4.292   7.307  1.00  0.00     0.024 C 
ENDROOT
BRANCH  19  26
HETATM   26  O6  UNL     1     -13.770 -10.411  13.525  1.00  0.00    -0.351 OA
BRANCH  26  27
HETATM   27  C16 UNL     1     -13.822  -9.385  14.463  1.00  0.00     0.292 C 
HETATM   28  O7  UNL     1     -13.236  -9.807  15.610  1.00  0.00    -0.351 OA
HETATM   29  C17 UNL     1     -13.835 -10.732  16.386  1.00  0.00     0.152 C 
HETATM   30  C18 UNL     1     -13.522 -12.120  15.817  1.00  0.00     0.042 C 
HETATM   31  C19 UNL     1     -15.273 -10.515  16.668  1.00  0.00     0.178 C 
HETATM   32  C20 UNL     1     -16.032 -10.093  15.467  1.00  0.00     0.183 C 
HETATM   33  C21 UNL     1     -15.265  -9.042  14.711  1.00  0.00     0.204 C 
BRANCH  31  34
HETATM   34  O8  UNL     1     -15.829 -11.717  17.150  1.00  0.00    -0.390 OA
ATOM     35  H8  UNL     1     -16.650 -11.878  16.699  1.00  0.00     0.210 HD
ENDBRANCH  31  34
BRANCH  32  36
HETATM   36  O9  UNL     1     -16.222 -11.186  14.618  1.00  0.00    -0.390 OA
ATOM     37  H9  UNL     1     -17.130 -11.462  14.647  1.00  0.00     0.210 HD
ENDBRANCH  32  36
BRANCH  33  38
HETATM   38  O10 UNL     1     -15.405  -7.832  15.393  1.00  0.00    -0.388 OA
ATOM     39  H10 UNL     1     -15.779  -7.952  16.258  1.00  0.00     0.210 HD
ENDBRANCH  33  38
ENDBRANCH  26  27
ENDBRANCH  19  26
BRANCH  18  40
HETATM   40  O5  UNL     1     -11.276 -10.955  13.618  1.00  0.00    -0.392 OA
ATOM     41  H5  UNL     1     -11.462 -10.313  14.293  1.00  0.00     0.210 HD
ENDBRANCH  18  40
BRANCH  21  42
HETATM   42  O11 UNL     1     -12.195  -9.256  10.018  1.00  0.00    -0.386 OA
ATOM     43  H11 UNL     1     -11.399  -9.313   9.503  1.00  0.00     0.210 HD
ENDBRANCH  21  42
BRANCH   8  44
HETATM   44  O2  UNL     1     -10.386  -7.562   6.788  1.00  0.00    -0.386 OA
ATOM     45  H2  UNL     1      -9.580  -7.820   6.356  1.00  0.00     0.210 HD
ENDBRANCH   8  44
BRANCH   5  46
HETATM   46  O1  UNL     1     -10.540  -5.330   2.990  1.00  0.00    -0.290 OA
ATOM     47  H1  UNL     1     -11.398  -5.642   3.253  1.00  0.00     0.244 HD
ENDBRANCH   5  46
TORSDOF 9
ENDMDL
