MODEL 1
REMARK VINA RESULT: -8.730877311      0.000      0.000
REMARK  9 active torsions:
REMARK  status: ('A' for Active; 'I' for Inactive)
REMARK    1  A    between atoms: O1_2  and  C2_3 
REMARK    2  A    between atoms: C4_7  and  O3_8 
REMARK    3  A    between atoms: O3_8  and  C5_9 
REMARK    4  A    between atoms: C11_15  and  O4_16 
REMARK    5  A    between atoms: C13_19  and  O5_20 
REMARK    6  A    between atoms: C14_22  and  O6_23 
REMARK    7  A    between atoms: C24_35  and  O8_36 
REMARK    8  A    between atoms: C25_39  and  O10_40 
REMARK    9  A    between atoms: C27_43  and  O11_44 
ROOT
HETATM    1  C2  UNL     1      -1.395  -9.763   6.361  1.00  0.00     0.286 C 
HETATM    2  C3  UNL     1      -0.625  -9.467   5.128  1.00  0.00     0.131 C 
HETATM    3  N1  UNL     1      -0.039  -9.243   4.156  1.00  0.00    -0.191 NA
HETATM    4  O2  UNL     1      -2.453  -8.881   6.385  1.00  0.00    -0.308 OA
HETATM    5  C4  UNL     1      -3.217  -8.974   7.534  1.00  0.00     0.296 C 
HETATM    6  C25 UNL     1      -2.343  -8.637   8.729  1.00  0.00     0.176 C 
HETATM    7  C26 UNL     1      -0.917  -8.326   8.274  1.00  0.00     0.075 C 
HETATM    8  C27 UNL     1      -0.431  -9.555   7.522  1.00  0.00     0.199 C 
ENDROOT
BRANCH   1   9
HETATM    9  O1  UNL     1      -1.772 -11.087   6.379  1.00  0.00    -0.346 OA
HETATM   10  C1  UNL     1      -2.374 -11.503   5.207  1.00  0.00     0.206 C 
ENDBRANCH   1   9
BRANCH   8  11
HETATM   11  O11 UNL     1      -0.473 -10.614   8.426  1.00  0.00    -0.389 OA
ATOM     12  H11 UNL     1       0.261 -10.593   9.029  1.00  0.00     0.210 HD
ENDBRANCH   8  11
BRANCH   5  13
HETATM   13  O3  UNL     1      -4.224  -8.034   7.485  1.00  0.00    -0.329 OA
BRANCH  13  14
HETATM   14  C5  UNL     1      -5.380  -8.480   6.861  1.00  0.00     0.264 C 
HETATM   15  C6  UNL     1      -6.085  -9.556   7.656  1.00  0.00     0.064 C 
HETATM   16  C7  UNL     1      -7.532  -9.315   7.248  1.00  0.00     0.043 C 
HETATM   17  C8  UNL     1      -7.521  -7.956   6.536  1.00  0.00     0.073 C 
HETATM   18  C9  UNL     1      -7.664  -8.194   5.017  1.00  0.00     0.042 C 
HETATM   19  C12 UNL     1      -8.688  -7.146   6.779  1.00  0.00     0.087 C 
HETATM   20  O9  UNL     1      -6.296  -7.458   6.870  1.00  0.00    -0.350 OA
HETATM   21  C10 UNL     1      -8.677  -7.127   4.541  1.00  0.00     0.042 C 
HETATM   22  C11 UNL     1      -8.551  -6.140   5.605  1.00  0.00     0.074 C 
HETATM   23  C15 UNL     1      -9.475  -5.110   5.922  1.00  0.00     0.067 C 
HETATM   24  C14 UNL     1     -10.066  -5.470   7.295  1.00  0.00     0.147 C 
HETATM   25  C16 UNL     1     -10.548  -4.683   4.996  1.00  0.00    -0.008 C 
HETATM   26  C13 UNL     1      -8.865  -6.232   7.891  1.00  0.00     0.168 C 
HETATM   27  C24 UNL     1     -10.412  -4.235   8.040  1.00  0.00     0.200 C 
HETATM   28  C20 UNL     1     -11.749  -3.774   7.483  1.00  0.00     0.057 C 
HETATM   29  O7  UNL     1     -10.713  -4.513   9.359  1.00  0.00    -0.352 OA
HETATM   30  C19 UNL     1     -11.633  -2.833   6.357  1.00  0.00     0.011 C 
HETATM   31  C21 UNL     1     -12.414  -3.137   8.664  1.00  0.00     0.015 C 
HETATM   32  C18 UNL     1     -10.869  -3.206   5.176  1.00  0.00     0.005 C 
HETATM   33  C22 UNL     1     -12.549  -1.643   8.541  1.00  0.00     0.012 C 
HETATM   34  C23 UNL     1     -11.513  -3.474   9.825  1.00  0.00     0.176 C 
HETATM   35  C17 UNL     1     -10.151  -4.813   3.526  1.00  0.00     0.010 C 
BRANCH  22  36
HETATM   36  O4  UNL     1      -7.208  -5.681   5.584  1.00  0.00    -0.389 OA
ATOM     37  H4  UNL     1      -7.134  -5.015   6.258  1.00  0.00     0.210 HD
ENDBRANCH  22  36
BRANCH  24  38
HETATM   38  O6  UNL     1     -11.141  -6.294   7.240  1.00  0.00    -0.381 OA
ATOM     39  H6  UNL     1     -11.145  -6.752   6.407  1.00  0.00     0.211 HD
ENDBRANCH  24  38
BRANCH  26  40
HETATM   40  O5  UNL     1      -7.792  -5.379   8.087  1.00  0.00    -0.392 OA
ATOM     41  H5  UNL     1      -7.020  -5.809   8.435  1.00  0.00     0.210 HD
ENDBRANCH  26  40
BRANCH  27  42
HETATM   42  O8  UNL     1      -9.453  -3.235   7.932  1.00  0.00    -0.363 OA
ATOM     43  H8  UNL     1      -9.472  -2.614   8.650  1.00  0.00     0.213 HD
ENDBRANCH  27  42
ENDBRANCH  13  14
ENDBRANCH   5  13
BRANCH   6  44
HETATM   44  O10 UNL     1      -2.792  -7.498   9.397  1.00  0.00    -0.391 OA
ATOM     45  H10 UNL     1      -3.615  -7.652   9.844  1.00  0.00     0.210 HD
ENDBRANCH   6  44
TORSDOF 9
ENDMDL
MODEL 2
REMARK VINA RESULT: -7.595132135      4.016      8.782
REMARK  9 active torsions:
REMARK  status: ('A' for Active; 'I' for Inactive)
REMARK    1  A    between atoms: O1_2  and  C2_3 
REMARK    2  A    between atoms: C4_7  and  O3_8 
REMARK    3  A    between atoms: O3_8  and  C5_9 
REMARK    4  A    between atoms: C11_15  and  O4_16 
REMARK    5  A    between atoms: C13_19  and  O5_20 
REMARK    6  A    between atoms: C14_22  and  O6_23 
REMARK    7  A    between atoms: C24_35  and  O8_36 
REMARK    8  A    between atoms: C25_39  and  O10_40 
REMARK    9  A    between atoms: C27_43  and  O11_44 
ROOT
HETATM    1  C2  UNL     1     -12.225  -8.937  10.973  1.00  0.00     0.286 C 
HETATM    2  C3  UNL     1     -13.119  -8.872  12.154  1.00  0.00     0.131 C 
HETATM    3  N1  UNL     1     -13.805  -8.808  13.084  1.00  0.00    -0.191 NA
HETATM    4  O2  UNL     1     -12.393  -7.755  10.287  1.00  0.00    -0.308 OA
HETATM    5  C4  UNL     1     -11.687  -7.704   9.099  1.00  0.00     0.296 C 
HETATM    6  C25 UNL     1     -12.188  -8.811   8.187  1.00  0.00     0.176 C 
HETATM    7  C26 UNL     1     -13.285  -9.617   8.884  1.00  0.00     0.075 C 
HETATM    8  C27 UNL     1     -12.673 -10.150  10.169  1.00  0.00     0.199 C 
ENDROOT
BRANCH   1   9
HETATM    9  O1  UNL     1     -10.927  -9.171  11.371  1.00  0.00    -0.346 OA
HETATM   10  C1  UNL     1     -10.519  -8.363  12.415  1.00  0.00     0.206 C 
ENDBRANCH   1   9
BRANCH   8  11
HETATM   11  O11 UNL     1     -11.595 -10.949   9.793  1.00  0.00    -0.389 OA
ATOM     12  H11 UNL     1     -11.834 -11.868   9.751  1.00  0.00     0.210 HD
ENDBRANCH   8  11
BRANCH   5  13
HETATM   13  O3  UNL     1     -11.945  -6.506   8.469  1.00  0.00    -0.329 OA
BRANCH  13  14
HETATM   14  C5  UNL     1     -10.805  -5.830   8.060  1.00  0.00     0.264 C 
HETATM   15  C6  UNL     1     -10.122  -5.109   9.200  1.00  0.00     0.064 C 
HETATM   16  C7  UNL     1      -8.673  -5.144   8.737  1.00  0.00     0.043 C 
HETATM   17  C8  UNL     1      -8.653  -6.141   7.570  1.00  0.00     0.073 C 
HETATM   18  C9  UNL     1      -8.526  -5.351   6.250  1.00  0.00     0.042 C 
HETATM   19  C12 UNL     1      -7.464  -6.952   7.499  1.00  0.00     0.087 C 
HETATM   20  O9  UNL     1      -9.864  -6.759   7.691  1.00  0.00    -0.350 OA
HETATM   21  C10 UNL     1      -7.489  -6.138   5.414  1.00  0.00     0.042 C 
HETATM   22  C11 UNL     1      -7.584  -7.453   6.034  1.00  0.00     0.074 C 
HETATM   23  C15 UNL     1      -6.632  -8.503   5.949  1.00  0.00     0.067 C 
HETATM   24  C14 UNL     1      -6.042  -8.664   7.359  1.00  0.00     0.147 C 
HETATM   25  C16 UNL     1      -5.554  -8.527   4.934  1.00  0.00    -0.008 C 
HETATM   26  C13 UNL     1      -7.258  -8.209   8.191  1.00  0.00     0.168 C 
HETATM   27  C24 UNL     1      -5.660 -10.078   7.593  1.00  0.00     0.200 C 
HETATM   28  C20 UNL     1      -4.316 -10.264   6.909  1.00  0.00     0.057 C 
HETATM   29  O7  UNL     1      -5.358 -10.303   8.922  1.00  0.00    -0.352 OA
HETATM   30  C19 UNL     1      -4.415 -10.722   5.513  1.00  0.00     0.011 C 
HETATM   31  C21 UNL     1      -3.627 -11.277   7.771  1.00  0.00     0.015 C 
HETATM   32  C18 UNL     1      -5.195  -9.956   4.553  1.00  0.00     0.005 C 
HETATM   33  C22 UNL     1      -3.456 -12.615   7.101  1.00  0.00     0.012 C 
HETATM   34  C23 UNL     1      -4.529 -11.420   8.970  1.00  0.00     0.176 C 
HETATM   35  C17 UNL     1      -5.964  -7.869   3.617  1.00  0.00     0.010 C 
BRANCH  22  36
HETATM   36  O4  UNL     1      -8.915  -7.905   5.839  1.00  0.00    -0.389 OA
ATOM     37  H4  UNL     1      -8.954  -8.796   6.167  1.00  0.00     0.210 HD
ENDBRANCH  22  36
BRANCH  24  38
HETATM   38  O6  UNL     1      -4.989  -7.851   7.618  1.00  0.00    -0.381 OA
ATOM     39  H6  UNL     1      -4.932  -7.698   8.554  1.00  0.00     0.211 HD
ENDBRANCH  24  38
BRANCH  26  40
HETATM   40  O5  UNL     1      -8.308  -9.101   8.052  1.00  0.00    -0.392 OA
ATOM     41  H5  UNL     1      -8.937  -8.850   7.387  1.00  0.00     0.210 HD
ENDBRANCH  26  40
BRANCH  27  42
HETATM   42  O8  UNL     1      -6.594 -10.990   7.117  1.00  0.00    -0.363 OA
ATOM     43  H8  UNL     1      -6.977 -11.530   7.798  1.00  0.00     0.213 HD
ENDBRANCH  27  42
ENDBRANCH  13  14
ENDBRANCH   5  13
BRANCH   6  44
HETATM   44  O10 UNL     1     -12.761  -8.304   7.022  1.00  0.00    -0.391 OA
ATOM     45  H10 UNL     1     -13.670  -8.565   6.933  1.00  0.00     0.210 HD
ENDBRANCH   6  44
TORSDOF 9
ENDMDL
MODEL 3
REMARK VINA RESULT: -7.562070727      5.063      8.253
REMARK  9 active torsions:
REMARK  status: ('A' for Active; 'I' for Inactive)
REMARK    1  A    between atoms: O1_2  and  C2_3 
REMARK    2  A    between atoms: C4_7  and  O3_8 
REMARK    3  A    between atoms: O3_8  and  C5_9 
REMARK    4  A    between atoms: C11_15  and  O4_16 
REMARK    5  A    between atoms: C13_19  and  O5_20 
REMARK    6  A    between atoms: C14_22  and  O6_23 
REMARK    7  A    between atoms: C24_35  and  O8_36 
REMARK    8  A    between atoms: C25_39  and  O10_40 
REMARK    9  A    between atoms: C27_43  and  O11_44 
ROOT
HETATM    1  C2  UNL     1      -9.101  -5.859   4.609  1.00  0.00     0.286 C 
HETATM    2  C3  UNL     1      -8.852  -6.409   3.255  1.00  0.00     0.131 C 
HETATM    3  N1  UNL     1      -8.651  -6.855   2.206  1.00  0.00    -0.191 NA
HETATM    4  O2  UNL     1     -10.154  -6.574   5.136  1.00  0.00    -0.308 OA
HETATM    5  C4  UNL     1     -10.567  -6.111   6.372  1.00  0.00     0.296 C 
HETATM    6  C25 UNL     1     -11.047  -4.677   6.219  1.00  0.00     0.176 C 
HETATM    7  C26 UNL     1     -10.901  -4.220   4.768  1.00  0.00     0.075 C 
HETATM    8  C27 UNL     1      -9.432  -4.386   4.413  1.00  0.00     0.199 C 
ENDROOT
BRANCH   1   9
HETATM    9  O1  UNL     1      -7.952  -5.919   5.365  1.00  0.00    -0.346 OA
HETATM   10  C1  UNL     1      -7.269  -7.114   5.233  1.00  0.00     0.206 C 
ENDBRANCH   1   9
BRANCH   8  11
HETATM   11  O11 UNL     1      -8.719  -3.573   5.292  1.00  0.00    -0.389 OA
ATOM     12  H11 UNL     1      -8.323  -2.833   4.847  1.00  0.00     0.210 HD
ENDBRANCH   8  11
BRANCH   5  13
HETATM   13  O3  UNL     1     -11.642  -6.859   6.801  1.00  0.00    -0.329 OA
BRANCH  13  14
HETATM   14  C5  UNL     1     -11.288  -7.981   7.536  1.00  0.00     0.264 C 
HETATM   15  C6  UNL     1      -9.812  -8.010   7.867  1.00  0.00     0.064 C 
HETATM   16  C7  UNL     1      -9.827  -8.772   9.185  1.00  0.00     0.043 C 
HETATM   17  C8  UNL     1     -11.303  -8.806   9.606  1.00  0.00     0.073 C 
HETATM   18  C9  UNL     1     -11.853 -10.228   9.361  1.00  0.00     0.042 C 
HETATM   19  C12 UNL     1     -11.520  -8.689  11.026  1.00  0.00     0.087 C 
HETATM   20  O9  UNL     1     -11.867  -7.881   8.777  1.00  0.00    -0.350 OA
HETATM   21  C10 UNL     1     -12.692 -10.552  10.619  1.00  0.00     0.042 C 
HETATM   22  C11 UNL     1     -12.981  -9.210  11.105  1.00  0.00     0.074 C 
HETATM   23  C15 UNL     1     -13.405  -8.853  12.412  1.00  0.00     0.067 C 
HETATM   24  C14 UNL     1     -12.246  -8.063  13.039  1.00  0.00     0.147 C 
HETATM   25  C16 UNL     1     -13.939  -9.838  13.379  1.00  0.00    -0.008 C 
HETATM   26  C13 UNL     1     -11.643  -7.446  11.761  1.00  0.00     0.168 C 
HETATM   27  C24 UNL     1     -12.772  -7.054  13.992  1.00  0.00     0.200 C 
HETATM   28  C20 UNL     1     -13.072  -7.812  15.275  1.00  0.00     0.057 C 
HETATM   29  O7  UNL     1     -11.785  -6.172  14.385  1.00  0.00    -0.352 OA
HETATM   30  C19 UNL     1     -14.449  -8.326  15.355  1.00  0.00     0.011 C 
HETATM   31  C21 UNL     1     -12.802  -6.800  16.345  1.00  0.00     0.015 C 
HETATM   32  C18 UNL     1     -14.961  -9.196  14.306  1.00  0.00     0.005 C 
HETATM   33  C22 UNL     1     -14.044  -6.336  17.058  1.00  0.00     0.012 C 
HETATM   34  C23 UNL     1     -12.174  -5.642  15.611  1.00  0.00     0.176 C 
HETATM   35  C17 UNL     1     -14.698 -10.981  12.704  1.00  0.00     0.010 C 
BRANCH  22  36
HETATM   36  O4  UNL     1     -13.728  -8.557  10.091  1.00  0.00    -0.389 OA
ATOM     37  H4  UNL     1     -14.543  -9.037   9.996  1.00  0.00     0.210 HD
ENDBRANCH  22  36
BRANCH  24  38
HETATM   38  O6  UNL     1     -11.312  -8.834  13.650  1.00  0.00    -0.381 OA
ATOM     39  H6  UNL     1     -10.959  -8.368  14.399  1.00  0.00     0.211 HD
ENDBRANCH  24  38
BRANCH  26  40
HETATM   40  O5  UNL     1     -12.526  -6.545  11.189  1.00  0.00    -0.392 OA
ATOM     41  H5  UNL     1     -12.132  -5.992  10.525  1.00  0.00     0.210 HD
ENDBRANCH  26  40
BRANCH  27  42
HETATM   42  O8  UNL     1     -13.900  -6.390  13.527  1.00  0.00    -0.363 OA
ATOM     43  H8  UNL     1     -14.057  -6.515  12.598  1.00  0.00     0.213 HD
ENDBRANCH  27  42
ENDBRANCH  13  14
ENDBRANCH   5  13
BRANCH   6  44
HETATM   44  O10 UNL     1     -12.400  -4.547   6.531  1.00  0.00    -0.391 OA
ATOM     45  H10 UNL     1     -12.530  -4.272   7.430  1.00  0.00     0.210 HD
ENDBRANCH   6  44
TORSDOF 9
ENDMDL
MODEL 4
REMARK VINA RESULT: -7.290006154      4.968      8.041
REMARK  9 active torsions:
REMARK  status: ('A' for Active; 'I' for Inactive)
REMARK    1  A    between atoms: O1_2  and  C2_3 
REMARK    2  A    between atoms: C4_7  and  O3_8 
REMARK    3  A    between atoms: O3_8  and  C5_9 
REMARK    4  A    between atoms: C11_15  and  O4_16 
REMARK    5  A    between atoms: C13_19  and  O5_20 
REMARK    6  A    between atoms: C14_22  and  O6_23 
REMARK    7  A    between atoms: C24_35  and  O8_36 
REMARK    8  A    between atoms: C25_39  and  O10_40 
REMARK    9  A    between atoms: C27_43  and  O11_44 
ROOT
HETATM    1  C2  UNL     1     -11.858 -10.250  13.896  1.00  0.00     0.286 C 
HETATM    2  C3  UNL     1     -10.953 -11.393  13.623  1.00  0.00     0.131 C 
HETATM    3  N1  UNL     1     -10.262 -12.295  13.403  1.00  0.00    -0.191 NA
HETATM    4  O2  UNL     1     -12.280  -9.781  12.672  1.00  0.00    -0.308 OA
HETATM    5  C4  UNL     1     -13.065  -8.646  12.761  1.00  0.00     0.296 C 
HETATM    6  C25 UNL     1     -12.245  -7.535  13.394  1.00  0.00     0.176 C 
HETATM    7  C26 UNL     1     -10.842  -8.038  13.734  1.00  0.00     0.075 C 
HETATM    8  C27 UNL     1     -11.028  -9.228  14.662  1.00  0.00     0.199 C 
ENDROOT
BRANCH   1   9
HETATM    9  O1  UNL     1     -12.883 -10.644  14.727  1.00  0.00    -0.346 OA
HETATM   10  C1  UNL     1     -13.493 -11.819  14.328  1.00  0.00     0.206 C 
ENDBRANCH   1   9
BRANCH   8  11
HETATM   11  O11 UNL     1     -11.701  -8.752  15.786  1.00  0.00    -0.389 OA
ATOM     12  H11 UNL     1     -11.235  -8.034  16.199  1.00  0.00     0.210 HD
ENDBRANCH   8  11
BRANCH   5  13
HETATM   13  O3  UNL     1     -13.408  -8.231  11.492  1.00  0.00    -0.329 OA
BRANCH  13  14
HETATM   14  C5  UNL     1     -12.679  -8.846  10.485  1.00  0.00     0.264 C 
HETATM   15  C6  UNL     1     -13.559  -9.350   9.363  1.00  0.00     0.064 C 
HETATM   16  C7  UNL     1     -12.609  -9.241   8.179  1.00  0.00     0.043 C 
HETATM   17  C8  UNL     1     -11.431  -8.402   8.692  1.00  0.00     0.073 C 
HETATM   18  C9  UNL     1     -10.225  -9.338   8.925  1.00  0.00     0.042 C 
HETATM   19  C12 UNL     1     -10.871  -7.501   7.718  1.00  0.00     0.087 C 
HETATM   20  O9  UNL     1     -11.921  -7.888   9.857  1.00  0.00    -0.350 OA
HETATM   21  C10 UNL     1      -9.010  -8.571   8.351  1.00  0.00     0.042 C 
HETATM   22  C11 UNL     1      -9.507  -7.203   8.398  1.00  0.00     0.074 C 
HETATM   23  C15 UNL     1      -8.998  -6.089   7.680  1.00  0.00     0.067 C 
HETATM   24  C14 UNL     1     -10.086  -5.697   6.668  1.00  0.00     0.147 C 
HETATM   25  C16 UNL     1      -7.668  -6.095   7.030  1.00  0.00    -0.008 C 
HETATM   26  C13 UNL     1     -11.333  -6.152   7.452  1.00  0.00     0.168 C 
HETATM   27  C24 UNL     1     -10.046  -4.236   6.417  1.00  0.00     0.200 C 
HETATM   28  C20 UNL     1      -8.915  -4.015   5.426  1.00  0.00     0.057 C 
HETATM   29  O7  UNL     1     -11.156  -3.817   5.708  1.00  0.00    -0.352 OA
HETATM   30  C19 UNL     1      -7.612  -3.748   6.058  1.00  0.00     0.011 C 
HETATM   31  C21 UNL     1      -9.384  -2.841   4.622  1.00  0.00     0.015 C 
HETATM   32  C18 UNL     1      -7.062  -4.699   7.013  1.00  0.00     0.005 C 
HETATM   33  C22 UNL     1      -8.585  -1.589   4.868  1.00  0.00     0.012 C 
HETATM   34  C23 UNL     1     -10.809  -2.631   5.067  1.00  0.00     0.176 C 
HETATM   35  C17 UNL     1      -6.645  -6.949   7.777  1.00  0.00     0.010 C 
BRANCH  22  36
HETATM   36  O4  UNL     1      -9.761  -6.903   9.762  1.00  0.00    -0.389 OA
ATOM     37  H4  UNL     1      -9.221  -6.153   9.984  1.00  0.00     0.210 HD
ENDBRANCH  22  36
BRANCH  24  38
HETATM   38  O6  UNL     1     -10.023  -6.370   5.492  1.00  0.00    -0.381 OA
ATOM     39  H6  UNL     1      -9.121  -6.612   5.316  1.00  0.00     0.211 HD
ENDBRANCH  24  38
BRANCH  26  40
HETATM   40  O5  UNL     1     -11.501  -5.385   8.593  1.00  0.00    -0.392 OA
ATOM     41  H5  UNL     1     -12.389  -5.073   8.716  1.00  0.00     0.210 HD
ENDBRANCH  26  40
BRANCH  27  42
HETATM   42  O8  UNL     1      -9.857  -3.481   7.568  1.00  0.00    -0.363 OA
ATOM     43  H8  UNL     1     -10.293  -2.637   7.543  1.00  0.00     0.213 HD
ENDBRANCH  27  42
ENDBRANCH  13  14
ENDBRANCH   5  13
BRANCH   6  44
HETATM   44  O10 UNL     1     -12.069  -6.460  12.524  1.00  0.00    -0.391 OA
ATOM     45  H10 UNL     1     -12.869  -6.247  12.058  1.00  0.00     0.210 HD
ENDBRANCH   6  44
TORSDOF 9
ENDMDL
MODEL 5
REMARK VINA RESULT: -7.268980132      4.833      7.685
REMARK  9 active torsions:
REMARK  status: ('A' for Active; 'I' for Inactive)
REMARK    1  A    between atoms: O1_2  and  C2_3 
REMARK    2  A    between atoms: C4_7  and  O3_8 
REMARK    3  A    between atoms: O3_8  and  C5_9 
REMARK    4  A    between atoms: C11_15  and  O4_16 
REMARK    5  A    between atoms: C13_19  and  O5_20 
REMARK    6  A    between atoms: C14_22  and  O6_23 
REMARK    7  A    between atoms: C24_35  and  O8_36 
REMARK    8  A    between atoms: C25_39  and  O10_40 
REMARK    9  A    between atoms: C27_43  and  O11_44 
ROOT
HETATM    1  C2  UNL     1     -12.450  -9.028   9.696  1.00  0.00     0.286 C 
HETATM    2  C3  UNL     1     -12.703  -7.823  10.522  1.00  0.00     0.131 C 
HETATM    3  N1  UNL     1     -12.889  -6.872  11.155  1.00  0.00    -0.191 NA
HETATM    4  O2  UNL     1     -13.114  -8.835   8.505  1.00  0.00    -0.308 OA
HETATM    5  C4  UNL     1     -13.048  -9.925   7.657  1.00  0.00     0.296 C 
HETATM    6  C25 UNL     1     -13.710 -11.112   8.336  1.00  0.00     0.176 C 
HETATM    7  C26 UNL     1     -14.211 -10.717   9.725  1.00  0.00     0.075 C 
HETATM    8  C27 UNL     1     -12.999 -10.207  10.488  1.00  0.00     0.199 C 
ENDROOT
BRANCH   1   9
HETATM    9  O1  UNL     1     -11.096  -9.230   9.553  1.00  0.00    -0.346 OA
HETATM   10  C1  UNL     1     -10.355  -8.770  10.625  1.00  0.00     0.206 C 
ENDBRANCH   1   9
BRANCH   8  11
HETATM   11  O11 UNL     1     -12.091 -11.264  10.540  1.00  0.00    -0.389 OA
ATOM     12  H11 UNL     1     -12.122 -11.715  11.375  1.00  0.00     0.210 HD
ENDBRANCH   8  11
BRANCH   5  13
HETATM   13  O3  UNL     1     -13.768  -9.654   6.513  1.00  0.00    -0.329 OA
BRANCH  13  14
HETATM   14  C5  UNL     1     -13.076  -8.896   5.580  1.00  0.00     0.264 C 
HETATM   15  C6  UNL     1     -13.928  -7.799   4.982  1.00  0.00     0.064 C 
HETATM   16  C7  UNL     1     -12.872  -6.749   4.671  1.00  0.00     0.043 C 
HETATM   17  C8  UNL     1     -11.611  -7.225   5.406  1.00  0.00     0.073 C 
HETATM   18  C9  UNL     1     -10.621  -7.797   4.368  1.00  0.00     0.042 C 
HETATM   19  C12 UNL     1     -10.811  -6.165   5.966  1.00  0.00     0.087 C 
HETATM   20  O9  UNL     1     -12.102  -8.187   6.240  1.00  0.00    -0.350 OA
HETATM   21  C10 UNL     1      -9.241  -7.237   4.784  1.00  0.00     0.042 C 
HETATM   22  C11 UNL     1      -9.482  -6.938   6.189  1.00  0.00     0.074 C 
HETATM   23  C15 UNL     1      -8.717  -6.077   7.018  1.00  0.00     0.067 C 
HETATM   24  C14 UNL     1      -9.619  -4.876   7.340  1.00  0.00     0.147 C 
HETATM   25  C16 UNL     1      -7.357  -5.617   6.656  1.00  0.00    -0.008 C 
HETATM   26  C13 UNL     1     -10.994  -5.571   7.275  1.00  0.00     0.168 C 
HETATM   27  C24 UNL     1      -9.291  -4.337   8.682  1.00  0.00     0.200 C 
HETATM   28  C20 UNL     1      -8.054  -3.475   8.493  1.00  0.00     0.057 C 
HETATM   29  O7  UNL     1     -10.237  -3.422   9.101  1.00  0.00    -0.352 OA
HETATM   30  C19 UNL     1      -6.787  -4.199   8.685  1.00  0.00     0.011 C 
HETATM   31  C21 UNL     1      -8.227  -2.393   9.515  1.00  0.00     0.015 C 
HETATM   32  C18 UNL     1      -6.508  -5.392   7.899  1.00  0.00     0.005 C 
HETATM   33  C22 UNL     1      -7.239  -2.476  10.648  1.00  0.00     0.012 C 
HETATM   34  C23 UNL     1      -9.624  -2.600  10.043  1.00  0.00     0.176 C 
HETATM   35  C17 UNL     1      -6.578  -6.649   5.841  1.00  0.00     0.010 C 
BRANCH  22  36
HETATM   36  O4  UNL     1      -9.799  -8.168   6.823  1.00  0.00    -0.389 OA
ATOM     37  H4  UNL     1     -10.583  -8.018   7.339  1.00  0.00     0.210 HD
ENDBRANCH  22  36
BRANCH  24  38
HETATM   38  O6  UNL     1      -9.574  -3.882   6.419  1.00  0.00    -0.381 OA
ATOM     39  H6  UNL     1      -8.963  -3.213   6.706  1.00  0.00     0.211 HD
ENDBRANCH  24  38
BRANCH  26  40
HETATM   40  O5  UNL     1     -11.121  -6.499   8.296  1.00  0.00    -0.392 OA
ATOM     41  H5  UNL     1     -10.594  -6.302   9.060  1.00  0.00     0.210 HD
ENDBRANCH  26  40
BRANCH  27  42
HETATM   42  O8  UNL     1      -9.072  -5.323   9.637  1.00  0.00    -0.363 OA
ATOM     43  H8  UNL     1      -9.706  -5.312  10.345  1.00  0.00     0.213 HD
ENDBRANCH  27  42
ENDBRANCH  13  14
ENDBRANCH   5  13
BRANCH   6  44
HETATM   44  O10 UNL     1     -14.829 -11.554   7.633  1.00  0.00    -0.391 OA
ATOM     45  H10 UNL     1     -14.602 -11.861   6.763  1.00  0.00     0.210 HD
ENDBRANCH   6  44
TORSDOF 9
ENDMDL
