MODEL 1
REMARK VINA RESULT: -7.743614437      0.000      0.000
REMARK  10 active torsions:
REMARK  status: ('A' for Active; 'I' for Inactive)
REMARK    1  A    between atoms: C3_4  and  O2_5 
REMARK    2  A    between atoms: O2_5  and  C4_6 
REMARK    3  A    between atoms: C6_8  and  O3_9 
REMARK    4  A    between atoms: C7_11  and  O4_12 
REMARK    5  A    between atoms: C8_14  and  O5_15 
REMARK    6  A    between atoms: C16_24  and  C17_25 
REMARK    7  A    between atoms: C22_32  and  O8_33 
REMARK    8  A    between atoms: C25_38  and  O10_39 
REMARK    9  A    between atoms: C26_41  and  O11_42 
REMARK   10  A    between atoms: C27_44  and  O12_45 
ROOT
HETATM    1  C4  UNL     1      -5.840  -7.137   7.179  1.00  0.00     0.266 C 
HETATM    2  C5  UNL     1      -6.926  -6.349   7.794  1.00  0.00     0.102 C 
HETATM    3  C6  UNL     1      -7.908  -5.691   6.836  1.00  0.00     0.107 C 
HETATM    4  C7  UNL     1      -8.679  -6.815   6.202  1.00  0.00     0.143 C 
HETATM    5  C8  UNL     1     -10.039  -6.484   5.676  1.00  0.00     0.159 C 
HETATM    6  C9  UNL     1     -10.878  -5.593   6.487  1.00  0.00     0.050 C 
HETATM    7  C10 UNL     1     -10.177  -5.019   7.708  1.00  0.00     0.031 C 
HETATM    8  C11 UNL     1     -10.407  -5.942   8.841  1.00  0.00     0.022 C 
HETATM    9  C12 UNL     1     -10.998  -3.769   8.052  1.00  0.00     0.238 A 
HETATM   10  C13 UNL     1     -10.558  -3.224   9.415  1.00  0.00     0.075 C 
HETATM   11  C14 UNL     1      -9.085  -3.264   9.583  1.00  0.00     0.006 C 
HETATM   12  C15 UNL     1      -8.255  -4.202   8.850  1.00  0.00     0.014 C 
HETATM   13  C16 UNL     1      -8.744  -4.603   7.444  1.00  0.00     0.010 C 
HETATM   14  O6  UNL     1     -12.377  -4.099   8.087  1.00  0.00    -0.194 OA
HETATM   15  O7  UNL     1     -11.884  -3.212   7.285  1.00  0.00    -0.194 OA
HETATM   16  C22 UNL     1      -7.987  -7.436   4.999  1.00  0.00     0.186 C 
HETATM   17  C23 UNL     1      -6.838  -8.343   5.386  1.00  0.00     0.152 C 
HETATM   18  C24 UNL     1      -7.265  -9.658   5.935  1.00  0.00     0.042 C 
HETATM   19  O9  UNL     1      -5.894  -7.663   5.978  1.00  0.00    -0.354 OA
ENDROOT
BRANCH   1  20
HETATM   20  O2  UNL     1      -5.501  -8.183   8.080  1.00  0.00    -0.329 OA
BRANCH  20  21
HETATM   21  C3  UNL     1      -4.183  -8.532   8.063  1.00  0.00     0.294 C 
HETATM   22  O1  UNL     1      -3.397  -7.678   8.837  1.00  0.00    -0.351 OA
HETATM   23  C2  UNL     1      -2.411  -8.321   9.542  1.00  0.00     0.152 C 
HETATM   24  C1  UNL     1      -1.396  -7.254   9.966  1.00  0.00     0.042 C 
HETATM   25  C27 UNL     1      -1.685  -9.367   8.722  1.00  0.00     0.178 C 
HETATM   26  C26 UNL     1      -2.661 -10.461   8.378  1.00  0.00     0.183 C 
HETATM   27  C25 UNL     1      -4.059  -9.942   8.616  1.00  0.00     0.204 C 
BRANCH  25  28
HETATM   28  O12 UNL     1      -1.076  -8.825   7.605  1.00  0.00    -0.390 OA
ATOM     29  H12 UNL     1      -1.626  -8.881   6.834  1.00  0.00     0.210 HD
ENDBRANCH  25  28
BRANCH  26  30
HETATM   30  O11 UNL     1      -2.492 -11.576   9.201  1.00  0.00    -0.390 OA
ATOM     31  H11 UNL     1      -1.658 -11.969   8.970  1.00  0.00     0.210 HD
ENDBRANCH  26  30
BRANCH  27  32
HETATM   32  O10 UNL     1      -4.969 -10.777   7.941  1.00  0.00    -0.388 OA
ATOM     33  H10 UNL     1      -4.982 -11.626   8.368  1.00  0.00     0.210 HD
ENDBRANCH  27  32
ENDBRANCH  20  21
ENDBRANCH   1  20
BRANCH   3  34
HETATM   34  O3  UNL     1      -7.068  -5.197   5.819  1.00  0.00    -0.386 OA
ATOM     35  H3  UNL     1      -7.311  -4.280   5.772  1.00  0.00     0.210 HD
ENDBRANCH   3  34
BRANCH   4  36
HETATM   36  O4  UNL     1      -8.740  -7.902   7.111  1.00  0.00    -0.381 OA
ATOM     37  H4  UNL     1      -9.650  -8.091   7.305  1.00  0.00     0.211 HD
ENDBRANCH   4  36
BRANCH  13  38
HETATM   38  C17 UNL     1      -8.632  -3.299   6.690  1.00  0.00    -0.002 C 
HETATM   39  C18 UNL     1      -8.920  -3.211   5.265  1.00  0.00     0.005 C 
HETATM   40  C19 UNL     1      -8.456  -1.758   4.979  1.00  0.00     0.000 C 
HETATM   41  C20 UNL     1      -7.078  -1.812   5.566  1.00  0.00     0.000 C 
HETATM   42  C21 UNL     1      -7.370  -2.548   6.888  1.00  0.00     0.005 C 
ENDBRANCH  13  38
BRANCH  16  43
HETATM   43  O8  UNL     1      -7.700  -6.553   3.991  1.00  0.00    -0.390 OA
ATOM     44  H8  UNL     1      -7.027  -6.849   3.389  1.00  0.00     0.210 HD
ENDBRANCH  16  43
BRANCH   5  45
HETATM   45  O5  UNL     1     -10.666  -7.747   5.469  1.00  0.00    -0.392 OA
ATOM     46  H5  UNL     1     -11.258  -7.606   4.740  1.00  0.00     0.210 HD
ENDBRANCH   5  45
TORSDOF 10
ENDMDL
MODEL 2
REMARK VINA RESULT: -7.622264960     12.553     16.769
REMARK  10 active torsions:
REMARK  status: ('A' for Active; 'I' for Inactive)
REMARK    1  A    between atoms: C3_4  and  O2_5 
REMARK    2  A    between atoms: O2_5  and  C4_6 
REMARK    3  A    between atoms: C6_8  and  O3_9 
REMARK    4  A    between atoms: C7_11  and  O4_12 
REMARK    5  A    between atoms: C8_14  and  O5_15 
REMARK    6  A    between atoms: C16_24  and  C17_25 
REMARK    7  A    between atoms: C22_32  and  O8_33 
REMARK    8  A    between atoms: C25_38  and  O10_39 
REMARK    9  A    between atoms: C26_41  and  O11_42 
REMARK   10  A    between atoms: C27_44  and  O12_45 
ROOT
HETATM    1  C4  UNL     1     -16.806   5.592   4.773  1.00  0.00     0.266 C 
HETATM    2  C5  UNL     1     -17.596   4.624   5.559  1.00  0.00     0.102 C 
HETATM    3  C6  UNL     1     -17.193   4.450   7.016  1.00  0.00     0.107 C 
HETATM    4  C7  UNL     1     -17.545   5.744   7.696  1.00  0.00     0.143 C 
HETATM    5  C8  UNL     1     -17.794   5.682   9.169  1.00  0.00     0.159 C 
HETATM    6  C9  UNL     1     -18.556   4.534   9.678  1.00  0.00     0.050 C 
HETATM    7  C10 UNL     1     -18.877   3.485   8.625  1.00  0.00     0.031 C 
HETATM    8  C11 UNL     1     -20.182   3.831   8.021  1.00  0.00     0.022 C 
HETATM    9  C12 UNL     1     -19.153   2.215   9.442  1.00  0.00     0.238 A 
HETATM   10  C13 UNL     1     -19.736   1.133   8.528  1.00  0.00     0.075 C 
HETATM   11  C14 UNL     1     -19.053   1.085   7.212  1.00  0.00     0.006 C 
HETATM   12  C15 UNL     1     -18.371   2.242   6.660  1.00  0.00     0.014 C 
HETATM   13  C16 UNL     1     -17.731   3.213   7.672  1.00  0.00     0.010 C 
HETATM   14  O6  UNL     1     -20.065   2.508  10.486  1.00  0.00    -0.194 OA
HETATM   15  O7  UNL     1     -18.875   2.050  10.699  1.00  0.00    -0.194 OA
HETATM   16  C22 UNL     1     -16.476   6.817   7.573  1.00  0.00     0.186 C 
HETATM   17  C23 UNL     1     -16.445   7.460   6.202  1.00  0.00     0.152 C 
HETATM   18  C24 UNL     1     -17.561   8.413   5.957  1.00  0.00     0.042 C 
HETATM   19  O9  UNL     1     -16.121   6.584   5.290  1.00  0.00    -0.354 OA
ENDROOT
BRANCH   1  20
HETATM   20  O2  UNL     1     -17.661   6.145   3.781  1.00  0.00    -0.329 OA
BRANCH  20  21
HETATM   21  C3  UNL     1     -18.504   5.243   3.201  1.00  0.00     0.294 C 
HETATM   22  O1  UNL     1     -19.845   5.519   3.473  1.00  0.00    -0.351 OA
HETATM   23  C2  UNL     1     -20.680   5.309   2.405  1.00  0.00     0.152 C 
HETATM   24  C1  UNL     1     -22.105   5.221   2.962  1.00  0.00     0.042 C 
HETATM   25  C27 UNL     1     -20.380   4.023   1.664  1.00  0.00     0.178 C 
HETATM   26  C26 UNL     1     -19.013   4.142   1.042  1.00  0.00     0.183 C 
HETATM   27  C25 UNL     1     -18.292   5.295   1.697  1.00  0.00     0.204 C 
BRANCH  25  28
HETATM   28  O12 UNL     1     -20.500   2.911   2.477  1.00  0.00    -0.390 OA
ATOM     29  H12 UNL     1     -21.372   2.828   2.845  1.00  0.00     0.210 HD
ENDBRANCH  25  28
BRANCH  26  30
HETATM   30  O11 UNL     1     -19.094   4.430  -0.322  1.00  0.00    -0.390 OA
ATOM     31  H11 UNL     1     -18.471   3.865  -0.763  1.00  0.00     0.210 HD
ENDBRANCH  26  30
BRANCH  27  32
HETATM   32  O10 UNL     1     -16.916   5.175   1.428  1.00  0.00    -0.388 OA
ATOM     33  H10 UNL     1     -16.717   5.650   0.629  1.00  0.00     0.210 HD
ENDBRANCH  27  32
ENDBRANCH  20  21
ENDBRANCH   1  20
BRANCH   3  34
HETATM   34  O3  UNL     1     -15.786   4.437   6.951  1.00  0.00    -0.386 OA
ATOM     35  H3  UNL     1     -15.532   4.665   7.839  1.00  0.00     0.210 HD
ENDBRANCH   3  34
BRANCH   4  36
HETATM   36  O4  UNL     1     -18.646   6.333   7.022  1.00  0.00    -0.381 OA
ATOM     37  H4  UNL     1     -19.451   6.031   7.425  1.00  0.00     0.211 HD
ENDBRANCH   4  36
BRANCH  13  38
HETATM   38  C17 UNL     1     -16.642   2.360   8.278  1.00  0.00    -0.002 C 
HETATM   39  C18 UNL     1     -15.540   2.946   9.030  1.00  0.00     0.005 C 
HETATM   40  C19 UNL     1     -14.644   1.694   9.226  1.00  0.00     0.000 C 
HETATM   41  C20 UNL     1     -14.549   1.225   7.806  1.00  0.00     0.000 C 
HETATM   42  C21 UNL     1     -16.021   1.368   7.371  1.00  0.00     0.005 C 
ENDBRANCH  13  38
BRANCH  16  43
HETATM   43  O8  UNL     1     -15.247   6.453   8.057  1.00  0.00    -0.390 OA
ATOM     44  H8  UNL     1     -14.920   7.007   8.756  1.00  0.00     0.210 HD
ENDBRANCH  16  43
BRANCH   5  45
HETATM   45  O5  UNL     1     -18.436   6.915   9.481  1.00  0.00    -0.392 OA
ATOM     46  H5  UNL     1     -19.284   6.665   9.827  1.00  0.00     0.210 HD
ENDBRANCH   5  45
TORSDOF 10
ENDMDL
MODEL 3
REMARK VINA RESULT: -7.332645052      3.230      6.498
REMARK  10 active torsions:
REMARK  status: ('A' for Active; 'I' for Inactive)
REMARK    1  A    between atoms: C3_4  and  O2_5 
REMARK    2  A    between atoms: O2_5  and  C4_6 
REMARK    3  A    between atoms: C6_8  and  O3_9 
REMARK    4  A    between atoms: C7_11  and  O4_12 
REMARK    5  A    between atoms: C8_14  and  O5_15 
REMARK    6  A    between atoms: C16_24  and  C17_25 
REMARK    7  A    between atoms: C22_32  and  O8_33 
REMARK    8  A    between atoms: C25_38  and  O10_39 
REMARK    9  A    between atoms: C26_41  and  O11_42 
REMARK   10  A    between atoms: C27_44  and  O12_45 
ROOT
HETATM    1  C4  UNL     1     -11.726  -8.331   7.176  1.00  0.00     0.266 C 
HETATM    2  C5  UNL     1     -10.873  -7.202   7.596  1.00  0.00     0.102 C 
HETATM    3  C6  UNL     1      -9.831  -6.734   6.591  1.00  0.00     0.107 C 
HETATM    4  C7  UNL     1     -10.601  -6.119   5.456  1.00  0.00     0.143 C 
HETATM    5  C8  UNL     1      -9.882  -5.103   4.628  1.00  0.00     0.159 C 
HETATM    6  C9  UNL     1      -9.026  -4.141   5.333  1.00  0.00     0.050 C 
HETATM    7  C10 UNL     1      -8.890  -4.406   6.825  1.00  0.00     0.031 C 
HETATM    8  C11 UNL     1      -9.962  -3.660   7.519  1.00  0.00     0.022 C 
HETATM    9  C12 UNL     1      -7.597  -3.678   7.213  1.00  0.00     0.238 A 
HETATM   10  C13 UNL     1      -7.463  -3.646   8.739  1.00  0.00     0.075 C 
HETATM   11  C14 UNL     1      -7.852  -4.936   9.361  1.00  0.00     0.006 C 
HETATM   12  C15 UNL     1      -8.768  -5.854   8.710  1.00  0.00     0.014 C 
HETATM   13  C16 UNL     1      -8.745  -5.875   7.168  1.00  0.00     0.010 C 
HETATM   14  O6  UNL     1      -7.622  -2.355   6.704  1.00  0.00    -0.194 OA
HETATM   15  O7  UNL     1      -6.711  -3.215   6.384  1.00  0.00    -0.194 OA
HETATM   16  C22 UNL     1     -11.084  -7.124   4.422  1.00  0.00     0.186 C 
HETATM   17  C23 UNL     1     -12.278  -7.927   4.897  1.00  0.00     0.152 C 
HETATM   18  C24 UNL     1     -13.557  -7.167   4.891  1.00  0.00     0.042 C 
HETATM   19  O9  UNL     1     -11.959  -8.661   5.927  1.00  0.00    -0.354 OA
ENDROOT
BRANCH   1  20
HETATM   20  O2  UNL     1     -12.988  -8.181   7.813  1.00  0.00    -0.329 OA
BRANCH  20  21
HETATM   21  C3  UNL     1     -13.154  -8.958   8.921  1.00  0.00     0.294 C 
HETATM   22  O1  UNL     1     -12.494 -10.182   8.814  1.00  0.00    -0.351 OA
HETATM   23  C2  UNL     1     -11.900 -10.593   9.980  1.00  0.00     0.152 C 
HETATM   24  C1  UNL     1     -11.619 -12.093   9.835  1.00  0.00     0.042 C 
HETATM   25  C27 UNL     1     -12.780 -10.391  11.196  1.00  0.00     0.178 C 
HETATM   26  C26 UNL     1     -12.985  -8.912  11.392  1.00  0.00     0.183 C 
HETATM   27  C25 UNL     1     -12.593  -8.205  10.116  1.00  0.00     0.204 C 
BRANCH  25  28
HETATM   28  O12 UNL     1     -13.971 -11.086  11.100  1.00  0.00    -0.390 OA
ATOM     29  H12 UNL     1     -13.902 -11.840  10.528  1.00  0.00     0.210 HD
ENDBRANCH  25  28
BRANCH  26  30
HETATM   30  O11 UNL     1     -12.168  -8.410  12.406  1.00  0.00    -0.390 OA
ATOM     31  H11 UNL     1     -11.308  -8.795  12.287  1.00  0.00     0.210 HD
ENDBRANCH  26  30
BRANCH  27  32
HETATM   32  O10 UNL     1     -13.140  -6.908  10.135  1.00  0.00    -0.388 OA
ATOM     33  H10 UNL     1     -13.003  -6.530  10.995  1.00  0.00     0.210 HD
ENDBRANCH  27  32
ENDBRANCH  20  21
ENDBRANCH   1  20
BRANCH   3  34
HETATM   34  O3  UNL     1      -9.323  -7.945   6.081  1.00  0.00    -0.386 OA
ATOM     35  H3  UNL     1      -8.742  -8.238   6.774  1.00  0.00     0.210 HD
ENDBRANCH   3  34
BRANCH   4  36
HETATM   36  O4  UNL     1     -11.819  -5.592   5.958  1.00  0.00    -0.381 OA
ATOM     37  H4  UNL     1     -11.627  -4.834   6.497  1.00  0.00     0.211 HD
ENDBRANCH   4  36
BRANCH  13  38
HETATM   38  C17 UNL     1      -7.365  -6.419   6.884  1.00  0.00    -0.002 C 
HETATM   39  C18 UNL     1      -7.019  -6.990   5.589  1.00  0.00     0.005 C 
HETATM   40  C19 UNL     1      -5.613  -7.563   5.907  1.00  0.00     0.000 C 
HETATM   41  C20 UNL     1      -5.935  -8.365   7.131  1.00  0.00     0.000 C 
HETATM   42  C21 UNL     1      -6.823  -7.361   7.891  1.00  0.00     0.005 C 
ENDBRANCH  13  38
BRANCH  16  43
HETATM   43  O8  UNL     1     -10.090  -7.872   3.848  1.00  0.00    -0.390 OA
ATOM     44  H8  UNL     1     -10.053  -8.773   4.145  1.00  0.00     0.210 HD
ENDBRANCH  16  43
BRANCH   5  45
HETATM   45  O5  UNL     1     -10.907  -4.446   3.888  1.00  0.00    -0.392 OA
ATOM     46  H5  UNL     1     -10.689  -3.523   3.941  1.00  0.00     0.210 HD
ENDBRANCH   5  45
TORSDOF 10
ENDMDL
MODEL 4
REMARK VINA RESULT: -7.229926946      2.060      2.956
REMARK  10 active torsions:
REMARK  status: ('A' for Active; 'I' for Inactive)
REMARK    1  A    between atoms: C3_4  and  O2_5 
REMARK    2  A    between atoms: O2_5  and  C4_6 
REMARK    3  A    between atoms: C6_8  and  O3_9 
REMARK    4  A    between atoms: C7_11  and  O4_12 
REMARK    5  A    between atoms: C8_14  and  O5_15 
REMARK    6  A    between atoms: C16_24  and  C17_25 
REMARK    7  A    between atoms: C22_32  and  O8_33 
REMARK    8  A    between atoms: C25_38  and  O10_39 
REMARK    9  A    between atoms: C26_41  and  O11_42 
REMARK   10  A    between atoms: C27_44  and  O12_45 
ROOT
HETATM    1  C4  UNL     1      -6.899  -7.346   5.432  1.00  0.00     0.266 C 
HETATM    2  C5  UNL     1      -7.769  -7.545   6.608  1.00  0.00     0.102 C 
HETATM    3  C6  UNL     1      -8.810  -6.466   6.867  1.00  0.00     0.107 C 
HETATM    4  C7  UNL     1      -9.801  -6.573   5.742  1.00  0.00     0.143 C 
HETATM    5  C8  UNL     1     -11.180  -6.061   6.011  1.00  0.00     0.159 C 
HETATM    6  C9  UNL     1     -11.764  -6.353   7.326  1.00  0.00     0.050 C 
HETATM    7  C10 UNL     1     -10.810  -7.038   8.293  1.00  0.00     0.031 C 
HETATM    8  C11 UNL     1     -10.959  -8.499   8.122  1.00  0.00     0.022 C 
HETATM    9  C12 UNL     1     -11.411  -6.745   9.674  1.00  0.00     0.238 A 
HETATM   10  C13 UNL     1     -10.692  -7.585  10.735  1.00  0.00     0.075 C 
HETATM   11  C14 UNL     1      -9.226  -7.632  10.513  1.00  0.00     0.006 C 
HETATM   12  C15 UNL     1      -8.645  -7.431   9.198  1.00  0.00     0.014 C 
HETATM   13  C16 UNL     1      -9.401  -6.483   8.246  1.00  0.00     0.010 C 
HETATM   14  O6  UNL     1     -12.794  -7.055   9.669  1.00  0.00    -0.194 OA
HETATM   15  O7  UNL     1     -12.338  -5.873   9.926  1.00  0.00    -0.194 OA
HETATM   16  C22 UNL     1      -9.394  -5.818   4.487  1.00  0.00     0.186 C 
HETATM   17  C23 UNL     1      -8.312  -6.528   3.700  1.00  0.00     0.152 C 
HETATM   18  C24 UNL     1      -8.795  -7.713   2.942  1.00  0.00     0.042 C 
HETATM   19  O9  UNL     1      -7.210  -6.603   4.396  1.00  0.00    -0.354 OA
ENDROOT
BRANCH   1  20
HETATM   20  O2  UNL     1      -6.542  -8.629   4.935  1.00  0.00    -0.329 OA
BRANCH  20  21
HETATM   21  C3  UNL     1      -5.283  -9.030   5.269  1.00  0.00     0.294 C 
HETATM   22  O1  UNL     1      -4.789  -8.355   6.386  1.00  0.00    -0.351 OA
HETATM   23  C2  UNL     1      -4.068  -9.152   7.239  1.00  0.00     0.152 C 
HETATM   24  C1  UNL     1      -3.249  -8.218   8.137  1.00  0.00     0.042 C 
HETATM   25  C27 UNL     1      -3.110 -10.076   6.517  1.00  0.00     0.178 C 
HETATM   26  C26 UNL     1      -3.917 -11.051   5.701  1.00  0.00     0.183 C 
HETATM   27  C25 UNL     1      -5.325 -10.517   5.579  1.00  0.00     0.204 C 
BRANCH  25  28
HETATM   28  O12 UNL     1      -2.187  -9.382   5.757  1.00  0.00    -0.390 OA
ATOM     29  H12 UNL     1      -1.393  -9.882   5.612  1.00  0.00     0.210 HD
ENDBRANCH  25  28
BRANCH  26  30
HETATM   30  O11 UNL     1      -4.004 -12.296   6.327  1.00  0.00    -0.390 OA
ATOM     31  H11 UNL     1      -3.696 -12.181   7.219  1.00  0.00     0.210 HD
ENDBRANCH  26  30
BRANCH  27  32
HETATM   32  O10 UNL     1      -5.968 -11.185   4.519  1.00  0.00    -0.388 OA
ATOM     33  H10 UNL     1      -5.711 -12.099   4.532  1.00  0.00     0.210 HD
ENDBRANCH  27  32
ENDBRANCH  20  21
ENDBRANCH   1  20
BRANCH   3  34
HETATM   34  O3  UNL     1      -8.095  -5.277   6.620  1.00  0.00    -0.386 OA
ATOM     35  H3  UNL     1      -8.746  -4.724   6.203  1.00  0.00     0.210 HD
ENDBRANCH   3  34
BRANCH   4  36
HETATM   36  O4  UNL     1      -9.840  -7.917   5.289  1.00  0.00    -0.381 OA
ATOM     37  H4  UNL     1      -9.183  -8.033   4.613  1.00  0.00     0.211 HD
ENDBRANCH   4  36
BRANCH  13  38
HETATM   38  C17 UNL     1      -9.260  -5.155   8.951  1.00  0.00    -0.002 C 
HETATM   39  C18 UNL     1      -9.884  -3.944   8.435  1.00  0.00     0.005 C 
HETATM   40  C19 UNL     1      -9.263  -2.887   9.386  1.00  0.00     0.000 C 
HETATM   41  C20 UNL     1      -7.812  -3.227   9.231  1.00  0.00     0.000 C 
HETATM   42  C21 UNL     1      -7.879  -4.764   9.320  1.00  0.00     0.005 C 
ENDBRANCH  13  38
BRANCH  16  43
HETATM   43  O8  UNL     1      -9.173  -4.479   4.675  1.00  0.00    -0.390 OA
ATOM     44  H8  UNL     1      -9.738  -4.073   5.321  1.00  0.00     0.210 HD
ENDBRANCH  16  43
BRANCH   5  45
HETATM   45  O5  UNL     1     -11.977  -6.592   4.956  1.00  0.00    -0.392 OA
ATOM     46  H5  UNL     1     -12.532  -5.871   4.685  1.00  0.00     0.210 HD
ENDBRANCH   5  45
TORSDOF 10
ENDMDL
MODEL 5
REMARK VINA RESULT: -7.206454472      1.923      2.893
REMARK  10 active torsions:
REMARK  status: ('A' for Active; 'I' for Inactive)
REMARK    1  A    between atoms: C3_4  and  O2_5 
REMARK    2  A    between atoms: O2_5  and  C4_6 
REMARK    3  A    between atoms: C6_8  and  O3_9 
REMARK    4  A    between atoms: C7_11  and  O4_12 
REMARK    5  A    between atoms: C8_14  and  O5_15 
REMARK    6  A    between atoms: C16_24  and  C17_25 
REMARK    7  A    between atoms: C22_32  and  O8_33 
REMARK    8  A    between atoms: C25_38  and  O10_39 
REMARK    9  A    between atoms: C26_41  and  O11_42 
REMARK   10  A    between atoms: C27_44  and  O12_45 
ROOT
HETATM    1  C4  UNL     1      -7.442  -6.956   4.261  1.00  0.00     0.266 C 
HETATM    2  C5  UNL     1      -7.711  -6.329   5.570  1.00  0.00     0.102 C 
HETATM    3  C6  UNL     1      -8.652  -5.133   5.564  1.00  0.00     0.107 C 
HETATM    4  C7  UNL     1     -10.008  -5.678   5.211  1.00  0.00     0.143 C 
HETATM    5  C8  UNL     1     -11.190  -4.886   5.669  1.00  0.00     0.159 C 
HETATM    6  C9  UNL     1     -11.134  -4.305   7.016  1.00  0.00     0.050 C 
HETATM    7  C10 UNL     1      -9.797  -4.488   7.717  1.00  0.00     0.031 C 
HETATM    8  C11 UNL     1      -9.852  -5.754   8.480  1.00  0.00     0.022 C 
HETATM    9  C12 UNL     1      -9.788  -3.389   8.788  1.00  0.00     0.238 A 
HETATM   10  C13 UNL     1      -8.608  -3.609   9.740  1.00  0.00     0.075 C 
HETATM   11  C14 UNL     1      -7.375  -4.010   9.018  1.00  0.00     0.006 C 
HETATM   12  C15 UNL     1      -7.424  -4.665   7.724  1.00  0.00     0.014 C 
HETATM   13  C16 UNL     1      -8.604  -4.290   6.805  1.00  0.00     0.010 C 
HETATM   14  O6  UNL     1     -11.005  -3.420   9.514  1.00  0.00    -0.194 OA
HETATM   15  O7  UNL     1     -10.608  -2.385   8.848  1.00  0.00    -0.194 OA
HETATM   16  C22 UNL     1     -10.246  -5.819   3.716  1.00  0.00     0.186 C 
HETATM   17  C23 UNL     1      -9.528  -7.010   3.117  1.00  0.00     0.152 C 
HETATM   18  C24 UNL     1     -10.161  -8.319   3.435  1.00  0.00     0.042 C 
HETATM   19  O9  UNL     1      -8.235  -6.868   3.219  1.00  0.00    -0.354 OA
ENDROOT
BRANCH   1  20
HETATM   20  O2  UNL     1      -7.197  -8.338   4.486  1.00  0.00    -0.329 OA
BRANCH  20  21
HETATM   21  C3  UNL     1      -6.394  -8.599   5.557  1.00  0.00     0.294 C 
HETATM   22  O1  UNL     1      -7.119  -8.994   6.681  1.00  0.00    -0.351 OA
HETATM   23  C2  UNL     1      -6.521  -9.997   7.400  1.00  0.00     0.152 C 
HETATM   24  C1  UNL     1      -7.177 -10.006   8.785  1.00  0.00     0.042 C 
HETATM   25  C27 UNL     1      -5.033  -9.787   7.583  1.00  0.00     0.178 C 
HETATM   26  C26 UNL     1      -4.374  -9.864   6.230  1.00  0.00     0.183 C 
HETATM   27  C25 UNL     1      -5.443  -9.720   5.173  1.00  0.00     0.204 C 
BRANCH  25  28
HETATM   28  O12 UNL     1      -4.748  -8.608   8.247  1.00  0.00    -0.390 OA
ATOM     29  H12 UNL     1      -4.968  -8.654   9.170  1.00  0.00     0.210 HD
ENDBRANCH  25  28
BRANCH  26  30
HETATM   30  O11 UNL     1      -3.761 -11.103   6.028  1.00  0.00    -0.390 OA
ATOM     31  H11 UNL     1      -3.087 -11.191   6.691  1.00  0.00     0.210 HD
ENDBRANCH  26  30
BRANCH  27  32
HETATM   32  O10 UNL     1      -4.824  -9.394   3.951  1.00  0.00    -0.388 OA
ATOM     33  H10 UNL     1      -5.468  -9.453   3.256  1.00  0.00     0.210 HD
ENDBRANCH  27  32
ENDBRANCH  20  21
ENDBRANCH   1  20
BRANCH   3  34
HETATM   34  O3  UNL     1      -8.235  -4.413   4.428  1.00  0.00    -0.386 OA
ATOM     35  H3  UNL     1      -7.690  -3.729   4.800  1.00  0.00     0.210 HD
ENDBRANCH   3  34
BRANCH   4  36
HETATM   36  O4  UNL     1     -10.095  -7.021   5.660  1.00  0.00    -0.381 OA
ATOM     37  H4  UNL     1     -11.005  -7.291   5.651  1.00  0.00     0.211 HD
ENDBRANCH   4  36
BRANCH  13  38
HETATM   38  C17 UNL     1      -8.317  -2.838   6.505  1.00  0.00    -0.002 C 
HETATM   39  C18 UNL     1      -8.809  -2.194   5.295  1.00  0.00     0.005 C 
HETATM   40  C19 UNL     1      -8.073  -0.831   5.388  1.00  0.00     0.000 C 
HETATM   41  C20 UNL     1      -6.668  -1.314   5.584  1.00  0.00     0.000 C 
HETATM   42  C21 UNL     1      -6.901  -2.421   6.629  1.00  0.00     0.005 C 
ENDBRANCH  13  38
BRANCH  16  43
HETATM   43  O8  UNL     1     -10.106  -4.656   3.006  1.00  0.00    -0.390 OA
ATOM     44  H8  UNL     1     -10.783  -4.506   2.358  1.00  0.00     0.210 HD
ENDBRANCH  16  43
BRANCH   5  45
HETATM   45  O5  UNL     1     -12.297  -5.772   5.528  1.00  0.00    -0.392 OA
ATOM     46  H5  UNL     1     -12.695  -5.801   6.390  1.00  0.00     0.210 HD
ENDBRANCH   5  45
TORSDOF 10
ENDMDL
