MODEL 1
REMARK VINA RESULT: -7.645362466      0.000      0.000
REMARK  9 active torsions:
REMARK  status: ('A' for Active; 'I' for Inactive)
REMARK    1  A    between atoms: N1_1  and  S1_4 
REMARK    2  A    between atoms: S1_4  and  N2_7 
REMARK    3  A    between atoms: N2_7  and  C1_9 
REMARK    4  A    between atoms: C1_9  and  C2_10 
REMARK       I    between atoms: C2_10  and  N3_12 
REMARK    5  A    between atoms: C4_15  and  N4_16 
REMARK    6  A    between atoms: N4_16  and  N5_18 
REMARK    7  A    between atoms: C5_20  and  O4_21 
REMARK    8  A    between atoms: C5_20  and  C6_23 
REMARK    9  A    between atoms: C11_32  and  O5_33 
ROOT
HETATM    1  C2  UNL     1      -8.044  16.739 -13.902  1.00  0.00     0.310 C 
HETATM    2  O3  UNL     1      -8.211  15.807 -13.285  1.00  0.00    -0.257 OA
HETATM    3  N3  UNL     1      -8.221  16.908 -15.362  1.00  0.00    -0.310 N 
ATOM      4  H3  UNL     1      -7.755  17.796 -15.552  1.00  0.00     0.170 HD
HETATM    5  C3  UNL     1      -8.646  16.542 -16.522  1.00  0.00     0.120 A 
HETATM    6  C4  UNL     1      -8.330  15.917 -17.683  1.00  0.00     0.116 A 
HETATM    7  C11 UNL     1      -9.582  16.441 -18.142  1.00  0.00     0.149 A 
HETATM    8  C12 UNL     1      -9.978  16.996 -17.178  1.00  0.00     0.236 A 
HETATM    9  O6  UNL     1     -10.709  17.665 -16.381  1.00  0.00    -0.283 OA
ENDROOT
BRANCH   6  10
HETATM   10  N4  UNL     1      -7.284  15.018 -18.017  1.00  0.00    -0.294 N 
ATOM     11  H4  UNL     1      -6.279  15.192 -17.994  1.00  0.00     0.187 HD
BRANCH  10  12
HETATM   12  N5  UNL     1      -7.963  13.806 -18.394  1.00  0.00    -0.280 N 
HETATM   13  C5  UNL     1      -7.731  12.605 -17.873  1.00  0.00     0.158 C 
ATOM     14  H5  UNL     1      -8.678  13.874 -19.119  1.00  0.00     0.189 HD
BRANCH  13  15
HETATM   15  O4  UNL     1      -6.700  12.758 -16.858  1.00  0.00    -0.345 OA
ATOM     16  H4  UNL     1      -6.166  11.972 -16.871  1.00  0.00     0.219 HD
ENDBRANCH  13  15
BRANCH  13  17
HETATM   17  C6  UNL     1      -8.077  11.277 -17.889  1.00  0.00     0.105 C 
HETATM   18  C7  UNL     1      -9.117  10.711 -17.412  1.00  0.00     0.104 C 
HETATM   19  N6  UNL     1     -10.226  11.316 -16.704  1.00  0.00    -0.356 N 
HETATM   20  N7  UNL     1      -9.281   9.315 -17.391  1.00  0.00    -0.376 N 
HETATM   21  C8  UNL     1     -11.161  10.743 -16.129  1.00  0.00     0.064 C 
ATOM     22  H6  UNL     1     -10.239  12.335 -16.675  1.00  0.00     0.166 HD
HETATM   23  C9  UNL     1     -11.190   9.288 -16.119  1.00  0.00     0.064 C 
HETATM   24  C10 UNL     1     -10.673   8.772 -17.454  1.00  0.00     0.126 C 
ATOM     25  H7  UNL     1      -8.476   8.693 -17.333  1.00  0.00     0.161 HD
ENDBRANCH  13  17
ENDBRANCH  10  12
ENDBRANCH   6  10
BRANCH   7  26
HETATM   26  O5  UNL     1      -9.903  16.179 -19.465  1.00  0.00    -0.355 OA
ATOM     27  H5  UNL     1     -10.101  15.274 -19.675  1.00  0.00     0.218 HD
ENDBRANCH   7  26
BRANCH   1  28
HETATM   28  C1  UNL     1      -7.601  18.129 -13.550  1.00  0.00     0.044 C 
BRANCH  28  29
HETATM   29  N2  UNL     1      -7.283  19.327 -13.340  1.00  0.00    -0.228 N 
ATOM     30  H2  UNL     1      -6.895  19.651 -12.454  1.00  0.00     0.190 HD
BRANCH  29  31
HETATM   31  S1  UNL     1      -7.572  20.424 -14.742  1.00  0.00     0.323 S 
HETATM   32  O1  UNL     1      -7.238  21.764 -14.473  1.00  0.00    -0.182 OA
HETATM   33  O2  UNL     1      -6.768  19.820 -15.853  1.00  0.00    -0.182 OA
BRANCH  31  34
HETATM   34  N1  UNL     1      -9.237  20.356 -15.275  1.00  0.00    -0.311 N 
ATOM     35  H12 UNL     1      -9.855  21.162 -15.359  1.00  0.00     0.170 HD
ATOM     36  H11 UNL     1      -9.475  19.385 -15.483  1.00  0.00     0.170 HD
ENDBRANCH  31  34
ENDBRANCH  29  31
ENDBRANCH  28  29
ENDBRANCH   1  28
TORSDOF 9
ENDMDL
MODEL 2
REMARK VINA RESULT: -7.521826361      1.075      1.108
REMARK  9 active torsions:
REMARK  status: ('A' for Active; 'I' for Inactive)
REMARK    1  A    between atoms: N1_1  and  S1_4 
REMARK    2  A    between atoms: S1_4  and  N2_7 
REMARK    3  A    between atoms: N2_7  and  C1_9 
REMARK    4  A    between atoms: C1_9  and  C2_10 
REMARK       I    between atoms: C2_10  and  N3_12 
REMARK    5  A    between atoms: C4_15  and  N4_16 
REMARK    6  A    between atoms: N4_16  and  N5_18 
REMARK    7  A    between atoms: C5_20  and  O4_21 
REMARK    8  A    between atoms: C5_20  and  C6_23 
REMARK    9  A    between atoms: C11_32  and  O5_33 
ROOT
HETATM    1  C2  UNL     1      -7.684  17.737 -13.389  1.00  0.00     0.310 C 
HETATM    2  O3  UNL     1      -7.414  16.921 -12.656  1.00  0.00    -0.257 OA
HETATM    3  N3  UNL     1      -8.146  17.589 -14.788  1.00  0.00    -0.310 N 
ATOM      4  H3  UNL     1      -8.055  18.533 -15.165  1.00  0.00     0.170 HD
HETATM    5  C3  UNL     1      -8.600  16.914 -15.787  1.00  0.00     0.120 A 
HETATM    6  C4  UNL     1      -8.280  16.236 -16.916  1.00  0.00     0.116 A 
HETATM    7  C11 UNL     1      -9.693  16.244 -17.153  1.00  0.00     0.149 A 
HETATM    8  C12 UNL     1     -10.094  16.797 -16.191  1.00  0.00     0.236 A 
HETATM    9  O6  UNL     1     -10.872  17.322 -15.332  1.00  0.00    -0.283 OA
ENDROOT
BRANCH   6  10
HETATM   10  N4  UNL     1      -7.056  15.677 -17.368  1.00  0.00    -0.294 N 
ATOM     11  H4  UNL     1      -6.295  16.149 -17.856  1.00  0.00     0.187 HD
BRANCH  10  12
HETATM   12  N5  UNL     1      -7.132  14.293 -16.979  1.00  0.00    -0.280 N 
HETATM   13  C5  UNL     1      -7.497  13.294 -17.777  1.00  0.00     0.158 C 
ATOM     14  H5  UNL     1      -6.886  14.060 -16.017  1.00  0.00     0.189 HD
BRANCH  13  15
HETATM   15  O4  UNL     1      -7.776  13.857 -19.089  1.00  0.00    -0.345 OA
ATOM     16  H4  UNL     1      -8.569  14.375 -19.017  1.00  0.00     0.219 HD
ENDBRANCH  13  15
BRANCH  13  17
HETATM   17  C6  UNL     1      -7.707  11.941 -17.875  1.00  0.00     0.105 C 
HETATM   18  C7  UNL     1      -8.709  11.253 -17.486  1.00  0.00     0.104 C 
HETATM   19  N6  UNL     1      -9.909  11.708 -16.816  1.00  0.00    -0.356 N 
HETATM   20  N7  UNL     1      -8.734   9.848 -17.539  1.00  0.00    -0.376 N 
HETATM   21  C8  UNL     1     -10.811  11.018 -16.323  1.00  0.00     0.064 C 
ATOM     22  H6  UNL     1     -10.026  12.719 -16.740  1.00  0.00     0.166 HD
HETATM   23  C9  UNL     1     -10.694   9.569 -16.382  1.00  0.00     0.064 C 
HETATM   24  C10 UNL     1     -10.058   9.175 -17.707  1.00  0.00     0.126 C 
ATOM     25  H7  UNL     1      -7.874   9.305 -17.464  1.00  0.00     0.161 HD
ENDBRANCH  13  17
ENDBRANCH  10  12
ENDBRANCH   6  10
BRANCH   7  26
HETATM   26  O5  UNL     1     -10.114  15.670 -18.343  1.00  0.00    -0.355 OA
ATOM     27  H5  UNL     1     -10.676  14.908 -18.263  1.00  0.00     0.218 HD
ENDBRANCH   7  26
BRANCH   1  28
HETATM   28  C1  UNL     1      -7.702  19.235 -13.287  1.00  0.00     0.044 C 
BRANCH  28  29
HETATM   29  N2  UNL     1      -7.613  20.487 -13.212  1.00  0.00    -0.228 N 
ATOM     30  H2  UNL     1      -7.513  20.984 -12.327  1.00  0.00     0.190 HD
BRANCH  29  31
HETATM   31  S1  UNL     1      -7.678  21.328 -14.806  1.00  0.00     0.323 S 
HETATM   32  O1  UNL     1      -6.986  22.552 -14.813  1.00  0.00    -0.182 OA
HETATM   33  O2  UNL     1      -7.125  20.325 -15.773  1.00  0.00    -0.182 OA
BRANCH  31  34
HETATM   34  N1  UNL     1      -9.328  21.611 -15.313  1.00  0.00    -0.311 N 
ATOM     35  H12 UNL     1      -9.699  22.513 -15.609  1.00  0.00     0.170 HD
ATOM     36  H11 UNL     1      -9.842  20.731 -15.262  1.00  0.00     0.170 HD
ENDBRANCH  31  34
ENDBRANCH  29  31
ENDBRANCH  28  29
ENDBRANCH   1  28
TORSDOF 9
ENDMDL
MODEL 3
REMARK VINA RESULT: -7.364594835      1.876      2.201
REMARK  9 active torsions:
REMARK  status: ('A' for Active; 'I' for Inactive)
REMARK    1  A    between atoms: N1_1  and  S1_4 
REMARK    2  A    between atoms: S1_4  and  N2_7 
REMARK    3  A    between atoms: N2_7  and  C1_9 
REMARK    4  A    between atoms: C1_9  and  C2_10 
REMARK       I    between atoms: C2_10  and  N3_12 
REMARK    5  A    between atoms: C4_15  and  N4_16 
REMARK    6  A    between atoms: N4_16  and  N5_18 
REMARK    7  A    between atoms: C5_20  and  O4_21 
REMARK    8  A    between atoms: C5_20  and  C6_23 
REMARK    9  A    between atoms: C11_32  and  O5_33 
ROOT
HETATM    1  C2  UNL     1     -11.123  19.058 -14.693  1.00  0.00     0.310 C 
HETATM    2  O3  UNL     1     -12.075  18.673 -14.222  1.00  0.00    -0.257 OA
HETATM    3  N3  UNL     1     -10.250  18.373 -15.672  1.00  0.00    -0.310 N 
ATOM      4  H3  UNL     1      -9.401  18.938 -15.664  1.00  0.00     0.170 HD
HETATM    5  C3  UNL     1      -9.981  17.448 -16.530  1.00  0.00     0.120 A 
HETATM    6  C4  UNL     1      -9.395  16.243 -16.727  1.00  0.00     0.116 A 
HETATM    7  C11 UNL     1      -9.606  16.525 -18.116  1.00  0.00     0.149 A 
HETATM    8  C12 UNL     1     -10.156  17.569 -18.067  1.00  0.00     0.236 A 
HETATM    9  O6  UNL     1     -10.748  18.641 -18.407  1.00  0.00    -0.283 OA
ENDROOT
BRANCH   6  10
HETATM   10  N4  UNL     1      -9.012  15.219 -15.822  1.00  0.00    -0.294 N 
ATOM     11  H4  UNL     1      -8.664  15.325 -14.868  1.00  0.00     0.187 HD
BRANCH  10  12
HETATM   12  N5  UNL     1      -9.225  13.998 -16.554  1.00  0.00    -0.280 N 
HETATM   13  C5  UNL     1      -8.274  13.128 -16.884  1.00  0.00     0.158 C 
ATOM     14  H5  UNL     1     -10.179  13.783 -16.844  1.00  0.00     0.189 HD
BRANCH  13  15
HETATM   15  O4  UNL     1      -7.016  13.629 -16.353  1.00  0.00    -0.345 OA
ATOM     16  H4  UNL     1      -6.401  12.905 -16.338  1.00  0.00     0.219 HD
ENDBRANCH  13  15
BRANCH  13  17
HETATM   17  C6  UNL     1      -7.994  11.939 -17.509  1.00  0.00     0.105 C 
HETATM   18  C7  UNL     1      -8.691  10.871 -17.554  1.00  0.00     0.104 C 
HETATM   19  N6  UNL     1      -9.976  10.607 -16.941  1.00  0.00    -0.356 N 
HETATM   20  N7  UNL     1      -8.219   9.679 -18.131  1.00  0.00    -0.376 N 
HETATM   21  C8  UNL     1     -10.579   9.527 -16.876  1.00  0.00     0.064 C 
ATOM     22  H6  UNL     1     -10.441  11.406 -16.510  1.00  0.00     0.166 HD
HETATM   23  C9  UNL     1      -9.959   8.345 -17.456  1.00  0.00     0.064 C 
HETATM   24  C10 UNL     1      -9.223   8.743 -18.727  1.00  0.00     0.126 C 
ATOM     25  H7  UNL     1      -7.224   9.459 -18.143  1.00  0.00     0.161 HD
ENDBRANCH  13  17
ENDBRANCH  10  12
ENDBRANCH   6  10
BRANCH   7  26
HETATM   26  O5  UNL     1      -9.122  15.582 -19.010  1.00  0.00    -0.355 OA
ATOM     27  H5  UNL     1      -8.222  15.696 -19.290  1.00  0.00     0.218 HD
ENDBRANCH   7  26
BRANCH   1  28
HETATM   28  C1  UNL     1     -10.366  20.347 -14.556  1.00  0.00     0.044 C 
BRANCH  28  29
HETATM   29  N2  UNL     1      -9.725  21.428 -14.545  1.00  0.00    -0.228 N 
ATOM     30  H2  UNL     1     -10.179  22.342 -14.559  1.00  0.00     0.190 HD
BRANCH  29  31
HETATM   31  S1  UNL     1      -7.934  21.225 -14.502  1.00  0.00     0.323 S 
HETATM   32  O1  UNL     1      -7.427  21.061 -13.201  1.00  0.00    -0.182 OA
HETATM   33  O2  UNL     1      -7.677  20.048 -15.394  1.00  0.00    -0.182 OA
BRANCH  31  34
HETATM   34  N1  UNL     1      -7.118  22.575 -15.258  1.00  0.00    -0.311 N 
ATOM     35  H12 UNL     1      -6.346  23.096 -14.842  1.00  0.00     0.170 HD
ATOM     36  H11 UNL     1      -7.543  22.745 -16.171  1.00  0.00     0.170 HD
ENDBRANCH  31  34
ENDBRANCH  29  31
ENDBRANCH  28  29
ENDBRANCH   1  28
TORSDOF 9
ENDMDL
MODEL 4
REMARK VINA RESULT: -7.150796152      3.030      5.109
REMARK  9 active torsions:
REMARK  status: ('A' for Active; 'I' for Inactive)
REMARK    1  A    between atoms: N1_1  and  S1_4 
REMARK    2  A    between atoms: S1_4  and  N2_7 
REMARK    3  A    between atoms: N2_7  and  C1_9 
REMARK    4  A    between atoms: C1_9  and  C2_10 
REMARK       I    between atoms: C2_10  and  N3_12 
REMARK    5  A    between atoms: C4_15  and  N4_16 
REMARK    6  A    between atoms: N4_16  and  N5_18 
REMARK    7  A    between atoms: C5_20  and  O4_21 
REMARK    8  A    between atoms: C5_20  and  C6_23 
REMARK    9  A    between atoms: C11_32  and  O5_33 
ROOT
HETATM    1  C2  UNL     1     -10.215  18.414 -11.410  1.00  0.00     0.310 C 
HETATM    2  O3  UNL     1     -11.238  18.832 -11.177  1.00  0.00    -0.257 OA
HETATM    3  N3  UNL     1      -9.367  18.685 -12.593  1.00  0.00    -0.310 N 
ATOM      4  H3  UNL     1      -8.654  17.956 -12.543  1.00  0.00     0.170 HD
HETATM    5  C3  UNL     1      -9.042  19.344 -13.653  1.00  0.00     0.120 A 
HETATM    6  C4  UNL     1      -9.139  19.409 -15.003  1.00  0.00     0.116 A 
HETATM    7  C11 UNL     1      -8.144  20.432 -14.885  1.00  0.00     0.149 A 
HETATM    8  C12 UNL     1      -7.996  20.489 -13.715  1.00  0.00     0.236 A 
HETATM    9  O6  UNL     1      -7.584  20.834 -12.563  1.00  0.00    -0.283 OA
ENDROOT
BRANCH   6  10
HETATM   10  N4  UNL     1     -10.041  18.801 -15.915  1.00  0.00    -0.294 N 
ATOM     11  H4  UNL     1     -10.927  19.171 -16.260  1.00  0.00     0.187 HD
BRANCH  10  12
HETATM   12  N5  UNL     1      -9.422  17.542 -16.242  1.00  0.00    -0.280 N 
HETATM   13  C5  UNL     1      -9.544  16.909 -17.405  1.00  0.00     0.158 C 
ATOM     14  H5  UNL     1      -8.845  17.102 -15.525  1.00  0.00     0.189 HD
BRANCH  13  15
HETATM   15  O4  UNL     1     -10.385  17.727 -18.265  1.00  0.00    -0.345 OA
ATOM     16  H4  UNL     1     -11.275  17.665 -17.941  1.00  0.00     0.219 HD
ENDBRANCH  13  15
BRANCH  13  17
HETATM   17  C6  UNL     1      -9.189  15.803 -18.135  1.00  0.00     0.105 C 
HETATM   18  C7  UNL     1      -8.441  14.824 -17.799  1.00  0.00     0.104 C 
HETATM   19  N6  UNL     1      -7.742  14.613 -16.549  1.00  0.00    -0.356 N 
HETATM   20  N7  UNL     1      -8.061  13.814 -18.700  1.00  0.00    -0.376 N 
HETATM   21  C8  UNL     1      -6.913  13.731 -16.283  1.00  0.00     0.064 C 
ATOM     22  H6  UNL     1      -7.957  15.267 -15.797  1.00  0.00     0.166 HD
HETATM   23  C9  UNL     1      -6.551  12.777 -17.320  1.00  0.00     0.064 C 
HETATM   24  C10 UNL     1      -7.783  12.452 -18.149  1.00  0.00     0.126 C 
ATOM     25  H7  UNL     1      -7.976  14.005 -19.698  1.00  0.00     0.161 HD
ENDBRANCH  13  17
ENDBRANCH  10  12
ENDBRANCH   6  10
BRANCH   7  26
HETATM   26  O5  UNL     1      -7.686  20.976 -16.075  1.00  0.00    -0.355 OA
ATOM     27  H5  UNL     1      -7.188  20.393 -16.636  1.00  0.00     0.218 HD
ENDBRANCH   7  26
BRANCH   1  28
HETATM   28  C1  UNL     1      -9.311  17.464 -10.680  1.00  0.00     0.044 C 
BRANCH  28  29
HETATM   29  N2  UNL     1      -8.499  16.752 -10.036  1.00  0.00    -0.228 N 
ATOM     30  H2  UNL     1      -8.794  15.998  -9.414  1.00  0.00     0.190 HD
BRANCH  29  31
HETATM   31  S1  UNL     1      -6.768  17.178 -10.305  1.00  0.00     0.323 S 
HETATM   32  O1  UNL     1      -6.598  18.300 -11.135  1.00  0.00    -0.182 OA
HETATM   33  O2  UNL     1      -6.217  17.368  -8.925  1.00  0.00    -0.182 OA
BRANCH  31  34
HETATM   34  N1  UNL     1      -5.877  15.835 -10.986  1.00  0.00    -0.311 N 
ATOM     35  H12 UNL     1      -4.985  15.489 -10.632  1.00  0.00     0.170 HD
ATOM     36  H11 UNL     1      -6.397  15.467 -11.783  1.00  0.00     0.170 HD
ENDBRANCH  31  34
ENDBRANCH  29  31
ENDBRANCH  28  29
ENDBRANCH   1  28
TORSDOF 9
ENDMDL
MODEL 5
REMARK VINA RESULT: -7.142775277      1.818      2.174
REMARK  9 active torsions:
REMARK  status: ('A' for Active; 'I' for Inactive)
REMARK    1  A    between atoms: N1_1  and  S1_4 
REMARK    2  A    between atoms: S1_4  and  N2_7 
REMARK    3  A    between atoms: N2_7  and  C1_9 
REMARK    4  A    between atoms: C1_9  and  C2_10 
REMARK       I    between atoms: C2_10  and  N3_12 
REMARK    5  A    between atoms: C4_15  and  N4_16 
REMARK    6  A    between atoms: N4_16  and  N5_18 
REMARK    7  A    between atoms: C5_20  and  O4_21 
REMARK    8  A    between atoms: C5_20  and  C6_23 
REMARK    9  A    between atoms: C11_32  and  O5_33 
ROOT
HETATM    1  C2  UNL     1      -9.458  18.499 -13.414  1.00  0.00     0.310 C 
HETATM    2  O3  UNL     1     -10.078  17.893 -12.690  1.00  0.00    -0.257 OA
HETATM    3  N3  UNL     1      -9.401  18.378 -14.888  1.00  0.00    -0.310 N 
ATOM      4  H3  UNL     1      -8.575  18.923 -15.136  1.00  0.00     0.170 HD
HETATM    5  C3  UNL     1      -9.829  17.956 -16.029  1.00  0.00     0.120 A 
HETATM    6  C4  UNL     1      -9.711  17.003 -16.985  1.00  0.00     0.116 A 
HETATM    7  C11 UNL     1     -10.552  17.870 -17.755  1.00  0.00     0.149 A 
HETATM    8  C12 UNL     1     -10.753  18.748 -16.992  1.00  0.00     0.236 A 
HETATM    9  O6  UNL     1     -11.187  19.825 -16.473  1.00  0.00    -0.283 OA
ENDROOT
BRANCH   6  10
HETATM   10  N4  UNL     1      -9.142  15.703 -16.957  1.00  0.00    -0.294 N 
ATOM     11  H4  UNL     1      -8.156  15.453 -16.878  1.00  0.00     0.187 HD
BRANCH  10  12
HETATM   12  N5  UNL     1     -10.272  14.818 -17.065  1.00  0.00    -0.280 N 
HETATM   13  C5  UNL     1     -10.429  13.691 -16.378  1.00  0.00     0.158 C 
ATOM     14  H5  UNL     1     -11.010  15.075 -17.721  1.00  0.00     0.189 HD
BRANCH  13  15
HETATM   15  O4  UNL     1      -9.276  13.544 -15.503  1.00  0.00    -0.345 OA
ATOM     16  H4  UNL     1      -9.303  14.252 -14.870  1.00  0.00     0.219 HD
ENDBRANCH  13  15
BRANCH  13  17
HETATM   17  C6  UNL     1     -11.243  12.611 -16.143  1.00  0.00     0.105 C 
HETATM   18  C7  UNL     1     -11.016  11.372 -16.354  1.00  0.00     0.104 C 
HETATM   19  N6  UNL     1      -9.833  10.756 -16.916  1.00  0.00    -0.356 N 
HETATM   20  N7  UNL     1     -11.997  10.380 -16.181  1.00  0.00    -0.376 N 
HETATM   21  C8  UNL     1      -9.676   9.572 -17.242  1.00  0.00     0.064 C 
ATOM     22  H6  UNL     1      -9.032  11.371 -17.062  1.00  0.00     0.166 HD
HETATM   23  C9  UNL     1     -10.787   8.648 -17.075  1.00  0.00     0.064 C 
HETATM   24  C10 UNL     1     -11.544   9.005 -15.805  1.00  0.00     0.126 C 
ATOM     25  H7  UNL     1     -12.986  10.591 -16.310  1.00  0.00     0.161 HD
ENDBRANCH  13  17
ENDBRANCH  10  12
ENDBRANCH   6  10
BRANCH   7  26
HETATM   26  O5  UNL     1     -10.826  17.460 -19.050  1.00  0.00    -0.355 OA
ATOM     27  H5  UNL     1     -11.602  17.834 -19.451  1.00  0.00     0.218 HD
ENDBRANCH   7  26
BRANCH   1  28
HETATM   28  C1  UNL     1      -8.483  19.625 -13.228  1.00  0.00     0.044 C 
BRANCH  28  29
HETATM   29  N2  UNL     1      -7.710  20.614 -13.156  1.00  0.00    -0.228 N 
ATOM     30  H2  UNL     1      -7.205  20.863 -12.304  1.00  0.00     0.190 HD
BRANCH  29  31
HETATM   31  S1  UNL     1      -7.568  21.553 -14.689  1.00  0.00     0.323 S 
HETATM   32  O1  UNL     1      -6.790  22.717 -14.553  1.00  0.00    -0.182 OA
HETATM   33  O2  UNL     1      -7.006  20.571 -15.671  1.00  0.00    -0.182 OA
BRANCH  31  34
HETATM   34  N1  UNL     1      -9.140  21.996 -15.315  1.00  0.00    -0.311 N 
ATOM     35  H12 UNL     1      -9.351  22.873 -15.791  1.00  0.00     0.170 HD
ATOM     36  H11 UNL     1      -9.795  21.237 -15.124  1.00  0.00     0.170 HD
ENDBRANCH  31  34
ENDBRANCH  29  31
ENDBRANCH  28  29
ENDBRANCH   1  28
TORSDOF 9
ENDMDL
