MODEL 1
REMARK VINA RESULT: -7.708664197      0.000      0.000
REMARK  11 active torsions:
REMARK  status: ('A' for Active; 'I' for Inactive)
REMARK    1  A    between atoms: C2_3  and  N2_4 
REMARK    2  A    between atoms: N2_4  and  C3_6 
REMARK    3  A    between atoms: C4_7  and  C5_8 
REMARK    4  A    between atoms: C5_8  and  C6_9 
REMARK    5  A    between atoms: C7_11  and  C8_12 
REMARK    6  A    between atoms: C8_12  and  O1_13 
REMARK    7  A    between atoms: O1_13  and  C9_14 
REMARK    8  A    between atoms: C9_14  and  C10_15 
REMARK    9  A    between atoms: C10_15  and  O2_16 
REMARK   10  A    between atoms: C10_15  and  C11_18 
REMARK   11  A    between atoms: C11_18  and  O3_19 
ROOT
HETATM    1  N1  UNL     1      -5.580  16.930 -17.160  1.00  0.00    -0.191 NA
HETATM    2  C1  UNL     1      -5.715  15.824 -17.458  1.00  0.00     0.105 C 
HETATM    3  C2  UNL     1      -5.860  14.428 -17.820  1.00  0.00     0.183 C 
ENDROOT
BRANCH   3   4
HETATM    4  N2  UNL     1      -7.048  14.113 -18.542  1.00  0.00    -0.351 N 
ATOM      5  H2  UNL     1      -7.099  14.353 -19.532  1.00  0.00     0.166 HD
BRANCH   4   6
HETATM    6  C3  UNL     1      -8.164  13.476 -17.932  1.00  0.00     0.128 A 
HETATM    7  C4  UNL     1      -9.275  14.275 -17.633  1.00  0.00     0.070 A 
HETATM    8  N4  UNL     1     -10.317  13.672 -17.054  1.00  0.00    -0.306 N 
HETATM    9  C13 UNL     1     -10.347  12.364 -16.751  1.00  0.00     0.327 A 
ATOM     10  H4  UNL     1     -11.136  14.238 -16.829  1.00  0.00     0.171 HD
HETATM   11  O5  UNL     1     -11.335  11.821 -16.209  1.00  0.00    -0.247 OA
HETATM   12  N5  UNL     1      -9.261  11.603 -17.048  1.00  0.00    -0.274 N 
HETATM   13  C14 UNL     1      -8.170  12.131 -17.632  1.00  0.00     0.278 A 
ATOM     14  H5  UNL     1      -9.273  10.608 -16.822  1.00  0.00     0.173 HD
HETATM   15  O6  UNL     1      -7.189  11.391 -17.886  1.00  0.00    -0.265 OA
BRANCH   7  16
HETATM   16  C5  UNL     1      -9.241  15.684 -17.959  1.00  0.00     0.056 C 
BRANCH  16  17
HETATM   17  C6  UNL     1      -9.432  16.597 -17.000  1.00  0.00     0.077 A 
HETATM   18  S1  UNL     1      -8.982  16.563 -15.347  1.00  0.00    -0.065 SA
HETATM   19  C7  UNL     1      -9.600  18.083 -14.891  1.00  0.00     0.099 A 
HETATM   20  N3  UNL     1     -10.122  18.548 -16.020  1.00  0.00    -0.315 N 
HETATM   21  C12 UNL     1     -10.050  17.818 -17.093  1.00  0.00     0.263 A 
ATOM     22  H3  UNL     1     -10.572  19.464 -16.044  1.00  0.00     0.170 HD
HETATM   23  O4  UNL     1     -10.526  18.176 -18.246  1.00  0.00    -0.267 OA
BRANCH  19  24
HETATM   24  C8  UNL     1      -9.566  18.668 -13.679  1.00  0.00     0.172 C 
BRANCH  24  25
HETATM   25  O1  UNL     1      -9.089  19.957 -13.523  1.00  0.00    -0.358 OA
BRANCH  25  26
HETATM   26  C9  UNL     1      -7.774  20.223 -13.976  1.00  0.00     0.208 C 
BRANCH  26  27
HETATM   27  C10 UNL     1      -7.725  21.376 -14.931  1.00  0.00     0.165 C 
BRANCH  27  28
HETATM   28  O2  UNL     1      -7.056  20.937 -16.081  1.00  0.00    -0.391 OA
ATOM     29  H2  UNL     1      -7.035  21.664 -16.692  1.00  0.00     0.210 HD
ENDBRANCH  27  28
BRANCH  27  30
HETATM   30  C11 UNL     1      -6.986  22.561 -14.397  1.00  0.00     0.198 C 
BRANCH  30  31
HETATM   31  O3  UNL     1      -7.351  23.754 -14.983  1.00  0.00    -0.398 OA
ATOM     32  H3  UNL     1      -6.669  24.142 -15.518  1.00  0.00     0.209 HD
ENDBRANCH  30  31
ENDBRANCH  27  30
ENDBRANCH  26  27
ENDBRANCH  25  26
ENDBRANCH  24  25
ENDBRANCH  19  24
ENDBRANCH  16  17
ENDBRANCH   7  16
ENDBRANCH   4   6
ENDBRANCH   3   4
TORSDOF 11
ENDMDL
MODEL 2
REMARK VINA RESULT: -7.436888525      1.477      3.430
REMARK  11 active torsions:
REMARK  status: ('A' for Active; 'I' for Inactive)
REMARK    1  A    between atoms: C2_3  and  N2_4 
REMARK    2  A    between atoms: N2_4  and  C3_6 
REMARK    3  A    between atoms: C4_7  and  C5_8 
REMARK    4  A    between atoms: C5_8  and  C6_9 
REMARK    5  A    between atoms: C7_11  and  C8_12 
REMARK    6  A    between atoms: C8_12  and  O1_13 
REMARK    7  A    between atoms: O1_13  and  C9_14 
REMARK    8  A    between atoms: C9_14  and  C10_15 
REMARK    9  A    between atoms: C10_15  and  O2_16 
REMARK   10  A    between atoms: C10_15  and  C11_18 
REMARK   11  A    between atoms: C11_18  and  O3_19 
ROOT
HETATM    1  N1  UNL     1     -10.736   9.593 -16.417  1.00  0.00    -0.191 NA
HETATM    2  C1  UNL     1     -10.396  10.688 -16.287  1.00  0.00     0.105 C 
HETATM    3  C2  UNL     1      -9.970  12.060 -16.096  1.00  0.00     0.183 C 
ENDROOT
BRANCH   3   4
HETATM    4  N2  UNL     1      -9.782  12.806 -17.295  1.00  0.00    -0.351 N 
ATOM      5  H2  UNL     1     -10.550  12.861 -17.965  1.00  0.00     0.166 HD
BRANCH   4   6
HETATM    6  C3  UNL     1      -8.563  13.477 -17.593  1.00  0.00     0.128 A 
HETATM    7  C4  UNL     1      -8.577  14.877 -17.561  1.00  0.00     0.070 A 
HETATM    8  N4  UNL     1      -7.432  15.500 -17.848  1.00  0.00    -0.306 N 
HETATM    9  C13 UNL     1      -6.292  14.861 -18.160  1.00  0.00     0.327 A 
ATOM     10  H4  UNL     1      -7.421  16.521 -17.830  1.00  0.00     0.171 HD
HETATM   11  O5  UNL     1      -5.231  15.467 -18.425  1.00  0.00    -0.247 OA
HETATM   12  N5  UNL     1      -6.296  13.502 -18.186  1.00  0.00    -0.274 N 
HETATM   13  C14 UNL     1      -7.408  12.796 -17.909  1.00  0.00     0.278 A 
ATOM     14  H5  UNL     1      -5.437  13.005 -18.421  1.00  0.00     0.173 HD
HETATM   15  O6  UNL     1      -7.366  11.542 -17.947  1.00  0.00    -0.265 OA
BRANCH   7  16
HETATM   16  C5  UNL     1      -9.804  15.565 -17.225  1.00  0.00     0.056 C 
BRANCH  16  17
HETATM   17  C6  UNL     1      -9.758  16.763 -16.629  1.00  0.00     0.077 A 
HETATM   18  S1  UNL     1      -9.307  17.176 -15.029  1.00  0.00    -0.065 SA
HETATM   19  C7  UNL     1      -9.537  18.859 -15.134  1.00  0.00     0.099 A 
HETATM   20  N3  UNL     1      -9.948  19.032 -16.385  1.00  0.00    -0.315 N 
HETATM   21  C12 UNL     1     -10.067  17.991 -17.155  1.00  0.00     0.263 A 
ATOM     22  H3  UNL     1     -10.166  19.964 -16.735  1.00  0.00     0.170 HD
HETATM   23  O4  UNL     1     -10.459  18.046 -18.391  1.00  0.00    -0.267 OA
BRANCH  19  24
HETATM   24  C8  UNL     1      -9.348  19.789 -14.178  1.00  0.00     0.172 C 
BRANCH  24  25
HETATM   25  O1  UNL     1      -9.112  21.112 -14.507  1.00  0.00    -0.358 OA
BRANCH  25  26
HETATM   26  C9  UNL     1      -7.767  21.553 -14.506  1.00  0.00     0.208 C 
BRANCH  26  27
HETATM   27  C10 UNL     1      -7.580  22.808 -15.302  1.00  0.00     0.165 C 
BRANCH  27  28
HETATM   28  O2  UNL     1      -6.822  23.690 -14.519  1.00  0.00    -0.391 OA
ATOM     29  H2  UNL     1      -7.353  24.463 -14.370  1.00  0.00     0.210 HD
ENDBRANCH  27  28
BRANCH  27  30
HETATM   30  C11 UNL     1      -8.864  23.492 -15.647  1.00  0.00     0.198 C 
BRANCH  30  31
HETATM   31  O3  UNL     1      -8.906  24.817 -15.273  1.00  0.00    -0.398 OA
ATOM     32  H3  UNL     1      -8.468  25.401 -15.881  1.00  0.00     0.209 HD
ENDBRANCH  30  31
ENDBRANCH  27  30
ENDBRANCH  26  27
ENDBRANCH  25  26
ENDBRANCH  24  25
ENDBRANCH  19  24
ENDBRANCH  16  17
ENDBRANCH   7  16
ENDBRANCH   4   6
ENDBRANCH   3   4
TORSDOF 11
ENDMDL
MODEL 3
REMARK VINA RESULT: -7.431352273      0.818      1.118
REMARK  11 active torsions:
REMARK  status: ('A' for Active; 'I' for Inactive)
REMARK    1  A    between atoms: C2_3  and  N2_4 
REMARK    2  A    between atoms: N2_4  and  C3_6 
REMARK    3  A    between atoms: C4_7  and  C5_8 
REMARK    4  A    between atoms: C5_8  and  C6_9 
REMARK    5  A    between atoms: C7_11  and  C8_12 
REMARK    6  A    between atoms: C8_12  and  O1_13 
REMARK    7  A    between atoms: O1_13  and  C9_14 
REMARK    8  A    between atoms: C9_14  and  C10_15 
REMARK    9  A    between atoms: C10_15  and  O2_16 
REMARK   10  A    between atoms: C10_15  and  C11_18 
REMARK   11  A    between atoms: C11_18  and  O3_19 
ROOT
HETATM    1  N1  UNL     1      -5.647  16.930 -17.156  1.00  0.00    -0.191 NA
HETATM    2  C1  UNL     1      -5.746  15.811 -17.416  1.00  0.00     0.105 C 
HETATM    3  C2  UNL     1      -5.846  14.399 -17.730  1.00  0.00     0.183 C 
ENDROOT
BRANCH   3   4
HETATM    4  N2  UNL     1      -6.995  14.029 -18.486  1.00  0.00    -0.351 N 
ATOM      5  H2  UNL     1      -7.021  14.252 -19.482  1.00  0.00     0.166 HD
BRANCH   4   6
HETATM    6  C3  UNL     1      -8.108  13.361 -17.904  1.00  0.00     0.128 A 
HETATM    7  C4  UNL     1      -9.233  14.136 -17.595  1.00  0.00     0.070 A 
HETATM    8  N4  UNL     1     -10.271  13.503 -17.042  1.00  0.00    -0.306 N 
HETATM    9  C13 UNL     1     -10.286  12.187 -16.774  1.00  0.00     0.327 A 
ATOM     10  H4  UNL     1     -11.100  14.051 -16.809  1.00  0.00     0.171 HD
HETATM   11  O5  UNL     1     -11.270  11.616 -16.256  1.00  0.00    -0.247 OA
HETATM   12  N5  UNL     1      -9.186  11.450 -17.081  1.00  0.00    -0.274 N 
HETATM   13  C14 UNL     1      -8.097  12.009 -17.640  1.00  0.00     0.278 A 
ATOM     14  H5  UNL     1      -9.185  10.449 -16.882  1.00  0.00     0.173 HD
HETATM   15  O6  UNL     1      -7.103  11.289 -17.905  1.00  0.00    -0.265 OA
BRANCH   7  16
HETATM   16  C5  UNL     1      -9.216  15.553 -17.883  1.00  0.00     0.056 C 
BRANCH  16  17
HETATM   17  C6  UNL     1      -9.436  16.438 -16.902  1.00  0.00     0.077 A 
HETATM   18  S1  UNL     1      -9.114  16.318 -15.224  1.00  0.00    -0.065 SA
HETATM   19  C7  UNL     1      -9.692  17.848 -14.752  1.00  0.00     0.099 A 
HETATM   20  N3  UNL     1     -10.104  18.382 -15.895  1.00  0.00    -0.315 N 
HETATM   21  C12 UNL     1      -9.986  17.691 -16.990  1.00  0.00     0.263 A 
ATOM     22  H3  UNL     1     -10.507  19.319 -15.914  1.00  0.00     0.170 HD
HETATM   23  O4  UNL     1     -10.356  18.116 -18.158  1.00  0.00    -0.267 OA
BRANCH  19  24
HETATM   24  C8  UNL     1      -9.722  18.384 -13.517  1.00  0.00     0.172 C 
BRANCH  24  25
HETATM   25  O1  UNL     1      -9.522  19.739 -13.323  1.00  0.00    -0.358 OA
BRANCH  25  26
HETATM   26  C9  UNL     1      -8.192  20.218 -13.404  1.00  0.00     0.208 C 
BRANCH  26  27
HETATM   27  C10 UNL     1      -7.997  21.157 -14.556  1.00  0.00     0.165 C 
BRANCH  27  28
HETATM   28  O2  UNL     1      -9.226  21.261 -15.222  1.00  0.00    -0.391 OA
ATOM     29  H2  UNL     1      -9.406  22.186 -15.341  1.00  0.00     0.210 HD
ENDBRANCH  27  28
BRANCH  27  30
HETATM   30  C11 UNL     1      -6.980  20.686 -15.544  1.00  0.00     0.198 C 
BRANCH  30  31
HETATM   31  O3  UNL     1      -6.906  19.314 -15.655  1.00  0.00    -0.398 OA
ATOM     32  H3  UNL     1      -7.566  18.853 -15.151  1.00  0.00     0.209 HD
ENDBRANCH  30  31
ENDBRANCH  27  30
ENDBRANCH  26  27
ENDBRANCH  25  26
ENDBRANCH  24  25
ENDBRANCH  19  24
ENDBRANCH  16  17
ENDBRANCH   7  16
ENDBRANCH   4   6
ENDBRANCH   3   4
TORSDOF 11
ENDMDL
MODEL 4
REMARK VINA RESULT: -7.151487379      1.386      3.433
REMARK  11 active torsions:
REMARK  status: ('A' for Active; 'I' for Inactive)
REMARK    1  A    between atoms: C2_3  and  N2_4 
REMARK    2  A    between atoms: N2_4  and  C3_6 
REMARK    3  A    between atoms: C4_7  and  C5_8 
REMARK    4  A    between atoms: C5_8  and  C6_9 
REMARK    5  A    between atoms: C7_11  and  C8_12 
REMARK    6  A    between atoms: C8_12  and  O1_13 
REMARK    7  A    between atoms: O1_13  and  C9_14 
REMARK    8  A    between atoms: C9_14  and  C10_15 
REMARK    9  A    between atoms: C10_15  and  O2_16 
REMARK   10  A    between atoms: C10_15  and  C11_18 
REMARK   11  A    between atoms: C11_18  and  O3_19 
ROOT
HETATM    1  N1  UNL     1     -10.711   9.338 -16.715  1.00  0.00    -0.191 NA
HETATM    2  C1  UNL     1     -10.372  10.418 -16.495  1.00  0.00     0.105 C 
HETATM    3  C2  UNL     1      -9.944  11.769 -16.191  1.00  0.00     0.183 C 
ENDROOT
BRANCH   3   4
HETATM    4  N2  UNL     1      -9.801  12.625 -17.321  1.00  0.00    -0.351 N 
ATOM      5  H2  UNL     1     -10.594  12.740 -17.953  1.00  0.00     0.166 HD
BRANCH   4   6
HETATM    6  C3  UNL     1      -8.595  13.326 -17.599  1.00  0.00     0.128 A 
HETATM    7  C4  UNL     1      -8.635  14.725 -17.536  1.00  0.00     0.070 A 
HETATM    8  N4  UNL     1      -7.501  15.376 -17.805  1.00  0.00    -0.306 N 
HETATM    9  C13 UNL     1      -6.349  14.766 -18.127  1.00  0.00     0.327 A 
ATOM     10  H4  UNL     1      -7.510  16.395 -17.765  1.00  0.00     0.171 HD
HETATM   11  O5  UNL     1      -5.298  15.397 -18.375  1.00  0.00    -0.247 OA
HETATM   12  N5  UNL     1      -6.327  13.408 -18.183  1.00  0.00    -0.274 N 
HETATM   13  C14 UNL     1      -7.426  12.675 -17.926  1.00  0.00     0.278 A 
ATOM     14  H5  UNL     1      -5.457  12.933 -18.426  1.00  0.00     0.173 HD
HETATM   15  O6  UNL     1      -7.359  11.423 -17.991  1.00  0.00    -0.265 OA
BRANCH   7  16
HETATM   16  C5  UNL     1      -9.877  15.381 -17.190  1.00  0.00     0.056 C 
BRANCH  16  17
HETATM   17  C6  UNL     1      -9.859  16.499 -16.454  1.00  0.00     0.077 A 
HETATM   18  S1  UNL     1      -9.568  16.706 -14.779  1.00  0.00    -0.065 SA
HETATM   19  C7  UNL     1      -9.737  18.398 -14.705  1.00  0.00     0.099 A 
HETATM   20  N3  UNL     1     -10.008  18.731 -15.962  1.00  0.00    -0.315 N 
HETATM   21  C12 UNL     1     -10.075  17.792 -16.859  1.00  0.00     0.263 A 
ATOM     22  H3  UNL     1     -10.161  19.706 -16.219  1.00  0.00     0.170 HD
HETATM   23  O4  UNL     1     -10.333  18.005 -18.113  1.00  0.00    -0.267 OA
BRANCH  19  24
HETATM   24  C8  UNL     1      -9.623  19.203 -13.632  1.00  0.00     0.172 C 
BRANCH  24  25
HETATM   25  O1  UNL     1      -9.067  20.465 -13.742  1.00  0.00    -0.358 OA
BRANCH  25  26
HETATM   26  C9  UNL     1      -7.818  20.683 -13.114  1.00  0.00     0.208 C 
BRANCH  26  27
HETATM   27  C10 UNL     1      -6.932  21.590 -13.911  1.00  0.00     0.165 C 
BRANCH  27  28
HETATM   28  O2  UNL     1      -6.765  22.768 -13.170  1.00  0.00    -0.391 OA
ATOM     29  H2  UNL     1      -6.344  23.403 -13.737  1.00  0.00     0.210 HD
ENDBRANCH  27  28
BRANCH  27  30
HETATM   30  C11 UNL     1      -7.503  21.964 -15.241  1.00  0.00     0.198 C 
BRANCH  30  31
HETATM   31  O3  UNL     1      -7.662  20.897 -16.097  1.00  0.00    -0.398 OA
ATOM     32  H3  UNL     1      -7.686  20.055 -15.660  1.00  0.00     0.209 HD
ENDBRANCH  30  31
ENDBRANCH  27  30
ENDBRANCH  26  27
ENDBRANCH  25  26
ENDBRANCH  24  25
ENDBRANCH  19  24
ENDBRANCH  16  17
ENDBRANCH   7  16
ENDBRANCH   4   6
ENDBRANCH   3   4
TORSDOF 11
ENDMDL
MODEL 5
REMARK VINA RESULT: -7.077638054      1.345      1.386
REMARK  11 active torsions:
REMARK  status: ('A' for Active; 'I' for Inactive)
REMARK    1  A    between atoms: C2_3  and  N2_4 
REMARK    2  A    between atoms: N2_4  and  C3_6 
REMARK    3  A    between atoms: C4_7  and  C5_8 
REMARK    4  A    between atoms: C5_8  and  C6_9 
REMARK    5  A    between atoms: C7_11  and  C8_12 
REMARK    6  A    between atoms: C8_12  and  O1_13 
REMARK    7  A    between atoms: O1_13  and  C9_14 
REMARK    8  A    between atoms: C9_14  and  C10_15 
REMARK    9  A    between atoms: C10_15  and  O2_16 
REMARK   10  A    between atoms: C10_15  and  C11_18 
REMARK   11  A    between atoms: C11_18  and  O3_19 
ROOT
HETATM    1  N1  UNL     1      -5.448  14.669 -15.292  1.00  0.00    -0.191 NA
HETATM    2  C1  UNL     1      -5.594  14.526 -16.427  1.00  0.00     0.105 C 
HETATM    3  C2  UNL     1      -5.750  14.342 -17.856  1.00  0.00     0.183 C 
ENDROOT
BRANCH   3   4
HETATM    4  N2  UNL     1      -7.082  14.482 -18.341  1.00  0.00    -0.351 N 
ATOM      5  H2  UNL     1      -7.267  15.158 -19.082  1.00  0.00     0.166 HD
BRANCH   4   6
HETATM    6  C3  UNL     1      -8.164  13.712 -17.828  1.00  0.00     0.128 A 
HETATM    7  C4  UNL     1      -9.277  14.412 -17.344  1.00  0.00     0.070 A 
HETATM    8  N4  UNL     1     -10.285  13.684 -16.858  1.00  0.00    -0.306 N 
HETATM    9  C13 UNL     1     -10.282  12.342 -16.813  1.00  0.00     0.327 A 
ATOM     10  H4  UNL     1     -11.105  14.176 -16.500  1.00  0.00     0.171 HD
HETATM   11  O5  UNL     1     -11.239  11.681 -16.353  1.00  0.00    -0.247 OA
HETATM   12  N5  UNL     1      -9.195  11.679 -17.288  1.00  0.00    -0.274 N 
HETATM   13  C14 UNL     1      -8.135  12.336 -17.795  1.00  0.00     0.278 A 
ATOM     14  H5  UNL     1      -9.181  10.659 -17.259  1.00  0.00     0.173 HD
HETATM   15  O6  UNL     1      -7.152  11.682 -18.220  1.00  0.00    -0.265 OA
BRANCH   7  16
HETATM   16  C5  UNL     1      -9.279  15.858 -17.392  1.00  0.00     0.056 C 
BRANCH  16  17
HETATM   17  C6  UNL     1      -9.101  16.565 -16.269  1.00  0.00     0.077 A 
HETATM   18  S1  UNL     1      -7.707  17.376 -15.693  1.00  0.00    -0.065 SA
HETATM   19  C7  UNL     1      -8.357  17.985 -14.243  1.00  0.00     0.099 A 
HETATM   20  N3  UNL     1      -9.609  17.543 -14.263  1.00  0.00    -0.315 N 
HETATM   21  C12 UNL     1     -10.005  16.826 -15.272  1.00  0.00     0.263 A 
ATOM     22  H3  UNL     1     -10.249  17.762 -13.499  1.00  0.00     0.170 HD
HETATM   23  O4  UNL     1     -11.204  16.344 -15.392  1.00  0.00    -0.267 OA
BRANCH  19  24
HETATM   24  C8  UNL     1      -7.748  18.734 -13.304  1.00  0.00     0.172 C 
BRANCH  24  25
HETATM   25  O1  UNL     1      -7.323  20.021 -13.583  1.00  0.00    -0.358 OA
BRANCH  25  26
HETATM   26  C9  UNL     1      -8.302  20.952 -14.003  1.00  0.00     0.208 C 
BRANCH  26  27
HETATM   27  C10 UNL     1      -7.829  21.797 -15.147  1.00  0.00     0.165 C 
BRANCH  27  28
HETATM   28  O2  UNL     1      -7.014  20.989 -15.952  1.00  0.00    -0.391 OA
ATOM     29  H2  UNL     1      -7.210  20.085 -15.735  1.00  0.00     0.210 HD
ENDBRANCH  27  28
BRANCH  27  30
HETATM   30  C11 UNL     1      -7.021  22.980 -14.720  1.00  0.00     0.198 C 
BRANCH  30  31
HETATM   31  O3  UNL     1      -6.543  22.891 -13.430  1.00  0.00    -0.398 OA
ATOM     32  H3  UNL     1      -5.597  22.938 -13.368  1.00  0.00     0.209 HD
ENDBRANCH  30  31
ENDBRANCH  27  30
ENDBRANCH  26  27
ENDBRANCH  25  26
ENDBRANCH  24  25
ENDBRANCH  19  24
ENDBRANCH  16  17
ENDBRANCH   7  16
ENDBRANCH   4   6
ENDBRANCH   3   4
TORSDOF 11
ENDMDL
