MODEL 1
REMARK VINA RESULT: -8.276836573      0.000      0.000
REMARK  9 active torsions:
REMARK  status: ('A' for Active; 'I' for Inactive)
REMARK    1  A    between atoms: O1_2  and  C2_3 
REMARK    2  A    between atoms: C2_3  and  C3_5 
REMARK    3  A    between atoms: C3_5  and  C4_6 
REMARK    4  A    between atoms: C4_6  and  N1_7 
REMARK       I    between atoms: N1_7  and  C5_9 
REMARK    5  A    between atoms: C5_9  and  C6_11 
REMARK    6  A    between atoms: C6_11  and  N2_12 
REMARK       I    between atoms: N2_12  and  C7_13 
REMARK    7  A    between atoms: C7_13  and  C8_15 
REMARK    8  A    between atoms: C8_15  and  N3_16 
REMARK    9  A    between atoms: C13_28  and  N6_29 
ROOT
HETATM    1  N3  UNL     1      -8.311  14.788 -17.462  1.00  0.00    -0.274 N 
HETATM    2  C9  UNL     1      -7.143  14.341 -18.010  1.00  0.00     0.331 A 
HETATM    3  O5  UNL     1      -6.281  15.195 -18.326  1.00  0.00    -0.246 OA
HETATM    4  N4  UNL     1      -6.907  13.044 -18.212  1.00  0.00    -0.274 N 
ATOM      5  H4  UNL     1      -6.015  12.770 -18.623  1.00  0.00     0.173 HD
HETATM    6  C10 UNL     1      -7.792  12.085 -17.897  1.00  0.00     0.269 A 
HETATM    7  O6  UNL     1      -7.565  10.873 -18.090  1.00  0.00    -0.267 OA
HETATM    8  C11 UNL     1      -8.979  12.497 -17.345  1.00  0.00     0.145 A 
HETATM    9  C12 UNL     1      -9.955  11.554 -16.982  1.00  0.00     0.279 A 
HETATM   10  O7  UNL     1      -9.734  10.336 -17.177  1.00  0.00    -0.266 OA
HETATM   11  N5  UNL     1     -11.113  11.970 -16.434  1.00  0.00    -0.155 N 
ATOM     12  H5  UNL     1     -11.820  11.283 -16.170  1.00  0.00     0.187 HD
HETATM   13  C13 UNL     1     -11.350  13.277 -16.229  1.00  0.00     0.680 A 
HETATM   14  N7  UNL     1     -10.392  14.188 -16.588  1.00  0.00    -0.175 N 
ATOM     15  H7  UNL     1     -10.578  15.178 -16.432  1.00  0.00     0.186 HD
HETATM   16  C14 UNL     1      -9.230  13.835 -17.131  1.00  0.00     0.149 A 
ENDROOT
BRANCH   1  17
HETATM   17  C8  UNL     1      -8.531  16.187 -17.240  1.00  0.00     0.254 C 
BRANCH  17  18
HETATM   18  C7  UNL     1      -9.576  16.657 -18.261  1.00  0.00     0.309 C 
HETATM   19  N2  UNL     1     -10.346  17.760 -17.998  1.00  0.00    -0.377 NA
HETATM   20  O4  UNL     1      -9.608  15.939 -19.278  1.00  0.00    -0.255 OA
BRANCH  19  21
HETATM   21  C6  UNL     1     -11.109  18.853 -17.738  1.00  0.00     0.260 C 
BRANCH  21  22
HETATM   22  C5  UNL     1     -11.037  19.290 -16.299  1.00  0.00     0.270 C 
HETATM   23  N1  UNL     1     -10.209  20.328 -15.851  1.00  0.00    -0.355 N 
ATOM     24  H1  UNL     1      -9.626  20.806 -16.538  1.00  0.00     0.162 HD
HETATM   25  O3  UNL     1     -11.761  18.677 -15.491  1.00  0.00    -0.266 OA
BRANCH  23  26
HETATM   26  C4  UNL     1     -10.132  20.761 -14.479  1.00  0.00     0.132 C 
BRANCH  26  27
HETATM   27  C3  UNL     1      -8.766  20.692 -13.884  1.00  0.00     0.130 C 
BRANCH  27  28
HETATM   28  C2  UNL     1      -7.715  20.744 -14.931  1.00  0.00     0.259 C 
HETATM   29  O2  UNL     1      -7.163  19.673 -15.346  1.00  0.00    -0.265 OA
BRANCH  28  30
HETATM   30  O1  UNL     1      -7.279  21.926 -15.511  1.00  0.00    -0.326 OA
HETATM   31  C1  UNL     1      -6.929  23.048 -14.703  1.00  0.00     0.213 C 
ENDBRANCH  28  30
ENDBRANCH  27  28
ENDBRANCH  26  27
ENDBRANCH  23  26
ENDBRANCH  21  22
ENDBRANCH  19  21
ENDBRANCH  17  18
ENDBRANCH   1  17
BRANCH  13  32
HETATM   32  N6  UNL     1     -12.433  13.737 -15.718  1.00  0.00    -0.234 N 
ATOM     33  H62 UNL     1     -13.308  13.470 -16.166  1.00  0.00     0.174 HD
ATOM     34  H61 UNL     1     -12.462  14.342 -14.897  1.00  0.00     0.174 HD
ENDBRANCH  13  32
TORSDOF 9
ENDMDL
MODEL 2
REMARK VINA RESULT: -8.121485570      2.193      7.933
REMARK  9 active torsions:
REMARK  status: ('A' for Active; 'I' for Inactive)
REMARK    1  A    between atoms: O1_2  and  C2_3 
REMARK    2  A    between atoms: C2_3  and  C3_5 
REMARK    3  A    between atoms: C3_5  and  C4_6 
REMARK    4  A    between atoms: C4_6  and  N1_7 
REMARK       I    between atoms: N1_7  and  C5_9 
REMARK    5  A    between atoms: C5_9  and  C6_11 
REMARK    6  A    between atoms: C6_11  and  N2_12 
REMARK       I    between atoms: N2_12  and  C7_13 
REMARK    7  A    between atoms: C7_13  and  C8_15 
REMARK    8  A    between atoms: C8_15  and  N3_16 
REMARK    9  A    between atoms: C13_28  and  N6_29 
ROOT
HETATM    1  N3  UNL     1     -11.028  19.233 -15.251  1.00  0.00    -0.274 N 
HETATM    2  C9  UNL     1     -11.808  18.483 -14.418  1.00  0.00     0.331 A 
HETATM    3  O5  UNL     1     -12.862  17.992 -14.889  1.00  0.00    -0.246 OA
HETATM    4  N4  UNL     1     -11.480  18.269 -13.144  1.00  0.00    -0.274 N 
ATOM      5  H4  UNL     1     -12.102  17.700 -12.570  1.00  0.00     0.173 HD
HETATM    6  C10 UNL     1     -10.368  18.771 -12.583  1.00  0.00     0.269 A 
HETATM    7  O6  UNL     1     -10.069  18.568 -11.389  1.00  0.00    -0.267 OA
HETATM    8  C11 UNL     1      -9.559  19.531 -13.390  1.00  0.00     0.145 A 
HETATM    9  C12 UNL     1      -8.374  20.087 -12.881  1.00  0.00     0.279 A 
HETATM   10  O7  UNL     1      -8.070  19.889 -11.681  1.00  0.00    -0.266 OA
HETATM   11  N5  UNL     1      -7.584  20.825 -13.684  1.00  0.00    -0.155 N 
ATOM     12  H5  UNL     1      -6.723  21.226 -13.312  1.00  0.00     0.187 HD
HETATM   13  C13 UNL     1      -7.915  21.039 -14.969  1.00  0.00     0.680 A 
HETATM   14  N7  UNL     1      -9.072  20.494 -15.455  1.00  0.00    -0.175 N 
ATOM     15  H7  UNL     1      -9.319  20.661 -16.431  1.00  0.00     0.186 HD
HETATM   16  C14 UNL     1      -9.890  19.755 -14.709  1.00  0.00     0.149 A 
ENDROOT
BRANCH   1  17
HETATM   17  C8  UNL     1     -11.396  19.431 -16.623  1.00  0.00     0.254 C 
BRANCH  17  18
HETATM   18  C7  UNL     1     -10.540  18.481 -17.470  1.00  0.00     0.309 C 
HETATM   19  N2  UNL     1      -9.744  17.545 -16.862  1.00  0.00    -0.377 NA
HETATM   20  O4  UNL     1     -10.672  18.678 -18.693  1.00  0.00    -0.255 OA
BRANCH  19  21
HETATM   21  C6  UNL     1      -8.957  16.617 -16.259  1.00  0.00     0.260 C 
BRANCH  21  22
HETATM   22  C5  UNL     1      -8.289  15.688 -17.239  1.00  0.00     0.270 C 
HETATM   23  N1  UNL     1      -7.381  14.692 -16.856  1.00  0.00    -0.355 N 
ATOM     24  H1  UNL     1      -7.163  14.596 -15.864  1.00  0.00     0.162 HD
HETATM   25  O3  UNL     1      -8.578  15.840 -18.440  1.00  0.00    -0.266 OA
BRANCH  23  26
HETATM   26  C4  UNL     1      -6.737  13.792 -17.780  1.00  0.00     0.132 C 
BRANCH  26  27
HETATM   27  C3  UNL     1      -6.733  12.364 -17.352  1.00  0.00     0.130 C 
BRANCH  27  28
HETATM   28  C2  UNL     1      -8.011  11.691 -17.692  1.00  0.00     0.259 C 
HETATM   29  O2  UNL     1      -8.010  10.520 -18.195  1.00  0.00    -0.265 OA
BRANCH  28  30
HETATM   30  O1  UNL     1      -9.253  12.274 -17.490  1.00  0.00    -0.326 OA
HETATM   31  C1  UNL     1     -10.275  11.583 -16.775  1.00  0.00     0.213 C 
ENDBRANCH  28  30
ENDBRANCH  27  28
ENDBRANCH  26  27
ENDBRANCH  23  26
ENDBRANCH  21  22
ENDBRANCH  19  21
ENDBRANCH  17  18
ENDBRANCH   1  17
BRANCH  13  32
HETATM   32  N6  UNL     1      -7.209  21.736 -15.784  1.00  0.00    -0.234 N 
ATOM     33  H62 UNL     1      -6.593  22.441 -15.379  1.00  0.00     0.174 HD
ATOM     34  H61 UNL     1      -7.229  21.620 -16.797  1.00  0.00     0.174 HD
ENDBRANCH  13  32
TORSDOF 9
ENDMDL
MODEL 3
REMARK VINA RESULT: -8.088706905      0.691      1.268
REMARK  9 active torsions:
REMARK  status: ('A' for Active; 'I' for Inactive)
REMARK    1  A    between atoms: O1_2  and  C2_3 
REMARK    2  A    between atoms: C2_3  and  C3_5 
REMARK    3  A    between atoms: C3_5  and  C4_6 
REMARK    4  A    between atoms: C4_6  and  N1_7 
REMARK       I    between atoms: N1_7  and  C5_9 
REMARK    5  A    between atoms: C5_9  and  C6_11 
REMARK    6  A    between atoms: C6_11  and  N2_12 
REMARK       I    between atoms: N2_12  and  C7_13 
REMARK    7  A    between atoms: C7_13  and  C8_15 
REMARK    8  A    between atoms: C8_15  and  N3_16 
REMARK    9  A    between atoms: C13_28  and  N6_29 
ROOT
HETATM    1  N3  UNL     1      -8.330  14.784 -17.430  1.00  0.00    -0.274 N 
HETATM    2  C9  UNL     1      -7.167  14.334 -17.987  1.00  0.00     0.331 A 
HETATM    3  O5  UNL     1      -6.302  15.185 -18.304  1.00  0.00    -0.246 OA
HETATM    4  N4  UNL     1      -6.940  13.037 -18.197  1.00  0.00    -0.274 N 
ATOM      5  H4  UNL     1      -6.053  12.759 -18.616  1.00  0.00     0.173 HD
HETATM    6  C10 UNL     1      -7.829  12.081 -17.882  1.00  0.00     0.269 A 
HETATM    7  O6  UNL     1      -7.610  10.869 -18.083  1.00  0.00    -0.267 OA
HETATM    8  C11 UNL     1      -9.010  12.497 -17.320  1.00  0.00     0.145 A 
HETATM    9  C12 UNL     1      -9.990  11.558 -16.957  1.00  0.00     0.279 A 
HETATM   10  O7  UNL     1      -9.776  10.339 -17.160  1.00  0.00    -0.266 OA
HETATM   11  N5  UNL     1     -11.141  11.978 -16.399  1.00  0.00    -0.155 N 
ATOM     12  H5  UNL     1     -11.851  11.294 -16.135  1.00  0.00     0.187 HD
HETATM   13  C13 UNL     1     -11.369  13.285 -16.187  1.00  0.00     0.680 A 
HETATM   14  N7  UNL     1     -10.409  14.192 -16.546  1.00  0.00    -0.175 N 
ATOM     15  H7  UNL     1     -10.588  15.183 -16.384  1.00  0.00     0.186 HD
HETATM   16  C14 UNL     1      -9.252  13.835 -17.098  1.00  0.00     0.149 A 
ENDROOT
BRANCH   1  17
HETATM   17  C8  UNL     1      -8.540  16.184 -17.199  1.00  0.00     0.254 C 
BRANCH  17  18
HETATM   18  C7  UNL     1      -9.593  16.664 -18.207  1.00  0.00     0.309 C 
HETATM   19  N2  UNL     1     -10.346  17.777 -17.937  1.00  0.00    -0.377 NA
HETATM   20  O4  UNL     1      -9.648  15.943 -19.222  1.00  0.00    -0.255 OA
BRANCH  19  21
HETATM   21  C6  UNL     1     -11.092  18.880 -17.670  1.00  0.00     0.260 C 
BRANCH  21  22
HETATM   22  C5  UNL     1     -10.958  19.348 -16.244  1.00  0.00     0.270 C 
HETATM   23  N1  UNL     1     -10.039  20.326 -15.840  1.00  0.00    -0.355 N 
ATOM     24  H1  UNL     1      -9.432  20.737 -16.550  1.00  0.00     0.162 HD
HETATM   25  O3  UNL     1     -11.713  18.819 -15.408  1.00  0.00    -0.266 OA
BRANCH  23  26
HETATM   26  C4  UNL     1      -9.901  20.788 -14.482  1.00  0.00     0.132 C 
BRANCH  26  27
HETATM   27  C3  UNL     1      -8.536  20.618 -13.907  1.00  0.00     0.130 C 
BRANCH  27  28
HETATM   28  C2  UNL     1      -7.656  19.844 -14.817  1.00  0.00     0.259 C 
HETATM   29  O2  UNL     1      -6.893  20.444 -15.643  1.00  0.00    -0.265 OA
BRANCH  28  30
HETATM   30  O1  UNL     1      -7.605  18.458 -14.827  1.00  0.00    -0.326 OA
HETATM   31  C1  UNL     1      -7.944  17.707 -13.663  1.00  0.00     0.213 C 
ENDBRANCH  28  30
ENDBRANCH  27  28
ENDBRANCH  26  27
ENDBRANCH  23  26
ENDBRANCH  21  22
ENDBRANCH  19  21
ENDBRANCH  17  18
ENDBRANCH   1  17
BRANCH  13  32
HETATM   32  N6  UNL     1     -12.447  13.749 -15.666  1.00  0.00    -0.234 N 
ATOM     33  H62 UNL     1     -12.349  14.319 -14.827  1.00  0.00     0.174 HD
ATOM     34  H61 UNL     1     -13.379  13.583 -16.045  1.00  0.00     0.174 HD
ENDBRANCH  13  32
TORSDOF 9
ENDMDL
MODEL 4
REMARK VINA RESULT: -8.038967124      1.410      1.760
REMARK  9 active torsions:
REMARK  status: ('A' for Active; 'I' for Inactive)
REMARK    1  A    between atoms: O1_2  and  C2_3 
REMARK    2  A    between atoms: C2_3  and  C3_5 
REMARK    3  A    between atoms: C3_5  and  C4_6 
REMARK    4  A    between atoms: C4_6  and  N1_7 
REMARK       I    between atoms: N1_7  and  C5_9 
REMARK    5  A    between atoms: C5_9  and  C6_11 
REMARK    6  A    between atoms: C6_11  and  N2_12 
REMARK       I    between atoms: N2_12  and  C7_13 
REMARK    7  A    between atoms: C7_13  and  C8_15 
REMARK    8  A    between atoms: C8_15  and  N3_16 
REMARK    9  A    between atoms: C13_28  and  N6_29 
ROOT
HETATM    1  N3  UNL     1      -8.342  14.833 -17.582  1.00  0.00    -0.274 N 
HETATM    2  C9  UNL     1      -7.143  14.386 -18.060  1.00  0.00     0.331 A 
HETATM    3  O5  UNL     1      -6.290  15.243 -18.392  1.00  0.00    -0.246 OA
HETATM    4  N4  UNL     1      -6.871  13.087 -18.180  1.00  0.00    -0.274 N 
ATOM      5  H4  UNL     1      -5.958  12.813 -18.543  1.00  0.00     0.173 HD
HETATM    6  C10 UNL     1      -7.744  12.124 -17.845  1.00  0.00     0.269 A 
HETATM    7  O6  UNL     1      -7.483  10.910 -17.961  1.00  0.00    -0.267 OA
HETATM    8  C11 UNL     1      -8.961  12.537 -17.360  1.00  0.00     0.145 A 
HETATM    9  C12 UNL     1      -9.929  11.591 -16.982  1.00  0.00     0.279 A 
HETATM   10  O7  UNL     1      -9.672  10.370 -17.100  1.00  0.00    -0.266 OA
HETATM   11  N5  UNL     1     -11.115  12.007 -16.500  1.00  0.00    -0.155 N 
ATOM     12  H5  UNL     1     -11.815  11.319 -16.225  1.00  0.00     0.187 HD
HETATM   13  C13 UNL     1     -11.390  13.318 -16.379  1.00  0.00     0.680 A 
HETATM   14  N7  UNL     1     -10.440  14.231 -16.752  1.00  0.00    -0.175 N 
ATOM     15  H7  UNL     1     -10.655  15.224 -16.659  1.00  0.00     0.186 HD
HETATM   16  C14 UNL     1      -9.250  13.878 -17.232  1.00  0.00     0.149 A 
ENDROOT
BRANCH   1  17
HETATM   17  C8  UNL     1      -8.602  16.237 -17.447  1.00  0.00     0.254 C 
BRANCH  17  18
HETATM   18  C7  UNL     1      -8.498  16.582 -15.955  1.00  0.00     0.309 C 
HETATM   19  N2  UNL     1      -9.629  16.871 -15.236  1.00  0.00    -0.377 NA
HETATM   20  O4  UNL     1      -7.325  16.558 -15.537  1.00  0.00    -0.255 OA
BRANCH  19  21
HETATM   21  C6  UNL     1     -10.749  17.157 -14.524  1.00  0.00     0.260 C 
BRANCH  21  22
HETATM   22  C5  UNL     1     -10.955  18.636 -14.323  1.00  0.00     0.270 C 
HETATM   23  N1  UNL     1     -10.404  19.610 -15.166  1.00  0.00    -0.355 N 
ATOM     24  H1  UNL     1      -9.833  19.297 -15.952  1.00  0.00     0.162 HD
HETATM   25  O3  UNL     1     -11.654  18.977 -13.350  1.00  0.00    -0.266 OA
BRANCH  23  26
HETATM   26  C4  UNL     1     -10.595  21.028 -14.990  1.00  0.00     0.132 C 
BRANCH  26  27
HETATM   27  C3  UNL     1      -9.337  21.828 -15.006  1.00  0.00     0.130 C 
BRANCH  27  28
HETATM   28  C2  UNL     1      -8.154  20.986 -14.703  1.00  0.00     0.259 C 
HETATM   29  O2  UNL     1      -7.428  20.529 -15.646  1.00  0.00    -0.265 OA
BRANCH  28  30
HETATM   30  O1  UNL     1      -7.770  20.652 -13.413  1.00  0.00    -0.326 OA
HETATM   31  C1  UNL     1      -7.527  19.293 -13.054  1.00  0.00     0.213 C 
ENDBRANCH  28  30
ENDBRANCH  27  28
ENDBRANCH  26  27
ENDBRANCH  23  26
ENDBRANCH  21  22
ENDBRANCH  19  21
ENDBRANCH  17  18
ENDBRANCH   1  17
BRANCH  13  32
HETATM   32  N6  UNL     1     -12.501  13.778 -15.934  1.00  0.00    -0.234 N 
ATOM     33  H62 UNL     1     -13.194  13.098 -15.622  1.00  0.00     0.174 HD
ATOM     34  H61 UNL     1     -12.722  14.772 -15.873  1.00  0.00     0.174 HD
ENDBRANCH  13  32
TORSDOF 9
ENDMDL
MODEL 5
REMARK VINA RESULT: -7.919132257      1.584      2.176
REMARK  9 active torsions:
REMARK  status: ('A' for Active; 'I' for Inactive)
REMARK    1  A    between atoms: O1_2  and  C2_3 
REMARK    2  A    between atoms: C2_3  and  C3_5 
REMARK    3  A    between atoms: C3_5  and  C4_6 
REMARK    4  A    between atoms: C4_6  and  N1_7 
REMARK       I    between atoms: N1_7  and  C5_9 
REMARK    5  A    between atoms: C5_9  and  C6_11 
REMARK    6  A    between atoms: C6_11  and  N2_12 
REMARK       I    between atoms: N2_12  and  C7_13 
REMARK    7  A    between atoms: C7_13  and  C8_15 
REMARK    8  A    between atoms: C8_15  and  N3_16 
REMARK    9  A    between atoms: C13_28  and  N6_29 
ROOT
HETATM    1  N3  UNL     1      -7.282  14.017 -16.454  1.00  0.00    -0.274 N 
HETATM    2  C9  UNL     1      -6.463  13.450 -17.388  1.00  0.00     0.331 A 
HETATM    3  O5  UNL     1      -5.394  14.044 -17.666  1.00  0.00    -0.246 OA
HETATM    4  N4  UNL     1      -6.772  12.306 -17.998  1.00  0.00    -0.274 N 
ATOM      5  H4  UNL     1      -6.120  11.929 -18.686  1.00  0.00     0.173 HD
HETATM    6  C10 UNL     1      -7.902  11.626 -17.745  1.00  0.00     0.269 A 
HETATM    7  O6  UNL     1      -8.185  10.556 -18.320  1.00  0.00    -0.267 OA
HETATM    8  C11 UNL     1      -8.750  12.166 -16.811  1.00  0.00     0.145 A 
HETATM    9  C12 UNL     1      -9.951  11.514 -16.485  1.00  0.00     0.279 A 
HETATM   10  O7  UNL     1     -10.242  10.440 -17.063  1.00  0.00    -0.266 OA
HETATM   11  N5  UNL     1     -10.772  12.049 -15.562  1.00  0.00    -0.155 N 
ATOM     12  H5  UNL     1     -11.643  11.572 -15.326  1.00  0.00     0.187 HD
HETATM   13  C13 UNL     1     -10.460  13.203 -14.947  1.00  0.00     0.680 A 
HETATM   14  N7  UNL     1      -9.289  13.832 -15.273  1.00  0.00    -0.175 N 
ATOM     15  H7  UNL     1      -9.058  14.708 -14.804  1.00  0.00     0.186 HD
HETATM   16  C14 UNL     1      -8.438  13.348 -16.175  1.00  0.00     0.149 A 
ENDROOT
BRANCH   1  17
HETATM   17  C8  UNL     1      -6.917  15.240 -15.801  1.00  0.00     0.254 C 
BRANCH  17  18
HETATM   18  C7  UNL     1      -7.232  16.389 -16.768  1.00  0.00     0.309 C 
HETATM   19  N2  UNL     1      -8.440  16.433 -17.414  1.00  0.00    -0.377 NA
HETATM   20  O4  UNL     1      -6.296  17.207 -16.863  1.00  0.00    -0.255 OA
BRANCH  19  21
HETATM   21  C6  UNL     1      -9.637  16.475 -18.054  1.00  0.00     0.260 C 
BRANCH  21  22
HETATM   22  C5  UNL     1     -10.394  17.753 -17.800  1.00  0.00     0.270 C 
HETATM   23  N1  UNL     1     -10.906  18.105 -16.544  1.00  0.00    -0.355 N 
ATOM     24  H1  UNL     1     -10.760  17.460 -15.768  1.00  0.00     0.162 HD
HETATM   25  O3  UNL     1     -10.555  18.510 -18.774  1.00  0.00    -0.266 OA
BRANCH  23  26
HETATM   26  C4  UNL     1     -11.628  19.325 -16.284  1.00  0.00     0.132 C 
BRANCH  26  27
HETATM   27  C3  UNL     1     -10.923  20.281 -15.382  1.00  0.00     0.130 C 
BRANCH  27  28
HETATM   28  C2  UNL     1      -9.661  19.702 -14.858  1.00  0.00     0.259 C 
HETATM   29  O2  UNL     1      -9.619  19.194 -13.690  1.00  0.00    -0.265 OA
BRANCH  28  30
HETATM   30  O1  UNL     1      -8.479  19.675 -15.584  1.00  0.00    -0.326 OA
HETATM   31  C1  UNL     1      -7.337  20.408 -15.146  1.00  0.00     0.213 C 
ENDBRANCH  28  30
ENDBRANCH  27  28
ENDBRANCH  26  27
ENDBRANCH  23  26
ENDBRANCH  21  22
ENDBRANCH  19  21
ENDBRANCH  17  18
ENDBRANCH   1  17
BRANCH  13  32
HETATM   32  N6  UNL     1     -11.201  13.767 -14.064  1.00  0.00    -0.234 N 
ATOM     33  H62 UNL     1     -10.897  13.704 -13.093  1.00  0.00     0.174 HD
ATOM     34  H61 UNL     1     -12.061  14.270 -14.281  1.00  0.00     0.174 HD
ENDBRANCH  13  32
TORSDOF 9
ENDMDL
