MODEL 1
REMARK VINA RESULT: -6.282143522      0.000      0.000
REMARK  4 active torsions:
REMARK  status: ('A' for Active; 'I' for Inactive)
REMARK    1  A    between atoms: C2_5  and  C3_6 
REMARK    2  A    between atoms: C3_6  and  N3_7 
REMARK    3  A    between atoms: C3_6  and  N4_11 
REMARK    4  A    between atoms: C4_17  and  N6_18 
REMARK       I    between atoms: N6_18  and  C5_20 
ROOT
HETATM    1  C1  UNL     1     -18.378  50.806 -58.810  1.00  0.00     0.197 C 
HETATM    2  N1  UNL     1     -19.567  51.558 -59.195  1.00  0.00    -0.127 N 
HETATM    3  N2  UNL     1     -19.831  52.837 -58.981  1.00  0.00    -0.269 N 
ATOM      4  H2  UNL     1     -19.216  53.492 -58.500  1.00  0.00     0.189 HD
HETATM    5  C2  UNL     1     -21.036  53.139 -59.496  1.00  0.00     0.170 A 
HETATM    6  N5  UNL     1     -21.498  51.998 -60.034  1.00  0.00    -0.174 N 
ATOM      7  H5  UNL     1     -22.394  51.891 -60.508  1.00  0.00     0.185 HD
HETATM    8  C4  UNL     1     -20.599  51.026 -59.850  1.00  0.00     0.702 A 
ENDROOT
BRANCH   5   9
HETATM    9  C3  UNL     1     -21.726  54.450 -59.485  1.00  0.00     0.446 C 
BRANCH   9  10
HETATM   10  N3  UNL     1     -23.072  54.368 -60.023  1.00  0.00    -0.043 N 
ATOM     11  H33 UNL     1     -23.333  53.401 -60.219  1.00  0.00     0.277 HD
ATOM     12  H32 UNL     1     -23.768  54.584 -59.309  1.00  0.00     0.277 HD
ATOM     13  H31 UNL     1     -23.196  54.957 -60.847  1.00  0.00     0.277 HD
ENDBRANCH   9  10
BRANCH   9  14
HETATM   14  N4  UNL     1     -21.829  54.916 -58.107  1.00  0.00    -0.043 N 
ATOM     15  H43 UNL     1     -22.785  54.879 -57.754  1.00  0.00     0.277 HD
ATOM     16  H42 UNL     1     -21.407  54.266 -57.444  1.00  0.00     0.277 HD
ATOM     17  H41 UNL     1     -21.427  55.852 -58.045  1.00  0.00     0.277 HD
ENDBRANCH   9  14
ENDBRANCH   5   9
BRANCH   8  18
HETATM   18  N6  UNL     1     -20.689  49.776 -60.233  1.00  0.00    -0.162 N 
HETATM   19  C5  UNL     1     -20.609  49.461 -61.615  1.00  0.00     0.200 C 
HETATM   20  N7  UNL     1     -19.490  49.010 -62.053  1.00  0.00    -0.373 N 
HETATM   21  N8  UNL     1     -21.753  49.654 -62.434  1.00  0.00    -0.063 NA
ATOM     22  H72 UNL     1     -18.668  48.871 -61.465  1.00  0.00     0.158 HD
ATOM     23  H71 UNL     1     -19.432  48.784 -63.046  1.00  0.00     0.158 HD
ATOM     24  H6  UNL     1     -20.817  49.035 -59.543  1.00  0.00     0.187 HD
ENDBRANCH   8  18
TORSDOF 4
ENDMDL
MODEL 2
REMARK VINA RESULT: -6.264311451      2.062      3.948
REMARK  4 active torsions:
REMARK  status: ('A' for Active; 'I' for Inactive)
REMARK    1  A    between atoms: C2_5  and  C3_6 
REMARK    2  A    between atoms: C3_6  and  N3_7 
REMARK    3  A    between atoms: C3_6  and  N4_11 
REMARK    4  A    between atoms: C4_17  and  N6_18 
REMARK       I    between atoms: N6_18  and  C5_20 
ROOT
HETATM    1  C1  UNL     1     -22.611  54.846 -60.261  1.00  0.00     0.197 C 
HETATM    2  N1  UNL     1     -21.813  53.629 -60.162  1.00  0.00    -0.127 N 
HETATM    3  N2  UNL     1     -21.204  53.134 -59.097  1.00  0.00    -0.269 N 
ATOM      4  H2  UNL     1     -21.211  53.553 -58.167  1.00  0.00     0.189 HD
HETATM    5  C2  UNL     1     -20.574  51.993 -59.428  1.00  0.00     0.170 A 
HETATM    6  N5  UNL     1     -20.821  51.808 -60.736  1.00  0.00    -0.174 N 
ATOM      7  H5  UNL     1     -20.482  51.026 -61.295  1.00  0.00     0.185 HD
HETATM    8  C4  UNL     1     -21.580  52.811 -61.189  1.00  0.00     0.702 A 
ENDROOT
BRANCH   5   9
HETATM    9  C3  UNL     1     -19.772  51.110 -58.551  1.00  0.00     0.446 C 
BRANCH   9  10
HETATM   10  N3  UNL     1     -19.767  49.733 -59.011  1.00  0.00    -0.043 N 
ATOM     11  H33 UNL     1     -20.581  49.536 -59.594  1.00  0.00     0.277 HD
ATOM     12  H32 UNL     1     -19.032  49.577 -59.701  1.00  0.00     0.277 HD
ATOM     13  H31 UNL     1     -19.696  49.067 -58.241  1.00  0.00     0.277 HD
ENDBRANCH   9  10
BRANCH   9  14
HETATM   14  N4  UNL     1     -18.391  51.579 -58.546  1.00  0.00    -0.043 N 
ATOM     15  H43 UNL     1     -18.128  52.023 -59.426  1.00  0.00     0.277 HD
ATOM     16  H42 UNL     1     -18.255  52.383 -57.933  1.00  0.00     0.277 HD
ATOM     17  H41 UNL     1     -17.778  50.799 -58.306  1.00  0.00     0.277 HD
ENDBRANCH   9  14
ENDBRANCH   5   9
BRANCH   8  18
HETATM   18  N6  UNL     1     -22.028  52.982 -62.409  1.00  0.00    -0.162 N 
HETATM   19  C5  UNL     1     -23.116  52.197 -62.870  1.00  0.00     0.200 C 
HETATM   20  N7  UNL     1     -24.276  52.747 -62.884  1.00  0.00    -0.373 N 
HETATM   21  N8  UNL     1     -22.875  50.861 -63.289  1.00  0.00    -0.063 NA
ATOM     22  H72 UNL     1     -24.450  53.706 -62.584  1.00  0.00     0.158 HD
ATOM     23  H71 UNL     1     -25.058  52.183 -63.215  1.00  0.00     0.158 HD
ATOM     24  H6  UNL     1     -21.596  53.673 -63.023  1.00  0.00     0.187 HD
ENDBRANCH   8  18
TORSDOF 4
ENDMDL
MODEL 3
REMARK VINA RESULT: -6.002379037      2.396      4.169
REMARK  4 active torsions:
REMARK  status: ('A' for Active; 'I' for Inactive)
REMARK    1  A    between atoms: C2_5  and  C3_6 
REMARK    2  A    between atoms: C3_6  and  N3_7 
REMARK    3  A    between atoms: C3_6  and  N4_11 
REMARK    4  A    between atoms: C4_17  and  N6_18 
REMARK       I    between atoms: N6_18  and  C5_20 
ROOT
HETATM    1  C1  UNL     1     -22.289  54.970 -59.341  1.00  0.00     0.197 C 
HETATM    2  N1  UNL     1     -22.181  53.993 -60.419  1.00  0.00    -0.127 N 
HETATM    3  N2  UNL     1     -22.957  53.861 -61.483  1.00  0.00    -0.269 N 
ATOM      4  H2  UNL     1     -23.764  54.445 -61.699  1.00  0.00     0.189 HD
HETATM    5  C2  UNL     1     -22.517  52.836 -62.235  1.00  0.00     0.170 A 
HETATM    6  N5  UNL     1     -21.443  52.348 -61.592  1.00  0.00    -0.174 N 
ATOM      7  H5  UNL     1     -20.876  51.562 -61.906  1.00  0.00     0.185 HD
HETATM    8  C4  UNL     1     -21.235  53.056 -60.477  1.00  0.00     0.702 A 
ENDROOT
BRANCH   5   9
HETATM    9  C3  UNL     1     -23.083  52.336 -63.509  1.00  0.00     0.446 C 
BRANCH   9  10
HETATM   10  N3  UNL     1     -24.390  51.729 -63.331  1.00  0.00    -0.043 N 
ATOM     11  H33 UNL     1     -24.685  51.770 -62.355  1.00  0.00     0.277 HD
ATOM     12  H32 UNL     1     -25.123  52.303 -63.747  1.00  0.00     0.277 HD
ATOM     13  H31 UNL     1     -24.424  50.773 -63.686  1.00  0.00     0.277 HD
ENDBRANCH   9  10
BRANCH   9  14
HETATM   14  N4  UNL     1     -23.239  53.458 -64.428  1.00  0.00    -0.043 N 
ATOM     15  H43 UNL     1     -24.206  53.776 -64.493  1.00  0.00     0.277 HD
ATOM     16  H42 UNL     1     -22.829  54.319 -64.064  1.00  0.00     0.277 HD
ATOM     17  H41 UNL     1     -22.853  53.197 -65.336  1.00  0.00     0.277 HD
ENDBRANCH   9  14
ENDBRANCH   5   9
BRANCH   8  18
HETATM   18  N6  UNL     1     -20.286  52.883 -59.590  1.00  0.00    -0.162 N 
HETATM   19  C5  UNL     1     -20.192  51.646 -58.900  1.00  0.00     0.200 C 
HETATM   20  N7  UNL     1     -19.304  50.811 -59.305  1.00  0.00    -0.373 N 
HETATM   21  N8  UNL     1     -21.069  51.394 -57.813  1.00  0.00    -0.063 NA
ATOM     22  H72 UNL     1     -18.673  50.992 -60.086  1.00  0.00     0.158 HD
ATOM     23  H71 UNL     1     -19.236  49.923 -58.809  1.00  0.00     0.158 HD
ATOM     24  H6  UNL     1     -19.620  53.631 -59.397  1.00  0.00     0.187 HD
ENDBRANCH   8  18
TORSDOF 4
ENDMDL
MODEL 4
REMARK VINA RESULT: -5.955211048      2.183      4.106
REMARK  4 active torsions:
REMARK  status: ('A' for Active; 'I' for Inactive)
REMARK    1  A    between atoms: C2_5  and  C3_6 
REMARK    2  A    between atoms: C3_6  and  N3_7 
REMARK    3  A    between atoms: C3_6  and  N4_11 
REMARK    4  A    between atoms: C4_17  and  N6_18 
REMARK       I    between atoms: N6_18  and  C5_20 
ROOT
HETATM    1  C1  UNL     1     -22.504  55.398 -59.488  1.00  0.00     0.197 C 
HETATM    2  N1  UNL     1     -21.917  54.095 -59.781  1.00  0.00    -0.127 N 
HETATM    3  N2  UNL     1     -20.988  53.445 -59.100  1.00  0.00    -0.269 N 
ATOM      4  H2  UNL     1     -20.541  53.780 -58.247  1.00  0.00     0.189 HD
HETATM    5  C2  UNL     1     -20.724  52.273 -59.705  1.00  0.00     0.170 A 
HETATM    6  N5  UNL     1     -21.528  52.231 -60.781  1.00  0.00    -0.174 N 
ATOM      7  H5  UNL     1     -21.572  51.467 -61.454  1.00  0.00     0.185 HD
HETATM    8  C4  UNL     1     -22.260  53.349 -60.831  1.00  0.00     0.702 A 
ENDROOT
BRANCH   5   9
HETATM    9  C3  UNL     1     -19.756  51.233 -59.288  1.00  0.00     0.446 C 
BRANCH   9  10
HETATM   10  N3  UNL     1     -18.416  51.764 -59.116  1.00  0.00    -0.043 N 
ATOM     11  H33 UNL     1     -18.223  51.968 -58.135  1.00  0.00     0.277 HD
ATOM     12  H32 UNL     1     -17.711  51.045 -59.275  1.00  0.00     0.277 HD
ATOM     13  H31 UNL     1     -18.246  52.582 -59.702  1.00  0.00     0.277 HD
ENDBRANCH   9  10
BRANCH   9  14
HETATM   14  N4  UNL     1     -20.181  50.682 -58.006  1.00  0.00    -0.043 N 
ATOM     15  H43 UNL     1     -21.036  51.117 -57.659  1.00  0.00     0.277 HD
ATOM     16  H42 UNL     1     -20.530  49.727 -58.090  1.00  0.00     0.277 HD
ATOM     17  H41 UNL     1     -19.409  50.757 -57.343  1.00  0.00     0.277 HD
ENDBRANCH   9  14
ENDBRANCH   5   9
BRANCH   8  18
HETATM   18  N6  UNL     1     -23.156  53.673 -61.731  1.00  0.00    -0.162 N 
HETATM   19  C5  UNL     1     -23.197  52.967 -62.961  1.00  0.00     0.200 C 
HETATM   20  N7  UNL     1     -24.097  52.061 -63.092  1.00  0.00    -0.373 N 
HETATM   21  N8  UNL     1     -22.257  53.291 -63.975  1.00  0.00    -0.063 NA
ATOM     22  H72 UNL     1     -24.773  51.827 -62.364  1.00  0.00     0.158 HD
ATOM     23  H71 UNL     1     -24.127  51.554 -63.976  1.00  0.00     0.158 HD
ATOM     24  H6  UNL     1     -23.818  54.427 -61.549  1.00  0.00     0.187 HD
ENDBRANCH   8  18
TORSDOF 4
ENDMDL
MODEL 5
REMARK VINA RESULT: -5.945408414      2.396      4.136
REMARK  4 active torsions:
REMARK  status: ('A' for Active; 'I' for Inactive)
REMARK    1  A    between atoms: C2_5  and  C3_6 
REMARK    2  A    between atoms: C3_6  and  N3_7 
REMARK    3  A    between atoms: C3_6  and  N4_11 
REMARK    4  A    between atoms: C4_17  and  N6_18 
REMARK       I    between atoms: N6_18  and  C5_20 
ROOT
HETATM    1  C1  UNL     1     -22.170  54.843 -59.432  1.00  0.00     0.197 C 
HETATM    2  N1  UNL     1     -22.235  53.786 -60.436  1.00  0.00    -0.127 N 
HETATM    3  N2  UNL     1     -22.839  53.812 -61.613  1.00  0.00    -0.269 N 
ATOM      4  H2  UNL     1     -23.359  54.604 -61.990  1.00  0.00     0.189 HD
HETATM    5  C2  UNL     1     -22.660  52.634 -62.236  1.00  0.00     0.170 A 
HETATM    6  N5  UNL     1     -21.924  51.887 -61.397  1.00  0.00    -0.174 N 
ATOM      7  H5  UNL     1     -21.613  50.933 -61.575  1.00  0.00     0.185 HD
HETATM    8  C4  UNL     1     -21.662  52.592 -60.291  1.00  0.00     0.702 A 
ENDROOT
BRANCH   5   9
HETATM    9  C3  UNL     1     -23.160  52.227 -63.569  1.00  0.00     0.446 C 
BRANCH   9  10
HETATM   10  N3  UNL     1     -24.483  51.633 -63.503  1.00  0.00    -0.043 N 
ATOM     11  H33 UNL     1     -25.174  52.307 -63.173  1.00  0.00     0.277 HD
ATOM     12  H32 UNL     1     -24.857  51.460 -64.436  1.00  0.00     0.277 HD
ATOM     13  H31 UNL     1     -24.499  50.784 -62.938  1.00  0.00     0.277 HD
ENDBRANCH   9  10
BRANCH   9  14
HETATM   14  N4  UNL     1     -23.247  53.407 -64.421  1.00  0.00    -0.043 N 
ATOM     15  H43 UNL     1     -23.745  54.176 -63.971  1.00  0.00     0.277 HD
ATOM     16  H42 UNL     1     -22.346  53.870 -64.538  1.00  0.00     0.277 HD
ATOM     17  H41 UNL     1     -23.667  53.141 -65.312  1.00  0.00     0.277 HD
ENDBRANCH   9  14
ENDBRANCH   5   9
BRANCH   8  18
HETATM   18  N6  UNL     1     -20.973  52.204 -59.245  1.00  0.00    -0.162 N 
HETATM   19  C5  UNL     1     -19.608  51.848 -59.401  1.00  0.00     0.200 C 
HETATM   20  N7  UNL     1     -18.728  52.717 -59.056  1.00  0.00    -0.373 N 
HETATM   21  N8  UNL     1     -19.284  50.568 -59.922  1.00  0.00    -0.063 NA
ATOM     22  H72 UNL     1     -18.961  53.638 -58.682  1.00  0.00     0.158 HD
ATOM     23  H71 UNL     1     -17.748  52.462 -59.168  1.00  0.00     0.158 HD
ATOM     24  H6  UNL     1     -21.414  52.158 -58.327  1.00  0.00     0.187 HD
ENDBRANCH   8  18
TORSDOF 4
ENDMDL
