MODEL 1
REMARK VINA RESULT: -8.973882777      0.000      0.000
REMARK  18 active torsions:
REMARK  status: ('A' for Active; 'I' for Inactive)
REMARK    1  A    between atoms: N1_4  and  C4_5 
REMARK    2  A    between atoms: C5_6  and  N2_7 
REMARK    3  A    between atoms: N2_7  and  O1_9 
REMARK    4  A    between atoms: O1_9  and  S1_10 
REMARK    5  A    between atoms: S1_10  and  C6_13 
REMARK    6  A    between atoms: C8_15  and  O4_16 
REMARK    7  A    between atoms: C9_18  and  O5_19 
REMARK    8  A    between atoms: C10_21  and  O6_22 
REMARK    9  A    between atoms: C12_27  and  O7_29 
REMARK   10  A    between atoms: C14_31  and  C15_32 
REMARK       I    between atoms: C15_32  and  N4_34 
REMARK   11  A    between atoms: N4_34  and  C16_36 
REMARK   12  A    between atoms: C16_36  and  C17_37 
REMARK   13  A    between atoms: C16_36  and  C18_40 
REMARK   14  A    between atoms: C19_45  and  C20_46 
REMARK   15  A    between atoms: C20_46  and  S2_47 
REMARK   16  A    between atoms: S2_47  and  C21_48 
REMARK   17  A    between atoms: C21_48  and  C22_49 
REMARK   18  A    between atoms: C22_49  and  O11_50 
ROOT
HETATM    1  C4  UNL     1     -18.980  25.393  38.541  1.00  0.00     0.192 C 
HETATM    2  C5  UNL     1     -18.804  24.174  39.379  1.00  0.00     0.127 C 
HETATM    3  N3  UNL     1     -19.488  24.293  40.485  1.00  0.00    -0.345 N 
ATOM      4  H3  UNL     1     -19.527  23.587  41.221  1.00  0.00     0.164 HD
HETATM    5  C12 UNL     1     -20.185  25.564  40.528  1.00  0.00     0.143 C 
HETATM    6  C13 UNL     1     -19.300  26.564  41.202  1.00  0.00     0.072 C 
HETATM    7  C14 UNL     1     -20.354  25.853  39.040  1.00  0.00     0.164 C 
ENDROOT
BRANCH   7   8
HETATM    8  C15 UNL     1     -20.592  27.259  38.746  1.00  0.00     0.230 C 
HETATM    9  O8  UNL     1     -19.638  28.061  38.510  1.00  0.00    -0.273 OA
HETATM   10  N4  UNL     1     -21.913  27.767  38.717  1.00  0.00    -0.343 N 
ATOM     11  H4  UNL     1     -22.691  27.134  38.905  1.00  0.00     0.163 HD
BRANCH  10  12
HETATM   12  C16 UNL     1     -22.195  29.169  38.426  1.00  0.00     0.220 C 
BRANCH  12  13
HETATM   13  C17 UNL     1     -23.310  29.643  39.249  1.00  0.00     0.199 C 
HETATM   14  O9  UNL     1     -23.264  30.794  39.740  1.00  0.00    -0.646 OA
HETATM   15  O10 UNL     1     -24.421  28.818  39.486  1.00  0.00    -0.646 OA
ENDBRANCH  12  13
BRANCH  12  16
HETATM   16  C18 UNL     1     -22.544  29.221  36.959  1.00  0.00     0.200 C 
HETATM   17  N5  UNL     1     -23.763  29.934  36.672  1.00  0.00    -0.318 N 
HETATM   18  N6  UNL     1     -24.832  29.214  36.283  1.00  0.00    -0.301 N 
ATOM     19  H5  UNL     1     -23.814  30.949  36.761  1.00  0.00     0.181 HD
HETATM   20  C19 UNL     1     -24.714  27.977  36.025  1.00  0.00     0.073 C 
ATOM     21  H6  UNL     1     -25.742  29.666  36.194  1.00  0.00     0.187 HD
HETATM   22  S3  UNL     1     -22.989  27.587  36.304  1.00  0.00    -0.085 SA
BRANCH  20  23
HETATM   23  C20 UNL     1     -25.740  26.993  35.584  1.00  0.00     0.140 C 
BRANCH  23  24
HETATM   24  S2  UNL     1     -25.236  25.322  35.980  1.00  0.00    -0.160 SA
BRANCH  24  25
HETATM   25  C21 UNL     1     -25.368  24.898  37.715  1.00  0.00     0.100 C 
BRANCH  25  26
HETATM   26  C22 UNL     1     -23.998  24.852  38.395  1.00  0.00     0.174 C 
BRANCH  26  27
HETATM   27  O11 UNL     1     -23.939  25.853  39.352  1.00  0.00    -0.400 OA
ATOM     28  H11 UNL     1     -23.058  25.887  39.707  1.00  0.00     0.209 HD
ENDBRANCH  26  27
ENDBRANCH  25  26
ENDBRANCH  24  25
ENDBRANCH  23  24
ENDBRANCH  20  23
ENDBRANCH  12  16
ENDBRANCH  10  12
ENDBRANCH   7   8
BRANCH   1  29
HETATM   29  N1  UNL     1     -18.988  25.096  37.136  1.00  0.00    -0.272 N 
HETATM   30  C3  UNL     1     -18.261  25.737  36.206  1.00  0.00     0.134 A 
HETATM   31  C2  UNL     1     -18.506  25.203  34.974  1.00  0.00     0.036 A 
HETATM   32  C1  UNL     1     -17.911  25.612  33.652  1.00  0.00     0.071 C 
HETATM   33  N8  UNL     1     -19.402  24.218  35.179  1.00  0.00    -0.287 N 
HETATM   34  N7  UNL     1     -19.673  24.174  36.471  1.00  0.00    -0.020 NA
ATOM     35  H8  UNL     1     -19.802  23.613  34.462  1.00  0.00     0.184 HD
ENDBRANCH   1  29
BRANCH   5  36
HETATM   36  O7  UNL     1     -21.427  25.454  41.144  1.00  0.00    -0.370 OA
ATOM     37  H7  UNL     1     -22.108  25.896  40.651  1.00  0.00     0.212 HD
ENDBRANCH   5  36
BRANCH   2  38
HETATM   38  N2  UNL     1     -18.021  23.038  39.053  1.00  0.00    -0.235 N 
ATOM     39  H2  UNL     1     -18.445  22.298  38.494  1.00  0.00     0.197 HD
BRANCH  38  40
HETATM   40  O1  UNL     1     -16.747  22.894  39.447  1.00  0.00    -0.146 OA
BRANCH  40  41
HETATM   41  S1  UNL     1     -15.728  22.501  38.169  1.00  0.00     0.319 S 
HETATM   42  O2  UNL     1     -15.321  21.049  38.218  1.00  0.00    -0.191 OA
HETATM   43  O3  UNL     1     -16.477  22.813  36.899  1.00  0.00    -0.191 OA
BRANCH  41  44
HETATM   44  C6  UNL     1     -14.321  23.538  38.259  1.00  0.00     0.093 A 
HETATM   45  C7  UNL     1     -14.391  24.872  37.932  1.00  0.00     0.065 A 
HETATM   46  C8  UNL     1     -13.286  25.708  37.997  1.00  0.00     0.103 A 
HETATM   47  C9  UNL     1     -12.061  25.207  38.402  1.00  0.00     0.132 A 
HETATM   48  C10 UNL     1     -11.978  23.870  38.733  1.00  0.00     0.103 A 
HETATM   49  C11 UNL     1     -13.084  23.052  38.663  1.00  0.00     0.065 A 
BRANCH  46  50
HETATM   50  O4  UNL     1     -13.354  27.055  37.667  1.00  0.00    -0.358 OA
ATOM     51  H4  UNL     1     -13.058  27.387  36.827  1.00  0.00     0.217 HD
ENDBRANCH  46  50
BRANCH  47  52
HETATM   52  O5  UNL     1     -10.934  26.043  38.473  1.00  0.00    -0.356 OA
ATOM     53  H5  UNL     1     -10.073  25.682  38.653  1.00  0.00     0.218 HD
ENDBRANCH  47  52
BRANCH  48  54
HETATM   54  O6  UNL     1     -10.740  23.387  39.137  1.00  0.00    -0.358 OA
ATOM     55  H6  UNL     1     -10.702  22.491  39.448  1.00  0.00     0.217 HD
ENDBRANCH  48  54
ENDBRANCH  41  44
ENDBRANCH  40  41
ENDBRANCH  38  40
ENDBRANCH   2  38
TORSDOF 18
ENDMDL
MODEL 2
REMARK VINA RESULT: -8.972672922      0.697      1.032
REMARK  18 active torsions:
REMARK  status: ('A' for Active; 'I' for Inactive)
REMARK    1  A    between atoms: N1_4  and  C4_5 
REMARK    2  A    between atoms: C5_6  and  N2_7 
REMARK    3  A    between atoms: N2_7  and  O1_9 
REMARK    4  A    between atoms: O1_9  and  S1_10 
REMARK    5  A    between atoms: S1_10  and  C6_13 
REMARK    6  A    between atoms: C8_15  and  O4_16 
REMARK    7  A    between atoms: C9_18  and  O5_19 
REMARK    8  A    between atoms: C10_21  and  O6_22 
REMARK    9  A    between atoms: C12_27  and  O7_29 
REMARK   10  A    between atoms: C14_31  and  C15_32 
REMARK       I    between atoms: C15_32  and  N4_34 
REMARK   11  A    between atoms: N4_34  and  C16_36 
REMARK   12  A    between atoms: C16_36  and  C17_37 
REMARK   13  A    between atoms: C16_36  and  C18_40 
REMARK   14  A    between atoms: C19_45  and  C20_46 
REMARK   15  A    between atoms: C20_46  and  S2_47 
REMARK   16  A    between atoms: S2_47  and  C21_48 
REMARK   17  A    between atoms: C21_48  and  C22_49 
REMARK   18  A    between atoms: C22_49  and  O11_50 
ROOT
HETATM    1  C4  UNL     1     -18.904  25.162  38.683  1.00  0.00     0.192 C 
HETATM    2  C5  UNL     1     -18.703  23.927  39.492  1.00  0.00     0.127 C 
HETATM    3  N3  UNL     1     -19.344  24.030  40.626  1.00  0.00    -0.345 N 
ATOM      4  H3  UNL     1     -19.358  23.311  41.349  1.00  0.00     0.164 HD
HETATM    5  C12 UNL     1     -20.032  25.303  40.717  1.00  0.00     0.143 C 
HETATM    6  C13 UNL     1     -19.117  26.287  41.374  1.00  0.00     0.072 C 
HETATM    7  C14 UNL     1     -20.255  25.619  39.241  1.00  0.00     0.164 C 
ENDROOT
BRANCH   7   8
HETATM    8  C15 UNL     1     -20.497  27.030  38.982  1.00  0.00     0.230 C 
HETATM    9  O8  UNL     1     -19.544  27.850  38.811  1.00  0.00    -0.273 OA
HETATM   10  N4  UNL     1     -21.822  27.526  38.912  1.00  0.00    -0.343 N 
ATOM     11  H4  UNL     1     -22.599  26.879  39.047  1.00  0.00     0.163 HD
BRANCH  10  12
HETATM   12  C16 UNL     1     -22.108  28.933  38.653  1.00  0.00     0.220 C 
BRANCH  12  13
HETATM   13  C17 UNL     1     -23.312  29.347  39.377  1.00  0.00     0.199 C 
HETATM   14  O9  UNL     1     -24.226  28.513  39.574  1.00  0.00    -0.646 OA
HETATM   15  O10 UNL     1     -23.444  30.663  39.847  1.00  0.00    -0.646 OA
ENDBRANCH  12  13
BRANCH  12  16
HETATM   16  C18 UNL     1     -22.308  29.043  37.162  1.00  0.00     0.200 C 
HETATM   17  N5  UNL     1     -23.531  29.704  36.782  1.00  0.00    -0.318 N 
HETATM   18  N6  UNL     1     -24.511  28.950  36.251  1.00  0.00    -0.301 N 
ATOM     19  H5  UNL     1     -23.650  30.709  36.912  1.00  0.00     0.181 HD
HETATM   20  C19 UNL     1     -24.297  27.736  35.950  1.00  0.00     0.073 C 
ATOM     21  H6  UNL     1     -25.432  29.357  36.089  1.00  0.00     0.187 HD
HETATM   22  S3  UNL     1     -22.589  27.424  36.388  1.00  0.00    -0.085 SA
BRANCH  20  23
HETATM   23  C20 UNL     1     -25.214  26.724  35.359  1.00  0.00     0.140 C 
BRANCH  23  24
HETATM   24  S2  UNL     1     -25.573  25.423  36.535  1.00  0.00    -0.160 SA
BRANCH  24  25
HETATM   25  C21 UNL     1     -26.103  26.003  38.145  1.00  0.00     0.100 C 
BRANCH  25  26
HETATM   26  C22 UNL     1     -27.263  26.994  38.039  1.00  0.00     0.174 C 
BRANCH  26  27
HETATM   27  O11 UNL     1     -26.782  28.274  38.264  1.00  0.00    -0.400 OA
ATOM     28  H11 UNL     1     -27.496  28.893  38.168  1.00  0.00     0.209 HD
ENDBRANCH  26  27
ENDBRANCH  25  26
ENDBRANCH  24  25
ENDBRANCH  23  24
ENDBRANCH  20  23
ENDBRANCH  12  16
ENDBRANCH  10  12
ENDBRANCH   7   8
BRANCH   1  29
HETATM   29  N1  UNL     1     -18.967  24.889  37.274  1.00  0.00    -0.272 N 
HETATM   30  C3  UNL     1     -18.328  25.590  36.322  1.00  0.00     0.134 A 
HETATM   31  C2  UNL     1     -18.604  25.063  35.093  1.00  0.00     0.036 A 
HETATM   32  C1  UNL     1     -18.105  25.532  33.752  1.00  0.00     0.071 C 
HETATM   33  N8  UNL     1     -19.429  24.023  35.323  1.00  0.00    -0.287 N 
HETATM   34  N7  UNL     1     -19.629  23.939  36.626  1.00  0.00    -0.020 NA
ATOM     35  H8  UNL     1     -19.828  23.407  34.614  1.00  0.00     0.184 HD
ENDBRANCH   1  29
BRANCH   5  36
HETATM   36  O7  UNL     1     -21.250  25.187  41.378  1.00  0.00    -0.370 OA
ATOM     37  H7  UNL     1     -21.974  25.493  40.844  1.00  0.00     0.212 HD
ENDBRANCH   5  36
BRANCH   2  38
HETATM   38  N2  UNL     1     -17.938  22.794  39.116  1.00  0.00    -0.235 N 
ATOM     39  H2  UNL     1     -18.380  22.076  38.543  1.00  0.00     0.197 HD
BRANCH  38  40
HETATM   40  O1  UNL     1     -16.659  22.624  39.483  1.00  0.00    -0.146 OA
BRANCH  40  41
HETATM   41  S1  UNL     1     -15.655  22.340  38.166  1.00  0.00     0.319 S 
HETATM   42  O2  UNL     1     -15.163  20.913  38.147  1.00  0.00    -0.191 OA
HETATM   43  O3  UNL     1     -16.455  22.656  36.928  1.00  0.00    -0.191 OA
BRANCH  41  44
HETATM   44  C6  UNL     1     -14.308  23.453  38.261  1.00  0.00     0.093 A 
HETATM   45  C7  UNL     1     -14.440  24.773  37.896  1.00  0.00     0.065 A 
HETATM   46  C8  UNL     1     -13.383  25.668  37.966  1.00  0.00     0.103 A 
HETATM   47  C9  UNL     1     -12.144  25.245  38.414  1.00  0.00     0.132 A 
HETATM   48  C10 UNL     1     -11.999  23.923  38.782  1.00  0.00     0.103 A 
HETATM   49  C11 UNL     1     -13.057  23.045  38.708  1.00  0.00     0.065 A 
BRANCH  46  50
HETATM   50  O4  UNL     1     -13.515  27.001  37.598  1.00  0.00    -0.358 OA
ATOM     51  H4  UNL     1     -12.853  27.455  37.089  1.00  0.00     0.217 HD
ENDBRANCH  46  50
BRANCH  47  52
HETATM   52  O5  UNL     1     -11.065  26.142  38.489  1.00  0.00    -0.356 OA
ATOM     53  H5  UNL     1     -10.175  25.823  38.587  1.00  0.00     0.218 HD
ENDBRANCH  47  52
BRANCH  48  54
HETATM   54  O6  UNL     1     -10.747  23.518  39.229  1.00  0.00    -0.358 OA
ATOM     55  H6  UNL     1     -10.476  22.632  39.023  1.00  0.00     0.217 HD
ENDBRANCH  48  54
ENDBRANCH  41  44
ENDBRANCH  40  41
ENDBRANCH  38  40
ENDBRANCH   2  38
TORSDOF 18
ENDMDL
MODEL 3
REMARK VINA RESULT: -8.960607548      0.716      1.620
REMARK  18 active torsions:
REMARK  status: ('A' for Active; 'I' for Inactive)
REMARK    1  A    between atoms: N1_4  and  C4_5 
REMARK    2  A    between atoms: C5_6  and  N2_7 
REMARK    3  A    between atoms: N2_7  and  O1_9 
REMARK    4  A    between atoms: O1_9  and  S1_10 
REMARK    5  A    between atoms: S1_10  and  C6_13 
REMARK    6  A    between atoms: C8_15  and  O4_16 
REMARK    7  A    between atoms: C9_18  and  O5_19 
REMARK    8  A    between atoms: C10_21  and  O6_22 
REMARK    9  A    between atoms: C12_27  and  O7_29 
REMARK   10  A    between atoms: C14_31  and  C15_32 
REMARK       I    between atoms: C15_32  and  N4_34 
REMARK   11  A    between atoms: N4_34  and  C16_36 
REMARK   12  A    between atoms: C16_36  and  C17_37 
REMARK   13  A    between atoms: C16_36  and  C18_40 
REMARK   14  A    between atoms: C19_45  and  C20_46 
REMARK   15  A    between atoms: C20_46  and  S2_47 
REMARK   16  A    between atoms: S2_47  and  C21_48 
REMARK   17  A    between atoms: C21_48  and  C22_49 
REMARK   18  A    between atoms: C22_49  and  O11_50 
ROOT
HETATM    1  C4  UNL     1     -18.893  25.136  38.718  1.00  0.00     0.192 C 
HETATM    2  C5  UNL     1     -18.690  23.905  39.531  1.00  0.00     0.127 C 
HETATM    3  N3  UNL     1     -19.333  24.011  40.664  1.00  0.00    -0.345 N 
ATOM      4  H3  UNL     1     -19.346  23.296  41.391  1.00  0.00     0.164 HD
HETATM    5  C12 UNL     1     -20.023  25.283  40.749  1.00  0.00     0.143 C 
HETATM    6  C13 UNL     1     -19.111  26.272  41.404  1.00  0.00     0.072 C 
HETATM    7  C14 UNL     1     -20.245  25.593  39.272  1.00  0.00     0.164 C 
ENDROOT
BRANCH   7   8
HETATM    8  C15 UNL     1     -20.490  27.003  39.007  1.00  0.00     0.230 C 
HETATM    9  O8  UNL     1     -19.538  27.823  38.833  1.00  0.00    -0.273 OA
HETATM   10  N4  UNL     1     -21.816  27.495  38.934  1.00  0.00    -0.343 N 
ATOM     11  H4  UNL     1     -22.592  26.848  39.071  1.00  0.00     0.163 HD
BRANCH  10  12
HETATM   12  C16 UNL     1     -22.104  28.901  38.669  1.00  0.00     0.220 C 
BRANCH  12  13
HETATM   13  C17 UNL     1     -23.319  29.311  39.377  1.00  0.00     0.199 C 
HETATM   14  O9  UNL     1     -24.230  28.473  39.567  1.00  0.00    -0.646 OA
HETATM   15  O10 UNL     1     -23.465  30.628  39.838  1.00  0.00    -0.646 OA
ENDBRANCH  12  13
BRANCH  12  16
HETATM   16  C18 UNL     1     -22.284  29.008  37.175  1.00  0.00     0.200 C 
HETATM   17  N5  UNL     1     -23.497  29.679  36.779  1.00  0.00    -0.318 N 
HETATM   18  N6  UNL     1     -24.477  28.932  36.238  1.00  0.00    -0.301 N 
ATOM     19  H5  UNL     1     -23.609  30.685  36.904  1.00  0.00     0.181 HD
HETATM   20  C19 UNL     1     -24.270  27.716  35.943  1.00  0.00     0.073 C 
ATOM     21  H6  UNL     1     -25.392  29.347  36.063  1.00  0.00     0.187 HD
HETATM   22  S3  UNL     1     -22.570  27.389  36.404  1.00  0.00    -0.085 SA
BRANCH  20  23
HETATM   23  C20 UNL     1     -25.188  26.709  35.344  1.00  0.00     0.140 C 
BRANCH  23  24
HETATM   24  S2  UNL     1     -25.592  25.427  36.527  1.00  0.00    -0.160 SA
BRANCH  24  25
HETATM   25  C21 UNL     1     -26.117  26.033  38.128  1.00  0.00     0.100 C 
BRANCH  25  26
HETATM   26  C22 UNL     1     -27.284  27.014  38.010  1.00  0.00     0.174 C 
BRANCH  26  27
HETATM   27  O11 UNL     1     -26.813  28.300  38.217  1.00  0.00    -0.400 OA
ATOM     28  H11 UNL     1     -27.230  28.885  37.595  1.00  0.00     0.209 HD
ENDBRANCH  26  27
ENDBRANCH  25  26
ENDBRANCH  24  25
ENDBRANCH  23  24
ENDBRANCH  20  23
ENDBRANCH  12  16
ENDBRANCH  10  12
ENDBRANCH   7   8
BRANCH   1  29
HETATM   29  N1  UNL     1     -18.953  24.858  37.310  1.00  0.00    -0.272 N 
HETATM   30  C3  UNL     1     -18.316  25.557  36.355  1.00  0.00     0.134 A 
HETATM   31  C2  UNL     1     -18.589  25.025  35.129  1.00  0.00     0.036 A 
HETATM   32  C1  UNL     1     -18.089  25.489  33.786  1.00  0.00     0.071 C 
HETATM   33  N8  UNL     1     -19.410  23.982  35.361  1.00  0.00    -0.287 N 
HETATM   34  N7  UNL     1     -19.611  23.903  36.664  1.00  0.00    -0.020 NA
ATOM     35  H8  UNL     1     -19.806  23.363  34.655  1.00  0.00     0.184 HD
ENDBRANCH   1  29
BRANCH   5  36
HETATM   36  O7  UNL     1     -21.242  25.168  41.410  1.00  0.00    -0.370 OA
ATOM     37  H7  UNL     1     -21.615  26.017  41.615  1.00  0.00     0.212 HD
ENDBRANCH   5  36
BRANCH   2  38
HETATM   38  N2  UNL     1     -17.923  22.772  39.162  1.00  0.00    -0.235 N 
ATOM     39  H2  UNL     1     -18.367  22.044  38.603  1.00  0.00     0.197 HD
BRANCH  38  40
HETATM   40  O1  UNL     1     -16.638  22.616  39.514  1.00  0.00    -0.146 OA
BRANCH  40  41
HETATM   41  S1  UNL     1     -15.647  22.330  38.187  1.00  0.00     0.319 S 
HETATM   42  O2  UNL     1     -15.157  20.904  38.163  1.00  0.00    -0.191 OA
HETATM   43  O3  UNL     1     -16.458  22.648  36.957  1.00  0.00    -0.191 OA
BRANCH  41  44
HETATM   44  C6  UNL     1     -14.298  23.442  38.270  1.00  0.00     0.093 A 
HETATM   45  C7  UNL     1     -13.055  23.033  38.696  1.00  0.00     0.065 A 
HETATM   46  C8  UNL     1     -11.976  23.901  38.768  1.00  0.00     0.103 A 
HETATM   47  C9  UNL     1     -12.127  25.228  38.405  1.00  0.00     0.132 A 
HETATM   48  C10 UNL     1     -13.369  25.651  37.977  1.00  0.00     0.103 A 
HETATM   49  C11 UNL     1     -14.432  24.778  37.911  1.00  0.00     0.065 A 
BRANCH  46  50
HETATM   50  O4  UNL     1     -10.721  23.490  39.198  1.00  0.00    -0.358 OA
ATOM     51  H4  UNL     1      -9.951  24.042  39.120  1.00  0.00     0.217 HD
ENDBRANCH  46  50
BRANCH  47  52
HETATM   52  O5  UNL     1     -11.041  26.118  38.474  1.00  0.00    -0.356 OA
ATOM     53  H5  UNL     1     -10.431  26.193  37.750  1.00  0.00     0.218 HD
ENDBRANCH  47  52
BRANCH  48  54
HETATM   54  O6  UNL     1     -13.500  26.986  37.617  1.00  0.00    -0.358 OA
ATOM     55  H6  UNL     1     -14.101  27.518  38.126  1.00  0.00     0.217 HD
ENDBRANCH  48  54
ENDBRANCH  41  44
ENDBRANCH  40  41
ENDBRANCH  38  40
ENDBRANCH   2  38
TORSDOF 18
ENDMDL
MODEL 4
REMARK VINA RESULT: -8.852523840      1.437      2.016
REMARK  18 active torsions:
REMARK  status: ('A' for Active; 'I' for Inactive)
REMARK    1  A    between atoms: N1_4  and  C4_5 
REMARK    2  A    between atoms: C5_6  and  N2_7 
REMARK    3  A    between atoms: N2_7  and  O1_9 
REMARK    4  A    between atoms: O1_9  and  S1_10 
REMARK    5  A    between atoms: S1_10  and  C6_13 
REMARK    6  A    between atoms: C8_15  and  O4_16 
REMARK    7  A    between atoms: C9_18  and  O5_19 
REMARK    8  A    between atoms: C10_21  and  O6_22 
REMARK    9  A    between atoms: C12_27  and  O7_29 
REMARK   10  A    between atoms: C14_31  and  C15_32 
REMARK       I    between atoms: C15_32  and  N4_34 
REMARK   11  A    between atoms: N4_34  and  C16_36 
REMARK   12  A    between atoms: C16_36  and  C17_37 
REMARK   13  A    between atoms: C16_36  and  C18_40 
REMARK   14  A    between atoms: C19_45  and  C20_46 
REMARK   15  A    between atoms: C20_46  and  S2_47 
REMARK   16  A    between atoms: S2_47  and  C21_48 
REMARK   17  A    between atoms: C21_48  and  C22_49 
REMARK   18  A    between atoms: C22_49  and  O11_50 
ROOT
HETATM    1  C4  UNL     1     -18.972  25.317  38.468  1.00  0.00     0.192 C 
HETATM    2  C5  UNL     1     -18.811  24.124  39.346  1.00  0.00     0.127 C 
HETATM    3  N3  UNL     1     -19.486  24.294  40.452  1.00  0.00    -0.345 N 
ATOM      4  H3  UNL     1     -19.532  23.615  41.211  1.00  0.00     0.164 HD
HETATM    5  C12 UNL     1     -20.161  25.577  40.454  1.00  0.00     0.143 C 
HETATM    6  C13 UNL     1     -19.254  26.584  41.088  1.00  0.00     0.072 C 
HETATM    7  C14 UNL     1     -20.334  25.817  38.958  1.00  0.00     0.164 C 
ENDROOT
BRANCH   7   8
HETATM    8  C15 UNL     1     -20.549  27.216  38.617  1.00  0.00     0.230 C 
HETATM    9  O8  UNL     1     -19.587  27.984  38.312  1.00  0.00    -0.273 OA
HETATM   10  N4  UNL     1     -21.858  27.756  38.618  1.00  0.00    -0.343 N 
ATOM     11  H4  UNL     1     -22.643  27.151  38.862  1.00  0.00     0.163 HD
BRANCH  10  12
HETATM   12  C16 UNL     1     -22.118  29.152  38.282  1.00  0.00     0.220 C 
BRANCH  12  13
HETATM   13  C17 UNL     1     -22.924  29.784  39.330  1.00  0.00     0.199 C 
HETATM   14  O9  UNL     1     -22.687  30.971  39.654  1.00  0.00    -0.646 OA
HETATM   15  O10 UNL     1     -23.952  29.071  39.965  1.00  0.00    -0.646 OA
ENDBRANCH  12  13
BRANCH  12  16
HETATM   16  C18 UNL     1     -22.860  29.127  36.969  1.00  0.00     0.200 C 
HETATM   17  N5  UNL     1     -23.873  30.146  36.848  1.00  0.00    -0.318 N 
HETATM   18  N6  UNL     1     -25.160  29.757  36.894  1.00  0.00    -0.301 N 
ATOM     19  H5  UNL     1     -23.622  31.127  36.733  1.00  0.00     0.181 HD
HETATM   20  C19 UNL     1     -25.460  28.524  36.880  1.00  0.00     0.073 C 
ATOM     21  H6  UNL     1     -25.900  30.458  36.940  1.00  0.00     0.187 HD
HETATM   22  S3  UNL     1     -23.900  27.647  36.801  1.00  0.00    -0.085 SA
BRANCH  20  23
HETATM   23  C20 UNL     1     -26.795  27.866  36.921  1.00  0.00     0.140 C 
BRANCH  23  24
HETATM   24  S2  UNL     1     -27.900  28.584  35.709  1.00  0.00    -0.160 SA
BRANCH  24  25
HETATM   25  C21 UNL     1     -28.946  29.893  36.341  1.00  0.00     0.100 C 
BRANCH  25  26
HETATM   26  C22 UNL     1     -28.241  31.250  36.307  1.00  0.00     0.174 C 
BRANCH  26  27
HETATM   27  O11 UNL     1     -27.693  31.503  37.554  1.00  0.00    -0.400 OA
ATOM     28  H11 UNL     1     -28.038  32.326  37.881  1.00  0.00     0.209 HD
ENDBRANCH  26  27
ENDBRANCH  25  26
ENDBRANCH  24  25
ENDBRANCH  23  24
ENDBRANCH  20  23
ENDBRANCH  12  16
ENDBRANCH  10  12
ENDBRANCH   7   8
BRANCH   1  29
HETATM   29  N1  UNL     1     -18.993  24.971  37.074  1.00  0.00    -0.272 N 
HETATM   30  C3  UNL     1     -18.324  25.619  36.106  1.00  0.00     0.134 A 
HETATM   31  C2  UNL     1     -18.565  25.030  34.899  1.00  0.00     0.036 A 
HETATM   32  C1  UNL     1     -18.024  25.425  33.550  1.00  0.00     0.071 C 
HETATM   33  N8  UNL     1     -19.402  24.005  35.157  1.00  0.00    -0.287 N 
HETATM   34  N7  UNL     1     -19.641  23.991  36.456  1.00  0.00    -0.020 NA
ATOM     35  H8  UNL     1     -19.783  23.355  34.470  1.00  0.00     0.184 HD
ENDBRANCH   1  29
BRANCH   5  36
HETATM   36  O7  UNL     1     -21.400  25.510  41.082  1.00  0.00    -0.370 OA
ATOM     37  H7  UNL     1     -21.484  26.160  41.770  1.00  0.00     0.212 HD
ENDBRANCH   5  36
BRANCH   2  38
HETATM   38  N2  UNL     1     -18.050  22.965  39.055  1.00  0.00    -0.235 N 
ATOM     39  H2  UNL     1     -18.487  22.217  38.516  1.00  0.00     0.197 HD
BRANCH  38  40
HETATM   40  O1  UNL     1     -16.780  22.807  39.457  1.00  0.00    -0.146 OA
BRANCH  40  41
HETATM   41  S1  UNL     1     -15.755  22.417  38.184  1.00  0.00     0.319 S 
HETATM   42  O2  UNL     1     -15.312  20.976  38.255  1.00  0.00    -0.191 OA
HETATM   43  O3  UNL     1     -16.514  22.690  36.911  1.00  0.00    -0.191 OA
BRANCH  41  44
HETATM   44  C6  UNL     1     -14.373  23.489  38.253  1.00  0.00     0.093 A 
HETATM   45  C7  UNL     1     -14.480  24.821  37.926  1.00  0.00     0.065 A 
HETATM   46  C8  UNL     1     -13.396  25.684  37.975  1.00  0.00     0.103 A 
HETATM   47  C9  UNL     1     -12.153  25.214  38.363  1.00  0.00     0.132 A 
HETATM   48  C10 UNL     1     -12.032  23.880  38.693  1.00  0.00     0.103 A 
HETATM   49  C11 UNL     1     -13.118  23.034  38.639  1.00  0.00     0.065 A 
BRANCH  46  50
HETATM   50  O4  UNL     1     -13.502  27.028  37.645  1.00  0.00    -0.358 OA
ATOM     51  H4  UNL     1     -12.951  27.693  38.041  1.00  0.00     0.217 HD
ENDBRANCH  46  50
BRANCH  47  52
HETATM   52  O5  UNL     1     -11.046  26.078  38.417  1.00  0.00    -0.356 OA
ATOM     53  H5  UNL     1     -10.410  26.007  39.120  1.00  0.00     0.218 HD
ENDBRANCH  47  52
BRANCH  48  54
HETATM   54  O6  UNL     1     -10.777  23.428  39.080  1.00  0.00    -0.358 OA
ATOM     55  H6  UNL     1     -10.660  23.191  39.992  1.00  0.00     0.217 HD
ENDBRANCH  48  54
ENDBRANCH  41  44
ENDBRANCH  40  41
ENDBRANCH  38  40
ENDBRANCH   2  38
TORSDOF 18
ENDMDL
MODEL 5
REMARK VINA RESULT: -8.839640594      1.538      2.134
REMARK  18 active torsions:
REMARK  status: ('A' for Active; 'I' for Inactive)
REMARK    1  A    between atoms: N1_4  and  C4_5 
REMARK    2  A    between atoms: C5_6  and  N2_7 
REMARK    3  A    between atoms: N2_7  and  O1_9 
REMARK    4  A    between atoms: O1_9  and  S1_10 
REMARK    5  A    between atoms: S1_10  and  C6_13 
REMARK    6  A    between atoms: C8_15  and  O4_16 
REMARK    7  A    between atoms: C9_18  and  O5_19 
REMARK    8  A    between atoms: C10_21  and  O6_22 
REMARK    9  A    between atoms: C12_27  and  O7_29 
REMARK   10  A    between atoms: C14_31  and  C15_32 
REMARK       I    between atoms: C15_32  and  N4_34 
REMARK   11  A    between atoms: N4_34  and  C16_36 
REMARK   12  A    between atoms: C16_36  and  C17_37 
REMARK   13  A    between atoms: C16_36  and  C18_40 
REMARK   14  A    between atoms: C19_45  and  C20_46 
REMARK   15  A    between atoms: C20_46  and  S2_47 
REMARK   16  A    between atoms: S2_47  and  C21_48 
REMARK   17  A    between atoms: C21_48  and  C22_49 
REMARK   18  A    between atoms: C22_49  and  O11_50 
ROOT
HETATM    1  C4  UNL     1     -18.638  25.806  39.023  1.00  0.00     0.192 C 
HETATM    2  C5  UNL     1     -17.994  24.799  39.911  1.00  0.00     0.127 C 
HETATM    3  N3  UNL     1     -18.565  24.813  41.085  1.00  0.00    -0.345 N 
ATOM      4  H3  UNL     1     -18.299  24.212  41.866  1.00  0.00     0.164 HD
HETATM    5  C12 UNL     1     -19.629  25.797  41.131  1.00  0.00     0.143 C 
HETATM    6  C13 UNL     1     -19.054  27.090  41.617  1.00  0.00     0.072 C 
HETATM    7  C14 UNL     1     -20.029  25.860  39.660  1.00  0.00     0.164 C 
ENDROOT
BRANCH   7   8
HETATM    8  C15 UNL     1     -20.739  27.081  39.305  1.00  0.00     0.230 C 
HETATM    9  O8  UNL     1     -20.140  28.075  38.794  1.00  0.00    -0.273 OA
HETATM   10  N4  UNL     1     -22.134  27.184  39.526  1.00  0.00    -0.343 N 
ATOM     11  H4  UNL     1     -22.630  26.393  39.937  1.00  0.00     0.163 HD
BRANCH  10  12
HETATM   12  C16 UNL     1     -22.882  28.389  39.184  1.00  0.00     0.220 C 
BRANCH  12  13
HETATM   13  C17 UNL     1     -24.239  28.316  39.732  1.00  0.00     0.199 C 
HETATM   14  O9  UNL     1     -24.605  27.275  40.325  1.00  0.00    -0.646 OA
HETATM   15  O10 UNL     1     -25.121  29.398  39.596  1.00  0.00    -0.646 OA
ENDBRANCH  12  13
BRANCH  12  16
HETATM   16  C18 UNL     1     -22.909  28.441  37.676  1.00  0.00     0.200 C 
HETATM   17  N5  UNL     1     -23.550  29.616  37.142  1.00  0.00    -0.318 N 
HETATM   18  N6  UNL     1     -24.753  29.462  36.557  1.00  0.00    -0.301 N 
ATOM     19  H5  UNL     1     -23.108  30.533  37.205  1.00  0.00     0.181 HD
HETATM   20  C19 UNL     1     -25.220  28.301  36.345  1.00  0.00     0.073 C 
ATOM     21  H6  UNL     1     -25.292  30.283  36.283  1.00  0.00     0.187 HD
HETATM   22  S3  UNL     1     -23.987  27.162  36.968  1.00  0.00    -0.085 SA
BRANCH  20  23
HETATM   23  C20 UNL     1     -26.508  27.891  35.722  1.00  0.00     0.140 C 
BRANCH  23  24
HETATM   24  S2  UNL     1     -27.394  29.311  35.088  1.00  0.00    -0.160 SA
BRANCH  24  25
HETATM   25  C21 UNL     1     -28.403  30.159  36.301  1.00  0.00     0.100 C 
BRANCH  25  26
HETATM   26  C22 UNL     1     -27.749  31.456  36.778  1.00  0.00     0.174 C 
BRANCH  26  27
HETATM   27  O11 UNL     1     -26.976  31.185  37.896  1.00  0.00    -0.400 OA
ATOM     28  H11 UNL     1     -27.533  30.822  38.575  1.00  0.00     0.209 HD
ENDBRANCH  26  27
ENDBRANCH  25  26
ENDBRANCH  24  25
ENDBRANCH  23  24
ENDBRANCH  20  23
ENDBRANCH  12  16
ENDBRANCH  10  12
ENDBRANCH   7   8
BRANCH   1  29
HETATM   29  N1  UNL     1     -18.688  25.375  37.653  1.00  0.00    -0.272 N 
HETATM   30  C3  UNL     1     -18.056  25.973  36.630  1.00  0.00     0.134 A 
HETATM   31  C2  UNL     1     -18.317  25.308  35.468  1.00  0.00     0.036 A 
HETATM   32  C1  UNL     1     -17.817  25.629  34.084  1.00  0.00     0.071 C 
HETATM   33  N8  UNL     1     -19.127  24.287  35.810  1.00  0.00    -0.287 N 
HETATM   34  N7  UNL     1     -19.333  24.348  37.114  1.00  0.00    -0.020 NA
ATOM     35  H8  UNL     1     -19.513  23.589  35.174  1.00  0.00     0.184 HD
ENDBRANCH   1  29
BRANCH   5  36
HETATM   36  O7  UNL     1     -20.700  25.368  41.907  1.00  0.00    -0.370 OA
ATOM     37  H7  UNL     1     -20.519  25.449  42.837  1.00  0.00     0.212 HD
ENDBRANCH   5  36
BRANCH   2  38
HETATM   38  N2  UNL     1     -16.921  23.939  39.565  1.00  0.00    -0.235 N 
ATOM     39  H2  UNL     1     -15.967  24.265  39.718  1.00  0.00     0.197 HD
BRANCH  38  40
HETATM   40  O1  UNL     1     -17.105  22.717  39.044  1.00  0.00    -0.146 OA
BRANCH  40  41
HETATM   41  S1  UNL     1     -15.987  22.365  37.840  1.00  0.00     0.319 S 
HETATM   42  O2  UNL     1     -15.535  20.927  37.911  1.00  0.00    -0.191 OA
HETATM   43  O3  UNL     1     -16.656  22.660  36.521  1.00  0.00    -0.191 OA
BRANCH  41  44
HETATM   44  C6  UNL     1     -14.626  23.448  38.032  1.00  0.00     0.093 A 
HETATM   45  C7  UNL     1     -14.695  24.765  37.639  1.00  0.00     0.065 A 
HETATM   46  C8  UNL     1     -13.626  25.637  37.784  1.00  0.00     0.103 A 
HETATM   47  C9  UNL     1     -12.439  25.192  38.339  1.00  0.00     0.132 A 
HETATM   48  C10 UNL     1     -12.357  23.873  38.736  1.00  0.00     0.103 A 
HETATM   49  C11 UNL     1     -13.427  23.018  38.586  1.00  0.00     0.065 A 
BRANCH  46  50
HETATM   50  O4  UNL     1     -13.694  26.966  37.388  1.00  0.00    -0.358 OA
ATOM     51  H4  UNL     1     -12.965  27.565  37.494  1.00  0.00     0.217 HD
ENDBRANCH  46  50
BRANCH  47  52
HETATM   52  O5  UNL     1     -11.348  26.065  38.491  1.00  0.00    -0.356 OA
ATOM     53  H5  UNL     1     -10.602  26.015  37.905  1.00  0.00     0.218 HD
ENDBRANCH  47  52
BRANCH  48  54
HETATM   54  O6  UNL     1     -11.157  23.446  39.291  1.00  0.00    -0.358 OA
ATOM     55  H6  UNL     1     -11.166  22.629  39.775  1.00  0.00     0.217 HD
ENDBRANCH  48  54
ENDBRANCH  41  44
ENDBRANCH  40  41
ENDBRANCH  38  40
ENDBRANCH   2  38
TORSDOF 18
ENDMDL
