MODEL 1
REMARK VINA RESULT: -7.950852627      0.000      0.000
REMARK  18 active torsions:
REMARK  status: ('A' for Active; 'I' for Inactive)
REMARK       I    between atoms: N2_3  and  C2_5 
REMARK       I    between atoms: C2_5  and  N3_6 
REMARK       I    between atoms: C2_5  and  N5_10 
REMARK    1  A    between atoms: N5_10  and  N6_12 
REMARK    2  A    between atoms: N6_12  and  C4_14 
REMARK    3  A    between atoms: C6_18  and  N8_19 
REMARK    4  A    between atoms: C7_24  and  S1_25 
REMARK    5  A    between atoms: S1_25  and  C8_26 
REMARK    6  A    between atoms: C8_26  and  C9_27 
REMARK    7  A    between atoms: C9_27  and  S2_28 
REMARK    8  A    between atoms: S2_28  and  S3_29 
REMARK    9  A    between atoms: S3_29  and  C10_30 
REMARK   10  A    between atoms: C10_30  and  C11_31 
REMARK   11  A    between atoms: C11_31  and  N10_32 
REMARK   12  A    between atoms: C13_38  and  N12_39 
REMARK   13  A    between atoms: N13_43  and  N14_44 
REMARK   14  A    between atoms: N15_48  and  C15_49 
REMARK   15  A    between atoms: C16_51  and  C17_52 
REMARK   16  A    between atoms: C17_52  and  O3_53 
REMARK   17  A    between atoms: C18_55  and  O4_56 
REMARK   18  A    between atoms: C19_58  and  O5_59 
ROOT
HETATM    1  N1  UNL     1     -12.502  27.049  37.534  1.00  0.00    -0.171 NA
HETATM    2  C1  UNL     1     -12.792  26.094  38.088  1.00  0.00     0.196 C 
HETATM    3  N2  UNL     1     -13.166  24.921  38.754  1.00  0.00    -0.124 N 
ATOM      4  H2  UNL     1     -12.664  24.618  39.589  1.00  0.00     0.197 HD
HETATM    5  C2  UNL     1     -14.164  24.221  38.292  1.00  0.00     0.715 C 
HETATM    6  N3  UNL     1     -14.488  23.045  39.015  1.00  0.00    -0.124 N 
ATOM      7  H3  UNL     1     -15.075  23.145  39.843  1.00  0.00     0.197 HD
HETATM    8  C3  UNL     1     -14.062  21.760  38.674  1.00  0.00     0.196 C 
HETATM    9  N4  UNL     1     -13.724  20.702  38.385  1.00  0.00    -0.171 NA
HETATM   10  N5  UNL     1     -14.867  24.632  37.130  1.00  0.00    -0.116 N 
ATOM     11  H5  UNL     1     -14.595  24.204  36.245  1.00  0.00     0.206 HD
ENDROOT
BRANCH  10  12
HETATM   12  N6  UNL     1     -15.886  25.559  37.097  1.00  0.00    -0.117 N 
ATOM     13  H6  UNL     1     -15.767  26.422  37.628  1.00  0.00     0.206 HD
BRANCH  12  14
HETATM   14  C4  UNL     1     -16.981  25.403  36.435  1.00  0.00     0.708 A 
HETATM   15  N7  UNL     1     -17.051  25.429  35.120  1.00  0.00    -0.182 N 
HETATM   16  C5  UNL     1     -18.317  25.242  34.768  1.00  0.00     0.140 A 
ATOM     17  H7  UNL     1     -16.267  25.569  34.482  1.00  0.00     0.184 HD
HETATM   18  C6  UNL     1     -18.964  25.175  33.560  1.00  0.00     0.132 A 
HETATM   19  C14 UNL     1     -19.050  25.094  35.960  1.00  0.00     0.185 A 
HETATM   20  N9  UNL     1     -20.276  24.974  33.500  1.00  0.00    -0.320 N 
HETATM   21  C7  UNL     1     -20.998  24.829  34.620  1.00  0.00     0.168 A 
ATOM     22  H9  UNL     1     -20.738  24.929  32.592  1.00  0.00     0.169 HD
HETATM   23  N13 UNL     1     -20.369  24.893  35.809  1.00  0.00    -0.220 N 
HETATM   24  N15 UNL     1     -18.213  25.195  37.010  1.00  0.00    -0.107 N 
BRANCH  18  25
HETATM   25  N8  UNL     1     -18.259  25.315  32.460  1.00  0.00    -0.383 N 
ATOM     26  H82 UNL     1     -17.956  24.497  31.933  1.00  0.00     0.157 HD
ATOM     27  H81 UNL     1     -18.023  26.256  32.146  1.00  0.00     0.157 HD
ENDBRANCH  18  25
BRANCH  21  28
HETATM   28  S1  UNL     1     -22.767  24.558  34.538  1.00  0.00    -0.091 SA
BRANCH  28  29
HETATM   29  C8  UNL     1     -23.670  26.038  35.044  1.00  0.00     0.093 C 
BRANCH  29  30
HETATM   30  C9  UNL     1     -24.661  25.795  36.122  1.00  0.00     0.097 C 
BRANCH  30  31
HETATM   31  S2  UNL     1     -25.961  26.976  36.357  1.00  0.00    -0.097 SA
BRANCH  31  32
HETATM   32  S3  UNL     1     -26.940  26.945  38.202  1.00  0.00    -0.096 SA
BRANCH  32  33
HETATM   33  C10 UNL     1     -25.847  27.509  39.524  1.00  0.00     0.105 C 
BRANCH  33  34
HETATM   34  C11 UNL     1     -25.235  28.843  39.078  1.00  0.00     0.133 C 
BRANCH  34  35
HETATM   35  N10 UNL     1     -24.041  29.046  39.855  1.00  0.00    -0.362 N 
HETATM   36  C12 UNL     1     -22.879  28.913  39.250  1.00  0.00     0.212 A 
HETATM   37  O1  UNL     1     -21.698  29.048  39.749  1.00  0.00    -0.210 OA
HETATM   38  S4  UNL     1     -22.512  28.522  37.625  1.00  0.00    -0.007 SA
HETATM   39  N11 UNL     1     -20.676  28.894  39.062  1.00  0.00    -0.236 N 
HETATM   40  C13 UNL     1     -20.806  28.577  37.768  1.00  0.00     0.166 A 
ATOM     41  H11 UNL     1     -19.751  29.007  39.478  1.00  0.00     0.197 HD
ATOM     42  H10 UNL     1     -24.093  29.286  40.845  1.00  0.00     0.162 HD
BRANCH  40  43
HETATM   43  N12 UNL     1     -19.849  28.375  36.891  1.00  0.00    -0.378 N 
ATOM     44 2H12 UNL     1     -18.890  28.720  36.843  1.00  0.00     0.158 HD
ATOM     45 1H12 UNL     1     -19.888  27.805  36.047  1.00  0.00     0.158 HD
ENDBRANCH  40  43
ENDBRANCH  34  35
ENDBRANCH  33  34
ENDBRANCH  32  33
ENDBRANCH  31  32
ENDBRANCH  30  31
ENDBRANCH  29  30
ENDBRANCH  28  29
ENDBRANCH  21  28
BRANCH  23  46
HETATM   46  N14 UNL     1     -21.171  24.736  36.928  1.00  0.00    -0.335 N 
ATOM     47 2H14 UNL     1     -21.250  25.495  37.605  1.00  0.00     0.177 HD
ATOM     48 1H14 UNL     1     -21.652  23.839  37.010  1.00  0.00     0.177 HD
ENDBRANCH  23  46
BRANCH  24  49
HETATM   49  C15 UNL     1     -18.505  25.106  38.380  1.00  0.00     0.175 C 
HETATM   50  O2  UNL     1     -19.404  25.958  38.952  1.00  0.00    -0.326 OA
HETATM   51  C16 UNL     1     -19.567  25.522  40.249  1.00  0.00     0.185 C 
HETATM   52  C18 UNL     1     -19.196  24.083  40.349  1.00  0.00     0.186 C 
HETATM   53  C19 UNL     1     -18.632  23.735  38.983  1.00  0.00     0.225 C 
BRANCH  51  54
HETATM   54  C17 UNL     1     -18.908  26.395  41.287  1.00  0.00     0.199 C 
BRANCH  54  55
HETATM   55  O3  UNL     1     -19.474  27.661  41.384  1.00  0.00    -0.398 OA
ATOM     56  H3  UNL     1     -19.408  28.167  40.583  1.00  0.00     0.209 HD
ENDBRANCH  54  55
ENDBRANCH  51  54
BRANCH  52  57
HETATM   57  O4  UNL     1     -20.276  23.253  40.660  1.00  0.00    -0.390 OA
ATOM     58  H4  UNL     1     -20.084  22.627  41.348  1.00  0.00     0.210 HD
ENDBRANCH  52  57
BRANCH  53  59
HETATM   59  O5  UNL     1     -17.369  23.148  39.224  1.00  0.00    -0.385 OA
ATOM     60  H5  UNL     1     -16.946  23.519  39.988  1.00  0.00     0.210 HD
ENDBRANCH  53  59
ENDBRANCH  24  49
ENDBRANCH  12  14
ENDBRANCH  10  12
TORSDOF 18
ENDMDL
MODEL 2
REMARK VINA RESULT: -7.950091350      2.927      6.075
REMARK  18 active torsions:
REMARK  status: ('A' for Active; 'I' for Inactive)
REMARK       I    between atoms: N2_3  and  C2_5 
REMARK       I    between atoms: C2_5  and  N3_6 
REMARK       I    between atoms: C2_5  and  N5_10 
REMARK    1  A    between atoms: N5_10  and  N6_12 
REMARK    2  A    between atoms: N6_12  and  C4_14 
REMARK    3  A    between atoms: C6_18  and  N8_19 
REMARK    4  A    between atoms: C7_24  and  S1_25 
REMARK    5  A    between atoms: S1_25  and  C8_26 
REMARK    6  A    between atoms: C8_26  and  C9_27 
REMARK    7  A    between atoms: C9_27  and  S2_28 
REMARK    8  A    between atoms: S2_28  and  S3_29 
REMARK    9  A    between atoms: S3_29  and  C10_30 
REMARK   10  A    between atoms: C10_30  and  C11_31 
REMARK   11  A    between atoms: C11_31  and  N10_32 
REMARK   12  A    between atoms: C13_38  and  N12_39 
REMARK   13  A    between atoms: N13_43  and  N14_44 
REMARK   14  A    between atoms: N15_48  and  C15_49 
REMARK   15  A    between atoms: C16_51  and  C17_52 
REMARK   16  A    between atoms: C17_52  and  O3_53 
REMARK   17  A    between atoms: C18_55  and  O4_56 
REMARK   18  A    between atoms: C19_58  and  O5_59 
ROOT
HETATM    1  N1  UNL     1     -14.507  21.324  39.465  1.00  0.00    -0.171 NA
HETATM    2  C1  UNL     1     -14.046  22.205  38.904  1.00  0.00     0.196 C 
HETATM    3  N2  UNL     1     -13.501  23.296  38.218  1.00  0.00    -0.124 N 
ATOM      4  H2  UNL     1     -12.575  23.231  37.796  1.00  0.00     0.197 HD
HETATM    5  C2  UNL     1     -14.194  24.397  38.126  1.00  0.00     0.715 C 
HETATM    6  N3  UNL     1     -13.581  25.462  37.418  1.00  0.00    -0.124 N 
ATOM      7  H3  UNL     1     -13.649  25.454  36.400  1.00  0.00     0.197 HD
HETATM    8  C3  UNL     1     -12.893  26.520  38.013  1.00  0.00     0.196 C 
HETATM    9  N4  UNL     1     -12.339  27.397  38.505  1.00  0.00    -0.171 NA
HETATM   10  N5  UNL     1     -15.482  24.498  38.710  1.00  0.00    -0.116 N 
ATOM     11  H5  UNL     1     -15.544  24.934  39.631  1.00  0.00     0.206 HD
ENDROOT
BRANCH  10  12
HETATM   12  N6  UNL     1     -16.659  24.059  38.140  1.00  0.00    -0.117 N 
ATOM     13  H6  UNL     1     -16.608  23.289  37.472  1.00  0.00     0.206 HD
BRANCH  12  14
HETATM   14  C4  UNL     1     -17.817  24.561  38.398  1.00  0.00     0.708 A 
HETATM   15  N7  UNL     1     -18.234  24.849  39.614  1.00  0.00    -0.182 N 
HETATM   16  C5  UNL     1     -19.463  25.341  39.524  1.00  0.00     0.140 A 
ATOM     17  H7  UNL     1     -17.704  24.716  40.476  1.00  0.00     0.184 HD
HETATM   18  C6  UNL     1     -20.369  25.800  40.447  1.00  0.00     0.132 A 
HETATM   19  C14 UNL     1     -19.799  25.347  38.158  1.00  0.00     0.185 A 
HETATM   20  N9  UNL     1     -21.561  26.248  40.068  1.00  0.00    -0.320 N 
HETATM   21  C7  UNL     1     -21.905  26.265  38.773  1.00  0.00     0.168 A 
ATOM     22  H9  UNL     1     -22.220  26.584  40.770  1.00  0.00     0.169 HD
HETATM   23  N13 UNL     1     -21.020  25.816  37.862  1.00  0.00    -0.220 N 
HETATM   24  N15 UNL     1     -18.765  24.856  37.447  1.00  0.00    -0.107 N 
BRANCH  18  25
HETATM   25  N8  UNL     1     -20.034  25.788  41.718  1.00  0.00    -0.383 N 
ATOM     26  H82 UNL     1     -19.080  25.564  42.000  1.00  0.00     0.157 HD
ATOM     27  H81 UNL     1     -20.747  26.007  42.414  1.00  0.00     0.157 HD
ENDBRANCH  18  25
BRANCH  21  28
HETATM   28  S1  UNL     1     -23.513  26.868  38.263  1.00  0.00    -0.091 SA
BRANCH  28  29
HETATM   29  C8  UNL     1     -24.742  25.546  38.306  1.00  0.00     0.093 C 
BRANCH  29  30
HETATM   30  C9  UNL     1     -24.165  24.187  38.148  1.00  0.00     0.097 C 
BRANCH  30  31
HETATM   31  S2  UNL     1     -24.310  23.384  36.576  1.00  0.00    -0.097 SA
BRANCH  31  32
HETATM   32  S3  UNL     1     -24.290  21.296  36.578  1.00  0.00    -0.096 SA
BRANCH  32  33
HETATM   33  C10 UNL     1     -22.762  20.664  37.301  1.00  0.00     0.105 C 
BRANCH  33  34
HETATM   34  C11 UNL     1     -21.593  21.351  36.582  1.00  0.00     0.133 C 
BRANCH  34  35
HETATM   35  N10 UNL     1     -20.730  21.898  37.594  1.00  0.00    -0.362 N 
HETATM   36  C12 UNL     1     -19.574  21.304  37.810  1.00  0.00     0.212 A 
HETATM   37  O1  UNL     1     -18.659  21.621  38.660  1.00  0.00    -0.210 OA
HETATM   38  S4  UNL     1     -18.879  19.928  37.068  1.00  0.00    -0.007 SA
HETATM   39  N11 UNL     1     -17.607  20.971  38.762  1.00  0.00    -0.236 N 
HETATM   40  C13 UNL     1     -17.422  19.909  37.968  1.00  0.00     0.166 A 
ATOM     41  H11 UNL     1     -16.895  21.242  39.441  1.00  0.00     0.197 HD
ATOM     42  H10 UNL     1     -21.004  22.722  38.130  1.00  0.00     0.162 HD
BRANCH  40  43
HETATM   43  N12 UNL     1     -16.383  19.106  37.931  1.00  0.00    -0.378 N 
ATOM     44 2H12 UNL     1     -16.228  18.180  38.330  1.00  0.00     0.158 HD
ATOM     45 1H12 UNL     1     -15.487  19.267  37.472  1.00  0.00     0.158 HD
ENDBRANCH  40  43
ENDBRANCH  34  35
ENDBRANCH  33  34
ENDBRANCH  32  33
ENDBRANCH  31  32
ENDBRANCH  30  31
ENDBRANCH  29  30
ENDBRANCH  28  29
ENDBRANCH  21  28
BRANCH  23  46
HETATM   46  N14 UNL     1     -21.437  25.859  36.541  1.00  0.00    -0.335 N 
ATOM     47 2H14 UNL     1     -21.191  26.659  35.958  1.00  0.00     0.177 HD
ATOM     48 1H14 UNL     1     -21.986  25.060  36.220  1.00  0.00     0.177 HD
ENDBRANCH  23  46
BRANCH  24  49
HETATM   49  C15 UNL     1     -18.656  24.682  36.059  1.00  0.00     0.175 C 
HETATM   50  O2  UNL     1     -19.630  24.025  35.365  1.00  0.00    -0.326 OA
HETATM   51  C16 UNL     1     -19.297  24.151  34.034  1.00  0.00     0.185 C 
HETATM   52  C18 UNL     1     -18.419  25.338  33.842  1.00  0.00     0.186 C 
HETATM   53  C19 UNL     1     -18.124  25.830  35.247  1.00  0.00     0.225 C 
BRANCH  51  54
HETATM   54  C17 UNL     1     -18.764  22.889  33.404  1.00  0.00     0.199 C 
BRANCH  54  55
HETATM   55  O3  UNL     1     -17.410  22.954  33.097  1.00  0.00    -0.398 OA
ATOM     56  H3  UNL     1     -17.231  22.914  32.165  1.00  0.00     0.209 HD
ENDBRANCH  54  55
ENDBRANCH  51  54
BRANCH  52  57
HETATM   57  O4  UNL     1     -19.012  26.349  33.082  1.00  0.00    -0.390 OA
ATOM     58  H4  UNL     1     -18.690  26.387  32.189  1.00  0.00     0.210 HD
ENDBRANCH  52  57
BRANCH  53  59
HETATM   59  O5  UNL     1     -16.718  25.931  35.336  1.00  0.00    -0.385 OA
ATOM     60  H5  UNL     1     -16.289  25.591  34.560  1.00  0.00     0.210 HD
ENDBRANCH  53  59
ENDBRANCH  24  49
ENDBRANCH  12  14
ENDBRANCH  10  12
TORSDOF 18
ENDMDL
MODEL 3
REMARK VINA RESULT: -7.920201125      4.394      9.164
REMARK  18 active torsions:
REMARK  status: ('A' for Active; 'I' for Inactive)
REMARK       I    between atoms: N2_3  and  C2_5 
REMARK       I    between atoms: C2_5  and  N3_6 
REMARK       I    between atoms: C2_5  and  N5_10 
REMARK    1  A    between atoms: N5_10  and  N6_12 
REMARK    2  A    between atoms: N6_12  and  C4_14 
REMARK    3  A    between atoms: C6_18  and  N8_19 
REMARK    4  A    between atoms: C7_24  and  S1_25 
REMARK    5  A    between atoms: S1_25  and  C8_26 
REMARK    6  A    between atoms: C8_26  and  C9_27 
REMARK    7  A    between atoms: C9_27  and  S2_28 
REMARK    8  A    between atoms: S2_28  and  S3_29 
REMARK    9  A    between atoms: S3_29  and  C10_30 
REMARK   10  A    between atoms: C10_30  and  C11_31 
REMARK   11  A    between atoms: C11_31  and  N10_32 
REMARK   12  A    between atoms: C13_38  and  N12_39 
REMARK   13  A    between atoms: N13_43  and  N14_44 
REMARK   14  A    between atoms: N15_48  and  C15_49 
REMARK   15  A    between atoms: C16_51  and  C17_52 
REMARK   16  A    between atoms: C17_52  and  O3_53 
REMARK   17  A    between atoms: C18_55  and  O4_56 
REMARK   18  A    between atoms: C19_58  and  O5_59 
ROOT
HETATM    1  N1  UNL     1     -19.662  28.098  40.039  1.00  0.00    -0.171 NA
HETATM    2  C1  UNL     1     -20.489  28.542  39.391  1.00  0.00     0.196 C 
HETATM    3  N2  UNL     1     -21.506  29.067  38.585  1.00  0.00    -0.124 N 
ATOM      4  H2  UNL     1     -21.694  30.069  38.576  1.00  0.00     0.197 HD
HETATM    5  C2  UNL     1     -22.212  28.256  37.847  1.00  0.00     0.715 C 
HETATM    6  N3  UNL     1     -23.225  28.855  37.056  1.00  0.00    -0.124 N 
ATOM      7  H3  UNL     1     -22.950  29.265  36.164  1.00  0.00     0.197 HD
HETATM    8  C3  UNL     1     -24.573  28.924  37.411  1.00  0.00     0.196 C 
HETATM    9  N4  UNL     1     -25.684  28.967  37.698  1.00  0.00    -0.171 NA
HETATM   10  N5  UNL     1     -21.961  26.860  37.853  1.00  0.00    -0.116 N 
ATOM     11  H5  UNL     1     -22.548  26.283  38.455  1.00  0.00     0.206 HD
ENDROOT
BRANCH  10  12
HETATM   12  N6  UNL     1     -20.991  26.216  37.114  1.00  0.00    -0.117 N 
ATOM     13  H6  UNL     1     -20.878  26.484  36.136  1.00  0.00     0.206 HD
BRANCH  12  14
HETATM   14  C4  UNL     1     -20.218  25.298  37.582  1.00  0.00     0.708 A 
HETATM   15  N7  UNL     1     -20.046  25.073  38.869  1.00  0.00    -0.182 N 
HETATM   16  C5  UNL     1     -19.190  24.068  39.003  1.00  0.00     0.140 A 
ATOM     17  H7  UNL     1     -20.494  25.583  39.631  1.00  0.00     0.184 HD
HETATM   18  C6  UNL     1     -18.653  23.420  40.087  1.00  0.00     0.132 A 
HETATM   19  C14 UNL     1     -18.828  23.668  37.704  1.00  0.00     0.185 A 
HETATM   20  N9  UNL     1     -17.794  22.420  39.926  1.00  0.00    -0.320 N 
HETATM   21  C7  UNL     1     -17.433  22.018  38.699  1.00  0.00     0.168 A 
ATOM     22  H9  UNL     1     -17.405  21.952  40.744  1.00  0.00     0.169 HD
HETATM   23  N13 UNL     1     -17.957  22.650  37.630  1.00  0.00    -0.220 N 
HETATM   24  N15 UNL     1     -19.473  24.439  36.807  1.00  0.00    -0.107 N 
BRANCH  18  25
HETATM   25  N8  UNL     1     -19.006  23.809  41.291  1.00  0.00    -0.383 N 
ATOM     26  H82 UNL     1     -19.899  24.276  41.444  1.00  0.00     0.157 HD
ATOM     27  H81 UNL     1     -18.368  23.634  42.068  1.00  0.00     0.157 HD
ENDBRANCH  18  25
BRANCH  21  28
HETATM   28  S1  UNL     1     -16.274  20.669  38.483  1.00  0.00    -0.091 SA
BRANCH  28  29
HETATM   29  C8  UNL     1     -15.501  20.225  40.054  1.00  0.00     0.093 C 
BRANCH  29  30
HETATM   30  C9  UNL     1     -14.029  20.056  39.971  1.00  0.00     0.097 C 
BRANCH  30  31
HETATM   31  S2  UNL     1     -13.096  21.230  39.027  1.00  0.00    -0.097 SA
BRANCH  31  32
HETATM   32  S3  UNL     1     -11.338  21.953  39.894  1.00  0.00    -0.096 SA
BRANCH  32  33
HETATM   33  C10 UNL     1     -10.593  23.239  38.869  1.00  0.00     0.105 C 
BRANCH  33  34
HETATM   34  C11 UNL     1     -10.533  24.521  39.710  1.00  0.00     0.133 C 
BRANCH  34  35
HETATM   35  N10 UNL     1     -10.746  25.628  38.816  1.00  0.00    -0.362 N 
HETATM   36  C12 UNL     1     -11.941  25.770  38.280  1.00  0.00     0.212 A 
HETATM   37  O1  UNL     1     -12.346  26.679  37.462  1.00  0.00    -0.210 OA
HETATM   38  S4  UNL     1     -13.357  24.827  38.461  1.00  0.00    -0.007 SA
HETATM   39  N11 UNL     1     -13.509  26.697  37.028  1.00  0.00    -0.236 N 
HETATM   40  C13 UNL     1     -14.363  25.744  37.421  1.00  0.00     0.166 A 
ATOM     41  H11 UNL     1     -13.810  27.428  36.382  1.00  0.00     0.197 HD
ATOM     42  H10 UNL     1      -9.995  26.285  38.604  1.00  0.00     0.162 HD
BRANCH  40  43
HETATM   43  N12 UNL     1     -15.621  25.600  37.072  1.00  0.00    -0.378 N 
ATOM     44 2H12 UNL     1     -16.282  26.243  36.637  1.00  0.00     0.158 HD
ATOM     45 1H12 UNL     1     -16.205  24.771  37.177  1.00  0.00     0.158 HD
ENDBRANCH  40  43
ENDBRANCH  34  35
ENDBRANCH  33  34
ENDBRANCH  32  33
ENDBRANCH  31  32
ENDBRANCH  30  31
ENDBRANCH  29  30
ENDBRANCH  28  29
ENDBRANCH  21  28
BRANCH  23  46
HETATM   46  N14 UNL     1     -17.543  22.188  36.391  1.00  0.00    -0.335 N 
ATOM     47 2H14 UNL     1     -18.114  21.507  35.889  1.00  0.00     0.177 HD
ATOM     48 1H14 UNL     1     -16.663  22.569  36.044  1.00  0.00     0.177 HD
ENDBRANCH  23  46
BRANCH  24  49
HETATM   49  C15 UNL     1     -19.419  24.394  35.406  1.00  0.00     0.175 C 
HETATM   50  O2  UNL     1     -20.561  24.255  34.673  1.00  0.00    -0.326 OA
HETATM   51  C16 UNL     1     -20.184  24.389  33.355  1.00  0.00     0.185 C 
HETATM   52  C18 UNL     1     -18.907  25.152  33.269  1.00  0.00     0.186 C 
HETATM   53  C19 UNL     1     -18.466  25.326  34.711  1.00  0.00     0.225 C 
BRANCH  51  54
HETATM   54  C17 UNL     1     -20.178  23.100  32.574  1.00  0.00     0.199 C 
BRANCH  54  55
HETATM   55  O3  UNL     1     -19.135  23.011  31.660  1.00  0.00    -0.398 OA
ATOM     56  H3  UNL     1     -18.348  23.462  31.940  1.00  0.00     0.209 HD
ENDBRANCH  54  55
ENDBRANCH  51  54
BRANCH  52  57
HETATM   57  O4  UNL     1     -19.044  26.392  32.643  1.00  0.00    -0.390 OA
ATOM     58  H4  UNL     1     -18.710  27.115  33.161  1.00  0.00     0.210 HD
ENDBRANCH  52  57
BRANCH  53  59
HETATM   59  O5  UNL     1     -17.135  24.858  34.769  1.00  0.00    -0.385 OA
ATOM     60  H5  UNL     1     -16.581  25.429  35.287  1.00  0.00     0.210 HD
ENDBRANCH  53  59
ENDBRANCH  24  49
ENDBRANCH  12  14
ENDBRANCH  10  12
TORSDOF 18
ENDMDL
MODEL 4
REMARK VINA RESULT: -7.850261107      2.534      4.682
REMARK  18 active torsions:
REMARK  status: ('A' for Active; 'I' for Inactive)
REMARK       I    between atoms: N2_3  and  C2_5 
REMARK       I    between atoms: C2_5  and  N3_6 
REMARK       I    between atoms: C2_5  and  N5_10 
REMARK    1  A    between atoms: N5_10  and  N6_12 
REMARK    2  A    between atoms: N6_12  and  C4_14 
REMARK    3  A    between atoms: C6_18  and  N8_19 
REMARK    4  A    between atoms: C7_24  and  S1_25 
REMARK    5  A    between atoms: S1_25  and  C8_26 
REMARK    6  A    between atoms: C8_26  and  C9_27 
REMARK    7  A    between atoms: C9_27  and  S2_28 
REMARK    8  A    between atoms: S2_28  and  S3_29 
REMARK    9  A    between atoms: S3_29  and  C10_30 
REMARK   10  A    between atoms: C10_30  and  C11_31 
REMARK   11  A    between atoms: C11_31  and  N10_32 
REMARK   12  A    between atoms: C13_38  and  N12_39 
REMARK   13  A    between atoms: N13_43  and  N14_44 
REMARK   14  A    between atoms: N15_48  and  C15_49 
REMARK   15  A    between atoms: C16_51  and  C17_52 
REMARK   16  A    between atoms: C17_52  and  O3_53 
REMARK   17  A    between atoms: C18_55  and  O4_56 
REMARK   18  A    between atoms: C19_58  and  O5_59 
ROOT
HETATM    1  N1  UNL     1     -14.474  21.277  39.604  1.00  0.00    -0.171 NA
HETATM    2  C1  UNL     1     -14.023  22.141  39.010  1.00  0.00     0.196 C 
HETATM    3  N2  UNL     1     -13.490  23.211  38.283  1.00  0.00    -0.124 N 
ATOM      4  H2  UNL     1     -12.545  23.159  37.903  1.00  0.00     0.197 HD
HETATM    5  C2  UNL     1     -14.219  24.276  38.097  1.00  0.00     0.715 C 
HETATM    6  N3  UNL     1     -13.617  25.322  37.351  1.00  0.00    -0.124 N 
ATOM      7  H3  UNL     1     -13.641  25.253  36.334  1.00  0.00     0.197 HD
HETATM    8  C3  UNL     1     -12.995  26.440  37.910  1.00  0.00     0.196 C 
HETATM    9  N4  UNL     1     -12.497  27.365  38.370  1.00  0.00    -0.171 NA
HETATM   10  N5  UNL     1     -15.535  24.360  38.621  1.00  0.00    -0.116 N 
ATOM     11  H5  UNL     1     -15.652  24.845  39.510  1.00  0.00     0.206 HD
ENDROOT
BRANCH  10  12
HETATM   12  N6  UNL     1     -16.668  23.841  38.030  1.00  0.00    -0.117 N 
ATOM     13  H6  UNL     1     -16.548  23.143  37.296  1.00  0.00     0.206 HD
BRANCH  12  14
HETATM   14  C4  UNL     1     -17.868  24.184  38.349  1.00  0.00     0.708 A 
HETATM   15  N7  UNL     1     -18.291  24.296  39.591  1.00  0.00    -0.182 N 
HETATM   16  C5  UNL     1     -19.568  24.658  39.563  1.00  0.00     0.140 A 
ATOM     17  H7  UNL     1     -17.734  24.132  40.430  1.00  0.00     0.184 HD
HETATM   18  C6  UNL     1     -20.500  24.916  40.536  1.00  0.00     0.132 A 
HETATM   19  C14 UNL     1     -19.927  24.770  38.208  1.00  0.00     0.185 A 
HETATM   20  N9  UNL     1     -21.740  25.269  40.215  1.00  0.00    -0.320 N 
HETATM   21  C7  UNL     1     -22.108  25.383  38.932  1.00  0.00     0.168 A 
ATOM     22  H9  UNL     1     -22.419  25.455  40.953  1.00  0.00     0.169 HD
HETATM   23  N13 UNL     1     -21.198  25.132  37.971  1.00  0.00    -0.220 N 
HETATM   24  N15 UNL     1     -18.860  24.472  37.441  1.00  0.00    -0.107 N 
BRANCH  18  25
HETATM   25  N8  UNL     1     -20.142  24.808  41.796  1.00  0.00    -0.383 N 
ATOM     26  H82 UNL     1     -20.188  23.907  42.271  1.00  0.00     0.157 HD
ATOM     27  H81 UNL     1     -19.818  25.642  42.286  1.00  0.00     0.157 HD
ENDBRANCH  18  25
BRANCH  21  28
HETATM   28  S1  UNL     1     -23.781  25.858  38.500  1.00  0.00    -0.091 SA
BRANCH  28  29
HETATM   29  C8  UNL     1     -24.709  24.446  37.862  1.00  0.00     0.093 C 
BRANCH  29  30
HETATM   30  C9  UNL     1     -25.859  24.824  37.004  1.00  0.00     0.097 C 
BRANCH  30  31
HETATM   31  S2  UNL     1     -26.236  26.543  36.804  1.00  0.00    -0.097 SA
BRANCH  31  32
HETATM   32  S3  UNL     1     -25.035  27.624  35.481  1.00  0.00    -0.096 SA
BRANCH  32  33
HETATM   33  C10 UNL     1     -25.134  29.395  35.817  1.00  0.00     0.105 C 
BRANCH  33  34
HETATM   34  C11 UNL     1     -24.124  29.711  36.928  1.00  0.00     0.133 C 
BRANCH  34  35
HETATM   35  N10 UNL     1     -22.865  29.131  36.539  1.00  0.00    -0.362 N 
HETATM   36  C12 UNL     1     -21.972  28.902  37.480  1.00  0.00     0.212 A 
HETATM   37  O1  UNL     1     -20.794  28.396  37.356  1.00  0.00    -0.210 OA
HETATM   38  S4  UNL     1     -22.040  29.183  39.166  1.00  0.00    -0.007 SA
HETATM   39  N11 UNL     1     -20.046  28.232  38.333  1.00  0.00    -0.236 N 
HETATM   40  C13 UNL     1     -20.479  28.593  39.548  1.00  0.00     0.166 A 
ATOM     41  H11 UNL     1     -19.117  27.828  38.212  1.00  0.00     0.197 HD
ATOM     42  H10 UNL     1     -22.670  28.905  35.564  1.00  0.00     0.162 HD
BRANCH  40  43
HETATM   43  N12 UNL     1     -19.836  28.497  40.690  1.00  0.00    -0.378 N 
ATOM     44 2H12 UNL     1     -20.027  27.955  41.532  1.00  0.00     0.158 HD
ATOM     45 1H12 UNL     1     -18.977  28.974  40.962  1.00  0.00     0.158 HD
ENDBRANCH  40  43
ENDBRANCH  34  35
ENDBRANCH  33  34
ENDBRANCH  32  33
ENDBRANCH  31  32
ENDBRANCH  30  31
ENDBRANCH  29  30
ENDBRANCH  28  29
ENDBRANCH  21  28
BRANCH  23  46
HETATM   46  N14 UNL     1     -21.642  25.267  36.666  1.00  0.00    -0.335 N 
ATOM     47 2H14 UNL     1     -21.191  25.940  36.045  1.00  0.00     0.177 HD
ATOM     48 1H14 UNL     1     -22.420  24.665  36.395  1.00  0.00     0.177 HD
ENDBRANCH  23  46
BRANCH  24  49
HETATM   49  C15 UNL     1     -18.759  24.457  36.041  1.00  0.00     0.175 C 
HETATM   50  O2  UNL     1     -19.703  23.825  35.286  1.00  0.00    -0.326 OA
HETATM   51  C16 UNL     1     -19.395  24.114  33.975  1.00  0.00     0.185 C 
HETATM   52  C18 UNL     1     -18.588  25.365  33.909  1.00  0.00     0.186 C 
HETATM   53  C19 UNL     1     -18.304  25.716  35.358  1.00  0.00     0.225 C 
BRANCH  51  54
HETATM   54  C17 UNL     1     -18.798  22.962  33.207  1.00  0.00     0.199 C 
BRANCH  54  55
HETATM   55  O3  UNL     1     -18.949  23.078  31.830  1.00  0.00    -0.398 OA
ATOM     56  H3  UNL     1     -18.128  23.042  31.355  1.00  0.00     0.209 HD
ENDBRANCH  54  55
ENDBRANCH  51  54
BRANCH  52  57
HETATM   57  O4  UNL     1     -19.247  26.416  33.268  1.00  0.00    -0.390 OA
ATOM     58  H4  UNL     1     -18.817  26.700  32.470  1.00  0.00     0.210 HD
ENDBRANCH  52  57
BRANCH  53  59
HETATM   59  O5  UNL     1     -16.905  25.888  35.448  1.00  0.00    -0.385 OA
ATOM     60  H5  UNL     1     -16.675  26.721  35.841  1.00  0.00     0.210 HD
ENDBRANCH  53  59
ENDBRANCH  24  49
ENDBRANCH  12  14
ENDBRANCH  10  12
TORSDOF 18
ENDMDL
MODEL 5
REMARK VINA RESULT: -7.815404203      2.969      5.036
REMARK  18 active torsions:
REMARK  status: ('A' for Active; 'I' for Inactive)
REMARK       I    between atoms: N2_3  and  C2_5 
REMARK       I    between atoms: C2_5  and  N3_6 
REMARK       I    between atoms: C2_5  and  N5_10 
REMARK    1  A    between atoms: N5_10  and  N6_12 
REMARK    2  A    between atoms: N6_12  and  C4_14 
REMARK    3  A    between atoms: C6_18  and  N8_19 
REMARK    4  A    between atoms: C7_24  and  S1_25 
REMARK    5  A    between atoms: S1_25  and  C8_26 
REMARK    6  A    between atoms: C8_26  and  C9_27 
REMARK    7  A    between atoms: C9_27  and  S2_28 
REMARK    8  A    between atoms: S2_28  and  S3_29 
REMARK    9  A    between atoms: S3_29  and  C10_30 
REMARK   10  A    between atoms: C10_30  and  C11_31 
REMARK   11  A    between atoms: C11_31  and  N10_32 
REMARK   12  A    between atoms: C13_38  and  N12_39 
REMARK   13  A    between atoms: N13_43  and  N14_44 
REMARK   14  A    between atoms: N15_48  and  C15_49 
REMARK   15  A    between atoms: C16_51  and  C17_52 
REMARK   16  A    between atoms: C17_52  and  O3_53 
REMARK   17  A    between atoms: C18_55  and  O4_56 
REMARK   18  A    between atoms: C19_58  and  O5_59 
ROOT
HETATM    1  N1  UNL     1     -11.059  25.928  39.249  1.00  0.00    -0.171 NA
HETATM    2  C1  UNL     1     -10.925  24.822  39.499  1.00  0.00     0.196 C 
HETATM    3  N2  UNL     1     -10.781  23.462  39.795  1.00  0.00    -0.124 N 
ATOM      4  H2  UNL     1     -10.034  23.144  40.414  1.00  0.00     0.197 HD
HETATM    5  C2  UNL     1     -11.613  22.608  39.269  1.00  0.00     0.715 C 
HETATM    6  N3  UNL     1     -11.408  21.247  39.611  1.00  0.00    -0.124 N 
ATOM      7  H3  UNL     1     -11.791  20.918  40.498  1.00  0.00     0.197 HD
HETATM    8  C3  UNL     1     -10.721  20.323  38.821  1.00  0.00     0.196 C 
HETATM    9  N4  UNL     1     -10.169  19.562  38.165  1.00  0.00    -0.171 NA
HETATM   10  N5  UNL     1     -12.653  23.039  38.407  1.00  0.00    -0.116 N 
ATOM     11  H5  UNL     1     -12.482  22.979  37.403  1.00  0.00     0.206 HD
ENDROOT
BRANCH  10  12
HETATM   12  N6  UNL     1     -13.876  23.533  38.810  1.00  0.00    -0.117 N 
ATOM     13  H6  UNL     1     -13.952  23.911  39.755  1.00  0.00     0.206 HD
BRANCH  12  14
HETATM   14  C4  UNL     1     -14.928  23.546  38.067  1.00  0.00     0.708 A 
HETATM   15  N7  UNL     1     -15.449  24.642  37.556  1.00  0.00    -0.182 N 
HETATM   16  C5  UNL     1     -16.522  24.302  36.852  1.00  0.00     0.140 A 
ATOM     17  H7  UNL     1     -15.090  25.589  37.679  1.00  0.00     0.184 HD
HETATM   18  C6  UNL     1     -17.436  25.014  36.116  1.00  0.00     0.132 A 
HETATM   19  C14 UNL     1     -16.646  22.905  36.952  1.00  0.00     0.185 A 
HETATM   20  N9  UNL     1     -18.439  24.400  35.499  1.00  0.00    -0.320 N 
HETATM   21  C7  UNL     1     -18.580  23.069  35.578  1.00  0.00     0.168 A 
ATOM     22  H9  UNL     1     -19.110  24.947  34.958  1.00  0.00     0.169 HD
HETATM   23  N13 UNL     1     -17.685  22.365  36.298  1.00  0.00    -0.220 N 
HETATM   24  N15 UNL     1     -15.645  22.425  37.716  1.00  0.00    -0.107 N 
BRANCH  18  25
HETATM   25  N8  UNL     1     -17.300  26.318  36.034  1.00  0.00    -0.383 N 
ATOM     26  H82 UNL     1     -16.473  26.726  35.599  1.00  0.00     0.157 HD
ATOM     27  H81 UNL     1     -18.037  26.912  36.414  1.00  0.00     0.157 HD
ENDBRANCH  18  25
BRANCH  21  28
HETATM   28  S1  UNL     1     -19.934  22.243  34.745  1.00  0.00    -0.091 SA
BRANCH  28  29
HETATM   29  C8  UNL     1     -21.468  22.410  35.685  1.00  0.00     0.093 C 
BRANCH  29  30
HETATM   30  C9  UNL     1     -21.356  21.963  37.096  1.00  0.00     0.097 C 
BRANCH  30  31
HETATM   31  S2  UNL     1     -21.127  23.189  38.355  1.00  0.00    -0.097 SA
BRANCH  31  32
HETATM   32  S3  UNL     1     -19.320  23.139  39.401  1.00  0.00    -0.096 SA
BRANCH  32  33
HETATM   33  C10 UNL     1     -19.378  24.223  40.843  1.00  0.00     0.105 C 
BRANCH  33  34
HETATM   34  C11 UNL     1     -20.150  25.486  40.440  1.00  0.00     0.133 C 
BRANCH  34  35
HETATM   35  N10 UNL     1     -19.376  26.157  39.430  1.00  0.00    -0.362 N 
HETATM   36  C12 UNL     1     -20.006  26.966  38.603  1.00  0.00     0.212 A 
HETATM   37  O1  UNL     1     -19.515  27.659  37.635  1.00  0.00    -0.210 OA
HETATM   38  S4  UNL     1     -21.662  27.385  38.507  1.00  0.00    -0.007 SA
HETATM   39  N11 UNL     1     -20.225  28.389  36.926  1.00  0.00    -0.236 N 
HETATM   40  C13 UNL     1     -21.539  28.454  37.175  1.00  0.00     0.166 A 
ATOM     41  H11 UNL     1     -19.814  28.931  36.165  1.00  0.00     0.197 HD
ATOM     42  H10 UNL     1     -18.370  26.010  39.355  1.00  0.00     0.162 HD
BRANCH  40  43
HETATM   43  N12 UNL     1     -22.443  29.164  36.538  1.00  0.00    -0.378 N 
ATOM     44 2H12 UNL     1     -23.440  29.013  36.387  1.00  0.00     0.158 HD
ATOM     45 1H12 UNL     1     -22.308  30.048  36.049  1.00  0.00     0.158 HD
ENDBRANCH  40  43
ENDBRANCH  34  35
ENDBRANCH  33  34
ENDBRANCH  32  33
ENDBRANCH  31  32
ENDBRANCH  30  31
ENDBRANCH  29  30
ENDBRANCH  28  29
ENDBRANCH  21  28
BRANCH  23  46
HETATM   46  N14 UNL     1     -17.887  20.994  36.340  1.00  0.00    -0.335 N 
ATOM     47 2H14 UNL     1     -17.371  20.387  35.704  1.00  0.00     0.177 HD
ATOM     48 1H14 UNL     1     -18.564  20.664  37.029  1.00  0.00     0.177 HD
ENDBRANCH  23  46
BRANCH  24  49
HETATM   49  C15 UNL     1     -15.373  21.097  38.080  1.00  0.00     0.175 C 
HETATM   50  O2  UNL     1     -14.102  20.608  38.013  1.00  0.00    -0.326 OA
HETATM   51  C16 UNL     1     -14.151  19.347  38.564  1.00  0.00     0.185 C 
HETATM   52  C18 UNL     1     -15.327  19.237  39.472  1.00  0.00     0.186 C 
HETATM   53  C19 UNL     1     -16.082  20.540  39.283  1.00  0.00     0.225 C 
BRANCH  51  54
HETATM   54  C17 UNL     1     -14.049  18.225  37.561  1.00  0.00     0.199 C 
BRANCH  54  55
HETATM   55  O3  UNL     1     -12.747  17.971  37.147  1.00  0.00    -0.398 OA
ATOM     56  H3  UNL     1     -12.095  18.160  37.811  1.00  0.00     0.209 HD
ENDBRANCH  54  55
ENDBRANCH  51  54
BRANCH  52  57
HETATM   57  O4  UNL     1     -14.976  19.063  40.813  1.00  0.00    -0.390 OA
ATOM     58  H4  UNL     1     -15.723  18.916  41.382  1.00  0.00     0.210 HD
ENDBRANCH  52  57
BRANCH  53  59
HETATM   59  O5  UNL     1     -17.414  20.177  38.987  1.00  0.00    -0.385 OA
ATOM     60  H5  UNL     1     -17.778  20.704  38.286  1.00  0.00     0.210 HD
ENDBRANCH  53  59
ENDBRANCH  24  49
ENDBRANCH  12  14
ENDBRANCH  10  12
TORSDOF 18
ENDMDL
