MODEL 1
REMARK VINA RESULT: -10.733174282      0.000      0.000
REMARK  16 active torsions:
REMARK  status: ('A' for Active; 'I' for Inactive)
REMARK    1  A    between atoms: C2_5  and  C3_6 
REMARK    2  A    between atoms: C5_10  and  C6_11 
REMARK    3  A    between atoms: C6_11  and  C7_12 
REMARK    4  A    between atoms: C11_20  and  C12_21 
REMARK    5  A    between atoms: C12_21  and  C19_36 
REMARK    6  A    between atoms: N6_22  and  O1_24 
REMARK    7  A    between atoms: O1_24  and  C13_25 
REMARK    8  A    between atoms: C17_30  and  O3_31 
REMARK    9  A    between atoms: C17_30  and  C18_33 
REMARK   10  A    between atoms: C20_39  and  O6_40 
REMARK   11  A    between atoms: C21_42  and  C22_43 
REMARK   12  A    between atoms: C22_43  and  O7_44 
REMARK   13  A    between atoms: C24_50  and  N9_51 
REMARK   14  A    between atoms: N9_51  and  C25_53 
REMARK   15  A    between atoms: C27_55  and  O9_56 
REMARK   16  A    between atoms: C28_60  and  O10_61 
ROOT
HETATM    1  N1  UNL     1     -11.074  21.028  39.241  1.00  0.00    -0.172 NA
HETATM    2  C1  UNL     1     -11.971  20.309  39.170  1.00  0.00     0.181 C 
HETATM    3  N2  UNL     1     -13.024  19.423  39.107  1.00  0.00    -0.305 N 
ATOM      4  H2  UNL     1     -12.783  18.452  38.910  1.00  0.00     0.177 HD
HETATM    5  C2  UNL     1     -14.258  19.674  39.266  1.00  0.00     0.118 C 
ENDROOT
BRANCH   5   6
HETATM    6  C3  UNL     1     -14.785  21.050  39.566  1.00  0.00     0.215 C 
HETATM    7  N3  UNL     1     -16.210  20.892  39.596  1.00  0.00    -0.394 N 
HETATM    8  C4  UNL     1     -17.007  22.074  39.423  1.00  0.00     0.154 C 
ATOM      9  H3  UNL     1     -16.640  19.978  39.736  1.00  0.00     0.155 HD
HETATM   10  C5  UNL     1     -16.094  23.259  39.316  1.00  0.00    -0.018 C 
HETATM   11  C24 UNL     1     -15.153  23.017  38.173  1.00  0.00     0.211 C 
HETATM   12  N11 UNL     1     -14.300  21.916  38.501  1.00  0.00    -0.373 N 
ATOM     13  H11 UNL     1     -13.415  21.749  38.023  1.00  0.00     0.158 HD
BRANCH  10  14
HETATM   14  C6  UNL     1     -16.626  24.588  39.585  1.00  0.00     0.057 C 
BRANCH  14  15
HETATM   15  C7  UNL     1     -18.056  24.844  39.722  1.00  0.00     0.105 A 
HETATM   16  N4  UNL     1     -18.648  24.897  40.942  1.00  0.00    -0.352 N 
HETATM   17  C8  UNL     1     -19.938  25.111  41.115  1.00  0.00     0.101 A 
ATOM     18  H4  UNL     1     -18.065  24.765  41.769  1.00  0.00     0.166 HD
HETATM   19  C9  UNL     1     -20.805  25.306  40.036  1.00  0.00     0.004 A 
HETATM   20  C10 UNL     1     -20.187  25.246  38.769  1.00  0.00     0.072 A 
HETATM   21  C23 UNL     1     -22.233  25.678  39.985  1.00  0.00     0.162 A 
HETATM   22  N5  UNL     1     -18.895  25.026  38.665  1.00  0.00    -0.340 N 
HETATM   23  C11 UNL     1     -21.354  25.583  37.863  1.00  0.00     0.089 A 
ATOM     24  H5  UNL     1     -18.494  24.990  37.729  1.00  0.00     0.167 HD
HETATM   25  N8  UNL     1     -22.504  25.748  38.596  1.00  0.00    -0.382 N 
ATOM     26  H8  UNL     1     -23.429  25.902  38.194  1.00  0.00     0.160 HD
BRANCH  23  27
HETATM   27  C12 UNL     1     -21.004  26.420  36.728  1.00  0.00     0.134 C 
HETATM   28  N6  UNL     1     -21.165  27.587  36.520  1.00  0.00    -0.255 N 
ATOM     29  H6  UNL     1     -20.818  27.878  35.606  1.00  0.00     0.195 HD
BRANCH  28  30
HETATM   30  O1  UNL     1     -21.716  28.628  37.242  1.00  0.00    -0.249 OA
BRANCH  30  31
HETATM   31  C13 UNL     1     -22.693  29.360  36.486  1.00  0.00     0.176 C 
HETATM   32  C14 UNL     1     -23.907  29.501  36.752  1.00  0.00     0.015 C 
HETATM   33  C15 UNL     1     -24.889  30.297  35.930  1.00  0.00     0.207 C 
HETATM   34  C17 UNL     1     -24.743  28.939  37.890  1.00  0.00     0.195 C 
HETATM   35  O2  UNL     1     -25.984  30.456  36.722  1.00  0.00    -0.383 OA
HETATM   36  C16 UNL     1     -26.146  29.240  37.407  1.00  0.00     0.222 C 
BRANCH  34  37
HETATM   37  O3  UNL     1     -24.512  27.586  37.941  1.00  0.00    -0.373 OA
ATOM     38  H3  UNL     1     -25.350  27.159  38.075  1.00  0.00     0.211 HD
ENDBRANCH  34  37
BRANCH  34  39
HETATM   39  C18 UNL     1     -24.461  29.607  39.169  1.00  0.00     0.216 C 
HETATM   40  O4  UNL     1     -23.492  29.277  39.868  1.00  0.00    -0.645 OA
HETATM   41  O5  UNL     1     -25.294  30.643  39.634  1.00  0.00    -0.645 OA
ENDBRANCH  34  39
ENDBRANCH  30  31
ENDBRANCH  28  30
BRANCH  27  42
HETATM   42  C19 UNL     1     -19.999  25.777  35.778  1.00  0.00     0.181 A 
HETATM   43  N7  UNL     1     -18.904  26.333  35.385  1.00  0.00    -0.313 N 
HETATM   44  C20 UNL     1     -18.251  25.459  34.563  1.00  0.00     0.174 A 
ATOM     45  H7  UNL     1     -18.581  27.266  35.643  1.00  0.00     0.170 HD
HETATM   46  C21 UNL     1     -19.043  24.350  34.497  1.00  0.00     0.129 A 
HETATM   47  O8  UNL     1     -20.115  24.591  35.261  1.00  0.00    -0.289 OA
BRANCH  44  48
HETATM   48  O6  UNL     1     -17.018  25.685  33.928  1.00  0.00    -0.344 OA
ATOM     49  H6  UNL     1     -16.849  26.322  33.244  1.00  0.00     0.219 HD
ENDBRANCH  44  48
BRANCH  46  50
HETATM   50  C22 UNL     1     -18.811  23.080  33.740  1.00  0.00     0.233 C 
BRANCH  50  51
HETATM   51  O7  UNL     1     -17.775  23.205  32.856  1.00  0.00    -0.394 OA
ATOM     52  H7  UNL     1     -17.475  22.358  32.549  1.00  0.00     0.209 HD
ENDBRANCH  50  51
ENDBRANCH  46  50
ENDBRANCH  27  42
ENDBRANCH  23  27
ENDBRANCH  14  15
ENDBRANCH  10  14
BRANCH  11  53
HETATM   53  N9  UNL     1     -14.520  24.185  37.702  1.00  0.00    -0.362 N 
ATOM     54  H9  UNL     1     -14.995  24.704  36.963  1.00  0.00     0.162 HD
BRANCH  53  55
HETATM   55  C25 UNL     1     -13.292  24.701  38.159  1.00  0.00     0.085 A 
HETATM   56  C26 UNL     1     -12.254  24.175  38.860  1.00  0.00     0.089 A 
HETATM   57  C27 UNL     1     -11.290  25.116  39.147  1.00  0.00     0.144 A 
HETATM   58  N10 UNL     1     -11.740  26.291  38.601  1.00  0.00    -0.316 N 
HETATM   59  C28 UNL     1     -12.913  26.062  38.019  1.00  0.00     0.169 A 
ATOM     60  H10 UNL     1     -11.258  27.189  38.637  1.00  0.00     0.170 HD
BRANCH  57  61
HETATM   61  O9  UNL     1     -10.099  25.005  39.827  1.00  0.00    -0.346 OA
ATOM     62  H9  UNL     1      -9.900  25.108  40.750  1.00  0.00     0.219 HD
ENDBRANCH  57  61
BRANCH  59  63
HETATM   63  O10 UNL     1     -13.675  27.030  37.352  1.00  0.00    -0.344 OA
ATOM     64  H10 UNL     1     -13.904  27.876  37.717  1.00  0.00     0.219 HD
ENDBRANCH  59  63
ENDBRANCH  53  55
ENDBRANCH  11  53
ENDBRANCH   5   6
TORSDOF 16
ENDMDL
MODEL 2
REMARK VINA RESULT: -10.302646742      2.988      7.081
REMARK  16 active torsions:
REMARK  status: ('A' for Active; 'I' for Inactive)
REMARK    1  A    between atoms: C2_5  and  C3_6 
REMARK    2  A    between atoms: C5_10  and  C6_11 
REMARK    3  A    between atoms: C6_11  and  C7_12 
REMARK    4  A    between atoms: C11_20  and  C12_21 
REMARK    5  A    between atoms: C12_21  and  C19_36 
REMARK    6  A    between atoms: N6_22  and  O1_24 
REMARK    7  A    between atoms: O1_24  and  C13_25 
REMARK    8  A    between atoms: C17_30  and  O3_31 
REMARK    9  A    between atoms: C17_30  and  C18_33 
REMARK   10  A    between atoms: C20_39  and  O6_40 
REMARK   11  A    between atoms: C21_42  and  C22_43 
REMARK   12  A    between atoms: C22_43  and  O7_44 
REMARK   13  A    between atoms: C24_50  and  N9_51 
REMARK   14  A    between atoms: N9_51  and  C25_53 
REMARK   15  A    between atoms: C27_55  and  O9_56 
REMARK   16  A    between atoms: C28_60  and  O10_61 
ROOT
HETATM    1  N1  UNL     1     -14.757  19.074  36.992  1.00  0.00    -0.172 NA
HETATM    2  C1  UNL     1     -14.658  19.572  38.025  1.00  0.00     0.181 C 
HETATM    3  N2  UNL     1     -14.502  20.150  39.266  1.00  0.00    -0.305 N 
ATOM      4  H2  UNL     1     -14.116  19.552  39.996  1.00  0.00     0.177 HD
HETATM    5  C2  UNL     1     -14.783  21.340  39.605  1.00  0.00     0.118 C 
ENDROOT
BRANCH   5   6
HETATM    6  C3  UNL     1     -15.356  22.354  38.653  1.00  0.00     0.215 C 
HETATM    7  N3  UNL     1     -14.239  23.172  38.281  1.00  0.00    -0.394 N 
HETATM    8  C4  UNL     1     -14.525  24.472  37.742  1.00  0.00     0.154 C 
ATOM      9  H3  UNL     1     -13.279  22.844  38.395  1.00  0.00     0.155 HD
HETATM   10  C5  UNL     1     -16.012  24.630  37.633  1.00  0.00    -0.018 C 
HETATM   11  C24 UNL     1     -16.603  24.421  38.995  1.00  0.00     0.211 C 
HETATM   12  N11 UNL     1     -16.398  23.059  39.383  1.00  0.00    -0.373 N 
ATOM     13  H11 UNL     1     -16.946  22.614  40.120  1.00  0.00     0.158 HD
BRANCH  10  14
HETATM   14  C6  UNL     1     -16.551  25.634  36.724  1.00  0.00     0.057 C 
BRANCH  14  15
HETATM   15  C7  UNL     1     -17.518  25.304  35.682  1.00  0.00     0.105 A 
HETATM   16  N4  UNL     1     -17.116  24.976  34.427  1.00  0.00    -0.352 N 
HETATM   17  C8  UNL     1     -17.951  24.684  33.450  1.00  0.00     0.101 A 
ATOM     18  H4  UNL     1     -16.115  24.954  34.230  1.00  0.00     0.166 HD
HETATM   19  C9  UNL     1     -19.337  24.687  33.638  1.00  0.00     0.004 A 
HETATM   20  C10 UNL     1     -19.751  25.033  34.942  1.00  0.00     0.072 A 
HETATM   21  C23 UNL     1     -20.444  24.283  32.749  1.00  0.00     0.162 A 
HETATM   22  N5  UNL     1     -18.866  25.316  35.871  1.00  0.00    -0.340 N 
HETATM   23  C11 UNL     1     -21.251  24.849  34.825  1.00  0.00     0.089 A 
ATOM     24  H5  UNL     1     -19.213  25.561  36.798  1.00  0.00     0.167 HD
HETATM   25  N8  UNL     1     -21.597  24.493  33.545  1.00  0.00    -0.382 N 
ATOM     26  H8  UNL     1     -22.556  24.394  33.211  1.00  0.00     0.160 HD
BRANCH  23  27
HETATM   27  C12 UNL     1     -21.875  24.281  36.008  1.00  0.00     0.134 C 
HETATM   28  N6  UNL     1     -22.113  23.150  36.317  1.00  0.00    -0.255 N 
ATOM     29  H6  UNL     1     -22.581  23.076  37.220  1.00  0.00     0.195 HD
BRANCH  28  30
HETATM   30  O1  UNL     1     -21.895  21.922  35.722  1.00  0.00    -0.249 OA
BRANCH  30  31
HETATM   31  C13 UNL     1     -21.564  20.904  36.679  1.00  0.00     0.176 C 
HETATM   32  C14 UNL     1     -20.462  20.330  36.824  1.00  0.00     0.015 C 
HETATM   33  C15 UNL     1     -20.163  19.276  37.860  1.00  0.00     0.207 C 
HETATM   34  C17 UNL     1     -19.162  20.472  36.050  1.00  0.00     0.195 C 
HETATM   35  O2  UNL     1     -18.807  19.163  37.885  1.00  0.00    -0.383 OA
HETATM   36  C16 UNL     1     -18.385  19.272  36.549  1.00  0.00     0.222 C 
BRANCH  34  37
HETATM   37  O3  UNL     1     -19.464  20.352  34.715  1.00  0.00    -0.373 OA
ATOM     38  H3  UNL     1     -19.266  19.459  34.458  1.00  0.00     0.211 HD
ENDBRANCH  34  37
BRANCH  34  39
HETATM   39  C18 UNL     1     -18.466  21.729  36.359  1.00  0.00     0.216 C 
HETATM   40  O4  UNL     1     -17.426  22.052  35.767  1.00  0.00    -0.645 OA
HETATM   41  O5  UNL     1     -18.966  22.600  37.346  1.00  0.00    -0.645 OA
ENDBRANCH  34  39
ENDBRANCH  30  31
ENDBRANCH  28  30
BRANCH  27  42
HETATM   42  C19 UNL     1     -21.966  25.252  37.181  1.00  0.00     0.181 A 
HETATM   43  N7  UNL     1     -22.426  24.951  38.347  1.00  0.00    -0.313 N 
HETATM   44  C20 UNL     1     -22.334  26.057  39.143  1.00  0.00     0.174 A 
ATOM     45  H7  UNL     1     -22.795  24.042  38.628  1.00  0.00     0.170 HD
HETATM   46  C21 UNL     1     -21.791  27.033  38.359  1.00  0.00     0.129 A 
HETATM   47  O8  UNL     1     -21.582  26.493  37.152  1.00  0.00    -0.289 OA
BRANCH  44  48
HETATM   48  O6  UNL     1     -22.727  26.143  40.489  1.00  0.00    -0.344 OA
ATOM     49  H6  UNL     1     -22.502  26.840  41.094  1.00  0.00     0.219 HD
ENDBRANCH  44  48
BRANCH  46  50
HETATM   50  C22 UNL     1     -21.465  28.449  38.721  1.00  0.00     0.233 C 
BRANCH  50  51
HETATM   51  O7  UNL     1     -21.383  28.614  40.076  1.00  0.00    -0.394 OA
ATOM     52  H7  UNL     1     -22.123  29.105  40.412  1.00  0.00     0.209 HD
ENDBRANCH  50  51
ENDBRANCH  46  50
ENDBRANCH  27  42
ENDBRANCH  23  27
ENDBRANCH  14  15
ENDBRANCH  10  14
BRANCH  11  53
HETATM   53  N9  UNL     1     -17.911  24.925  39.130  1.00  0.00    -0.362 N 
ATOM     54  H9  UNL     1     -18.262  25.512  38.373  1.00  0.00     0.162 HD
BRANCH  53  55
HETATM   55  C25 UNL     1     -18.779  24.693  40.215  1.00  0.00     0.085 A 
HETATM   56  C26 UNL     1     -19.369  23.580  40.725  1.00  0.00     0.089 A 
HETATM   57  C27 UNL     1     -20.221  23.875  41.766  1.00  0.00     0.144 A 
HETATM   58  N10 UNL     1     -20.166  25.236  41.921  1.00  0.00    -0.316 N 
HETATM   59  C28 UNL     1     -19.325  25.728  41.018  1.00  0.00     0.169 A 
ATOM     60  H10 UNL     1     -20.684  25.779  42.612  1.00  0.00     0.170 HD
BRANCH  57  61
HETATM   61  O9  UNL     1     -21.004  23.055  42.547  1.00  0.00    -0.346 OA
ATOM     62  H9  UNL     1     -21.836  23.216  42.976  1.00  0.00     0.219 HD
ENDBRANCH  57  61
BRANCH  59  63
HETATM   63  O10 UNL     1     -19.012  27.086  40.876  1.00  0.00    -0.344 OA
ATOM     64  H10 UNL     1     -19.440  27.787  41.354  1.00  0.00     0.219 HD
ENDBRANCH  59  63
ENDBRANCH  53  55
ENDBRANCH  11  53
ENDBRANCH   5   6
TORSDOF 16
ENDMDL
MODEL 3
REMARK VINA RESULT: -10.225837296      3.320      8.233
REMARK  16 active torsions:
REMARK  status: ('A' for Active; 'I' for Inactive)
REMARK    1  A    between atoms: C2_5  and  C3_6 
REMARK    2  A    between atoms: C5_10  and  C6_11 
REMARK    3  A    between atoms: C6_11  and  C7_12 
REMARK    4  A    between atoms: C11_20  and  C12_21 
REMARK    5  A    between atoms: C12_21  and  C19_36 
REMARK    6  A    between atoms: N6_22  and  O1_24 
REMARK    7  A    between atoms: O1_24  and  C13_25 
REMARK    8  A    between atoms: C17_30  and  O3_31 
REMARK    9  A    between atoms: C17_30  and  C18_33 
REMARK   10  A    between atoms: C20_39  and  O6_40 
REMARK   11  A    between atoms: C21_42  and  C22_43 
REMARK   12  A    between atoms: C22_43  and  O7_44 
REMARK   13  A    between atoms: C24_50  and  N9_51 
REMARK   14  A    between atoms: N9_51  and  C25_53 
REMARK   15  A    between atoms: C27_55  and  O9_56 
REMARK   16  A    between atoms: C28_60  and  O10_61 
ROOT
HETATM    1  N1  UNL     1     -17.689  25.952  34.401  1.00  0.00    -0.172 NA
HETATM    2  C1  UNL     1     -18.251  25.357  33.592  1.00  0.00     0.181 C 
HETATM    3  N2  UNL     1     -18.903  24.665  32.595  1.00  0.00    -0.305 N 
ATOM      4  H2  UNL     1     -19.252  25.222  31.816  1.00  0.00     0.177 HD
HETATM    5  C2  UNL     1     -19.121  23.416  32.534  1.00  0.00     0.118 C 
ENDROOT
BRANCH   5   6
HETATM    6  C3  UNL     1     -18.672  22.451  33.597  1.00  0.00     0.215 C 
HETATM    7  N3  UNL     1     -17.811  21.533  32.910  1.00  0.00    -0.394 N 
HETATM    8  C4  UNL     1     -17.576  20.259  33.531  1.00  0.00     0.154 C 
ATOM      9  H3  UNL     1     -17.383  21.774  32.016  1.00  0.00     0.155 HD
HETATM   10  C5  UNL     1     -18.278  20.234  34.856  1.00  0.00    -0.018 C 
HETATM   11  C24 UNL     1     -19.733  20.507  34.616  1.00  0.00     0.211 C 
HETATM   12  N11 UNL     1     -19.879  21.848  34.140  1.00  0.00    -0.373 N 
ATOM     13  H11 UNL     1     -20.769  22.347  34.179  1.00  0.00     0.158 HD
BRANCH  10  14
HETATM   14  C6  UNL     1     -17.847  19.276  35.866  1.00  0.00     0.057 C 
BRANCH  14  15
HETATM   15  C7  UNL     1     -16.682  19.506  36.714  1.00  0.00     0.105 A 
HETATM   16  N4  UNL     1     -15.754  18.536  36.913  1.00  0.00    -0.352 N 
HETATM   17  C8  UNL     1     -14.693  18.692  37.680  1.00  0.00     0.101 A 
ATOM     18  H4  UNL     1     -15.884  17.639  36.445  1.00  0.00     0.166 HD
HETATM   19  C9  UNL     1     -14.438  19.891  38.353  1.00  0.00     0.004 A 
HETATM   20  C10 UNL     1     -15.407  20.896  38.147  1.00  0.00     0.072 A 
HETATM   21  C23 UNL     1     -13.279  20.336  39.152  1.00  0.00     0.162 A 
HETATM   22  N5  UNL     1     -16.445  20.675  37.371  1.00  0.00    -0.340 N 
HETATM   23  C11 UNL     1     -14.794  22.049  38.916  1.00  0.00     0.089 A 
ATOM     24  H5  UNL     1     -17.119  21.430  37.254  1.00  0.00     0.167 HD
HETATM   25  N8  UNL     1     -13.626  21.658  39.524  1.00  0.00    -0.382 N 
ATOM     26  H8  UNL     1     -13.081  22.242  40.159  1.00  0.00     0.160 HD
BRANCH  23  27
HETATM   27  C12 UNL     1     -14.970  23.346  38.285  1.00  0.00     0.134 C 
HETATM   28  N6  UNL     1     -15.945  23.911  37.885  1.00  0.00    -0.255 N 
ATOM     29  H6  UNL     1     -15.735  24.819  37.471  1.00  0.00     0.195 HD
BRANCH  28  30
HETATM   30  O1  UNL     1     -17.293  23.607  37.860  1.00  0.00    -0.249 OA
BRANCH  30  31
HETATM   31  C13 UNL     1     -18.106  24.755  37.572  1.00  0.00     0.176 C 
HETATM   32  C14 UNL     1     -18.859  25.366  38.362  1.00  0.00     0.015 C 
HETATM   33  C15 UNL     1     -19.681  26.581  38.012  1.00  0.00     0.207 C 
HETATM   34  C17 UNL     1     -19.195  25.097  39.820  1.00  0.00     0.195 C 
HETATM   35  O2  UNL     1     -20.082  27.105  39.202  1.00  0.00    -0.383 OA
HETATM   36  C16 UNL     1     -20.386  26.008  40.025  1.00  0.00     0.222 C 
BRANCH  34  37
HETATM   37  O3  UNL     1     -19.554  23.774  39.921  1.00  0.00    -0.373 OA
ATOM     38  H3  UNL     1     -19.153  23.430  40.710  1.00  0.00     0.211 HD
ENDBRANCH  34  37
BRANCH  34  39
HETATM   39  C18 UNL     1     -18.087  25.449  40.719  1.00  0.00     0.216 C 
HETATM   40  O4  UNL     1     -17.002  24.851  40.672  1.00  0.00    -0.645 OA
HETATM   41  O5  UNL     1     -18.235  26.480  41.667  1.00  0.00    -0.645 OA
ENDBRANCH  34  39
ENDBRANCH  30  31
ENDBRANCH  28  30
BRANCH  27  42
HETATM   42  C19 UNL     1     -13.763  24.268  38.431  1.00  0.00     0.181 A 
HETATM   43  N7  UNL     1     -13.833  25.542  38.614  1.00  0.00    -0.313 N 
HETATM   44  C20 UNL     1     -12.562  26.030  38.720  1.00  0.00     0.174 A 
ATOM     45  H7  UNL     1     -14.691  26.092  38.669  1.00  0.00     0.170 HD
HETATM   46  C21 UNL     1     -11.738  24.951  38.584  1.00  0.00     0.129 A 
HETATM   47  O8  UNL     1     -12.523  23.882  38.403  1.00  0.00    -0.289 OA
BRANCH  44  48
HETATM   48  O6  UNL     1     -12.207  27.374  38.927  1.00  0.00    -0.344 OA
ATOM     49  H6  UNL     1     -11.391  27.784  38.662  1.00  0.00     0.219 HD
ENDBRANCH  44  48
BRANCH  46  50
HETATM   50  C22 UNL     1     -10.243  24.908  38.621  1.00  0.00     0.233 C 
BRANCH  50  51
HETATM   51  O7  UNL     1      -9.784  24.421  39.814  1.00  0.00    -0.394 OA
ATOM     52  H7  UNL     1      -9.058  24.936  40.144  1.00  0.00     0.209 HD
ENDBRANCH  50  51
ENDBRANCH  46  50
ENDBRANCH  27  42
ENDBRANCH  23  27
ENDBRANCH  14  15
ENDBRANCH  10  14
BRANCH  11  53
HETATM   53  N9  UNL     1     -20.566  20.123  35.686  1.00  0.00    -0.362 N 
ATOM     54  H9  UNL     1     -20.652  19.124  35.872  1.00  0.00     0.162 HD
BRANCH  53  55
HETATM   55  C25 UNL     1     -21.292  20.994  36.521  1.00  0.00     0.085 A 
HETATM   56  C26 UNL     1     -22.558  21.485  36.494  1.00  0.00     0.089 A 
HETATM   57  C27 UNL     1     -22.786  22.392  37.505  1.00  0.00     0.144 A 
HETATM   58  N10 UNL     1     -21.609  22.478  38.204  1.00  0.00    -0.316 N 
HETATM   59  C28 UNL     1     -20.725  21.663  37.638  1.00  0.00     0.169 A 
ATOM     60  H10 UNL     1     -21.441  23.066  39.020  1.00  0.00     0.170 HD
BRANCH  57  61
HETATM   61  O9  UNL     1     -23.913  23.112  37.830  1.00  0.00    -0.346 OA
ATOM     62  H9  UNL     1     -24.513  23.029  38.562  1.00  0.00     0.219 HD
ENDBRANCH  57  61
BRANCH  59  63
HETATM   63  O10 UNL     1     -19.408  21.483  38.082  1.00  0.00    -0.344 OA
ATOM     64  H10 UNL     1     -18.689  22.069  37.877  1.00  0.00     0.219 HD
ENDBRANCH  59  63
ENDBRANCH  53  55
ENDBRANCH  11  53
ENDBRANCH   5   6
TORSDOF 16
ENDMDL
MODEL 4
REMARK VINA RESULT: -10.156076103      1.646      2.501
REMARK  16 active torsions:
REMARK  status: ('A' for Active; 'I' for Inactive)
REMARK    1  A    between atoms: C2_5  and  C3_6 
REMARK    2  A    between atoms: C5_10  and  C6_11 
REMARK    3  A    between atoms: C6_11  and  C7_12 
REMARK    4  A    between atoms: C11_20  and  C12_21 
REMARK    5  A    between atoms: C12_21  and  C19_36 
REMARK    6  A    between atoms: N6_22  and  O1_24 
REMARK    7  A    between atoms: O1_24  and  C13_25 
REMARK    8  A    between atoms: C17_30  and  O3_31 
REMARK    9  A    between atoms: C17_30  and  C18_33 
REMARK   10  A    between atoms: C20_39  and  O6_40 
REMARK   11  A    between atoms: C21_42  and  C22_43 
REMARK   12  A    between atoms: C22_43  and  O7_44 
REMARK   13  A    between atoms: C24_50  and  N9_51 
REMARK   14  A    between atoms: N9_51  and  C25_53 
REMARK   15  A    between atoms: C27_55  and  O9_56 
REMARK   16  A    between atoms: C28_60  and  O10_61 
ROOT
HETATM    1  N1  UNL     1     -11.389  23.317  39.933  1.00  0.00    -0.172 NA
HETATM    2  C1  UNL     1     -11.455  22.170  39.856  1.00  0.00     0.181 C 
HETATM    3  N2  UNL     1     -11.506  20.795  39.792  1.00  0.00    -0.305 N 
ATOM      4  H2  UNL     1     -10.609  20.312  39.779  1.00  0.00     0.177 HD
HETATM    5  C2  UNL     1     -12.540  20.060  39.746  1.00  0.00     0.118 C 
ENDROOT
BRANCH   5   6
HETATM    6  C3  UNL     1     -13.941  20.609  39.759  1.00  0.00     0.215 C 
HETATM    7  N3  UNL     1     -14.783  19.449  39.763  1.00  0.00    -0.394 N 
HETATM    8  C4  UNL     1     -16.145  19.622  39.338  1.00  0.00     0.154 C 
ATOM      9  H3  UNL     1     -14.431  18.538  40.055  1.00  0.00     0.155 HD
HETATM   10  C5  UNL     1     -16.375  21.074  39.045  1.00  0.00    -0.018 C 
HETATM   11  C24 UNL     1     -15.381  21.502  38.006  1.00  0.00     0.211 C 
HETATM   12  N11 UNL     1     -14.068  21.438  38.571  1.00  0.00    -0.373 N 
ATOM     13  H11 UNL     1     -13.276  21.939  38.167  1.00  0.00     0.158 HD
BRANCH  10  14
HETATM   14  C6  UNL     1     -17.740  21.586  39.037  1.00  0.00     0.057 C 
BRANCH  14  15
HETATM   15  C7  UNL     1     -18.075  22.923  39.514  1.00  0.00     0.105 A 
HETATM   16  N4  UNL     1     -17.131  23.733  40.059  1.00  0.00    -0.352 N 
HETATM   17  C8  UNL     1     -17.388  24.942  40.516  1.00  0.00     0.101 A 
ATOM     18  H4  UNL     1     -16.173  23.387  40.118  1.00  0.00     0.166 HD
HETATM   19  C9  UNL     1     -18.673  25.492  40.469  1.00  0.00     0.004 A 
HETATM   20  C10 UNL     1     -19.652  24.646  39.907  1.00  0.00     0.072 A 
HETATM   21  C23 UNL     1     -19.171  26.843  40.799  1.00  0.00     0.162 A 
HETATM   22  N5  UNL     1     -19.331  23.448  39.471  1.00  0.00    -0.340 N 
HETATM   23  C11 UNL     1     -20.863  25.557  39.922  1.00  0.00     0.089 A 
ATOM     24  H5  UNL     1     -20.072  22.873  39.074  1.00  0.00     0.167 HD
HETATM   25  N8  UNL     1     -20.554  26.763  40.502  1.00  0.00    -0.382 N 
ATOM     26  H8  UNL     1     -21.230  27.503  40.694  1.00  0.00     0.160 HD
BRANCH  23  27
HETATM   27  C12 UNL     1     -21.720  25.429  38.756  1.00  0.00     0.134 C 
HETATM   28  N6  UNL     1     -22.873  25.694  38.582  1.00  0.00    -0.255 N 
ATOM     29  H6  UNL     1     -23.194  25.470  37.640  1.00  0.00     0.195 HD
BRANCH  28  30
HETATM   30  O1  UNL     1     -23.867  26.237  39.374  1.00  0.00    -0.249 OA
BRANCH  30  31
HETATM   31  C13 UNL     1     -24.743  27.100  38.634  1.00  0.00     0.176 C 
HETATM   32  C14 UNL     1     -24.550  28.300  38.336  1.00  0.00     0.015 C 
HETATM   33  C15 UNL     1     -25.499  29.160  37.539  1.00  0.00     0.207 C 
HETATM   34  C17 UNL     1     -23.397  29.231  38.672  1.00  0.00     0.195 C 
HETATM   35  O2  UNL     1     -24.780  30.256  37.175  1.00  0.00    -0.383 OA
HETATM   36  C16 UNL     1     -23.974  30.575  38.281  1.00  0.00     0.222 C 
BRANCH  34  37
HETATM   37  O3  UNL     1     -23.187  29.152  40.027  1.00  0.00    -0.373 OA
ATOM     38  H3  UNL     1     -23.745  28.460  40.362  1.00  0.00     0.211 HD
ENDBRANCH  34  37
BRANCH  34  39
HETATM   39  C18 UNL     1     -22.188  28.920  37.896  1.00  0.00     0.216 C 
HETATM   40  O4  UNL     1     -21.063  28.949  38.416  1.00  0.00    -0.645 OA
HETATM   41  O5  UNL     1     -22.280  28.582  36.532  1.00  0.00    -0.645 OA
ENDBRANCH  34  39
ENDBRANCH  30  31
ENDBRANCH  28  30
BRANCH  27  42
HETATM   42  C19 UNL     1     -20.956  25.208  37.454  1.00  0.00     0.181 A 
HETATM   43  N7  UNL     1     -20.511  26.152  36.697  1.00  0.00    -0.313 N 
HETATM   44  C20 UNL     1     -19.864  25.583  35.638  1.00  0.00     0.174 A 
ATOM     45  H7  UNL     1     -20.624  27.153  36.860  1.00  0.00     0.170 HD
HETATM   46  C21 UNL     1     -19.962  24.235  35.824  1.00  0.00     0.129 A 
HETATM   47  O8  UNL     1     -20.648  24.048  36.958  1.00  0.00    -0.289 OA
BRANCH  44  48
HETATM   48  O6  UNL     1     -19.235  26.270  34.586  1.00  0.00    -0.344 OA
ATOM     49  H6  UNL     1     -18.659  25.889  33.933  1.00  0.00     0.219 HD
ENDBRANCH  44  48
BRANCH  46  50
HETATM   50  C22 UNL     1     -19.427  23.132  34.966  1.00  0.00     0.233 C 
BRANCH  50  51
HETATM   51  O7  UNL     1     -18.104  22.895  35.220  1.00  0.00    -0.394 OA
ATOM     52  H7  UNL     1     -17.880  23.100  36.120  1.00  0.00     0.209 HD
ENDBRANCH  50  51
ENDBRANCH  46  50
ENDBRANCH  27  42
ENDBRANCH  23  27
ENDBRANCH  14  15
ENDBRANCH  10  14
BRANCH  11  53
HETATM   53  N9  UNL     1     -15.727  22.699  37.349  1.00  0.00    -0.362 N 
ATOM     54  H9  UNL     1     -16.508  22.660  36.694  1.00  0.00     0.162 HD
BRANCH  53  55
HETATM   55  C25 UNL     1     -15.092  23.945  37.513  1.00  0.00     0.085 A 
HETATM   56  C26 UNL     1     -14.076  24.387  38.300  1.00  0.00     0.089 A 
HETATM   57  C27 UNL     1     -13.863  25.740  38.164  1.00  0.00     0.144 A 
HETATM   58  N10 UNL     1     -14.787  26.175  37.248  1.00  0.00    -0.316 N 
HETATM   59  C28 UNL     1     -15.514  25.133  36.858  1.00  0.00     0.169 A 
ATOM     60  H10 UNL     1     -14.898  27.135  36.922  1.00  0.00     0.170 HD
BRANCH  57  61
HETATM   61  O9  UNL     1     -12.949  26.572  38.770  1.00  0.00    -0.346 OA
ATOM     62  H9  UNL     1     -12.000  26.540  38.793  1.00  0.00     0.219 HD
ENDBRANCH  57  61
BRANCH  59  63
HETATM   63  O10 UNL     1     -16.556  25.192  35.924  1.00  0.00    -0.344 OA
ATOM     64  H10 UNL     1     -16.445  25.058  34.990  1.00  0.00     0.219 HD
ENDBRANCH  59  63
ENDBRANCH  53  55
ENDBRANCH  11  53
ENDBRANCH   5   6
TORSDOF 16
ENDMDL
MODEL 5
REMARK VINA RESULT: -9.963149618      2.215      8.719
REMARK  16 active torsions:
REMARK  status: ('A' for Active; 'I' for Inactive)
REMARK    1  A    between atoms: C2_5  and  C3_6 
REMARK    2  A    between atoms: C5_10  and  C6_11 
REMARK    3  A    between atoms: C6_11  and  C7_12 
REMARK    4  A    between atoms: C11_20  and  C12_21 
REMARK    5  A    between atoms: C12_21  and  C19_36 
REMARK    6  A    between atoms: N6_22  and  O1_24 
REMARK    7  A    between atoms: O1_24  and  C13_25 
REMARK    8  A    between atoms: C17_30  and  O3_31 
REMARK    9  A    between atoms: C17_30  and  C18_33 
REMARK   10  A    between atoms: C20_39  and  O6_40 
REMARK   11  A    between atoms: C21_42  and  C22_43 
REMARK   12  A    between atoms: C22_43  and  O7_44 
REMARK   13  A    between atoms: C24_50  and  N9_51 
REMARK   14  A    between atoms: N9_51  and  C25_53 
REMARK   15  A    between atoms: C27_55  and  O9_56 
REMARK   16  A    between atoms: C28_60  and  O10_61 
ROOT
HETATM    1  N1  UNL     1     -23.588  25.436  33.091  1.00  0.00    -0.172 NA
HETATM    2  C1  UNL     1     -24.294  24.930  33.848  1.00  0.00     0.181 C 
HETATM    3  N2  UNL     1     -25.151  24.302  34.723  1.00  0.00    -0.305 N 
ATOM      4  H2  UNL     1     -26.101  24.145  34.388  1.00  0.00     0.177 HD
HETATM    5  C2  UNL     1     -24.896  23.894  35.898  1.00  0.00     0.118 C 
ENDROOT
BRANCH   5   6
HETATM    6  C3  UNL     1     -23.546  24.041  36.545  1.00  0.00     0.215 C 
HETATM    7  N3  UNL     1     -23.429  22.898  37.402  1.00  0.00    -0.394 N 
HETATM    8  C4  UNL     1     -22.470  22.969  38.469  1.00  0.00     0.154 C 
ATOM      9  H3  UNL     1     -24.005  22.068  37.260  1.00  0.00     0.155 HD
HETATM   10  C5  UNL     1     -21.739  24.275  38.370  1.00  0.00    -0.018 C 
HETATM   11  C24 UNL     1     -22.751  25.380  38.421  1.00  0.00     0.211 C 
HETATM   12  N11 UNL     1     -23.564  25.317  37.245  1.00  0.00    -0.373 N 
ATOM     13  H11 UNL     1     -24.117  26.110  36.921  1.00  0.00     0.158 HD
BRANCH  10  14
HETATM   14  C6  UNL     1     -20.442  24.409  39.023  1.00  0.00     0.057 C 
BRANCH  14  15
HETATM   15  C7  UNL     1     -19.325  23.519  38.730  1.00  0.00     0.105 A 
HETATM   16  N4  UNL     1     -19.524  22.202  38.465  1.00  0.00    -0.352 N 
HETATM   17  C8  UNL     1     -18.546  21.357  38.208  1.00  0.00     0.101 A 
ATOM     18  H4  UNL     1     -20.481  21.849  38.465  1.00  0.00     0.166 HD
HETATM   19  C9  UNL     1     -17.208  21.761  38.185  1.00  0.00     0.004 A 
HETATM   20  C10 UNL     1     -17.003  23.129  38.465  1.00  0.00     0.072 A 
HETATM   21  C23 UNL     1     -15.975  21.039  37.808  1.00  0.00     0.162 A 
HETATM   22  N5  UNL     1     -18.023  23.919  38.716  1.00  0.00    -0.340 N 
HETATM   23  C11 UNL     1     -15.505  23.242  38.268  1.00  0.00     0.089 A 
ATOM     24  H5  UNL     1     -17.827  24.900  38.913  1.00  0.00     0.167 HD
HETATM   25  N8  UNL     1     -14.962  22.017  37.968  1.00  0.00    -0.382 N 
ATOM     26  H8  UNL     1     -13.963  21.835  37.872  1.00  0.00     0.160 HD
BRANCH  23  27
HETATM   27  C12 UNL     1     -15.079  24.480  37.638  1.00  0.00     0.134 C 
HETATM   28  N6  UNL     1     -15.679  25.300  37.007  1.00  0.00    -0.255 N 
ATOM     29  H6  UNL     1     -15.085  26.062  36.679  1.00  0.00     0.195 HD
BRANCH  28  30
HETATM   30  O1  UNL     1     -16.999  25.445  36.624  1.00  0.00    -0.249 OA
BRANCH  30  31
HETATM   31  C13 UNL     1     -17.143  25.574  35.202  1.00  0.00     0.176 C 
HETATM   32  C14 UNL     1     -18.186  25.413  34.529  1.00  0.00     0.015 C 
HETATM   33  C15 UNL     1     -18.287  25.578  33.033  1.00  0.00     0.207 C 
HETATM   34  C17 UNL     1     -19.586  25.004  34.954  1.00  0.00     0.195 C 
HETATM   35  O2  UNL     1     -19.618  25.633  32.761  1.00  0.00    -0.383 OA
HETATM   36  C16 UNL     1     -20.227  24.699  33.617  1.00  0.00     0.222 C 
BRANCH  34  37
HETATM   37  O3  UNL     1     -19.468  23.871  35.722  1.00  0.00    -0.373 OA
ATOM     38  H3  UNL     1     -18.689  23.411  35.432  1.00  0.00     0.211 HD
ENDBRANCH  34  37
BRANCH  34  39
HETATM   39  C18 UNL     1     -20.293  26.087  35.654  1.00  0.00     0.216 C 
HETATM   40  O4  UNL     1     -21.481  26.344  35.411  1.00  0.00    -0.645 OA
HETATM   41  O5  UNL     1     -19.629  26.866  36.621  1.00  0.00    -0.645 OA
ENDBRANCH  34  39
ENDBRANCH  30  31
ENDBRANCH  28  30
BRANCH  27  42
HETATM   42  C19 UNL     1     -13.715  24.972  38.112  1.00  0.00     0.181 A 
HETATM   43  N7  UNL     1     -13.446  26.193  38.428  1.00  0.00    -0.313 N 
HETATM   44  C20 UNL     1     -12.141  26.255  38.824  1.00  0.00     0.174 A 
ATOM     45  H7  UNL     1     -14.097  26.977  38.389  1.00  0.00     0.170 HD
HETATM   46  C21 UNL     1     -11.659  24.984  38.714  1.00  0.00     0.129 A 
HETATM   47  O8  UNL     1     -12.665  24.223  38.267  1.00  0.00    -0.289 OA
BRANCH  44  48
HETATM   48  O6  UNL     1     -11.460  27.408  39.251  1.00  0.00    -0.344 OA
ATOM     49  H6  UNL     1     -11.268  28.173  38.721  1.00  0.00     0.219 HD
ENDBRANCH  44  48
BRANCH  46  50
HETATM   50  C22 UNL     1     -10.284  24.476  39.020  1.00  0.00     0.233 C 
BRANCH  50  51
HETATM   51  O7  UNL     1     -10.186  24.042  40.313  1.00  0.00    -0.394 OA
ATOM     52  H7  UNL     1     -10.191  23.093  40.363  1.00  0.00     0.209 HD
ENDBRANCH  50  51
ENDBRANCH  46  50
ENDBRANCH  27  42
ENDBRANCH  23  27
ENDBRANCH  14  15
ENDBRANCH  10  14
BRANCH  11  53
HETATM   53  N9  UNL     1     -22.203  26.638  38.741  1.00  0.00    -0.362 N 
ATOM     54  H9  UNL     1     -21.210  26.665  38.975  1.00  0.00     0.162 HD
BRANCH  53  55
HETATM   55  C25 UNL     1     -22.900  27.861  38.767  1.00  0.00     0.085 A 
HETATM   56  C26 UNL     1     -23.889  28.363  39.552  1.00  0.00     0.089 A 
HETATM   57  C27 UNL     1     -24.314  29.601  39.125  1.00  0.00     0.144 A 
HETATM   58  N10 UNL     1     -23.558  29.896  38.019  1.00  0.00    -0.316 N 
HETATM   59  C28 UNL     1     -22.725  28.884  37.798  1.00  0.00     0.169 A 
ATOM     60  H10 UNL     1     -23.624  30.746  37.460  1.00  0.00     0.170 HD
BRANCH  57  61
HETATM   61  O9  UNL     1     -25.280  30.443  39.627  1.00  0.00    -0.346 OA
ATOM     62  H9  UNL     1     -26.225  30.351  39.664  1.00  0.00     0.219 HD
ENDBRANCH  57  61
BRANCH  59  63
HETATM   63  O10 UNL     1     -21.795  28.831  36.752  1.00  0.00    -0.344 OA
ATOM     64  H10 UNL     1     -21.845  28.227  36.021  1.00  0.00     0.219 HD
ENDBRANCH  59  63
ENDBRANCH  53  55
ENDBRANCH  11  53
ENDBRANCH   5   6
TORSDOF 16
ENDMDL
