MODEL 1
REMARK VINA RESULT: -10.004300966      0.000      0.000
REMARK  13 active torsions:
REMARK  status: ('A' for Active; 'I' for Inactive)
REMARK    1  A    between atoms: C3_6  and  O1_7 
REMARK    2  A    between atoms: O1_7  and  C4_8 
REMARK    3  A    between atoms: C4_8  and  C5_9 
REMARK    4  A    between atoms: C5_9  and  C6_10 
REMARK    5  A    between atoms: N3_12  and  C8_13 
REMARK    6  A    between atoms: C8_13  and  C9_14 
REMARK    7  A    between atoms: C12_17  and  N4_18 
REMARK       I    between atoms: N4_18  and  C13_19 
REMARK    8  A    between atoms: N4_18  and  C17_39 
REMARK    9  A    between atoms: C13_19  and  C14_21 
REMARK   10  A    between atoms: N7_26  and  C15_27 
REMARK   11  A    between atoms: C16_33  and  N10_34 
REMARK   12  A    between atoms: C25_59  and  N17_60 
REMARK   13  A    between atoms: C26_67  and  N20_68 
ROOT
HETATM    1  N1  UNL     1     -16.160  24.994  36.691  1.00  0.00    -0.188 NA
HETATM    2  C1  UNL     1     -15.121  25.036  37.208  1.00  0.00     0.137 C 
HETATM    3  C2  UNL     1     -13.837  25.112  37.854  1.00  0.00     0.205 A 
HETATM    4  N2  UNL     1     -13.148  23.989  38.074  1.00  0.00    -0.298 N 
ATOM      5  H2  UNL     1     -13.534  23.092  37.782  1.00  0.00     0.171 HD
HETATM    6  C3  UNL     1     -11.950  24.035  38.675  1.00  0.00     0.239 A 
HETATM    7  N19 UNL     1     -11.442  25.251  39.061  1.00  0.00    -0.155 N 
ATOM      8  H19 UNL     1     -10.532  25.301  39.520  1.00  0.00     0.188 HD
HETATM    9  C26 UNL     1     -12.140  26.367  38.836  1.00  0.00     0.681 A 
HETATM   10  N21 UNL     1     -13.340  26.288  38.231  1.00  0.00    -0.167 N 
ATOM     11  H21 UNL     1     -13.873  27.140  38.058  1.00  0.00     0.186 HD
ENDROOT
BRANCH   6  12
HETATM   12  O1  UNL     1     -11.200  22.917  38.926  1.00  0.00    -0.321 OA
BRANCH  12  13
HETATM   13  C4  UNL     1     -11.507  21.883  39.801  1.00  0.00     0.185 C 
BRANCH  13  14
HETATM   14  C5  UNL     1     -11.437  20.546  39.145  1.00  0.00     0.086 C 
BRANCH  14  15
HETATM   15  C6  UNL     1     -12.837  20.021  38.956  1.00  0.00     0.044 A 
HETATM   16  C7  UNL     1     -13.955  20.348  39.684  1.00  0.00     0.135 A 
HETATM   17  N3  UNL     1     -14.979  19.645  39.177  1.00  0.00    -0.188 N 
HETATM   18  C25 UNL     1     -14.519  18.903  38.167  1.00  0.00     0.678 A 
HETATM   19  N18 UNL     1     -13.201  19.127  38.024  1.00  0.00    -0.194 N 
ATOM     20  H18 UNL     1     -12.589  18.696  37.332  1.00  0.00     0.184 HD
BRANCH  17  21
HETATM   21  C8  UNL     1     -16.348  19.701  39.684  1.00  0.00     0.185 C 
BRANCH  21  22
HETATM   22  C9  UNL     1     -17.082  20.901  39.189  1.00  0.00    -0.039 A 
HETATM   23  C10 UNL     1     -17.042  22.079  39.878  1.00  0.00     0.011 A 
HETATM   24  C11 UNL     1     -17.716  23.172  39.413  1.00  0.00     0.031 A 
HETATM   25  C12 UNL     1     -18.475  23.188  38.245  1.00  0.00     0.044 A 
HETATM   26  C23 UNL     1     -18.505  21.993  37.565  1.00  0.00     0.031 A 
HETATM   27  C24 UNL     1     -17.818  20.855  38.024  1.00  0.00     0.011 A 
BRANCH  25  28
HETATM   28  N4  UNL     1     -19.176  24.338  37.830  1.00  0.00    -0.260 N 
HETATM   29  C13 UNL     1     -19.222  25.530  38.547  1.00  0.00     0.301 C 
HETATM   30  O2  UNL     1     -18.668  25.602  39.685  1.00  0.00    -0.263 OA
BRANCH  29  31
HETATM   31  C14 UNL     1     -19.899  26.747  38.029  1.00  0.00     0.207 A 
HETATM   32  N5  UNL     1     -19.623  27.502  36.965  1.00  0.00    -0.264 N 
HETATM   33  N6  UNL     1     -20.497  28.484  36.902  1.00  0.00    -0.218 N 
ATOM     34  H5  UNL     1     -18.860  27.344  36.306  1.00  0.00     0.190 HD
HETATM   35  N7  UNL     1     -21.355  28.379  37.931  1.00  0.00    -0.158 N 
ATOM     36  H6  UNL     1     -20.519  29.210  36.186  1.00  0.00     0.210 HD
HETATM   37  N11 UNL     1     -20.963  27.310  38.598  1.00  0.00    -0.255 N 
ATOM     38  H11 UNL     1     -21.417  26.959  39.442  1.00  0.00     0.191 HD
BRANCH  35  39
HETATM   39  C15 UNL     1     -22.433  29.274  38.178  1.00  0.00     0.214 A 
HETATM   40  N8  UNL     1     -22.579  30.089  39.211  1.00  0.00    -0.219 N 
HETATM   41  O3  UNL     1     -23.693  30.750  39.086  1.00  0.00    -0.153 OA
ATOM     42  H8  UNL     1     -21.922  30.185  39.984  1.00  0.00     0.198 HD
HETATM   43  N9  UNL     1     -24.298  30.389  37.981  1.00  0.00    -0.222 N 
HETATM   44  C16 UNL     1     -23.535  29.455  37.374  1.00  0.00     0.171 A 
ATOM     45  H9  UNL     1     -25.189  30.751  37.639  1.00  0.00     0.198 HD
BRANCH  44  46
HETATM   46  N10 UNL     1     -23.837  28.883  36.257  1.00  0.00    -0.381 N 
ATOM     47 2H10 UNL     1     -23.158  28.456  35.628  1.00  0.00     0.157 HD
ATOM     48 1H10 UNL     1     -24.750  28.755  35.822  1.00  0.00     0.157 HD
ENDBRANCH  44  46
ENDBRANCH  35  39
ENDBRANCH  29  31
BRANCH  28  49
HETATM   49  C17 UNL     1     -19.872  24.215  36.578  1.00  0.00     0.136 A 
HETATM   50  N12 UNL     1     -19.201  24.477  35.443  1.00  0.00    -0.337 N 
HETATM   51  C18 UNL     1     -19.798  24.367  34.244  1.00  0.00     0.183 A 
ATOM     52  H12 UNL     1     -18.223  24.764  35.493  1.00  0.00     0.168 HD
HETATM   53  N13 UNL     1     -21.086  23.990  34.147  1.00  0.00    -0.337 N 
HETATM   54  C19 UNL     1     -21.793  23.720  35.244  1.00  0.00     0.141 A 
ATOM     55  H13 UNL     1     -21.523  23.910  33.230  1.00  0.00     0.168 HD
HETATM   56  N14 UNL     1     -23.087  23.343  35.163  1.00  0.00    -0.176 N 
HETATM   57  C22 UNL     1     -21.187  23.830  36.501  1.00  0.00     0.121 A 
HETATM   58  C20 UNL     1     -23.820  23.067  36.254  1.00  0.00     0.680 A 
ATOM     59  H14 UNL     1     -23.522  23.265  34.243  1.00  0.00     0.186 HD
HETATM   60  N15 UNL     1     -25.045  22.714  36.121  1.00  0.00    -0.234 N 
HETATM   61  N16 UNL     1     -23.288  23.157  37.484  1.00  0.00    -0.155 N 
ATOM     62 2H15 UNL     1     -25.449  22.645  35.186  1.00  0.00     0.174 HD
ATOM     63 1H15 UNL     1     -25.602  22.504  36.949  1.00  0.00     0.174 HD
HETATM   64  C21 UNL     1     -21.982  23.535  37.602  1.00  0.00     0.277 A 
ATOM     65  H16 UNL     1     -23.847  22.948  38.310  1.00  0.00     0.187 HD
HETATM   66  O4  UNL     1     -21.503  23.615  38.737  1.00  0.00    -0.266 OA
ENDBRANCH  28  49
ENDBRANCH  25  28
ENDBRANCH  21  22
ENDBRANCH  17  21
BRANCH  18  67
HETATM   67  N17 UNL     1     -15.190  18.082  37.396  1.00  0.00    -0.234 N 
ATOM     68 2H17 UNL     1     -16.209  18.035  37.390  1.00  0.00     0.174 HD
ATOM     69 1H17 UNL     1     -14.822  17.400  36.732  1.00  0.00     0.174 HD
ENDBRANCH  18  67
ENDBRANCH  14  15
ENDBRANCH  13  14
ENDBRANCH  12  13
ENDBRANCH   6  12
BRANCH   9  70
HETATM   70  N20 UNL     1     -11.682  27.539  39.193  1.00  0.00    -0.234 N 
ATOM     71 2H20 UNL     1     -10.823  27.591  39.740  1.00  0.00     0.174 HD
ATOM     72 1H20 UNL     1     -12.167  28.398  38.935  1.00  0.00     0.174 HD
ENDBRANCH   9  70
TORSDOF 13
ENDMDL
MODEL 2
REMARK VINA RESULT: -9.941866551      2.283      5.976
REMARK  13 active torsions:
REMARK  status: ('A' for Active; 'I' for Inactive)
REMARK    1  A    between atoms: C3_6  and  O1_7 
REMARK    2  A    between atoms: O1_7  and  C4_8 
REMARK    3  A    between atoms: C4_8  and  C5_9 
REMARK    4  A    between atoms: C5_9  and  C6_10 
REMARK    5  A    between atoms: N3_12  and  C8_13 
REMARK    6  A    between atoms: C8_13  and  C9_14 
REMARK    7  A    between atoms: C12_17  and  N4_18 
REMARK       I    between atoms: N4_18  and  C13_19 
REMARK    8  A    between atoms: N4_18  and  C17_39 
REMARK    9  A    between atoms: C13_19  and  C14_21 
REMARK   10  A    between atoms: N7_26  and  C15_27 
REMARK   11  A    between atoms: C16_33  and  N10_34 
REMARK   12  A    between atoms: C25_59  and  N17_60 
REMARK   13  A    between atoms: C26_67  and  N20_68 
ROOT
HETATM    1  N1  UNL     1     -19.797  20.697  38.114  1.00  0.00    -0.188 NA
HETATM    2  C1  UNL     1     -18.757  20.284  37.806  1.00  0.00     0.137 C 
HETATM    3  C2  UNL     1     -17.475  19.775  37.398  1.00  0.00     0.205 A 
HETATM    4  N2  UNL     1     -16.507  19.632  38.309  1.00  0.00    -0.298 N 
ATOM      5  H2  UNL     1     -16.686  19.884  39.281  1.00  0.00     0.171 HD
HETATM    6  C3  UNL     1     -15.304  19.161  37.952  1.00  0.00     0.239 A 
HETATM    7  N19 UNL     1     -15.079  18.825  36.640  1.00  0.00    -0.155 N 
ATOM      8  H19 UNL     1     -14.168  18.465  36.355  1.00  0.00     0.188 HD
HETATM    9  C26 UNL     1     -16.052  18.971  35.738  1.00  0.00     0.681 A 
HETATM   10  N21 UNL     1     -17.250  19.448  36.127  1.00  0.00    -0.167 N 
ATOM     11  H21 UNL     1     -17.995  19.560  35.439  1.00  0.00     0.186 HD
ENDROOT
BRANCH   6  12
HETATM   12  O1  UNL     1     -14.276  18.995  38.842  1.00  0.00    -0.321 OA
BRANCH  12  13
HETATM   13  C4  UNL     1     -12.918  19.130  38.586  1.00  0.00     0.185 C 
BRANCH  13  14
HETATM   14  C5  UNL     1     -12.164  19.632  39.771  1.00  0.00     0.086 C 
BRANCH  14  15
HETATM   15  C6  UNL     1     -11.990  21.123  39.642  1.00  0.00     0.044 A 
HETATM   16  C7  UNL     1     -12.736  21.986  38.877  1.00  0.00     0.135 A 
HETATM   17  N3  UNL     1     -12.231  23.216  39.060  1.00  0.00    -0.188 N 
HETATM   18  C25 UNL     1     -11.206  23.127  39.910  1.00  0.00     0.678 A 
HETATM   19  N18 UNL     1     -11.050  21.842  40.273  1.00  0.00    -0.194 N 
ATOM     20  H18 UNL     1     -10.343  21.480  40.913  1.00  0.00     0.184 HD
BRANCH  17  21
HETATM   21  C8  UNL     1     -12.740  24.420  38.407  1.00  0.00     0.185 C 
BRANCH  21  22
HETATM   22  C9  UNL     1     -14.203  24.333  38.130  1.00  0.00    -0.039 A 
HETATM   23  C10 UNL     1     -14.820  25.256  37.337  1.00  0.00     0.011 A 
HETATM   24  C11 UNL     1     -16.160  25.165  37.088  1.00  0.00     0.031 A 
HETATM   25  C12 UNL     1     -16.987  24.166  37.596  1.00  0.00     0.044 A 
HETATM   26  C23 UNL     1     -16.348  23.245  38.394  1.00  0.00     0.031 A 
HETATM   27  C24 UNL     1     -14.970  23.319  38.663  1.00  0.00     0.011 A 
BRANCH  25  28
HETATM   28  N4  UNL     1     -18.370  24.140  37.330  1.00  0.00    -0.260 N 
HETATM   29  C13 UNL     1     -18.926  23.842  36.090  1.00  0.00     0.301 C 
HETATM   30  O2  UNL     1     -18.169  23.644  35.092  1.00  0.00    -0.263 OA
BRANCH  29  31
HETATM   31  C14 UNL     1     -20.393  23.737  35.876  1.00  0.00     0.207 A 
HETATM   32  N5  UNL     1     -21.273  24.650  35.464  1.00  0.00    -0.264 N 
HETATM   33  N6  UNL     1     -22.468  24.101  35.426  1.00  0.00    -0.218 N 
ATOM     34  H5  UNL     1     -21.056  25.616  35.218  1.00  0.00     0.190 HD
HETATM   35  N7  UNL     1     -22.379  22.818  35.815  1.00  0.00    -0.158 N 
ATOM     36  H6  UNL     1     -23.327  24.575  35.145  1.00  0.00     0.210 HD
HETATM   37  N11 UNL     1     -21.100  22.628  36.082  1.00  0.00    -0.255 N 
ATOM     38  H11 UNL     1     -20.704  21.745  36.404  1.00  0.00     0.191 HD
BRANCH  35  39
HETATM   39  C15 UNL     1     -23.479  21.920  35.896  1.00  0.00     0.214 A 
HETATM   40  N8  UNL     1     -24.472  21.786  35.031  1.00  0.00    -0.219 N 
HETATM   41  O3  UNL     1     -25.288  20.864  35.448  1.00  0.00    -0.153 OA
ATOM     42  H8  UNL     1     -24.580  22.324  34.171  1.00  0.00     0.198 HD
HETATM   43  N9  UNL     1     -24.856  20.374  36.584  1.00  0.00    -0.222 N 
HETATM   44  C16 UNL     1     -23.712  21.014  36.907  1.00  0.00     0.171 A 
ATOM     45  H9  UNL     1     -25.305  19.637  37.130  1.00  0.00     0.198 HD
BRANCH  44  46
HETATM   46  N10 UNL     1     -23.019  20.777  37.969  1.00  0.00    -0.381 N 
ATOM     47 2H10 UNL     1     -22.600  21.497  38.555  1.00  0.00     0.157 HD
ATOM     48 1H10 UNL     1     -22.776  19.883  38.396  1.00  0.00     0.157 HD
ENDBRANCH  44  46
ENDBRANCH  35  39
ENDBRANCH  29  31
BRANCH  28  49
HETATM   49  C17 UNL     1     -19.217  24.451  38.451  1.00  0.00     0.136 A 
HETATM   50  N12 UNL     1     -19.481  23.482  39.343  1.00  0.00    -0.337 N 
HETATM   51  C18 UNL     1     -20.256  23.720  40.415  1.00  0.00     0.183 A 
ATOM     52  H12 UNL     1     -19.086  22.551  39.205  1.00  0.00     0.168 HD
HETATM   53  N13 UNL     1     -20.789  24.937  40.624  1.00  0.00    -0.337 N 
HETATM   54  C19 UNL     1     -20.557  25.930  39.766  1.00  0.00     0.141 A 
ATOM     55  H13 UNL     1     -21.374  25.100  41.443  1.00  0.00     0.168 HD
HETATM   56  N14 UNL     1     -21.089  27.157  39.961  1.00  0.00    -0.176 N 
HETATM   57  C22 UNL     1     -19.753  25.700  38.644  1.00  0.00     0.121 A 
HETATM   58  C20 UNL     1     -20.871  28.172  39.109  1.00  0.00     0.680 A 
ATOM     59  H14 UNL     1     -21.674  27.317  40.780  1.00  0.00     0.186 HD
HETATM   60  N15 UNL     1     -21.399  29.317  39.340  1.00  0.00    -0.234 N 
HETATM   61  N16 UNL     1     -20.106  28.005  38.017  1.00  0.00    -0.155 N 
ATOM     62 2H15 UNL     1     -21.979  29.443  40.170  1.00  0.00     0.174 HD
ATOM     63 1H15 UNL     1     -21.233  30.088  38.694  1.00  0.00     0.174 HD
HETATM   64  C21 UNL     1     -19.554  26.777  37.790  1.00  0.00     0.277 A 
ATOM     65  H16 UNL     1     -19.942  28.778  37.372  1.00  0.00     0.187 HD
HETATM   66  O4  UNL     1     -18.853  26.636  36.783  1.00  0.00    -0.266 OA
ENDBRANCH  28  49
ENDBRANCH  25  28
ENDBRANCH  21  22
ENDBRANCH  17  21
BRANCH  18  67
HETATM   67  N17 UNL     1     -10.446  24.094  40.364  1.00  0.00    -0.234 N 
ATOM     68 2H17 UNL     1     -10.764  25.061  40.439  1.00  0.00     0.174 HD
ATOM     69 1H17 UNL     1      -9.478  24.037  40.682  1.00  0.00     0.174 HD
ENDBRANCH  18  67
ENDBRANCH  14  15
ENDBRANCH  13  14
ENDBRANCH  12  13
ENDBRANCH   6  12
BRANCH   9  70
HETATM   70  N20 UNL     1     -15.868  18.661  34.482  1.00  0.00    -0.234 N 
ATOM     71 2H20 UNL     1     -15.216  19.213  33.925  1.00  0.00     0.174 HD
ATOM     72 1H20 UNL     1     -16.363  17.881  34.050  1.00  0.00     0.174 HD
ENDBRANCH   9  70
TORSDOF 13
ENDMDL
MODEL 3
REMARK VINA RESULT: -9.928801899      0.999      1.366
REMARK  13 active torsions:
REMARK  status: ('A' for Active; 'I' for Inactive)
REMARK    1  A    between atoms: C3_6  and  O1_7 
REMARK    2  A    between atoms: O1_7  and  C4_8 
REMARK    3  A    between atoms: C4_8  and  C5_9 
REMARK    4  A    between atoms: C5_9  and  C6_10 
REMARK    5  A    between atoms: N3_12  and  C8_13 
REMARK    6  A    between atoms: C8_13  and  C9_14 
REMARK    7  A    between atoms: C12_17  and  N4_18 
REMARK       I    between atoms: N4_18  and  C13_19 
REMARK    8  A    between atoms: N4_18  and  C17_39 
REMARK    9  A    between atoms: C13_19  and  C14_21 
REMARK   10  A    between atoms: N7_26  and  C15_27 
REMARK   11  A    between atoms: C16_33  and  N10_34 
REMARK   12  A    between atoms: C25_59  and  N17_60 
REMARK   13  A    between atoms: C26_67  and  N20_68 
ROOT
HETATM    1  N1  UNL     1     -16.663  25.519  36.304  1.00  0.00    -0.188 NA
HETATM    2  C1  UNL     1     -15.664  25.332  36.865  1.00  0.00     0.137 C 
HETATM    3  C2  UNL     1     -14.425  25.125  37.566  1.00  0.00     0.205 A 
HETATM    4  N2  UNL     1     -14.036  23.880  37.855  1.00  0.00    -0.298 N 
ATOM      5  H2  UNL     1     -14.618  23.091  37.577  1.00  0.00     0.171 HD
HETATM    6  C3  UNL     1     -12.886  23.663  38.509  1.00  0.00     0.239 A 
HETATM    7  N19 UNL     1     -12.112  24.737  38.877  1.00  0.00    -0.155 N 
ATOM      8  H19 UNL     1     -11.234  24.586  39.374  1.00  0.00     0.188 HD
HETATM    9  C26 UNL     1     -12.510  25.977  38.583  1.00  0.00     0.681 A 
HETATM   10  N21 UNL     1     -13.671  26.163  37.926  1.00  0.00    -0.167 N 
ATOM     11  H21 UNL     1     -13.976  27.109  37.700  1.00  0.00     0.186 HD
ENDROOT
BRANCH   6  12
HETATM   12  O1  UNL     1     -12.438  22.410  38.831  1.00  0.00    -0.321 OA
BRANCH  12  13
HETATM   13  C4  UNL     1     -11.117  22.001  38.961  1.00  0.00     0.185 C 
BRANCH  13  14
HETATM   14  C5  UNL     1     -10.995  20.526  39.144  1.00  0.00     0.086 C 
BRANCH  14  15
HETATM   15  C6  UNL     1     -12.363  19.906  39.032  1.00  0.00     0.044 A 
HETATM   16  C7  UNL     1     -13.474  20.195  39.788  1.00  0.00     0.135 A 
HETATM   17  N3  UNL     1     -14.467  19.406  39.351  1.00  0.00    -0.188 N 
HETATM   18  C25 UNL     1     -13.997  18.650  38.357  1.00  0.00     0.678 A 
HETATM   19  N18 UNL     1     -12.702  18.950  38.154  1.00  0.00    -0.194 N 
ATOM     20  H18 UNL     1     -12.089  18.527  37.458  1.00  0.00     0.184 HD
BRANCH  17  21
HETATM   21  C8  UNL     1     -15.818  19.399  39.908  1.00  0.00     0.185 C 
BRANCH  21  22
HETATM   22  C9  UNL     1     -16.644  20.528  39.392  1.00  0.00    -0.039 A 
HETATM   23  C10 UNL     1     -17.560  20.329  38.400  1.00  0.00     0.011 A 
HETATM   24  C11 UNL     1     -18.312  21.370  37.937  1.00  0.00     0.031 A 
HETATM   25  C12 UNL     1     -18.222  22.677  38.412  1.00  0.00     0.044 A 
HETATM   26  C23 UNL     1     -17.293  22.859  39.410  1.00  0.00     0.031 A 
HETATM   27  C24 UNL     1     -16.508  21.802  39.903  1.00  0.00     0.011 A 
BRANCH  25  28
HETATM   28  N4  UNL     1     -19.003  23.719  37.875  1.00  0.00    -0.260 N 
HETATM   29  C13 UNL     1     -19.131  24.980  38.447  1.00  0.00     0.301 C 
HETATM   30  O2  UNL     1     -18.579  25.224  39.563  1.00  0.00    -0.263 OA
BRANCH  29  31
HETATM   31  C14 UNL     1     -19.893  26.078  37.799  1.00  0.00     0.207 A 
HETATM   32  N5  UNL     1     -19.523  26.949  36.859  1.00  0.00    -0.264 N 
HETATM   33  N6  UNL     1     -20.537  27.744  36.594  1.00  0.00    -0.218 N 
ATOM     34  H5  UNL     1     -18.604  26.992  36.418  1.00  0.00     0.190 HD
HETATM   35  N7  UNL     1     -21.584  27.399  37.362  1.00  0.00    -0.158 N 
ATOM     36  H6  UNL     1     -20.530  28.504  35.912  1.00  0.00     0.210 HD
HETATM   37  N11 UNL     1     -21.159  26.380  38.085  1.00  0.00    -0.255 N 
ATOM     38  H11 UNL     1     -21.726  25.886  38.774  1.00  0.00     0.191 HD
BRANCH  35  39
HETATM   39  C15 UNL     1     -22.850  28.047  37.341  1.00  0.00     0.214 A 
HETATM   40  N8  UNL     1     -23.671  28.173  36.310  1.00  0.00    -0.219 N 
HETATM   41  O3  UNL     1     -24.732  28.829  36.679  1.00  0.00    -0.153 OA
ATOM     42  H8  UNL     1     -23.498  27.813  35.372  1.00  0.00     0.198 HD
HETATM   43  N9  UNL     1     -24.636  29.145  37.947  1.00  0.00    -0.222 N 
HETATM   44  C16 UNL     1     -23.459  28.670  38.407  1.00  0.00     0.171 A 
ATOM     45  H9  UNL     1     -25.328  29.661  38.492  1.00  0.00     0.198 HD
BRANCH  44  46
HETATM   46  N10 UNL     1     -23.043  28.806  39.622  1.00  0.00    -0.381 N 
ATOM     47 2H10 UNL     1     -22.144  28.470  39.963  1.00  0.00     0.157 HD
ATOM     48 1H10 UNL     1     -23.505  29.247  40.417  1.00  0.00     0.157 HD
ENDBRANCH  44  46
ENDBRANCH  35  39
ENDBRANCH  29  31
BRANCH  28  49
HETATM   49  C17 UNL     1     -19.693  23.400  36.653  1.00  0.00     0.136 A 
HETATM   50  N12 UNL     1     -19.060  23.607  35.487  1.00  0.00    -0.337 N 
HETATM   51  C18 UNL     1     -19.653  23.317  34.315  1.00  0.00     0.183 A 
ATOM     52  H12 UNL     1     -18.115  23.990  35.490  1.00  0.00     0.168 HD
HETATM   53  N13 UNL     1     -20.898  22.811  34.280  1.00  0.00    -0.337 N 
HETATM   54  C19 UNL     1     -21.568  22.589  35.411  1.00  0.00     0.141 A 
ATOM     55  H13 UNL     1     -21.333  22.595  33.383  1.00  0.00     0.168 HD
HETATM   56  N14 UNL     1     -22.820  22.084  35.391  1.00  0.00    -0.176 N 
HETATM   57  C22 UNL     1     -20.966  22.885  36.640  1.00  0.00     0.121 A 
HETATM   58  C20 UNL     1     -23.515  21.854  36.518  1.00  0.00     0.680 A 
ATOM     59  H14 UNL     1     -23.253  21.870  34.493  1.00  0.00     0.186 HD
HETATM   60  N15 UNL     1     -24.701  21.373  36.443  1.00  0.00    -0.234 N 
HETATM   61  N16 UNL     1     -22.984  22.120  37.723  1.00  0.00    -0.155 N 
ATOM     62 2H15 UNL     1     -25.103  21.170  35.528  1.00  0.00     0.174 HD
ATOM     63 1H15 UNL     1     -25.228  21.197  37.298  1.00  0.00     0.174 HD
HETATM   64  C21 UNL     1     -21.720  22.632  37.778  1.00  0.00     0.277 A 
ATOM     65  H16 UNL     1     -23.514  21.945  38.576  1.00  0.00     0.187 HD
HETATM   66  O4  UNL     1     -21.242  22.874  38.891  1.00  0.00    -0.266 OA
ENDBRANCH  28  49
ENDBRANCH  25  28
ENDBRANCH  21  22
ENDBRANCH  17  21
BRANCH  18  67
HETATM   67  N17 UNL     1     -14.641  17.754  37.649  1.00  0.00    -0.234 N 
ATOM     68 2H17 UNL     1     -15.615  17.506  37.821  1.00  0.00     0.174 HD
ATOM     69 1H17 UNL     1     -14.288  17.194  36.871  1.00  0.00     0.174 HD
ENDBRANCH  18  67
ENDBRANCH  14  15
ENDBRANCH  13  14
ENDBRANCH  12  13
ENDBRANCH   6  12
BRANCH   9  70
HETATM   70  N20 UNL     1     -11.796  27.018  38.920  1.00  0.00    -0.234 N 
ATOM     71 2H20 UNL     1     -11.640  27.214  39.909  1.00  0.00     0.174 HD
ATOM     72 1H20 UNL     1     -11.394  27.637  38.215  1.00  0.00     0.174 HD
ENDBRANCH   9  70
TORSDOF 13
ENDMDL
MODEL 4
REMARK VINA RESULT: -9.921919880      2.704      4.571
REMARK  13 active torsions:
REMARK  status: ('A' for Active; 'I' for Inactive)
REMARK    1  A    between atoms: C3_6  and  O1_7 
REMARK    2  A    between atoms: O1_7  and  C4_8 
REMARK    3  A    between atoms: C4_8  and  C5_9 
REMARK    4  A    between atoms: C5_9  and  C6_10 
REMARK    5  A    between atoms: N3_12  and  C8_13 
REMARK    6  A    between atoms: C8_13  and  C9_14 
REMARK    7  A    between atoms: C12_17  and  N4_18 
REMARK       I    between atoms: N4_18  and  C13_19 
REMARK    8  A    between atoms: N4_18  and  C17_39 
REMARK    9  A    between atoms: C13_19  and  C14_21 
REMARK   10  A    between atoms: N7_26  and  C15_27 
REMARK   11  A    between atoms: C16_33  and  N10_34 
REMARK   12  A    between atoms: C25_59  and  N17_60 
REMARK   13  A    between atoms: C26_67  and  N20_68 
ROOT
HETATM    1  N1  UNL     1     -17.385  20.957  32.478  1.00  0.00    -0.188 NA
HETATM    2  C1  UNL     1     -17.313  20.229  33.380  1.00  0.00     0.137 C 
HETATM    3  C2  UNL     1     -17.245  19.338  34.508  1.00  0.00     0.205 A 
HETATM    4  N2  UNL     1     -16.423  18.287  34.463  1.00  0.00    -0.298 N 
ATOM      5  H2  UNL     1     -15.852  18.126  33.633  1.00  0.00     0.171 HD
HETATM    6  C3  UNL     1     -16.344  17.442  35.501  1.00  0.00     0.239 A 
HETATM    7  N19 UNL     1     -17.118  17.673  36.611  1.00  0.00    -0.155 N 
ATOM      8  H19 UNL     1     -17.068  17.039  37.409  1.00  0.00     0.188 HD
HETATM    9  C26 UNL     1     -17.936  18.727  36.646  1.00  0.00     0.681 A 
HETATM   10  N21 UNL     1     -17.994  19.557  35.588  1.00  0.00    -0.167 N 
ATOM     11  H21 UNL     1     -18.618  20.363  35.613  1.00  0.00     0.186 HD
ENDROOT
BRANCH   6  12
HETATM   12  O1  UNL     1     -15.520  16.348  35.509  1.00  0.00    -0.321 OA
BRANCH  12  13
HETATM   13  C4  UNL     1     -14.658  15.958  36.527  1.00  0.00     0.185 C 
BRANCH  13  14
HETATM   14  C5  UNL     1     -13.261  16.428  36.298  1.00  0.00     0.086 C 
BRANCH  14  15
HETATM   15  C6  UNL     1     -12.919  17.464  37.338  1.00  0.00     0.044 A 
HETATM   16  C7  UNL     1     -13.734  17.946  38.334  1.00  0.00     0.135 A 
HETATM   17  N3  UNL     1     -13.024  18.852  39.023  1.00  0.00    -0.188 N 
HETATM   18  C25 UNL     1     -11.808  18.935  38.479  1.00  0.00     0.678 A 
HETATM   19  N18 UNL     1     -11.734  18.085  37.441  1.00  0.00    -0.194 N 
ATOM     20  H18 UNL     1     -10.924  17.939  36.840  1.00  0.00     0.184 HD
BRANCH  17  21
HETATM   21  C8  UNL     1     -13.540  19.608  40.162  1.00  0.00     0.185 C 
BRANCH  21  22
HETATM   22  C9  UNL     1     -14.529  20.644  39.748  1.00  0.00    -0.039 A 
HETATM   23  C10 UNL     1     -15.864  20.464  39.970  1.00  0.00     0.011 A 
HETATM   24  C11 UNL     1     -16.761  21.420  39.587  1.00  0.00     0.031 A 
HETATM   25  C12 UNL     1     -16.416  22.616  38.962  1.00  0.00     0.044 A 
HETATM   26  C23 UNL     1     -15.067  22.779  38.745  1.00  0.00     0.031 A 
HETATM   27  C24 UNL     1     -14.126  21.809  39.131  1.00  0.00     0.011 A 
BRANCH  25  28
HETATM   28  N4  UNL     1     -17.389  23.553  38.562  1.00  0.00    -0.260 N 
HETATM   29  C13 UNL     1     -17.783  24.649  39.323  1.00  0.00     0.301 C 
HETATM   30  O2  UNL     1     -17.309  24.810  40.488  1.00  0.00    -0.263 OA
BRANCH  29  31
HETATM   31  C14 UNL     1     -18.748  25.663  38.823  1.00  0.00     0.207 A 
HETATM   32  N5  UNL     1     -18.842  26.251  37.630  1.00  0.00    -0.264 N 
HETATM   33  N6  UNL     1     -19.857  27.088  37.648  1.00  0.00    -0.218 N 
ATOM     34  H5  UNL     1     -18.229  26.080  36.833  1.00  0.00     0.190 HD
HETATM   35  N7  UNL     1     -20.438  27.054  38.860  1.00  0.00    -0.158 N 
ATOM     36  H6  UNL     1     -20.157  27.670  36.866  1.00  0.00     0.210 HD
HETATM   37  N11 UNL     1     -19.737  26.175  39.552  1.00  0.00    -0.255 N 
ATOM     38  H11 UNL     1     -19.929  25.921  40.521  1.00  0.00     0.191 HD
BRANCH  35  39
HETATM   39  C15 UNL     1     -21.566  27.834  39.237  1.00  0.00     0.214 A 
HETATM   40  N8  UNL     1     -21.574  29.100  39.624  1.00  0.00    -0.219 N 
HETATM   41  O3  UNL     1     -22.795  29.465  39.886  1.00  0.00    -0.153 OA
ATOM     42  H8  UNL     1     -20.751  29.697  39.704  1.00  0.00     0.198 HD
HETATM   43  N9  UNL     1     -23.609  28.459  39.680  1.00  0.00    -0.222 N 
HETATM   44  C16 UNL     1     -22.873  27.404  39.269  1.00  0.00     0.171 A 
ATOM     45  H9  UNL     1     -24.622  28.470  39.809  1.00  0.00     0.198 HD
BRANCH  44  46
HETATM   46  N10 UNL     1     -23.361  26.246  38.976  1.00  0.00    -0.381 N 
ATOM     47 2H10 UNL     1     -22.821  25.382  38.957  1.00  0.00     0.157 HD
ATOM     48 1H10 UNL     1     -24.317  25.991  38.726  1.00  0.00     0.157 HD
ENDBRANCH  44  46
ENDBRANCH  35  39
ENDBRANCH  29  31
BRANCH  28  49
HETATM   49  C17 UNL     1     -17.981  23.310  37.274  1.00  0.00     0.136 A 
HETATM   50  N12 UNL     1     -17.305  23.686  36.176  1.00  0.00    -0.337 N 
HETATM   51  C18 UNL     1     -17.806  23.473  34.946  1.00  0.00     0.183 A 
ATOM     52  H12 UNL     1     -16.397  24.139  36.277  1.00  0.00     0.168 HD
HETATM   53  N13 UNL     1     -19.000  22.877  34.783  1.00  0.00    -0.337 N 
HETATM   54  C19 UNL     1     -19.709  22.487  35.842  1.00  0.00     0.141 A 
ATOM     55  H13 UNL     1     -19.365  22.722  33.844  1.00  0.00     0.168 HD
HETATM   56  N14 UNL     1     -20.911  21.889  35.693  1.00  0.00    -0.176 N 
HETATM   57  C22 UNL     1     -19.203  22.701  37.129  1.00  0.00     0.121 A 
HETATM   58  C20 UNL     1     -21.645  21.490  36.745  1.00  0.00     0.680 A 
ATOM     59  H14 UNL     1     -21.274  21.737  34.752  1.00  0.00     0.186 HD
HETATM   60  N15 UNL     1     -22.780  20.928  36.548  1.00  0.00    -0.234 N 
HETATM   61  N16 UNL     1     -21.206  21.671  38.001  1.00  0.00    -0.155 N 
ATOM     62 2H15 UNL     1     -23.113  20.790  35.594  1.00  0.00     0.174 HD
ATOM     63 1H15 UNL     1     -23.337  20.624  37.347  1.00  0.00     0.174 HD
HETATM   64  C21 UNL     1     -19.994  22.272  38.187  1.00  0.00     0.277 A 
ATOM     65  H16 UNL     1     -21.765  21.367  38.798  1.00  0.00     0.187 HD
HETATM   66  O4  UNL     1     -19.601  22.434  39.347  1.00  0.00    -0.266 OA
ENDBRANCH  28  49
ENDBRANCH  25  28
ENDBRANCH  21  22
ENDBRANCH  17  21
BRANCH  18  67
HETATM   67  N17 UNL     1     -10.804  19.692  38.854  1.00  0.00    -0.234 N 
ATOM     68 2H17 UNL     1     -10.911  20.475  39.499  1.00  0.00     0.174 HD
ATOM     69 1H17 UNL     1      -9.827  19.625  38.571  1.00  0.00     0.174 HD
ENDBRANCH  18  67
ENDBRANCH  14  15
ENDBRANCH  13  14
ENDBRANCH  12  13
ENDBRANCH   6  12
BRANCH   9  70
HETATM   70  N20 UNL     1     -18.685  18.973  37.689  1.00  0.00    -0.234 N 
ATOM     71 2H20 UNL     1     -18.398  19.699  38.346  1.00  0.00     0.174 HD
ATOM     72 1H20 UNL     1     -19.547  18.455  37.857  1.00  0.00     0.174 HD
ENDBRANCH   9  70
TORSDOF 13
ENDMDL
MODEL 5
REMARK VINA RESULT: -9.920208287      2.027      4.125
REMARK  13 active torsions:
REMARK  status: ('A' for Active; 'I' for Inactive)
REMARK    1  A    between atoms: C3_6  and  O1_7 
REMARK    2  A    between atoms: O1_7  and  C4_8 
REMARK    3  A    between atoms: C4_8  and  C5_9 
REMARK    4  A    between atoms: C5_9  and  C6_10 
REMARK    5  A    between atoms: N3_12  and  C8_13 
REMARK    6  A    between atoms: C8_13  and  C9_14 
REMARK    7  A    between atoms: C12_17  and  N4_18 
REMARK       I    between atoms: N4_18  and  C13_19 
REMARK    8  A    between atoms: N4_18  and  C17_39 
REMARK    9  A    between atoms: C13_19  and  C14_21 
REMARK   10  A    between atoms: N7_26  and  C15_27 
REMARK   11  A    between atoms: C16_33  and  N10_34 
REMARK   12  A    between atoms: C25_59  and  N17_60 
REMARK   13  A    between atoms: C26_67  and  N20_68 
ROOT
HETATM    1  N1  UNL     1     -17.757  23.207  34.961  1.00  0.00    -0.188 NA
HETATM    2  C1  UNL     1     -17.786  22.306  35.693  1.00  0.00     0.137 C 
HETATM    3  C2  UNL     1     -17.846  21.186  36.594  1.00  0.00     0.205 A 
HETATM    4  N2  UNL     1     -16.717  20.716  37.130  1.00  0.00    -0.298 N 
ATOM      5  H2  UNL     1     -15.825  21.153  36.898  1.00  0.00     0.171 HD
HETATM    6  C3  UNL     1     -16.748  19.672  37.971  1.00  0.00     0.239 A 
HETATM    7  N19 UNL     1     -17.955  19.093  38.275  1.00  0.00    -0.155 N 
ATOM      8  H19 UNL     1     -17.994  18.299  38.913  1.00  0.00     0.188 HD
HETATM    9  C26 UNL     1     -19.078  19.572  37.734  1.00  0.00     0.681 A 
HETATM   10  N21 UNL     1     -19.015  20.621  36.892  1.00  0.00    -0.167 N 
ATOM     11  H21 UNL     1     -19.872  20.987  36.479  1.00  0.00     0.186 HD
ENDROOT
BRANCH   6  12
HETATM   12  O1  UNL     1     -15.622  19.148  38.549  1.00  0.00    -0.321 OA
BRANCH  12  13
HETATM   13  C4  UNL     1     -15.239  19.253  39.880  1.00  0.00     0.185 C 
BRANCH  13  14
HETATM   14  C5  UNL     1     -13.757  19.301  40.042  1.00  0.00     0.086 C 
BRANCH  14  15
HETATM   15  C6  UNL     1     -13.270  20.677  39.666  1.00  0.00     0.044 A 
HETATM   16  C7  UNL     1     -13.926  21.614  38.905  1.00  0.00     0.135 A 
HETATM   17  N3  UNL     1     -13.126  22.688  38.822  1.00  0.00    -0.188 N 
HETATM   18  C25 UNL     1     -12.010  22.434  39.506  1.00  0.00     0.678 A 
HETATM   19  N18 UNL     1     -12.089  21.198  40.029  1.00  0.00    -0.194 N 
ATOM     20  H18 UNL     1     -11.378  20.739  40.599  1.00  0.00     0.184 HD
BRANCH  17  21
HETATM   21  C8  UNL     1     -13.456  23.905  38.083  1.00  0.00     0.185 C 
BRANCH  21  22
HETATM   22  C9  UNL     1     -14.900  24.261  38.203  1.00  0.00    -0.039 A 
HETATM   23  C10 UNL     1     -15.486  25.111  37.311  1.00  0.00     0.011 A 
HETATM   24  C11 UNL     1     -16.810  25.428  37.430  1.00  0.00     0.031 A 
HETATM   25  C12 UNL     1     -17.649  24.935  38.426  1.00  0.00     0.044 A 
HETATM   26  C23 UNL     1     -17.040  24.082  39.316  1.00  0.00     0.031 A 
HETATM   27  C24 UNL     1     -15.680  23.741  39.214  1.00  0.00     0.011 A 
BRANCH  25  28
HETATM   28  N4  UNL     1     -19.001  25.322  38.517  1.00  0.00    -0.260 N 
HETATM   29  C13 UNL     1     -19.557  25.979  39.609  1.00  0.00     0.301 C 
HETATM   30  O2  UNL     1     -18.851  26.201  40.639  1.00  0.00    -0.263 OA
BRANCH  29  31
HETATM   31  C14 UNL     1     -20.967  26.449  39.625  1.00  0.00     0.207 A 
HETATM   32  N5  UNL     1     -22.064  25.874  40.120  1.00  0.00    -0.264 N 
HETATM   33  N6  UNL     1     -23.093  26.664  39.901  1.00  0.00    -0.218 N 
ATOM     34  H5  UNL     1     -22.099  24.970  40.592  1.00  0.00     0.190 HD
HETATM   35  N7  UNL     1     -22.676  27.768  39.257  1.00  0.00    -0.158 N 
ATOM     36  H6  UNL     1     -24.056  26.469  40.177  1.00  0.00     0.210 HD
HETATM   37  N11 UNL     1     -21.375  27.605  39.105  1.00  0.00    -0.255 N 
ATOM     38  H11 UNL     1     -20.761  28.279  38.647  1.00  0.00     0.191 HD
BRANCH  35  39
HETATM   39  C15 UNL     1     -23.523  28.839  38.858  1.00  0.00     0.214 A 
HETATM   40  N8  UNL     1     -24.440  29.452  39.589  1.00  0.00    -0.219 N 
HETATM   41  O3  UNL     1     -25.011  30.380  38.878  1.00  0.00    -0.153 OA
ATOM     42  H8  UNL     1     -24.665  29.232  40.559  1.00  0.00     0.198 HD
HETATM   43  N9  UNL     1     -24.488  30.399  37.676  1.00  0.00    -0.222 N 
HETATM   44  C16 UNL     1     -23.541  29.438  37.619  1.00  0.00     0.171 A 
ATOM     45  H9  UNL     1     -24.750  31.029  36.917  1.00  0.00     0.198 HD
BRANCH  44  46
HETATM   46  N10 UNL     1     -22.826  29.182  36.575  1.00  0.00    -0.381 N 
ATOM     47 2H10 UNL     1     -22.076  28.493  36.547  1.00  0.00     0.157 HD
ATOM     48 1H10 UNL     1     -22.873  29.592  35.643  1.00  0.00     0.157 HD
ENDBRANCH  44  46
ENDBRANCH  35  39
ENDBRANCH  29  31
BRANCH  28  49
HETATM   49  C17 UNL     1     -19.812  24.988  37.378  1.00  0.00     0.136 A 
HETATM   50  N12 UNL     1     -19.718  25.753  36.277  1.00  0.00    -0.337 N 
HETATM   51  C18 UNL     1     -20.445  25.480  35.179  1.00  0.00     0.183 A 
ATOM     52  H12 UNL     1     -19.085  26.552  36.274  1.00  0.00     0.168 HD
HETATM   53  N13 UNL     1     -21.287  24.432  35.153  1.00  0.00    -0.337 N 
HETATM   54  C19 UNL     1     -21.416  23.645  36.221  1.00  0.00     0.141 A 
ATOM     55  H13 UNL     1     -21.830  24.238  34.312  1.00  0.00     0.168 HD
HETATM   56  N14 UNL     1     -22.260  22.590  36.211  1.00  0.00    -0.176 N 
HETATM   57  C22 UNL     1     -20.668  23.914  37.373  1.00  0.00     0.121 A 
HETATM   58  C20 UNL     1     -22.409  21.784  37.275  1.00  0.00     0.680 A 
ATOM     59  H14 UNL     1     -22.803  22.400  35.368  1.00  0.00     0.186 HD
HETATM   60  N15 UNL     1     -23.224  20.797  37.212  1.00  0.00    -0.234 N 
HETATM   61  N16 UNL     1     -21.714  21.998  38.405  1.00  0.00    -0.155 N 
ATOM     62 2H15 UNL     1     -23.751  20.635  36.354  1.00  0.00     0.174 HD
ATOM     63 1H15 UNL     1     -23.336  20.184  38.020  1.00  0.00     0.174 HD
HETATM   64  C21 UNL     1     -20.852  23.055  38.449  1.00  0.00     0.277 A 
ATOM     65  H16 UNL     1     -21.829  21.385  39.211  1.00  0.00     0.187 HD
HETATM   66  O4  UNL     1     -20.220  23.243  39.493  1.00  0.00    -0.266 OA
ENDBRANCH  28  49
ENDBRANCH  25  28
ENDBRANCH  21  22
ENDBRANCH  17  21
BRANCH  18  67
HETATM   67  N17 UNL     1     -10.975  23.220  39.687  1.00  0.00    -0.234 N 
ATOM     68 2H17 UNL     1     -10.754  23.648  40.586  1.00  0.00     0.174 HD
ATOM     69 1H17 UNL     1     -10.281  23.514  38.999  1.00  0.00     0.174 HD
ENDBRANCH  18  67
ENDBRANCH  14  15
ENDBRANCH  13  14
ENDBRANCH  12  13
ENDBRANCH   6  12
BRANCH   9  70
HETATM   70  N20 UNL     1     -20.243  19.042  38.004  1.00  0.00    -0.234 N 
ATOM     71 2H20 UNL     1     -20.444  18.095  37.682  1.00  0.00     0.174 HD
ATOM     72 1H20 UNL     1     -20.951  19.556  38.527  1.00  0.00     0.174 HD
ENDBRANCH   9  70
TORSDOF 13
ENDMDL
