MODEL 1
REMARK VINA RESULT: -7.833640127      0.000      0.000
REMARK  5 active torsions:
REMARK  status: ('A' for Active; 'I' for Inactive)
REMARK    1  A    between atoms: O1_2  and  C2_3 
REMARK    2  A    between atoms: C5_6  and  C6_7 
REMARK    3  A    between atoms: C19_23  and  C20_24 
REMARK    4  A    between atoms: C20_24  and  C21_25 
REMARK    5  A    between atoms: C33_43  and  O5_44 
ROOT
HETATM    1  C6  UNL     1     -14.140  39.163  -5.052  1.00  0.00     0.141 C 
HETATM    2  C7  UNL     1     -14.290  40.634  -4.859  1.00  0.00     0.004 C 
HETATM    3  C8  UNL     1     -14.581  41.521  -5.793  1.00  0.00     0.010 C 
HETATM    4  C9  UNL     1     -14.840  41.398  -7.231  1.00  0.00    -0.036 A 
HETATM    5  C10 UNL     1     -14.185  42.450  -7.922  1.00  0.00     0.011 A 
HETATM    6  C11 UNL     1     -14.237  42.623  -9.277  1.00  0.00     0.001 A 
HETATM    7  C12 UNL     1     -14.979  41.695  -9.946  1.00  0.00     0.007 A 
HETATM    8  C13 UNL     1     -15.658  40.620  -9.311  1.00  0.00    -0.057 A 
HETATM    9  C14 UNL     1     -15.589  40.467  -7.952  1.00  0.00     0.018 A 
HETATM   10  C15 UNL     1     -16.374  39.810 -10.341  1.00  0.00     0.052 C 
HETATM   11  C16 UNL     1     -17.819  39.535 -10.152  1.00  0.00     0.078 C 
HETATM   12  C17 UNL     1     -18.677  40.633 -10.817  1.00  0.00     0.020 C 
HETATM   13  C18 UNL     1     -18.302  38.223 -10.607  1.00  0.00     0.222 C 
HETATM   14  O2  UNL     1     -18.822  38.181 -11.779  1.00  0.00    -0.273 OA
HETATM   15  N1  UNL     1     -18.245  37.028  -9.878  1.00  0.00    -0.347 N 
ATOM     16  H1  UNL     1     -19.089  36.460  -9.805  1.00  0.00     0.163 HD
HETATM   17  C19 UNL     1     -17.025  36.559  -9.216  1.00  0.00     0.181 C 
HETATM   18  C27 UNL     1     -17.326  35.773  -8.015  1.00  0.00     0.243 C 
HETATM   19  O3  UNL     1     -18.401  35.079  -8.056  1.00  0.00    -0.271 OA
HETATM   20  N2  UNL     1     -16.577  35.691  -6.824  1.00  0.00    -0.342 N 
HETATM   21  C28 UNL     1     -16.845  34.567  -5.900  1.00  0.00     0.153 C 
HETATM   22  C29 UNL     1     -15.551  36.607  -6.388  1.00  0.00     0.174 C 
HETATM   23  C30 UNL     1     -14.322  35.752  -6.097  1.00  0.00     0.042 C 
HETATM   24  C31 UNL     1     -15.955  37.361  -5.161  1.00  0.00     0.241 C 
HETATM   25  O4  UNL     1     -16.946  36.855  -4.527  1.00  0.00    -0.271 OA
HETATM   26  N3  UNL     1     -15.379  38.515  -4.662  1.00  0.00    -0.347 N 
ATOM     27  H3  UNL     1     -15.899  38.976  -3.916  1.00  0.00     0.163 HD
ENDROOT
BRANCH   1  28
HETATM   28  C5  UNL     1     -13.127  38.655  -4.045  1.00  0.00    -0.029 A 
HETATM   29  C4  UNL     1     -13.620  38.129  -2.872  1.00  0.00     0.012 A 
HETATM   30  C3  UNL     1     -12.788  37.650  -1.896  1.00  0.00     0.040 A 
HETATM   31  C2  UNL     1     -11.429  37.698  -2.100  1.00  0.00     0.101 A 
HETATM   32  C33 UNL     1     -10.939  38.233  -3.290  1.00  0.00     0.102 A 
HETATM   33  C32 UNL     1     -11.794  38.707  -4.252  1.00  0.00     0.049 A 
BRANCH  31  34
HETATM   34  O1  UNL     1     -10.594  37.215  -1.116  1.00  0.00    -0.353 OA
HETATM   35  C1  UNL     1     -10.599  35.852  -0.752  1.00  0.00     0.210 C 
ENDBRANCH  31  34
BRANCH  32  36
HETATM   36  O5  UNL     1      -9.558  38.243  -3.414  1.00  0.00    -0.353 OA
HETATM   37  C34 UNL     1      -8.902  39.494  -3.494  1.00  0.00     0.210 C 
ENDBRANCH  32  36
ENDBRANCH   1  28
BRANCH  17  38
HETATM   38  C20 UNL     1     -16.272  35.811 -10.275  1.00  0.00     0.073 C 
BRANCH  38  39
HETATM   39  C21 UNL     1     -15.005  36.362 -10.704  1.00  0.00    -0.056 A 
HETATM   40  C22 UNL     1     -14.929  37.105 -11.862  1.00  0.00     0.009 A 
HETATM   41  C23 UNL     1     -13.730  37.654 -12.304  1.00  0.00     0.024 A 
HETATM   42  C24 UNL     1     -12.589  37.453 -11.571  1.00  0.00     0.034 A 
HETATM   43 CL1  UNL     1     -11.058  38.148 -12.124  1.00  0.00    -0.084 Cl
HETATM   44  C25 UNL     1     -12.648  36.713 -10.411  1.00  0.00     0.024 A 
HETATM   45  C26 UNL     1     -13.858  36.167  -9.977  1.00  0.00     0.009 A 
ENDBRANCH  38  39
ENDBRANCH  17  38
TORSDOF 5
ENDMDL
MODEL 2
REMARK VINA RESULT: -7.691906969      0.609      1.437
REMARK  5 active torsions:
REMARK  status: ('A' for Active; 'I' for Inactive)
REMARK    1  A    between atoms: O1_2  and  C2_3 
REMARK    2  A    between atoms: C5_6  and  C6_7 
REMARK    3  A    between atoms: C19_23  and  C20_24 
REMARK    4  A    between atoms: C20_24  and  C21_25 
REMARK    5  A    between atoms: C33_43  and  O5_44 
ROOT
HETATM    1  C6  UNL     1     -14.296  39.219  -5.062  1.00  0.00     0.141 C 
HETATM    2  C7  UNL     1     -14.458  40.693  -4.906  1.00  0.00     0.004 C 
HETATM    3  C8  UNL     1     -14.702  41.561  -5.871  1.00  0.00     0.010 C 
HETATM    4  C9  UNL     1     -14.886  41.410  -7.318  1.00  0.00    -0.036 A 
HETATM    5  C10 UNL     1     -14.198  42.450  -7.994  1.00  0.00     0.011 A 
HETATM    6  C11 UNL     1     -14.180  42.597  -9.353  1.00  0.00     0.001 A 
HETATM    7  C12 UNL     1     -14.885  41.654 -10.042  1.00  0.00     0.007 A 
HETATM    8  C13 UNL     1     -15.593  40.590  -9.422  1.00  0.00    -0.057 A 
HETATM    9  C14 UNL     1     -15.595  40.463  -8.058  1.00  0.00     0.018 A 
HETATM   10  C15 UNL     1     -16.254  39.757 -10.472  1.00  0.00     0.052 C 
HETATM   11  C16 UNL     1     -17.706  39.482 -10.353  1.00  0.00     0.078 C 
HETATM   12  C17 UNL     1     -18.530  40.565 -11.082  1.00  0.00     0.020 C 
HETATM   13  C18 UNL     1     -18.162  38.160 -10.806  1.00  0.00     0.222 C 
HETATM   14  O2  UNL     1     -18.621  38.094 -12.003  1.00  0.00    -0.273 OA
HETATM   15  N1  UNL     1     -18.140  36.980 -10.053  1.00  0.00    -0.347 N 
ATOM     16  H1  UNL     1     -18.986  36.411 -10.012  1.00  0.00     0.163 HD
HETATM   17  C19 UNL     1     -16.955  36.527  -9.319  1.00  0.00     0.181 C 
HETATM   18  C27 UNL     1     -17.317  35.763  -8.120  1.00  0.00     0.243 C 
HETATM   19  O3  UNL     1     -18.387  35.066  -8.203  1.00  0.00    -0.271 OA
HETATM   20  N2  UNL     1     -16.631  35.707  -6.890  1.00  0.00    -0.342 N 
HETATM   21  C28 UNL     1     -16.944  34.599  -5.960  1.00  0.00     0.153 C 
HETATM   22  C29 UNL     1     -15.631  36.634  -6.420  1.00  0.00     0.174 C 
HETATM   23  C30 UNL     1     -14.416  35.788  -6.049  1.00  0.00     0.042 C 
HETATM   24  C31 UNL     1     -16.099  37.410  -5.230  1.00  0.00     0.241 C 
HETATM   25  O4  UNL     1     -17.120  36.914  -4.639  1.00  0.00    -0.271 OA
HETATM   26  N3  UNL     1     -15.552  38.575  -4.725  1.00  0.00    -0.347 N 
ATOM     27  H3  UNL     1     -16.111  39.049  -4.015  1.00  0.00     0.163 HD
ENDROOT
BRANCH   1  28
HETATM   28  C5  UNL     1     -13.335  38.734  -3.995  1.00  0.00    -0.029 A 
HETATM   29  C4  UNL     1     -12.009  39.077  -4.144  1.00  0.00     0.012 A 
HETATM   30  C3  UNL     1     -11.062  38.682  -3.239  1.00  0.00     0.040 A 
HETATM   31  C2  UNL     1     -11.449  37.927  -2.157  1.00  0.00     0.101 A 
HETATM   32  C33 UNL     1     -12.793  37.584  -2.015  1.00  0.00     0.102 A 
HETATM   33  C32 UNL     1     -13.724  37.992  -2.937  1.00  0.00     0.049 A 
BRANCH  31  34
HETATM   34  O1  UNL     1     -10.493  37.532  -1.247  1.00  0.00    -0.353 OA
HETATM   35  C1  UNL     1      -9.588  36.490  -1.539  1.00  0.00     0.210 C 
ENDBRANCH  31  34
BRANCH  32  36
HETATM   36  O5  UNL     1     -13.098  36.823  -0.897  1.00  0.00    -0.353 OA
HETATM   37  C34 UNL     1     -13.394  35.451  -1.082  1.00  0.00     0.210 C 
ENDBRANCH  32  36
ENDBRANCH   1  28
BRANCH  17  38
HETATM   38  C20 UNL     1     -16.147  35.761 -10.322  1.00  0.00     0.073 C 
BRANCH  38  39
HETATM   39  C21 UNL     1     -14.887  36.336 -10.740  1.00  0.00    -0.056 A 
HETATM   40  C22 UNL     1     -14.806  37.047 -11.918  1.00  0.00     0.009 A 
HETATM   41  C23 UNL     1     -13.613  37.618 -12.349  1.00  0.00     0.024 A 
HETATM   42  C24 UNL     1     -12.485  37.473 -11.585  1.00  0.00     0.034 A 
HETATM   43 CL1  UNL     1     -10.962  38.196 -12.124  1.00  0.00    -0.084 Cl
HETATM   44  C25 UNL     1     -12.549  36.767 -10.404  1.00  0.00     0.024 A 
HETATM   45  C26 UNL     1     -13.753  36.197  -9.981  1.00  0.00     0.009 A 
ENDBRANCH  38  39
ENDBRANCH  17  38
TORSDOF 5
ENDMDL
MODEL 3
REMARK VINA RESULT: -7.155097270      0.829      1.139
REMARK  5 active torsions:
REMARK  status: ('A' for Active; 'I' for Inactive)
REMARK    1  A    between atoms: O1_2  and  C2_3 
REMARK    2  A    between atoms: C5_6  and  C6_7 
REMARK    3  A    between atoms: C19_23  and  C20_24 
REMARK    4  A    between atoms: C20_24  and  C21_25 
REMARK    5  A    between atoms: C33_43  and  O5_44 
ROOT
HETATM    1  C6  UNL     1     -14.306  39.135  -4.807  1.00  0.00     0.141 C 
HETATM    2  C7  UNL     1     -14.314  40.625  -4.759  1.00  0.00     0.004 C 
HETATM    3  C8  UNL     1     -14.636  41.440  -5.747  1.00  0.00     0.010 C 
HETATM    4  C9  UNL     1     -15.063  41.201  -7.129  1.00  0.00    -0.036 A 
HETATM    5  C10 UNL     1     -14.407  42.116  -7.992  1.00  0.00     0.011 A 
HETATM    6  C11 UNL     1     -14.596  42.160  -9.345  1.00  0.00     0.001 A 
HETATM    7  C12 UNL     1     -15.482  41.244  -9.831  1.00  0.00     0.007 A 
HETATM    8  C13 UNL     1     -16.169  40.302  -9.018  1.00  0.00    -0.057 A 
HETATM    9  C14 UNL     1     -15.961  40.278  -7.665  1.00  0.00     0.018 A 
HETATM   10  C15 UNL     1     -17.059  39.464  -9.876  1.00  0.00     0.052 C 
HETATM   11  C16 UNL     1     -18.491  39.343  -9.510  1.00  0.00     0.078 C 
HETATM   12  C17 UNL     1     -19.327  40.445 -10.197  1.00  0.00     0.020 C 
HETATM   13  C18 UNL     1     -19.127  38.043  -9.770  1.00  0.00     0.222 C 
HETATM   14  O2  UNL     1     -19.777  37.934 -10.871  1.00  0.00    -0.273 OA
HETATM   15  N1  UNL     1     -19.085  36.925  -8.927  1.00  0.00    -0.347 N 
ATOM     16  H1  UNL     1     -19.958  36.447  -8.707  1.00  0.00     0.163 HD
HETATM   17  C19 UNL     1     -17.840  36.412  -8.348  1.00  0.00     0.181 C 
HETATM   18  C27 UNL     1     -18.066  35.779  -7.045  1.00  0.00     0.243 C 
HETATM   19  O3  UNL     1     -19.192  35.186  -6.900  1.00  0.00    -0.271 OA
HETATM   20  N2  UNL     1     -17.198  35.745  -5.936  1.00  0.00    -0.342 N 
HETATM   21  C28 UNL     1     -17.451  34.746  -4.874  1.00  0.00     0.153 C 
HETATM   22  C29 UNL     1     -16.059  36.601  -5.709  1.00  0.00     0.174 C 
HETATM   23  C30 UNL     1     -14.878  35.669  -5.457  1.00  0.00     0.042 C 
HETATM   24  C31 UNL     1     -16.261  37.506  -4.534  1.00  0.00     0.241 C 
HETATM   25  O4  UNL     1     -17.211  37.157  -3.751  1.00  0.00    -0.271 OA
HETATM   26  N3  UNL     1     -15.542  38.645  -4.224  1.00  0.00    -0.347 N 
ATOM     27  H3  UNL     1     -15.935  39.223  -3.482  1.00  0.00     0.163 HD
ENDROOT
BRANCH   1  28
HETATM   28  C5  UNL     1     -13.230  38.637  -3.862  1.00  0.00    -0.029 A 
HETATM   29  C4  UNL     1     -13.650  38.073  -2.678  1.00  0.00     0.012 A 
HETATM   30  C3  UNL     1     -12.758  37.599  -1.755  1.00  0.00     0.040 A 
HETATM   31  C2  UNL     1     -11.413  37.692  -2.022  1.00  0.00     0.101 A 
HETATM   32  C33 UNL     1     -10.997  38.266  -3.223  1.00  0.00     0.102 A 
HETATM   33  C32 UNL     1     -11.911  38.734  -4.132  1.00  0.00     0.049 A 
BRANCH  31  34
HETATM   34  O1  UNL     1     -10.516  37.214  -1.091  1.00  0.00    -0.353 OA
HETATM   35  C1  UNL     1     -10.871  36.189  -0.189  1.00  0.00     0.210 C 
ENDBRANCH  31  34
BRANCH  32  36
HETATM   36  O5  UNL     1      -9.624  38.320  -3.413  1.00  0.00    -0.353 OA
HETATM   37  C34 UNL     1      -8.992  39.585  -3.371  1.00  0.00     0.210 C 
ENDBRANCH  32  36
ENDBRANCH   1  28
BRANCH  17  38
HETATM   38  C20 UNL     1     -17.273  35.499  -9.392  1.00  0.00     0.073 C 
BRANCH  38  39
HETATM   39  C21 UNL     1     -16.029  35.893 -10.017  1.00  0.00    -0.056 A 
HETATM   40  C22 UNL     1     -14.947  36.249  -9.241  1.00  0.00     0.009 A 
HETATM   41  C23 UNL     1     -13.734  36.628  -9.805  1.00  0.00     0.024 A 
HETATM   42  C24 UNL     1     -13.605  36.652 -11.170  1.00  0.00     0.034 A 
HETATM   43 CL1  UNL     1     -12.066  37.133 -11.898  1.00  0.00    -0.084 Cl
HETATM   44  C25 UNL     1     -14.678  36.299 -11.959  1.00  0.00     0.024 A 
HETATM   45  C26 UNL     1     -15.891  35.919 -11.381  1.00  0.00     0.009 A 
ENDBRANCH  38  39
ENDBRANCH  17  38
TORSDOF 5
ENDMDL
MODEL 4
REMARK VINA RESULT: -6.921120867      5.106      8.798
REMARK  5 active torsions:
REMARK  status: ('A' for Active; 'I' for Inactive)
REMARK    1  A    between atoms: O1_2  and  C2_3 
REMARK    2  A    between atoms: C5_6  and  C6_7 
REMARK    3  A    between atoms: C19_23  and  C20_24 
REMARK    4  A    between atoms: C20_24  and  C21_25 
REMARK    5  A    between atoms: C33_43  and  O5_44 
ROOT
HETATM    1  C6  UNL     1     -14.373  37.102  -2.457  1.00  0.00     0.141 C 
HETATM    2  C7  UNL     1     -14.263  35.777  -1.782  1.00  0.00     0.004 C 
HETATM    3  C8  UNL     1     -14.972  35.362  -0.748  1.00  0.00     0.010 C 
HETATM    4  C9  UNL     1     -16.032  35.994   0.045  1.00  0.00    -0.036 A 
HETATM    5  C10 UNL     1     -15.822  35.719   1.420  1.00  0.00     0.011 A 
HETATM    6  C11 UNL     1     -16.642  36.159   2.421  1.00  0.00     0.001 A 
HETATM    7  C12 UNL     1     -17.708  36.901   2.006  1.00  0.00     0.007 A 
HETATM    8  C13 UNL     1     -17.972  37.210   0.643  1.00  0.00    -0.057 A 
HETATM    9  C14 UNL     1     -17.134  36.758  -0.341  1.00  0.00     0.018 A 
HETATM   10  C15 UNL     1     -19.218  38.028   0.553  1.00  0.00     0.052 C 
HETATM   11  C16 UNL     1     -20.295  37.585  -0.363  1.00  0.00     0.078 C 
HETATM   12  C17 UNL     1     -21.288  36.655   0.367  1.00  0.00     0.020 C 
HETATM   13  C18 UNL     1     -21.058  38.645  -1.040  1.00  0.00     0.222 C 
HETATM   14  O2  UNL     1     -22.166  38.989  -0.494  1.00  0.00    -0.273 OA
HETATM   15  N1  UNL     1     -20.682  39.303  -2.219  1.00  0.00    -0.347 N 
ATOM     16  H1  UNL     1     -21.366  39.387  -2.970  1.00  0.00     0.163 HD
HETATM   17  C19 UNL     1     -19.348  39.876  -2.418  1.00  0.00     0.181 C 
HETATM   18  C27 UNL     1     -18.952  39.853  -3.830  1.00  0.00     0.243 C 
HETATM   19  O3  UNL     1     -19.900  39.996  -4.678  1.00  0.00    -0.271 OA
HETATM   20  N2  UNL     1     -17.658  39.692  -4.364  1.00  0.00    -0.342 N 
HETATM   21  C28 UNL     1     -17.424  40.077  -5.773  1.00  0.00     0.153 C 
HETATM   22  C29 UNL     1     -16.501  39.176  -3.673  1.00  0.00     0.174 C 
HETATM   23  C30 UNL     1     -15.407  40.226  -3.845  1.00  0.00     0.042 C 
HETATM   24  C31 UNL     1     -16.048  37.866  -4.235  1.00  0.00     0.241 C 
HETATM   25  O4  UNL     1     -16.517  37.593  -5.394  1.00  0.00    -0.271 OA
HETATM   26  N3  UNL     1     -15.198  36.951  -3.642  1.00  0.00    -0.347 N 
ATOM     27  H3  UNL     1     -15.144  36.042  -4.101  1.00  0.00     0.163 HD
ENDROOT
BRANCH   1  28
HETATM   28  C5  UNL     1     -13.008  37.470  -3.002  1.00  0.00    -0.029 A 
HETATM   29  C4  UNL     1     -12.147  38.120  -2.146  1.00  0.00     0.012 A 
HETATM   30  C3  UNL     1     -10.894  38.501  -2.544  1.00  0.00     0.040 A 
HETATM   31  C2  UNL     1     -10.492  38.224  -3.829  1.00  0.00     0.101 A 
HETATM   32  C33 UNL     1     -11.371  37.566  -4.689  1.00  0.00     0.102 A 
HETATM   33  C32 UNL     1     -12.622  37.195  -4.266  1.00  0.00     0.049 A 
BRANCH  31  34
HETATM   34  O1  UNL     1      -9.230  38.608  -4.228  1.00  0.00    -0.353 OA
HETATM   35  C1  UNL     1      -8.514  39.607  -3.536  1.00  0.00     0.210 C 
ENDBRANCH  31  34
BRANCH  32  36
HETATM   36  O5  UNL     1     -10.887  37.326  -5.967  1.00  0.00    -0.353 OA
HETATM   37  C34 UNL     1     -11.801  36.903  -6.960  1.00  0.00     0.210 C 
ENDBRANCH  32  36
ENDBRANCH   1  28
BRANCH  17  38
HETATM   38  C20 UNL     1     -19.420  41.246  -1.815  1.00  0.00     0.073 C 
BRANCH  38  39
HETATM   39  C21 UNL     1     -18.561  41.521  -0.684  1.00  0.00    -0.056 A 
HETATM   40  C22 UNL     1     -17.317  40.933  -0.599  1.00  0.00     0.009 A 
HETATM   41  C23 UNL     1     -16.462  41.177   0.470  1.00  0.00     0.024 A 
HETATM   42  C24 UNL     1     -16.863  42.025   1.470  1.00  0.00     0.034 A 
HETATM   43 CL1  UNL     1     -15.783  42.343   2.836  1.00  0.00    -0.084 Cl
HETATM   44  C25 UNL     1     -18.103  42.621   1.400  1.00  0.00     0.024 A 
HETATM   45  C26 UNL     1     -18.953  42.368   0.321  1.00  0.00     0.009 A 
ENDBRANCH  38  39
ENDBRANCH  17  38
TORSDOF 5
ENDMDL
MODEL 5
REMARK VINA RESULT: -6.815530145      5.668      9.352
REMARK  5 active torsions:
REMARK  status: ('A' for Active; 'I' for Inactive)
REMARK    1  A    between atoms: O1_2  and  C2_3 
REMARK    2  A    between atoms: C5_6  and  C6_7 
REMARK    3  A    between atoms: C19_23  and  C20_24 
REMARK    4  A    between atoms: C20_24  and  C21_25 
REMARK    5  A    between atoms: C33_43  and  O5_44 
ROOT
HETATM    1  C6  UNL     1     -17.612  34.871 -11.158  1.00  0.00     0.141 C 
HETATM    2  C7  UNL     1     -17.602  35.679  -9.905  1.00  0.00     0.004 C 
HETATM    3  C8  UNL     1     -16.543  36.221  -9.330  1.00  0.00     0.010 C 
HETATM    4  C9  UNL     1     -15.120  36.228  -9.681  1.00  0.00    -0.036 A 
HETATM    5  C10 UNL     1     -14.343  36.031  -8.511  1.00  0.00     0.011 A 
HETATM    6  C11 UNL     1     -12.976  35.995  -8.498  1.00  0.00     0.001 A 
HETATM    7  C12 UNL     1     -12.386  36.166  -9.716  1.00  0.00     0.007 A 
HETATM    8  C13 UNL     1     -13.109  36.367 -10.922  1.00  0.00    -0.057 A 
HETATM    9  C14 UNL     1     -14.478  36.398 -10.909  1.00  0.00     0.018 A 
HETATM   10  C15 UNL     1     -12.149  36.524 -12.055  1.00  0.00     0.052 C 
HETATM   11  C16 UNL     1     -12.277  37.709 -12.937  1.00  0.00     0.078 C 
HETATM   12  C17 UNL     1     -11.420  38.880 -12.410  1.00  0.00     0.020 C 
HETATM   13  C18 UNL     1     -11.966  37.504 -14.360  1.00  0.00     0.222 C 
HETATM   14  O2  UNL     1     -10.778  37.811 -14.734  1.00  0.00    -0.273 OA
HETATM   15  N1  UNL     1     -12.846  37.009 -15.331  1.00  0.00    -0.347 N 
ATOM     16  H1  UNL     1     -12.937  37.517 -16.211  1.00  0.00     0.163 HD
HETATM   17  C19 UNL     1     -13.642  35.795 -15.137  1.00  0.00     0.181 C 
HETATM   18  C27 UNL     1     -14.913  35.855 -15.866  1.00  0.00     0.243 C 
HETATM   19  O3  UNL     1     -14.892  36.498 -16.972  1.00  0.00    -0.271 OA
HETATM   20  N2  UNL     1     -16.151  35.293 -15.496  1.00  0.00    -0.342 N 
HETATM   21  C28 UNL     1     -17.194  35.141 -16.535  1.00  0.00     0.153 C 
HETATM   22  C29 UNL     1     -16.530  34.837 -14.181  1.00  0.00     0.174 C 
HETATM   23  C30 UNL     1     -17.010  33.400 -14.357  1.00  0.00     0.042 C 
HETATM   24  C31 UNL     1     -17.620  35.674 -13.589  1.00  0.00     0.241 C 
HETATM   25  O4  UNL     1     -18.248  36.404 -14.431  1.00  0.00    -0.271 OA
HETATM   26  N3  UNL     1     -18.001  35.732 -12.261  1.00  0.00    -0.347 N 
ATOM     27  H3  UNL     1     -18.646  36.485 -12.023  1.00  0.00     0.163 HD
ENDROOT
BRANCH   1  28
HETATM   28  C5  UNL     1     -18.741  33.863 -11.062  1.00  0.00    -0.029 A 
HETATM   29  C4  UNL     1     -20.020  34.364 -10.961  1.00  0.00     0.012 A 
HETATM   30  C3  UNL     1     -21.106  33.538 -10.863  1.00  0.00     0.040 A 
HETATM   31  C2  UNL     1     -20.909  32.177 -10.866  1.00  0.00     0.101 A 
HETATM   32  C33 UNL     1     -19.610  31.679 -10.967  1.00  0.00     0.102 A 
HETATM   33  C32 UNL     1     -18.538  32.529 -11.064  1.00  0.00     0.049 A 
BRANCH  31  34
HETATM   34  O1  UNL     1     -22.005  31.348 -10.767  1.00  0.00    -0.353 OA
HETATM   35  C1  UNL     1     -22.715  31.210  -9.556  1.00  0.00     0.210 C 
ENDBRANCH  31  34
BRANCH  32  36
HETATM   36  O5  UNL     1     -19.500  30.297 -10.962  1.00  0.00    -0.353 OA
HETATM   37  C34 UNL     1     -19.117  29.660  -9.758  1.00  0.00     0.210 C 
ENDBRANCH  32  36
ENDBRANCH   1  28
BRANCH  17  38
HETATM   38  C20 UNL     1     -12.742  34.670 -15.550  1.00  0.00     0.073 C 
BRANCH  38  39
HETATM   39  C21 UNL     1     -13.216  33.322 -15.328  1.00  0.00    -0.056 A 
HETATM   40  C22 UNL     1     -13.425  32.476 -16.397  1.00  0.00     0.009 A 
HETATM   41  C23 UNL     1     -13.876  31.172 -16.222  1.00  0.00     0.024 A 
HETATM   42  C24 UNL     1     -14.121  30.710 -14.955  1.00  0.00     0.034 A 
HETATM   43 CL1  UNL     1     -14.695  29.052 -14.722  1.00  0.00    -0.084 Cl
HETATM   44  C25 UNL     1     -13.916  31.543 -13.877  1.00  0.00     0.024 A 
HETATM   45  C26 UNL     1     -13.463  32.851 -14.064  1.00  0.00     0.009 A 
ENDBRANCH  38  39
ENDBRANCH  17  38
TORSDOF 5
ENDMDL
