MODEL 1
REMARK VINA RESULT: -8.580402751      0.000      0.000
REMARK  7 active torsions:
REMARK  status: ('A' for Active; 'I' for Inactive)
REMARK    1  A    between atoms: C3_4  and  N2_5 
REMARK       I    between atoms: N2_5  and  C4_7 
REMARK    2  A    between atoms: C4_7  and  C5_9 
REMARK    3  A    between atoms: C12_16  and  C13_17 
REMARK    4  A    between atoms: C13_17  and  N3_18 
REMARK    5  A    between atoms: N3_18  and  C14_19 
REMARK    6  A    between atoms: N3_18  and  S1_26 
REMARK    7  A    between atoms: S1_26  and  C20_29 
ROOT
HETATM    1  C5  UNL     1     -15.422  35.905  -6.782  1.00  0.00     0.033 A 
HETATM    2  C6  UNL     1     -16.687  35.664  -7.271  1.00  0.00     0.020 A 
HETATM    3  C7  UNL     1     -16.903  35.730  -8.614  1.00  0.00     0.038 A 
HETATM    4  C8  UNL     1     -15.851  36.039  -9.482  1.00  0.00     0.076 A 
HETATM    5  C9  UNL     1     -14.565  36.289  -9.040  1.00  0.00    -0.022 A 
HETATM    6  C10 UNL     1     -14.414  36.204  -7.646  1.00  0.00     0.027 A 
HETATM    7  C11 UNL     1     -13.256  36.634  -9.598  1.00  0.00     0.063 C 
HETATM    8  C12 UNL     1     -12.959  36.108 -11.009  1.00  0.00     0.098 C 
HETATM    9  C26 UNL     1     -14.200  35.852 -11.615  1.00  0.00    -0.146 C 
HETATM   10  C27 UNL     1     -15.545  35.696 -12.022  1.00  0.00     0.256 C 
HETATM   11  O4  UNL     1     -16.329  36.046 -10.819  1.00  0.00    -0.340 OA
ENDROOT
BRANCH   8  12
HETATM   12  C13 UNL     1     -12.090  37.038 -11.820  1.00  0.00     0.099 C 
BRANCH  12  13
HETATM   13  N3  UNL     1     -12.589  37.546 -13.023  1.00  0.00    -0.250 N 
BRANCH  13  14
HETATM   14  C14 UNL     1     -12.684  36.880 -14.266  1.00  0.00     0.049 A 
HETATM   15  C15 UNL     1     -13.877  36.741 -14.968  1.00  0.00     0.034 A 
HETATM   16  C16 UNL     1     -13.952  36.117 -16.202  1.00  0.00     0.044 A 
HETATM   17  C17 UNL     1     -12.824  35.598 -16.792  1.00  0.00     0.116 A 
HETATM   18  F1  UNL     1     -12.935  34.992 -18.000  1.00  0.00    -0.206 F 
HETATM   19  C18 UNL     1     -11.648  35.731 -16.106  1.00  0.00     0.044 A 
HETATM   20  C19 UNL     1     -11.543  36.345 -14.883  1.00  0.00     0.034 A 
ENDBRANCH  13  14
BRANCH  13  21
HETATM   21  S1  UNL     1     -13.093  39.225 -13.029  1.00  0.00     0.268 S 
HETATM   22  O2  UNL     1     -12.130  40.091 -12.271  1.00  0.00    -0.200 OA
HETATM   23  O3  UNL     1     -13.143  39.768 -14.424  1.00  0.00    -0.200 OA
BRANCH  21  24
HETATM   24  C20 UNL     1     -14.694  39.284 -12.362  1.00  0.00     0.080 A 
HETATM   25  C21 UNL     1     -15.849  39.109 -13.083  1.00  0.00     0.027 A 
HETATM   26  C22 UNL     1     -17.089  39.165 -12.486  1.00  0.00     0.028 A 
HETATM   27  C23 UNL     1     -17.228  39.400 -11.134  1.00  0.00     0.046 A 
HETATM   28  N4  UNL     1     -18.457  39.473 -10.450  1.00  0.00    -0.102 NA
HETATM   29  C24 UNL     1     -16.056  39.579 -10.400  1.00  0.00     0.028 A 
HETATM   30  C25 UNL     1     -14.826  39.519 -11.012  1.00  0.00     0.027 A 
ENDBRANCH  21  24
ENDBRANCH  13  21
ENDBRANCH  12  13
ENDBRANCH   8  12
BRANCH   1  31
HETATM   31  C4  UNL     1     -15.233  35.817  -5.327  1.00  0.00     0.257 C 
HETATM   32  N2  UNL     1     -14.933  36.961  -4.589  1.00  0.00    -0.308 N 
ATOM     33  H2  UNL     1     -15.624  37.709  -4.629  1.00  0.00     0.170 HD
HETATM   34  O1  UNL     1     -15.346  34.705  -4.757  1.00  0.00    -0.267 OA
BRANCH  32  35
HETATM   35  C3  UNL     1     -13.903  37.194  -3.868  1.00  0.00     0.124 A 
HETATM   36  C2  UNL     1     -13.008  38.206  -4.137  1.00  0.00     0.139 A 
HETATM   37  N1  UNL     1     -11.931  38.418  -3.333  1.00  0.00    -0.356 N 
HETATM   38  C1  UNL     1     -10.971  39.474  -3.586  1.00  0.00     0.156 C 
HETATM   39  C33 UNL     1     -11.729  37.637  -2.258  1.00  0.00     0.061 A 
HETATM   40  C28 UNL     1     -12.608  36.627  -1.976  1.00  0.00     0.060 A 
HETATM   41  C32 UNL     1     -10.627  37.850  -1.424  1.00  0.00     0.032 A 
HETATM   42  N5  UNL     1     -13.663  36.434  -2.781  1.00  0.00    -0.339 N 
HETATM   43  C29 UNL     1     -12.384  35.830  -0.859  1.00  0.00     0.032 A 
ATOM     44  H5  UNL     1     -14.312  35.678  -2.562  1.00  0.00     0.167 HD
HETATM   45  C30 UNL     1     -11.315  36.011  -0.022  1.00  0.00     0.002 A 
HETATM   46  C31 UNL     1     -10.442  37.038  -0.328  1.00  0.00     0.002 A 
ENDBRANCH  32  35
ENDBRANCH   1  31
TORSDOF 7
ENDMDL
MODEL 2
REMARK VINA RESULT: -8.580270027      4.403     11.232
REMARK  7 active torsions:
REMARK  status: ('A' for Active; 'I' for Inactive)
REMARK    1  A    between atoms: C3_4  and  N2_5 
REMARK       I    between atoms: N2_5  and  C4_7 
REMARK    2  A    between atoms: C4_7  and  C5_9 
REMARK    3  A    between atoms: C12_16  and  C13_17 
REMARK    4  A    between atoms: C13_17  and  N3_18 
REMARK    5  A    between atoms: N3_18  and  C14_19 
REMARK    6  A    between atoms: N3_18  and  S1_26 
REMARK    7  A    between atoms: S1_26  and  C20_29 
ROOT
HETATM    1  C5  UNL     1     -14.288  36.169  -9.189  1.00  0.00     0.033 A 
HETATM    2  C6  UNL     1     -15.525  35.995  -9.769  1.00  0.00     0.020 A 
HETATM    3  C7  UNL     1     -16.620  35.862  -8.970  1.00  0.00     0.038 A 
HETATM    4  C8  UNL     1     -16.485  35.902  -7.578  1.00  0.00     0.076 A 
HETATM    5  C9  UNL     1     -15.266  36.073  -6.950  1.00  0.00    -0.022 A 
HETATM    6  C10 UNL     1     -14.181  36.203  -7.833  1.00  0.00     0.027 A 
HETATM    7  C11 UNL     1     -14.730  36.161  -5.589  1.00  0.00     0.063 C 
HETATM    8  C12 UNL     1     -15.667  36.752  -4.527  1.00  0.00     0.098 C 
HETATM    9  C26 UNL     1     -16.977  36.600  -5.013  1.00  0.00    -0.146 C 
HETATM   10  C27 UNL     1     -18.189  36.321  -5.685  1.00  0.00     0.256 C 
HETATM   11  O4  UNL     1     -17.761  35.742  -6.976  1.00  0.00    -0.340 OA
ENDROOT
BRANCH   8  12
HETATM   12  C13 UNL     1     -15.474  36.145  -3.159  1.00  0.00     0.099 C 
BRANCH  12  13
HETATM   13  N3  UNL     1     -14.734  36.854  -2.207  1.00  0.00    -0.250 N 
BRANCH  13  14
HETATM   14  C14 UNL     1     -13.368  36.689  -1.882  1.00  0.00     0.049 A 
HETATM   15  C15 UNL     1     -12.910  35.758  -0.955  1.00  0.00     0.034 A 
HETATM   16  C16 UNL     1     -11.567  35.581  -0.671  1.00  0.00     0.044 A 
HETATM   17  C17 UNL     1     -10.613  36.338  -1.309  1.00  0.00     0.116 A 
HETATM   18  F1  UNL     1      -9.306  36.139  -1.005  1.00  0.00    -0.206 F 
HETATM   19  C18 UNL     1     -11.056  37.255  -2.222  1.00  0.00     0.044 A 
HETATM   20  C19 UNL     1     -12.381  37.452  -2.524  1.00  0.00     0.034 A 
ENDBRANCH  13  14
BRANCH  13  21
HETATM   21  S1  UNL     1     -15.599  38.038  -1.247  1.00  0.00     0.268 S 
HETATM   22  O2  UNL     1     -14.677  39.097  -0.720  1.00  0.00    -0.200 OA
HETATM   23  O3  UNL     1     -16.633  38.746  -2.068  1.00  0.00    -0.200 OA
BRANCH  21  24
HETATM   24  C20 UNL     1     -16.407  37.178   0.026  1.00  0.00     0.080 A 
HETATM   25  C21 UNL     1     -16.194  35.858   0.337  1.00  0.00     0.027 A 
HETATM   26  C22 UNL     1     -16.869  35.240   1.366  1.00  0.00     0.028 A 
HETATM   27  C23 UNL     1     -17.793  35.919   2.132  1.00  0.00     0.046 A 
HETATM   28  N4  UNL     1     -18.524  35.360   3.198  1.00  0.00    -0.102 NA
HETATM   29  C24 UNL     1     -18.011  37.260   1.817  1.00  0.00     0.028 A 
HETATM   30  C25 UNL     1     -17.328  37.861   0.787  1.00  0.00     0.027 A 
ENDBRANCH  21  24
ENDBRANCH  13  21
ENDBRANCH  12  13
ENDBRANCH   8  12
BRANCH   1  31
HETATM   31  C4  UNL     1     -13.135  36.313 -10.090  1.00  0.00     0.257 C 
HETATM   32  N2  UNL     1     -13.289  36.933 -11.329  1.00  0.00    -0.308 N 
ATOM     33  H2  UNL     1     -13.612  37.900 -11.305  1.00  0.00     0.170 HD
HETATM   34  O1  UNL     1     -12.016  35.876  -9.733  1.00  0.00    -0.267 OA
BRANCH  32  35
HETATM   35  C3  UNL     1     -13.076  36.447 -12.492  1.00  0.00     0.124 A 
HETATM   36  C2  UNL     1     -12.589  37.192 -13.543  1.00  0.00     0.139 A 
HETATM   37  N1  UNL     1     -12.371  36.625 -14.761  1.00  0.00    -0.356 N 
HETATM   38  C1  UNL     1     -11.859  37.380 -15.887  1.00  0.00     0.156 C 
HETATM   39  C33 UNL     1     -12.631  35.320 -14.952  1.00  0.00     0.061 A 
HETATM   40  C28 UNL     1     -13.115  34.565 -13.919  1.00  0.00     0.060 A 
HETATM   41  C32 UNL     1     -12.407  34.728 -16.199  1.00  0.00     0.032 A 
HETATM   42  N5  UNL     1     -13.323  35.143 -12.727  1.00  0.00    -0.339 N 
HETATM   43  C29 UNL     1     -13.376  33.216 -14.134  1.00  0.00     0.032 A 
ATOM     44  H5  UNL     1     -13.684  34.571 -11.963  1.00  0.00     0.167 HD
HETATM   45  C30 UNL     1     -13.169  32.605 -15.342  1.00  0.00     0.002 A 
HETATM   46  C31 UNL     1     -12.679  33.389 -16.369  1.00  0.00     0.002 A 
ENDBRANCH  32  35
ENDBRANCH   1  31
TORSDOF 7
ENDMDL
MODEL 3
REMARK VINA RESULT: -8.423325751      4.399     11.272
REMARK  7 active torsions:
REMARK  status: ('A' for Active; 'I' for Inactive)
REMARK    1  A    between atoms: C3_4  and  N2_5 
REMARK       I    between atoms: N2_5  and  C4_7 
REMARK    2  A    between atoms: C4_7  and  C5_9 
REMARK    3  A    between atoms: C12_16  and  C13_17 
REMARK    4  A    between atoms: C13_17  and  N3_18 
REMARK    5  A    between atoms: N3_18  and  C14_19 
REMARK    6  A    between atoms: N3_18  and  S1_26 
REMARK    7  A    between atoms: S1_26  and  C20_29 
ROOT
HETATM    1  C5  UNL     1     -14.057  36.224  -9.073  1.00  0.00     0.033 A 
HETATM    2  C6  UNL     1     -15.342  36.256  -9.569  1.00  0.00     0.020 A 
HETATM    3  C7  UNL     1     -16.389  36.135  -8.707  1.00  0.00     0.038 A 
HETATM    4  C8  UNL     1     -16.159  35.980  -7.335  1.00  0.00     0.076 A 
HETATM    5  C9  UNL     1     -14.889  35.941  -6.790  1.00  0.00    -0.022 A 
HETATM    6  C10 UNL     1     -13.857  36.072  -7.735  1.00  0.00     0.027 A 
HETATM    7  C11 UNL     1     -14.258  35.797  -5.476  1.00  0.00     0.063 C 
HETATM    8  C12 UNL     1     -15.050  36.339  -4.280  1.00  0.00     0.098 C 
HETATM    9  C26 UNL     1     -16.397  36.388  -4.674  1.00  0.00    -0.146 C 
HETATM   10  C27 UNL     1     -17.675  36.326  -5.275  1.00  0.00     0.256 C 
HETATM   11  O4  UNL     1     -17.402  35.877  -6.657  1.00  0.00    -0.340 OA
ENDROOT
BRANCH   8  12
HETATM   12  C13 UNL     1     -14.836  35.544  -3.015  1.00  0.00     0.099 C 
BRANCH  12  13
HETATM   13  N3  UNL     1     -14.608  36.232  -1.818  1.00  0.00    -0.250 N 
BRANCH  13  14
HETATM   14  C14 UNL     1     -15.475  37.137  -1.167  1.00  0.00     0.049 A 
HETATM   15  C15 UNL     1     -15.389  38.518  -1.316  1.00  0.00     0.034 A 
HETATM   16  C16 UNL     1     -16.267  39.394  -0.701  1.00  0.00     0.044 A 
HETATM   17  C17 UNL     1     -17.280  38.921   0.100  1.00  0.00     0.116 A 
HETATM   18  F1  UNL     1     -18.120  39.809   0.687  1.00  0.00    -0.206 F 
HETATM   19  C18 UNL     1     -17.369  37.565   0.250  1.00  0.00     0.044 A 
HETATM   20  C19 UNL     1     -16.514  36.672  -0.347  1.00  0.00     0.034 A 
ENDBRANCH  13  14
BRANCH  13  21
HETATM   21  S1  UNL     1     -13.042  36.012  -1.061  1.00  0.00     0.268 S 
HETATM   22  O2  UNL     1     -13.082  36.363   0.397  1.00  0.00    -0.200 OA
HETATM   23  O3  UNL     1     -12.600  34.583  -1.140  1.00  0.00    -0.200 OA
BRANCH  21  24
HETATM   24  C20 UNL     1     -11.904  36.984  -1.940  1.00  0.00     0.080 A 
HETATM   25  C21 UNL     1     -12.233  38.074  -2.707  1.00  0.00     0.027 A 
HETATM   26  C22 UNL     1     -11.275  38.803  -3.375  1.00  0.00     0.028 A 
HETATM   27  C23 UNL     1      -9.938  38.473  -3.303  1.00  0.00     0.046 A 
HETATM   28  N4  UNL     1      -8.900  39.166  -3.956  1.00  0.00    -0.102 NA
HETATM   29  C24 UNL     1      -9.601  37.366  -2.524  1.00  0.00     0.028 A 
HETATM   30  C25 UNL     1     -10.571  36.649  -1.864  1.00  0.00     0.027 A 
ENDBRANCH  21  24
ENDBRANCH  13  21
ENDBRANCH  12  13
ENDBRANCH   8  12
BRANCH   1  31
HETATM   31  C4  UNL     1     -12.958  36.364 -10.038  1.00  0.00     0.257 C 
HETATM   32  N2  UNL     1     -13.188  36.952 -11.282  1.00  0.00    -0.308 N 
ATOM     33  H2  UNL     1     -13.525  37.914 -11.262  1.00  0.00     0.170 HD
HETATM   34  O1  UNL     1     -11.814  35.951  -9.734  1.00  0.00    -0.267 OA
BRANCH  32  35
HETATM   35  C3  UNL     1     -13.032  36.442 -12.443  1.00  0.00     0.124 A 
HETATM   36  C2  UNL     1     -12.580  37.161 -13.528  1.00  0.00     0.139 A 
HETATM   37  N1  UNL     1     -12.422  36.568 -14.742  1.00  0.00    -0.356 N 
HETATM   38  C1  UNL     1     -11.948  37.295 -15.903  1.00  0.00     0.156 C 
HETATM   39  C33 UNL     1     -12.707  35.263 -14.898  1.00  0.00     0.061 A 
HETATM   40  C28 UNL     1     -13.157  34.534 -13.831  1.00  0.00     0.060 A 
HETATM   41  C32 UNL     1     -12.544  34.645 -16.141  1.00  0.00     0.032 A 
HETATM   42  N5  UNL     1     -13.306  35.137 -12.642  1.00  0.00    -0.339 N 
HETATM   43  C29 UNL     1     -13.445  33.185 -14.009  1.00  0.00     0.032 A 
ATOM     44  H5  UNL     1     -13.642  34.584 -11.853  1.00  0.00     0.167 HD
HETATM   45  C30 UNL     1     -13.298  32.549 -15.213  1.00  0.00     0.002 A 
HETATM   46  C31 UNL     1     -12.841  33.307 -16.274  1.00  0.00     0.002 A 
ENDBRANCH  32  35
ENDBRANCH   1  31
TORSDOF 7
ENDMDL
MODEL 4
REMARK VINA RESULT: -8.417698683      4.521     11.282
REMARK  7 active torsions:
REMARK  status: ('A' for Active; 'I' for Inactive)
REMARK    1  A    between atoms: C3_4  and  N2_5 
REMARK       I    between atoms: N2_5  and  C4_7 
REMARK    2  A    between atoms: C4_7  and  C5_9 
REMARK    3  A    between atoms: C12_16  and  C13_17 
REMARK    4  A    between atoms: C13_17  and  N3_18 
REMARK    5  A    between atoms: N3_18  and  C14_19 
REMARK    6  A    between atoms: N3_18  and  S1_26 
REMARK    7  A    between atoms: S1_26  and  C20_29 
ROOT
HETATM    1  C5  UNL     1     -14.278  36.166  -9.200  1.00  0.00     0.033 A 
HETATM    2  C6  UNL     1     -15.525  36.018  -9.767  1.00  0.00     0.020 A 
HETATM    3  C7  UNL     1     -16.608  35.859  -8.957  1.00  0.00     0.038 A 
HETATM    4  C8  UNL     1     -16.452  35.845  -7.566  1.00  0.00     0.076 A 
HETATM    5  C9  UNL     1     -15.222  35.989  -6.951  1.00  0.00    -0.022 A 
HETATM    6  C10 UNL     1     -14.151  36.149  -7.845  1.00  0.00     0.027 A 
HETATM    7  C11 UNL     1     -14.666  36.023  -5.596  1.00  0.00     0.063 C 
HETATM    8  C12 UNL     1     -15.584  36.577  -4.499  1.00  0.00     0.098 C 
HETATM    9  C26 UNL     1     -16.902  36.447  -4.970  1.00  0.00    -0.146 C 
HETATM   10  C27 UNL     1     -18.126  36.198  -5.633  1.00  0.00     0.256 C 
HETATM   11  O4  UNL     1     -17.719  35.667  -6.951  1.00  0.00    -0.340 OA
ENDROOT
BRANCH   8  12
HETATM   12  C13 UNL     1     -15.373  35.918  -3.157  1.00  0.00     0.099 C 
BRANCH  12  13
HETATM   13  N3  UNL     1     -15.329  36.721  -2.013  1.00  0.00    -0.250 N 
BRANCH  13  14
HETATM   14  C14 UNL     1     -15.942  36.475  -0.764  1.00  0.00     0.049 A 
HETATM   15  C15 UNL     1     -15.345  35.725   0.245  1.00  0.00     0.034 A 
HETATM   16  C16 UNL     1     -15.940  35.520   1.478  1.00  0.00     0.044 A 
HETATM   17  C17 UNL     1     -17.173  36.062   1.757  1.00  0.00     0.116 A 
HETATM   18  F1  UNL     1     -17.726  35.840   2.975  1.00  0.00    -0.206 F 
HETATM   19  C18 UNL     1     -17.764  36.800   0.769  1.00  0.00     0.044 A 
HETATM   20  C19 UNL     1     -17.198  37.021  -0.462  1.00  0.00     0.034 A 
ENDBRANCH  13  14
BRANCH  13  21
HETATM   21  S1  UNL     1     -14.478  38.248  -2.146  1.00  0.00     0.268 S 
HETATM   22  O2  UNL     1     -15.253  39.241  -2.962  1.00  0.00    -0.200 OA
HETATM   23  O3  UNL     1     -14.277  38.872  -0.799  1.00  0.00    -0.200 OA
BRANCH  21  24
HETATM   24  C20 UNL     1     -12.919  37.911  -2.830  1.00  0.00     0.080 A 
HETATM   25  C21 UNL     1     -11.912  37.234  -2.189  1.00  0.00     0.027 A 
HETATM   26  C22 UNL     1     -10.698  36.999  -2.795  1.00  0.00     0.028 A 
HETATM   27  C23 UNL     1     -10.438  37.433  -4.078  1.00  0.00     0.046 A 
HETATM   28  N4  UNL     1      -9.226  37.234  -4.767  1.00  0.00    -0.102 NA
HETATM   29  C24 UNL     1     -11.459  38.122  -4.732  1.00  0.00     0.028 A 
HETATM   30  C25 UNL     1     -12.665  38.348  -4.111  1.00  0.00     0.027 A 
ENDBRANCH  21  24
ENDBRANCH  13  21
ENDBRANCH  12  13
ENDBRANCH   8  12
BRANCH   1  31
HETATM   31  C4  UNL     1     -13.139  36.341 -10.112  1.00  0.00     0.257 C 
HETATM   32  N2  UNL     1     -13.326  36.931 -11.361  1.00  0.00    -0.308 N 
ATOM     33  H2  UNL     1     -13.689  37.884 -11.353  1.00  0.00     0.170 HD
HETATM   34  O1  UNL     1     -12.000  35.957  -9.756  1.00  0.00    -0.267 OA
BRANCH  32  35
HETATM   35  C3  UNL     1     -13.102  36.432 -12.516  1.00  0.00     0.124 A 
HETATM   36  C2  UNL     1     -12.588  37.162 -13.566  1.00  0.00     0.139 A 
HETATM   37  N1  UNL     1     -12.359  36.582 -14.775  1.00  0.00    -0.356 N 
HETATM   38  C1  UNL     1     -11.820  37.321 -15.899  1.00  0.00     0.156 C 
HETATM   39  C33 UNL     1     -12.633  35.279 -14.960  1.00  0.00     0.061 A 
HETATM   40  C28 UNL     1     -13.143  34.539 -13.928  1.00  0.00     0.060 A 
HETATM   41  C32 UNL     1     -12.397  34.673 -16.198  1.00  0.00     0.032 A 
HETATM   42  N5  UNL     1     -13.362  35.130 -12.744  1.00  0.00    -0.339 N 
HETATM   43  C29 UNL     1     -13.418  33.191 -14.136  1.00  0.00     0.032 A 
ATOM     44  H5  UNL     1     -13.742  34.568 -11.982  1.00  0.00     0.167 HD
HETATM   45  C30 UNL     1     -13.200  32.567 -15.335  1.00  0.00     0.002 A 
HETATM   46  C31 UNL     1     -12.683  33.336 -16.361  1.00  0.00     0.002 A 
ENDBRANCH  32  35
ENDBRANCH   1  31
TORSDOF 7
ENDMDL
MODEL 5
REMARK VINA RESULT: -8.397551062      2.469      4.311
REMARK  7 active torsions:
REMARK  status: ('A' for Active; 'I' for Inactive)
REMARK    1  A    between atoms: C3_4  and  N2_5 
REMARK       I    between atoms: N2_5  and  C4_7 
REMARK    2  A    between atoms: C4_7  and  C5_9 
REMARK    3  A    between atoms: C12_16  and  C13_17 
REMARK    4  A    between atoms: C13_17  and  N3_18 
REMARK    5  A    between atoms: N3_18  and  C14_19 
REMARK    6  A    between atoms: N3_18  and  S1_26 
REMARK    7  A    between atoms: S1_26  and  C20_29 
ROOT
HETATM    1  C5  UNL     1     -15.527  35.875  -6.682  1.00  0.00     0.033 A 
HETATM    2  C6  UNL     1     -16.770  35.553  -7.182  1.00  0.00     0.020 A 
HETATM    3  C7  UNL     1     -16.974  35.592  -8.528  1.00  0.00     0.038 A 
HETATM    4  C8  UNL     1     -15.931  35.954  -9.389  1.00  0.00     0.076 A 
HETATM    5  C9  UNL     1     -14.668  36.286  -8.935  1.00  0.00    -0.022 A 
HETATM    6  C10 UNL     1     -14.529  36.225  -7.538  1.00  0.00     0.027 A 
HETATM    7  C11 UNL     1     -13.375  36.702  -9.482  1.00  0.00     0.063 C 
HETATM    8  C12 UNL     1     -13.031  36.180 -10.883  1.00  0.00     0.098 C 
HETATM    9  C26 UNL     1     -14.247  35.844 -11.500  1.00  0.00    -0.146 C 
HETATM   10  C27 UNL     1     -15.576  35.602 -11.921  1.00  0.00     0.256 C 
HETATM   11  O4  UNL     1     -16.393  35.917 -10.731  1.00  0.00    -0.340 OA
ENDROOT
BRANCH   8  12
HETATM   12  C13 UNL     1     -12.209  37.151 -11.695  1.00  0.00     0.099 C 
BRANCH  12  13
HETATM   13  N3  UNL     1     -12.872  38.085 -12.499  1.00  0.00    -0.250 N 
BRANCH  13  14
HETATM   14  C14 UNL     1     -13.655  39.183 -12.075  1.00  0.00     0.049 A 
HETATM   15  C15 UNL     1     -14.981  39.065 -11.673  1.00  0.00     0.034 A 
HETATM   16  C16 UNL     1     -15.728  40.141 -11.226  1.00  0.00     0.044 A 
HETATM   17  C17 UNL     1     -15.173  41.398 -11.164  1.00  0.00     0.116 A 
HETATM   18  F1  UNL     1     -15.934  42.430 -10.722  1.00  0.00    -0.206 F 
HETATM   19  C18 UNL     1     -13.869  41.521 -11.558  1.00  0.00     0.044 A 
HETATM   20  C19 UNL     1     -13.105  40.471 -12.004  1.00  0.00     0.034 A 
ENDBRANCH  13  14
BRANCH  13  21
HETATM   21  S1  UNL     1     -12.791  37.842 -14.232  1.00  0.00     0.268 S 
HETATM   22  O2  UNL     1     -12.777  36.383 -14.583  1.00  0.00    -0.200 OA
HETATM   23  O3  UNL     1     -13.988  38.429 -14.916  1.00  0.00    -0.200 OA
BRANCH  21  24
HETATM   24  C20 UNL     1     -11.376  38.669 -14.804  1.00  0.00     0.080 A 
HETATM   25  C21 UNL     1     -11.376  39.642 -15.771  1.00  0.00     0.027 A 
HETATM   26  C22 UNL     1     -10.213  40.261 -16.174  1.00  0.00     0.028 A 
HETATM   27  C23 UNL     1      -8.993  39.929 -15.623  1.00  0.00     0.046 A 
HETATM   28  N4  UNL     1      -7.761  40.513 -15.979  1.00  0.00    -0.102 NA
HETATM   29  C24 UNL     1      -8.991  38.940 -14.640  1.00  0.00     0.028 A 
HETATM   30  C25 UNL     1     -10.162  38.333 -14.250  1.00  0.00     0.027 A 
ENDBRANCH  21  24
ENDBRANCH  13  21
ENDBRANCH  12  13
ENDBRANCH   8  12
BRANCH   1  31
HETATM   31  C4  UNL     1     -15.351  35.814  -5.224  1.00  0.00     0.257 C 
HETATM   32  N2  UNL     1     -14.995  36.960  -4.513  1.00  0.00    -0.308 N 
ATOM     33  H2  UNL     1     -15.647  37.742  -4.577  1.00  0.00     0.170 HD
HETATM   34  O1  UNL     1     -15.524  34.725  -4.627  1.00  0.00    -0.267 OA
BRANCH  32  35
HETATM   35  C3  UNL     1     -13.959  37.157  -3.792  1.00  0.00     0.124 A 
HETATM   36  C2  UNL     1     -13.043  38.155  -4.046  1.00  0.00     0.139 A 
HETATM   37  N1  UNL     1     -11.959  38.329  -3.241  1.00  0.00    -0.356 N 
HETATM   38  C1  UNL     1     -10.978  39.368  -3.479  1.00  0.00     0.156 C 
HETATM   39  C33 UNL     1     -11.770  37.525  -2.181  1.00  0.00     0.061 A 
HETATM   40  C28 UNL     1     -12.671  36.529  -1.915  1.00  0.00     0.060 A 
HETATM   41  C32 UNL     1     -10.662  37.699  -1.347  1.00  0.00     0.032 A 
HETATM   42  N5  UNL     1     -13.732  36.373  -2.720  1.00  0.00    -0.339 N 
HETATM   43  C29 UNL     1     -12.460  35.707  -0.812  1.00  0.00     0.032 A 
ATOM     44  H5  UNL     1     -14.397  35.628  -2.511  1.00  0.00     0.167 HD
HETATM   45  C30 UNL     1     -11.386  35.850   0.024  1.00  0.00     0.002 A 
HETATM   46  C31 UNL     1     -10.491  36.863  -0.266  1.00  0.00     0.002 A 
ENDBRANCH  32  35
ENDBRANCH   1  31
TORSDOF 7
ENDMDL
