MODEL 1
REMARK VINA RESULT: -7.972166275      0.000      0.000
REMARK  5 active torsions:
REMARK  status: ('A' for Active; 'I' for Inactive)
REMARK    1  A    between atoms: C4_4  and  C5_5 
REMARK    2  A    between atoms: C5_5  and  C6_6 
REMARK    3  A    between atoms: C6_6  and  C7_7 
REMARK    4  A    between atoms: C7_7  and  C8_8 
REMARK    5  A    between atoms: C8_8  and  C9_9 
ROOT
HETATM    1  C6  UNL     1       7.949   4.148  23.128  1.00  0.00     0.005 C 
ENDROOT
BRANCH   1   2
HETATM    2  C5  UNL     1       9.248   4.665  23.674  1.00  0.00     0.038 C 
BRANCH   2   3
HETATM    3  C4  UNL     1      10.429   3.930  23.202  1.00  0.00    -0.058 A 
HETATM    4  C3  UNL     1      10.443   2.556  23.190  1.00  0.00     0.007 A 
HETATM    5  C2  UNL     1      11.509   1.798  22.764  1.00  0.00     0.001 A 
HETATM    6  C1  UNL     1      12.642   2.468  22.317  1.00  0.00     0.000 A 
HETATM    7  C13 UNL     1      12.662   3.846  22.315  1.00  0.00     0.001 A 
HETATM    8  C12 UNL     1      11.576   4.571  22.750  1.00  0.00     0.007 A 
ENDBRANCH   2   3
ENDBRANCH   1   2
BRANCH   1   9
HETATM    9  C7  UNL     1       6.832   4.161  24.130  1.00  0.00     0.006 C 
BRANCH   9  10
HETATM   10  C8  UNL     1       5.878   5.277  23.701  1.00  0.00     0.053 C 
BRANCH  10  11
HETATM   11  C9  UNL     1       6.131   6.515  24.531  1.00  0.00    -0.010 A 
HETATM   12  N1  UNL     1       5.587   6.913  25.573  1.00  0.00    -0.376 N 
HETATM   13  C10 UNL     1       6.349   8.056  25.685  1.00  0.00     0.066 A 
ATOM     14  H1  UNL     1       4.838   6.528  26.147  1.00  0.00     0.164 HD
HETATM   15  C11 UNL     1       7.038   7.644  24.450  1.00  0.00     0.097 A 
ENDBRANCH  10  11
ENDBRANCH   9  10
ENDBRANCH   1   9
TORSDOF 5
ENDMDL
MODEL 2
REMARK VINA RESULT: -7.944198022      0.052      1.269
REMARK  5 active torsions:
REMARK  status: ('A' for Active; 'I' for Inactive)
REMARK    1  A    between atoms: C4_4  and  C5_5 
REMARK    2  A    between atoms: C5_5  and  C6_6 
REMARK    3  A    between atoms: C6_6  and  C7_7 
REMARK    4  A    between atoms: C7_7  and  C8_8 
REMARK    5  A    between atoms: C8_8  and  C9_9 
ROOT
HETATM    1  C6  UNL     1       7.953   4.160  23.119  1.00  0.00     0.005 C 
ENDROOT
BRANCH   1   2
HETATM    2  C5  UNL     1       9.252   4.637  23.698  1.00  0.00     0.038 C 
BRANCH   2   3
HETATM    3  C4  UNL     1      10.426   3.892  23.226  1.00  0.00    -0.058 A 
HETATM    4  C3  UNL     1      11.556   4.552  22.806  1.00  0.00     0.007 A 
HETATM    5  C2  UNL     1      12.692   3.926  22.351  1.00  0.00     0.001 A 
HETATM    6  C1  UNL     1      12.697   2.537  22.315  1.00  0.00     0.000 A 
HETATM    7  C13 UNL     1      11.580   1.842  22.729  1.00  0.00     0.001 A 
HETATM    8  C12 UNL     1      10.460   2.503  23.178  1.00  0.00     0.007 A 
ENDBRANCH   2   3
ENDBRANCH   1   2
BRANCH   1   9
HETATM    9  C7  UNL     1       6.827   4.145  24.110  1.00  0.00     0.006 C 
BRANCH   9  10
HETATM   10  C8  UNL     1       5.868   5.261  23.693  1.00  0.00     0.053 C 
BRANCH  10  11
HETATM   11  C9  UNL     1       6.126   6.497  24.524  1.00  0.00    -0.010 A 
HETATM   12  N1  UNL     1       5.580   6.899  25.563  1.00  0.00    -0.376 N 
HETATM   13  C10 UNL     1       6.351   8.036  25.680  1.00  0.00     0.066 A 
ATOM     14  H1  UNL     1       4.823   6.521  26.133  1.00  0.00     0.164 HD
HETATM   15  C11 UNL     1       7.044   7.618  24.450  1.00  0.00     0.097 A 
ENDBRANCH  10  11
ENDBRANCH   9  10
ENDBRANCH   1   9
TORSDOF 5
ENDMDL
MODEL 3
REMARK VINA RESULT: -7.873633398      1.078      1.388
REMARK  5 active torsions:
REMARK  status: ('A' for Active; 'I' for Inactive)
REMARK    1  A    between atoms: C4_4  and  C5_5 
REMARK    2  A    between atoms: C5_5  and  C6_6 
REMARK    3  A    between atoms: C6_6  and  C7_7 
REMARK    4  A    between atoms: C7_7  and  C8_8 
REMARK    5  A    between atoms: C8_8  and  C9_9 
ROOT
HETATM    1  C6  UNL     1       8.805   4.387  25.038  1.00  0.00     0.005 C 
ENDROOT
BRANCH   1   2
HETATM    2  C5  UNL     1       9.121   4.584  23.584  1.00  0.00     0.038 C 
BRANCH   2   3
HETATM    3  C4  UNL     1      10.359   3.926  23.148  1.00  0.00    -0.058 A 
HETATM    4  C3  UNL     1      10.463   2.556  23.144  1.00  0.00     0.007 A 
HETATM    5  C2  UNL     1      11.587   1.868  22.751  1.00  0.00     0.001 A 
HETATM    6  C1  UNL     1      12.686   2.607  22.330  1.00  0.00     0.000 A 
HETATM    7  C13 UNL     1      12.616   3.984  22.321  1.00  0.00     0.001 A 
HETATM    8  C12 UNL     1      11.474   4.639  22.723  1.00  0.00     0.007 A 
ENDBRANCH   2   3
ENDBRANCH   1   2
BRANCH   1   9
HETATM    9  C7  UNL     1       8.311   5.631  25.716  1.00  0.00     0.006 C 
BRANCH   9  10
HETATM   10  C8  UNL     1       8.008   6.639  24.606  1.00  0.00     0.053 C 
BRANCH  10  11
HETATM   11  C9  UNL     1       6.688   7.322  24.880  1.00  0.00    -0.010 A 
HETATM   12  N1  UNL     1       6.395   8.218  25.687  1.00  0.00    -0.376 N 
HETATM   13  C10 UNL     1       5.065   8.279  25.332  1.00  0.00     0.066 A 
ATOM     14  H1  UNL     1       6.947   8.732  26.374  1.00  0.00     0.164 HD
HETATM   15  C11 UNL     1       5.341   7.216  24.352  1.00  0.00     0.097 A 
ENDBRANCH  10  11
ENDBRANCH   9  10
ENDBRANCH   1   9
TORSDOF 5
ENDMDL
MODEL 4
REMARK VINA RESULT: -7.864142536      1.073      1.871
REMARK  5 active torsions:
REMARK  status: ('A' for Active; 'I' for Inactive)
REMARK    1  A    between atoms: C4_4  and  C5_5 
REMARK    2  A    between atoms: C5_5  and  C6_6 
REMARK    3  A    between atoms: C6_6  and  C7_7 
REMARK    4  A    between atoms: C7_7  and  C8_8 
REMARK    5  A    between atoms: C8_8  and  C9_9 
ROOT
HETATM    1  C6  UNL     1       8.740   4.365  24.972  1.00  0.00     0.005 C 
ENDROOT
BRANCH   1   2
HETATM    2  C5  UNL     1       9.126   4.601  23.542  1.00  0.00     0.038 C 
BRANCH   2   3
HETATM    3  C4  UNL     1      10.352   3.905  23.132  1.00  0.00    -0.058 A 
HETATM    4  C3  UNL     1      11.457   4.611  22.720  1.00  0.00     0.007 A 
HETATM    5  C2  UNL     1      12.639   4.032  22.321  1.00  0.00     0.001 A 
HETATM    6  C1  UNL     1      12.719   2.645  22.337  1.00  0.00     0.000 A 
HETATM    7  C13 UNL     1      11.629   1.905  22.745  1.00  0.00     0.001 A 
HETATM    8  C12 UNL     1      10.462   2.519  23.136  1.00  0.00     0.007 A 
ENDBRANCH   2   3
ENDBRANCH   1   2
BRANCH   1   9
HETATM    9  C7  UNL     1       8.309   5.611  25.689  1.00  0.00     0.006 C 
BRANCH   9  10
HETATM   10  C8  UNL     1       8.013   6.652  24.608  1.00  0.00     0.053 C 
BRANCH  10  11
HETATM   11  C9  UNL     1       6.696   7.334  24.900  1.00  0.00    -0.010 A 
HETATM   12  N1  UNL     1       6.411   8.220  25.720  1.00  0.00    -0.376 N 
HETATM   13  C10 UNL     1       5.078   8.288  25.376  1.00  0.00     0.066 A 
ATOM     14  H1  UNL     1       6.968   8.724  26.410  1.00  0.00     0.164 HD
HETATM   15  C11 UNL     1       5.345   7.237  24.380  1.00  0.00     0.097 A 
ENDBRANCH  10  11
ENDBRANCH   9  10
ENDBRANCH   1   9
TORSDOF 5
ENDMDL
MODEL 5
REMARK VINA RESULT: -7.771159767      1.247      1.666
REMARK  5 active torsions:
REMARK  status: ('A' for Active; 'I' for Inactive)
REMARK    1  A    between atoms: C4_4  and  C5_5 
REMARK    2  A    between atoms: C5_5  and  C6_6 
REMARK    3  A    between atoms: C6_6  and  C7_7 
REMARK    4  A    between atoms: C7_7  and  C8_8 
REMARK    5  A    between atoms: C8_8  and  C9_9 
ROOT
HETATM    1  C6  UNL     1       8.795   4.870  24.718  1.00  0.00     0.005 C 
ENDROOT
BRANCH   1   2
HETATM    2  C5  UNL     1       8.871   4.061  23.456  1.00  0.00     0.038 C 
BRANCH   2   3
HETATM    3  C4  UNL     1      10.235   3.670  23.079  1.00  0.00    -0.058 A 
HETATM    4  C3  UNL     1      10.596   2.346  23.023  1.00  0.00     0.007 A 
HETATM    5  C2  UNL     1      11.851   1.901  22.679  1.00  0.00     0.001 A 
HETATM    6  C1  UNL     1      12.814   2.854  22.367  1.00  0.00     0.000 A 
HETATM    7  C13 UNL     1      12.485   4.192  22.413  1.00  0.00     0.001 A 
HETATM    8  C12 UNL     1      11.219   4.600  22.763  1.00  0.00     0.007 A 
ENDBRANCH   2   3
ENDBRANCH   1   2
BRANCH   1   9
HETATM    9  C7  UNL     1       7.959   6.108  24.585  1.00  0.00     0.006 C 
BRANCH   9  10
HETATM   10  C8  UNL     1       7.838   6.702  25.989  1.00  0.00     0.053 C 
BRANCH  10  11
HETATM   11  C9  UNL     1       6.580   7.535  26.087  1.00  0.00    -0.010 A 
HETATM   12  N1  UNL     1       6.025   8.260  25.247  1.00  0.00    -0.376 N 
HETATM   13  C10 UNL     1       4.990   8.642  26.074  1.00  0.00     0.066 A 
ATOM     14  H1  UNL     1       6.254   8.492  24.281  1.00  0.00     0.164 HD
HETATM   15  C11 UNL     1       5.595   7.799  27.119  1.00  0.00     0.097 A 
ENDBRANCH  10  11
ENDBRANCH   9  10
ENDBRANCH   1   9
TORSDOF 5
ENDMDL
