MODEL 1
REMARK VINA RESULT: -7.340394923      0.000      0.000
REMARK  5 active torsions:
REMARK  status: ('A' for Active; 'I' for Inactive)
REMARK    1  A    between atoms: N1_3  and  C3_4 
REMARK    2  A    between atoms: C3_4  and  C4_5 
REMARK    3  A    between atoms: C4_5  and  C5_6 
REMARK    4  A    between atoms: C5_6  and  C6_7 
REMARK    5  A    between atoms: C6_7  and  C7_8 
ROOT
HETATM    1  C4  UNL     1       7.557   4.231  24.171  1.00  0.00     0.020 C 
ENDROOT
BRANCH   1   2
HETATM    2  C3  UNL     1       6.487   5.248  23.918  1.00  0.00     0.129 C 
BRANCH   2   3
HETATM    3  N1  UNL     1       6.643   6.436  24.697  1.00  0.00    -0.352 N 
HETATM    4  C2  UNL     1       7.616   6.720  25.580  1.00  0.00     0.108 A 
HETATM    5  C1  UNL     1       7.393   7.981  26.118  1.00  0.00     0.106 A 
HETATM    6  N2  UNL     1       6.266   8.443  25.538  1.00  0.00    -0.361 N 
HETATM    7  C12 UNL     1       5.821   7.497  24.678  1.00  0.00     0.182 A 
ATOM      8  H2  UNL     1       5.826   9.345  25.716  1.00  0.00     0.166 HD
ENDBRANCH   2   3
ENDBRANCH   1   2
BRANCH   1   9
HETATM    9  C5  UNL     1       8.445   4.016  22.961  1.00  0.00     0.002 C 
BRANCH   9  10
HETATM   10  C6  UNL     1       9.735   4.716  23.226  1.00  0.00     0.005 C 
BRANCH  10  11
HETATM   11  C7  UNL     1      10.923   3.831  23.352  1.00  0.00    -0.014 C 
HETATM   12  C8  UNL     1      12.020   4.277  22.409  1.00  0.00     0.004 C 
HETATM   13  C9  UNL     1      12.928   3.062  22.410  1.00  0.00     0.000 C 
HETATM   14  C10 UNL     1      11.992   1.901  22.442  1.00  0.00     0.000 C 
HETATM   15  C11 UNL     1      10.698   2.392  23.095  1.00  0.00     0.004 C 
ENDBRANCH  10  11
ENDBRANCH   9  10
ENDBRANCH   1   9
TORSDOF 5
ENDMDL
MODEL 2
REMARK VINA RESULT: -7.265218554      0.555      1.102
REMARK  5 active torsions:
REMARK  status: ('A' for Active; 'I' for Inactive)
REMARK    1  A    between atoms: N1_3  and  C3_4 
REMARK    2  A    between atoms: C3_4  and  C4_5 
REMARK    3  A    between atoms: C4_5  and  C5_6 
REMARK    4  A    between atoms: C5_6  and  C6_7 
REMARK    5  A    between atoms: C6_7  and  C7_8 
ROOT
HETATM    1  C4  UNL     1       7.570   4.313  23.993  1.00  0.00     0.020 C 
ENDROOT
BRANCH   1   2
HETATM    2  C3  UNL     1       8.108   5.382  24.894  1.00  0.00     0.129 C 
BRANCH   2   3
HETATM    3  N1  UNL     1       7.197   6.465  25.090  1.00  0.00    -0.352 N 
HETATM    4  C2  UNL     1       5.940   6.578  24.629  1.00  0.00     0.108 A 
HETATM    5  C1  UNL     1       5.404   7.789  25.048  1.00  0.00     0.106 A 
HETATM    6  N2  UNL     1       6.369   8.396  25.768  1.00  0.00    -0.361 N 
HETATM    7  C12 UNL     1       7.452   7.584  25.787  1.00  0.00     0.182 A 
ATOM      8  H2  UNL     1       6.296   9.308  26.219  1.00  0.00     0.166 HD
ENDBRANCH   2   3
ENDBRANCH   1   2
BRANCH   1   9
HETATM    9  C5  UNL     1       8.498   4.017  22.832  1.00  0.00     0.002 C 
BRANCH   9  10
HETATM   10  C6  UNL     1       9.786   4.719  23.101  1.00  0.00     0.005 C 
BRANCH  10  11
HETATM   11  C7  UNL     1      10.967   3.834  23.282  1.00  0.00    -0.014 C 
HETATM   12  C8  UNL     1      12.084   4.239  22.345  1.00  0.00     0.004 C 
HETATM   13  C9  UNL     1      12.985   3.021  22.407  1.00  0.00     0.000 C 
HETATM   14  C10 UNL     1      12.042   1.866  22.463  1.00  0.00     0.000 C 
HETATM   15  C11 UNL     1      10.739   2.387  23.073  1.00  0.00     0.004 C 
ENDBRANCH  10  11
ENDBRANCH   9  10
ENDBRANCH   1   9
TORSDOF 5
ENDMDL
MODEL 3
REMARK VINA RESULT: -7.234861477      0.409      1.133
REMARK  5 active torsions:
REMARK  status: ('A' for Active; 'I' for Inactive)
REMARK    1  A    between atoms: N1_3  and  C3_4 
REMARK    2  A    between atoms: C3_4  and  C4_5 
REMARK    3  A    between atoms: C4_5  and  C5_6 
REMARK    4  A    between atoms: C5_6  and  C6_7 
REMARK    5  A    between atoms: C6_7  and  C7_8 
ROOT
HETATM    1  C4  UNL     1       7.087   4.292  24.171  1.00  0.00     0.020 C 
ENDROOT
BRANCH   1   2
HETATM    2  C3  UNL     1       6.123   5.417  23.953  1.00  0.00     0.129 C 
BRANCH   2   3
HETATM    3  N1  UNL     1       6.382   6.549  24.786  1.00  0.00    -0.352 N 
HETATM    4  C2  UNL     1       7.465   6.783  25.546  1.00  0.00     0.108 A 
HETATM    5  C1  UNL     1       7.315   8.000  26.198  1.00  0.00     0.106 A 
HETATM    6  N2  UNL     1       6.118   8.487  25.811  1.00  0.00    -0.361 N 
HETATM    7  C12 UNL     1       5.561   7.599  24.955  1.00  0.00     0.182 A 
ATOM      8  H2  UNL     1       5.704   9.370  26.112  1.00  0.00     0.166 HD
ENDBRANCH   2   3
ENDBRANCH   1   2
BRANCH   1   9
HETATM    9  C5  UNL     1       8.041   4.118  23.006  1.00  0.00     0.002 C 
BRANCH   9  10
HETATM   10  C6  UNL     1       9.426   4.267  23.540  1.00  0.00     0.005 C 
BRANCH  10  11
HETATM   11  C7  UNL     1      10.502   3.711  22.677  1.00  0.00    -0.014 C 
HETATM   12  C8  UNL     1      10.828   2.289  23.083  1.00  0.00     0.004 C 
HETATM   13  C9  UNL     1      12.154   2.073  22.380  1.00  0.00     0.000 C 
HETATM   14  C10 UNL     1      12.861   3.380  22.512  1.00  0.00     0.000 C 
HETATM   15  C11 UNL     1      11.782   4.454  22.664  1.00  0.00     0.004 C 
ENDBRANCH  10  11
ENDBRANCH   9  10
ENDBRANCH   1   9
TORSDOF 5
ENDMDL
MODEL 4
REMARK VINA RESULT: -7.234359343      0.976      1.754
REMARK  5 active torsions:
REMARK  status: ('A' for Active; 'I' for Inactive)
REMARK    1  A    between atoms: N1_3  and  C3_4 
REMARK    2  A    between atoms: C3_4  and  C4_5 
REMARK    3  A    between atoms: C4_5  and  C5_6 
REMARK    4  A    between atoms: C5_6  and  C6_7 
REMARK    5  A    between atoms: C6_7  and  C7_8 
ROOT
HETATM    1  C4  UNL     1       8.477   5.172  25.479  1.00  0.00     0.020 C 
ENDROOT
BRANCH   1   2
HETATM    2  C3  UNL     1       7.820   6.137  24.541  1.00  0.00     0.129 C 
BRANCH   2   3
HETATM    3  N1  UNL     1       7.005   7.104  25.207  1.00  0.00    -0.352 N 
HETATM    4  C2  UNL     1       5.694   7.339  25.029  1.00  0.00     0.108 A 
HETATM    5  C1  UNL     1       5.292   8.364  25.876  1.00  0.00     0.106 A 
HETATM    6  N2  UNL     1       6.393   8.736  26.562  1.00  0.00    -0.361 N 
HETATM    7  C12 UNL     1       7.425   7.964  26.148  1.00  0.00     0.182 A 
ATOM      8  H2  UNL     1       6.439   9.470  27.268  1.00  0.00     0.166 HD
ENDBRANCH   2   3
ENDBRANCH   1   2
BRANCH   1   9
HETATM    9  C5  UNL     1       9.344   4.161  24.754  1.00  0.00     0.002 C 
BRANCH   9  10
HETATM   10  C6  UNL     1       9.761   4.780  23.462  1.00  0.00     0.005 C 
BRANCH  10  11
HETATM   11  C7  UNL     1      10.678   3.956  22.631  1.00  0.00    -0.014 C 
HETATM   12  C8  UNL     1      10.705   2.526  23.127  1.00  0.00     0.004 C 
HETATM   13  C9  UNL     1      11.941   1.990  22.431  1.00  0.00     0.000 C 
HETATM   14  C10 UNL     1      12.910   3.124  22.472  1.00  0.00     0.000 C 
HETATM   15  C11 UNL     1      12.085   4.409  22.561  1.00  0.00     0.004 C 
ENDBRANCH  10  11
ENDBRANCH   9  10
ENDBRANCH   1   9
TORSDOF 5
ENDMDL
MODEL 5
REMARK VINA RESULT: -7.130195275      1.030      1.384
REMARK  5 active torsions:
REMARK  status: ('A' for Active; 'I' for Inactive)
REMARK    1  A    between atoms: N1_3  and  C3_4 
REMARK    2  A    between atoms: C3_4  and  C4_5 
REMARK    3  A    between atoms: C4_5  and  C5_6 
REMARK    4  A    between atoms: C5_6  and  C6_7 
REMARK    5  A    between atoms: C6_7  and  C7_8 
ROOT
HETATM    1  C4  UNL     1       8.163   5.645  24.511  1.00  0.00     0.020 C 
ENDROOT
BRANCH   1   2
HETATM    2  C3  UNL     1       6.773   6.169  24.321  1.00  0.00     0.129 C 
BRANCH   2   3
HETATM    3  N1  UNL     1       6.434   7.212  25.238  1.00  0.00    -0.352 N 
HETATM    4  C2  UNL     1       5.233   7.782  25.431  1.00  0.00     0.108 A 
HETATM    5  C1  UNL     1       5.338   8.755  26.416  1.00  0.00     0.106 A 
HETATM    6  N2  UNL     1       6.630   8.754  26.806  1.00  0.00    -0.361 N 
HETATM    7  C12 UNL     1       7.284   7.813  26.086  1.00  0.00     0.182 A 
ATOM      8  H2  UNL     1       7.041   9.357  27.519  1.00  0.00     0.166 HD
ENDBRANCH   2   3
ENDBRANCH   1   2
BRANCH   1   9
HETATM    9  C5  UNL     1       8.257   4.154  24.251  1.00  0.00     0.002 C 
BRANCH   9  10
HETATM   10  C6  UNL     1       9.068   3.969  23.012  1.00  0.00     0.005 C 
BRANCH  10  11
HETATM   11  C7  UNL     1      10.500   3.640  23.235  1.00  0.00    -0.014 C 
HETATM   12  C8  UNL     1      11.389   4.547  22.410  1.00  0.00     0.004 C 
HETATM   13  C9  UNL     1      12.712   3.810  22.474  1.00  0.00     0.000 C 
HETATM   14  C10 UNL     1      12.337   2.368  22.394  1.00  0.00     0.000 C 
HETATM   15  C11 UNL     1      10.908   2.251  22.929  1.00  0.00     0.004 C 
ENDBRANCH  10  11
ENDBRANCH   9  10
ENDBRANCH   1   9
TORSDOF 5
ENDMDL
