MODEL 1
REMARK VINA RESULT: -7.073434331      0.000      0.000
REMARK  5 active torsions:
REMARK  status: ('A' for Active; 'I' for Inactive)
REMARK    1  A    between atoms: C5_5  and  C6_6 
REMARK    2  A    between atoms: C6_6  and  O1_7 
REMARK    3  A    between atoms: O1_7  and  C7_8 
REMARK    4  A    between atoms: C7_8  and  C8_9 
REMARK    5  A    between atoms: C8_9  and  C9_10 
ROOT
HETATM    1  C1  UNL     1      12.346   2.376  22.320  1.00  0.00     0.000 C 
HETATM    2  C2  UNL     1      12.853   3.809  22.540  1.00  0.00     0.000 C 
HETATM    3  C3  UNL     1      11.869   4.712  21.878  1.00  0.00     0.000 C 
HETATM    4  C4  UNL     1      10.811   5.238  22.852  1.00  0.00     0.007 C 
HETATM    5  C5  UNL     1       9.652   4.332  22.993  1.00  0.00     0.009 C 
HETATM    6  C12 UNL     1       9.948   2.912  22.529  1.00  0.00     0.007 C 
HETATM    7  C13 UNL     1      11.105   2.277  23.219  1.00  0.00     0.000 C 
ENDROOT
BRANCH   5   8
HETATM    8  C6  UNL     1       9.026   4.249  24.327  1.00  0.00     0.172 C 
BRANCH   8   9
HETATM    9  O1  UNL     1       7.706   4.070  24.498  1.00  0.00    -0.391 OA
BRANCH   9  10
HETATM   10  C7  UNL     1       6.860   4.581  23.595  1.00  0.00     0.168 C 
BRANCH  10  11
HETATM   11  C8  UNL     1       5.909   5.623  24.226  1.00  0.00     0.031 C 
BRANCH  11  12
HETATM   12  C9  UNL     1       6.490   6.993  24.197  1.00  0.00    -0.013 A 
HETATM   13  C10 UNL     1       7.359   7.509  25.272  1.00  0.00     0.005 A 
HETATM   14  C11 UNL     1       5.913   7.955  25.230  1.00  0.00     0.005 A 
ENDBRANCH  11  12
ENDBRANCH  10  11
ENDBRANCH   9  10
ENDBRANCH   8   9
ENDBRANCH   5   8
TORSDOF 5
ENDMDL
MODEL 2
REMARK VINA RESULT: -7.063429376      1.076      1.895
REMARK  5 active torsions:
REMARK  status: ('A' for Active; 'I' for Inactive)
REMARK    1  A    between atoms: C5_5  and  C6_6 
REMARK    2  A    between atoms: C6_6  and  O1_7 
REMARK    3  A    between atoms: O1_7  and  C7_8 
REMARK    4  A    between atoms: C7_8  and  C8_9 
REMARK    5  A    between atoms: C8_9  and  C9_10 
ROOT
HETATM    1  C1  UNL     1      12.979   4.134  22.470  1.00  0.00     0.000 C 
HETATM    2  C2  UNL     1      12.734   2.716  21.935  1.00  0.00     0.000 C 
HETATM    3  C3  UNL     1      11.908   2.014  22.957  1.00  0.00     0.000 C 
HETATM    4  C4  UNL     1      10.409   2.085  22.647  1.00  0.00     0.007 C 
HETATM    5  C5  UNL     1       9.764   3.302  23.183  1.00  0.00     0.009 C 
HETATM    6  C12 UNL     1      10.759   4.409  23.507  1.00  0.00     0.007 C 
HETATM    7  C13 UNL     1      11.609   4.818  22.355  1.00  0.00     0.000 C 
ENDROOT
BRANCH   5   8
HETATM    8  C6  UNL     1       8.679   3.894  22.377  1.00  0.00     0.172 C 
BRANCH   8   9
HETATM    9  O1  UNL     1       7.396   3.889  22.774  1.00  0.00    -0.391 OA
BRANCH   9  10
HETATM   10  C7  UNL     1       7.114   4.108  24.064  1.00  0.00     0.168 C 
BRANCH  10  11
HETATM   11  C8  UNL     1       6.659   5.564  24.311  1.00  0.00     0.031 C 
BRANCH  11  12
HETATM   12  C9  UNL     1       7.763   6.408  24.843  1.00  0.00    -0.013 A 
HETATM   13  C10 UNL     1       7.686   7.082  26.153  1.00  0.00     0.005 A 
HETATM   14  C11 UNL     1       7.457   7.901  24.901  1.00  0.00     0.005 A 
ENDBRANCH  11  12
ENDBRANCH  10  11
ENDBRANCH   9  10
ENDBRANCH   8   9
ENDBRANCH   5   8
TORSDOF 5
ENDMDL
MODEL 3
REMARK VINA RESULT: -7.037831997      1.322      5.738
REMARK  5 active torsions:
REMARK  status: ('A' for Active; 'I' for Inactive)
REMARK    1  A    between atoms: C5_5  and  C6_6 
REMARK    2  A    between atoms: C6_6  and  O1_7 
REMARK    3  A    between atoms: O1_7  and  C7_8 
REMARK    4  A    between atoms: C7_8  and  C8_9 
REMARK    5  A    between atoms: C8_9  and  C9_10 
ROOT
HETATM    1  C1  UNL     1       6.945   8.036  26.225  1.00  0.00     0.000 C 
HETATM    2  C2  UNL     1       5.544   7.548  25.829  1.00  0.00     0.000 C 
HETATM    3  C3  UNL     1       5.585   7.290  24.362  1.00  0.00     0.000 C 
HETATM    4  C4  UNL     1       5.880   5.823  24.033  1.00  0.00     0.007 C 
HETATM    5  C5  UNL     1       7.325   5.523  23.971  1.00  0.00     0.009 C 
HETATM    6  C12 UNL     1       8.180   6.569  24.674  1.00  0.00     0.007 C 
HETATM    7  C13 UNL     1       7.824   6.783  26.105  1.00  0.00     0.000 C 
ENDROOT
BRANCH   5   8
HETATM    8  C6  UNL     1       7.754   4.195  24.450  1.00  0.00     0.172 C 
BRANCH   8   9
HETATM    9  O1  UNL     1       8.825   3.556  23.951  1.00  0.00    -0.391 OA
BRANCH   9  10
HETATM   10  C7  UNL     1       9.238   3.852  22.712  1.00  0.00     0.168 C 
BRANCH  10  11
HETATM   11  C8  UNL     1      10.768   4.059  22.653  1.00  0.00     0.031 C 
BRANCH  11  12
HETATM   12  C9  UNL     1      11.128   5.498  22.531  1.00  0.00    -0.013 A 
HETATM   13  C10 UNL     1      11.653   6.082  21.283  1.00  0.00     0.005 A 
HETATM   14  C11 UNL     1      12.622   5.776  22.403  1.00  0.00     0.005 A 
ENDBRANCH  11  12
ENDBRANCH  10  11
ENDBRANCH   9  10
ENDBRANCH   8   9
ENDBRANCH   5   8
TORSDOF 5
ENDMDL
MODEL 4
REMARK VINA RESULT: -6.992875822      1.376      5.527
REMARK  5 active torsions:
REMARK  status: ('A' for Active; 'I' for Inactive)
REMARK    1  A    between atoms: C5_5  and  C6_6 
REMARK    2  A    between atoms: C6_6  and  O1_7 
REMARK    3  A    between atoms: O1_7  and  C7_8 
REMARK    4  A    between atoms: C7_8  and  C8_9 
REMARK    5  A    between atoms: C8_9  and  C9_10 
ROOT
HETATM    1  C1  UNL     1       5.352   6.950  24.382  1.00  0.00     0.000 C 
HETATM    2  C2  UNL     1       6.691   7.701  24.340  1.00  0.00     0.000 C 
HETATM    3  C3  UNL     1       7.637   6.926  25.191  1.00  0.00     0.000 C 
HETATM    4  C4  UNL     1       8.485   5.943  24.378  1.00  0.00     0.007 C 
HETATM    5  C5  UNL     1       7.827   4.633  24.184  1.00  0.00     0.009 C 
HETATM    6  C12 UNL     1       6.323   4.684  24.415  1.00  0.00     0.007 C 
HETATM    7  C13 UNL     1       5.611   5.677  23.564  1.00  0.00     0.000 C 
ENDROOT
BRANCH   5   8
HETATM    8  C6  UNL     1       8.062   3.950  22.898  1.00  0.00     0.172 C 
BRANCH   8   9
HETATM    9  O1  UNL     1       9.248   3.981  22.267  1.00  0.00    -0.391 OA
BRANCH   9  10
HETATM   10  C7  UNL     1      10.292   3.348  22.815  1.00  0.00     0.168 C 
BRANCH  10  11
HETATM   11  C8  UNL     1      11.625   4.063  22.501  1.00  0.00     0.031 C 
BRANCH  11  12
HETATM   12  C9  UNL     1      11.448   5.534  22.369  1.00  0.00    -0.013 A 
HETATM   13  C10 UNL     1      11.783   6.266  21.133  1.00  0.00     0.005 A 
HETATM   14  C11 UNL     1      12.746   6.332  22.298  1.00  0.00     0.005 A 
ENDBRANCH  11  12
ENDBRANCH  10  11
ENDBRANCH   9  10
ENDBRANCH   8   9
ENDBRANCH   5   8
TORSDOF 5
ENDMDL
MODEL 5
REMARK VINA RESULT: -6.941551396      3.228      5.246
REMARK  5 active torsions:
REMARK  status: ('A' for Active; 'I' for Inactive)
REMARK    1  A    between atoms: C5_5  and  C6_6 
REMARK    2  A    between atoms: C6_6  and  O1_7 
REMARK    3  A    between atoms: O1_7  and  C7_8 
REMARK    4  A    between atoms: C7_8  and  C8_9 
REMARK    5  A    between atoms: C8_9  and  C9_10 
ROOT
HETATM    1  C1  UNL     1       6.753   4.376  23.400  1.00  0.00     0.000 C 
HETATM    2  C2  UNL     1       7.714   4.189  24.583  1.00  0.00     0.000 C 
HETATM    3  C3  UNL     1       8.454   5.474  24.734  1.00  0.00     0.000 C 
HETATM    4  C4  UNL     1       7.810   6.401  25.769  1.00  0.00     0.007 C 
HETATM    5  C5  UNL     1       6.749   7.257  25.199  1.00  0.00     0.009 C 
HETATM    6  C12 UNL     1       6.213   6.736  23.872  1.00  0.00     0.007 C 
HETATM    7  C13 UNL     1       5.687   5.344  23.934  1.00  0.00     0.000 C 
ENDROOT
BRANCH   5   8
HETATM    8  C6  UNL     1       5.592   7.555  26.065  1.00  0.00     0.172 C 
BRANCH   8   9
HETATM    9  O1  UNL     1       5.509   7.127  27.336  1.00  0.00    -0.391 OA
BRANCH   9  10
HETATM   10  C7  UNL     1       5.185   8.002  28.295  1.00  0.00     0.168 C 
BRANCH  10  11
HETATM   11  C8  UNL     1       5.884   9.364  28.088  1.00  0.00     0.031 C 
BRANCH  11  12
HETATM   12  C9  UNL     1       4.912  10.491  28.081  1.00  0.00    -0.013 A 
HETATM   13  C10 UNL     1       3.454  10.282  28.146  1.00  0.00     0.005 A 
HETATM   14  C11 UNL     1       4.080  10.611  26.808  1.00  0.00     0.005 A 
ENDBRANCH  11  12
ENDBRANCH  10  11
ENDBRANCH   9  10
ENDBRANCH   8   9
ENDBRANCH   5   8
TORSDOF 5
ENDMDL
