MODEL 1
REMARK VINA RESULT: -8.663901554      0.000      0.000
REMARK  5 active torsions:
REMARK  status: ('A' for Active; 'I' for Inactive)
REMARK    1  A    between atoms: C4_4  and  C5_5 
REMARK    2  A    between atoms: C5_5  and  C6_6 
REMARK    3  A    between atoms: C6_6  and  C7_7 
REMARK    4  A    between atoms: C7_7  and  C8_8 
REMARK    5  A    between atoms: C8_8  and  C9_9 
ROOT
HETATM    1  C6  UNL     1       7.954   4.120  23.066  1.00  0.00     0.005 C 
ENDROOT
BRANCH   1   2
HETATM    2  C5  UNL     1       9.248   4.582  23.612  1.00  0.00     0.038 C 
BRANCH   2   3
HETATM    3  C4  UNL     1      10.438   3.866  23.175  1.00  0.00    -0.058 A 
HETATM    4  C3  UNL     1      11.542   4.615  22.818  1.00  0.00     0.007 A 
HETATM    5  C2  UNL     1      12.720   4.036  22.390  1.00  0.00     0.001 A 
HETATM    6  C1  UNL     1      12.840   2.663  22.303  1.00  0.00     0.000 A 
HETATM    7  C14 UNL     1      11.732   1.922  22.663  1.00  0.00     0.001 A 
HETATM    8  C13 UNL     1      10.554   2.497  23.091  1.00  0.00     0.007 A 
ENDBRANCH   2   3
ENDBRANCH   1   2
BRANCH   1   9
HETATM    9  C7  UNL     1       6.892   4.308  24.138  1.00  0.00     0.007 C 
BRANCH   9  10
HETATM   10  C8  UNL     1       6.038   5.524  23.856  1.00  0.00     0.065 C 
BRANCH  10  11
HETATM   11  C9  UNL     1       6.343   6.519  24.932  1.00  0.00     0.052 A 
HETATM   12  C10 UNL     1       7.496   7.286  24.960  1.00  0.00     0.034 A 
HETATM   13  C11 UNL     1       7.412   8.066  26.088  1.00  0.00     0.027 A 
HETATM   14  C12 UNL     1       6.232   7.757  26.704  1.00  0.00     0.142 A 
HETATM   15  O1  UNL     1       5.638   6.838  25.981  1.00  0.00    -0.327 OA
ENDBRANCH  10  11
ENDBRANCH   9  10
ENDBRANCH   1   9
TORSDOF 5
ENDMDL
MODEL 2
REMARK VINA RESULT: -8.606155040      0.143      1.219
REMARK  5 active torsions:
REMARK  status: ('A' for Active; 'I' for Inactive)
REMARK    1  A    between atoms: C4_4  and  C5_5 
REMARK    2  A    between atoms: C5_5  and  C6_6 
REMARK    3  A    between atoms: C6_6  and  C7_7 
REMARK    4  A    between atoms: C7_7  and  C8_8 
REMARK    5  A    between atoms: C8_8  and  C9_9 
ROOT
HETATM    1  C6  UNL     1       7.989   4.124  23.116  1.00  0.00     0.005 C 
ENDROOT
BRANCH   1   2
HETATM    2  C5  UNL     1       9.284   4.664  23.585  1.00  0.00     0.038 C 
BRANCH   2   3
HETATM    3  C4  UNL     1      10.484   3.968  23.144  1.00  0.00    -0.058 A 
HETATM    4  C3  UNL     1      10.454   2.588  23.125  1.00  0.00     0.007 A 
HETATM    5  C2  UNL     1      11.537   1.831  22.724  1.00  0.00     0.001 A 
HETATM    6  C1  UNL     1      12.710   2.438  22.318  1.00  0.00     0.000 A 
HETATM    7  C14 UNL     1      12.731   3.818  22.340  1.00  0.00     0.001 A 
HETATM    8  C13 UNL     1      11.651   4.576  22.740  1.00  0.00     0.007 A 
ENDBRANCH   2   3
ENDBRANCH   1   2
BRANCH   1   9
HETATM    9  C7  UNL     1       6.954   4.361  24.204  1.00  0.00     0.007 C 
BRANCH   9  10
HETATM   10  C8  UNL     1       6.078   5.549  23.877  1.00  0.00     0.065 C 
BRANCH  10  11
HETATM   11  C9  UNL     1       6.316   6.564  24.951  1.00  0.00     0.052 A 
HETATM   12  C10 UNL     1       7.447   7.363  25.011  1.00  0.00     0.034 A 
HETATM   13  C11 UNL     1       7.301   8.154  26.125  1.00  0.00     0.027 A 
HETATM   14  C12 UNL     1       6.108   7.820  26.701  1.00  0.00     0.142 A 
HETATM   15  O1  UNL     1       5.565   6.876  25.970  1.00  0.00    -0.327 OA
ENDBRANCH  10  11
ENDBRANCH   9  10
ENDBRANCH   1   9
TORSDOF 5
ENDMDL
MODEL 3
REMARK VINA RESULT: -8.481846095      0.961      1.765
REMARK  5 active torsions:
REMARK  status: ('A' for Active; 'I' for Inactive)
REMARK    1  A    between atoms: C4_4  and  C5_5 
REMARK    2  A    between atoms: C5_5  and  C6_6 
REMARK    3  A    between atoms: C6_6  and  C7_7 
REMARK    4  A    between atoms: C7_7  and  C8_8 
REMARK    5  A    between atoms: C8_8  and  C9_9 
ROOT
HETATM    1  C6  UNL     1       8.738   4.582  24.780  1.00  0.00     0.005 C 
ENDROOT
BRANCH   1   2
HETATM    2  C5  UNL     1       8.925   3.942  23.459  1.00  0.00     0.038 C 
BRANCH   2   3
HETATM    3  C4  UNL     1      10.294   3.639  23.064  1.00  0.00    -0.058 A 
HETATM    4  C3  UNL     1      10.670   2.312  23.023  1.00  0.00     0.007 A 
HETATM    5  C2  UNL     1      11.943   1.916  22.662  1.00  0.00     0.001 A 
HETATM    6  C1  UNL     1      12.902   2.850  22.322  1.00  0.00     0.000 A 
HETATM    7  C14 UNL     1      12.517   4.175  22.366  1.00  0.00     0.001 A 
HETATM    8  C13 UNL     1      11.247   4.573  22.726  1.00  0.00     0.007 A 
ENDBRANCH   2   3
ENDBRANCH   1   2
BRANCH   1   9
HETATM    9  C7  UNL     1       8.177   5.977  24.556  1.00  0.00     0.007 C 
BRANCH   9  10
HETATM   10  C8  UNL     1       6.691   5.932  24.279  1.00  0.00     0.065 C 
BRANCH  10  11
HETATM   11  C9  UNL     1       6.050   6.894  25.230  1.00  0.00     0.052 A 
HETATM   12  C10 UNL     1       5.109   7.836  24.846  1.00  0.00     0.034 A 
HETATM   13  C11 UNL     1       4.764   8.521  25.986  1.00  0.00     0.027 A 
HETATM   14  C12 UNL     1       5.490   7.986  27.012  1.00  0.00     0.142 A 
HETATM   15  O1  UNL     1       6.234   7.029  26.513  1.00  0.00    -0.327 OA
ENDBRANCH  10  11
ENDBRANCH   9  10
ENDBRANCH   1   9
TORSDOF 5
ENDMDL
MODEL 4
REMARK VINA RESULT: -8.413230501      0.851      1.100
REMARK  5 active torsions:
REMARK  status: ('A' for Active; 'I' for Inactive)
REMARK    1  A    between atoms: C4_4  and  C5_5 
REMARK    2  A    between atoms: C5_5  and  C6_6 
REMARK    3  A    between atoms: C6_6  and  C7_7 
REMARK    4  A    between atoms: C7_7  and  C8_8 
REMARK    5  A    between atoms: C8_8  and  C9_9 
ROOT
HETATM    1  C6  UNL     1       8.769   4.634  24.701  1.00  0.00     0.005 C 
ENDROOT
BRANCH   1   2
HETATM    2  C5  UNL     1       8.950   4.061  23.350  1.00  0.00     0.038 C 
BRANCH   2   3
HETATM    3  C4  UNL     1      10.284   3.584  23.012  1.00  0.00    -0.058 A 
HETATM    4  C3  UNL     1      11.239   4.527  22.689  1.00  0.00     0.007 A 
HETATM    5  C2  UNL     1      12.533   4.183  22.354  1.00  0.00     0.001 A 
HETATM    6  C1  UNL     1      12.927   2.859  22.332  1.00  0.00     0.000 A 
HETATM    7  C14 UNL     1      11.966   1.923  22.656  1.00  0.00     0.001 A 
HETATM    8  C13 UNL     1      10.672   2.264  22.991  1.00  0.00     0.007 A 
ENDBRANCH   2   3
ENDBRANCH   1   2
BRANCH   1   9
HETATM    9  C7  UNL     1       8.341   6.085  24.549  1.00  0.00     0.007 C 
BRANCH   9  10
HETATM   10  C8  UNL     1       6.834   6.210  24.517  1.00  0.00     0.065 C 
BRANCH  10  11
HETATM   11  C9  UNL     1       6.456   7.109  25.653  1.00  0.00     0.052 A 
HETATM   12  C10 UNL     1       7.270   8.127  26.125  1.00  0.00     0.034 A 
HETATM   13  C11 UNL     1       6.585   8.718  27.159  1.00  0.00     0.027 A 
HETATM   14  C12 UNL     1       5.396   8.056  27.285  1.00  0.00     0.142 A 
HETATM   15  O1  UNL     1       5.369   7.115  26.373  1.00  0.00    -0.327 OA
ENDBRANCH  10  11
ENDBRANCH   9  10
ENDBRANCH   1   9
TORSDOF 5
ENDMDL
MODEL 5
REMARK VINA RESULT: -8.379826001      0.831      1.105
REMARK  5 active torsions:
REMARK  status: ('A' for Active; 'I' for Inactive)
REMARK    1  A    between atoms: C4_4  and  C5_5 
REMARK    2  A    between atoms: C5_5  and  C6_6 
REMARK    3  A    between atoms: C6_6  and  C7_7 
REMARK    4  A    between atoms: C7_7  and  C8_8 
REMARK    5  A    between atoms: C8_8  and  C9_9 
ROOT
HETATM    1  C6  UNL     1       7.962   4.202  23.255  1.00  0.00     0.005 C 
ENDROOT
BRANCH   1   2
HETATM    2  C5  UNL     1       9.310   4.724  23.564  1.00  0.00     0.038 C 
BRANCH   2   3
HETATM    3  C4  UNL     1      10.442   3.910  23.142  1.00  0.00    -0.058 A 
HETATM    4  C3  UNL     1      11.576   4.567  22.705  1.00  0.00     0.007 A 
HETATM    5  C2  UNL     1      12.704   3.891  22.284  1.00  0.00     0.001 A 
HETATM    6  C1  UNL     1      12.740   2.510  22.286  1.00  0.00     0.000 A 
HETATM    7  C14 UNL     1      11.603   1.862  22.724  1.00  0.00     0.001 A 
HETATM    8  C13 UNL     1      10.475   2.534  23.146  1.00  0.00     0.007 A 
ENDBRANCH   2   3
ENDBRANCH   1   2
BRANCH   1   9
HETATM    9  C7  UNL     1       6.947   5.008  24.050  1.00  0.00     0.007 C 
BRANCH   9  10
HETATM   10  C8  UNL     1       7.626   6.066  24.890  1.00  0.00     0.065 C 
BRANCH  10  11
HETATM   11  C9  UNL     1       6.539   6.937  25.439  1.00  0.00     0.052 A 
HETATM   12  C10 UNL     1       5.589   7.564  24.648  1.00  0.00     0.034 A 
HETATM   13  C11 UNL     1       4.776   8.264  25.507  1.00  0.00     0.027 A 
HETATM   14  C12 UNL     1       5.245   8.048  26.772  1.00  0.00     0.142 A 
HETATM   15  O1  UNL     1       6.288   7.257  26.678  1.00  0.00    -0.327 OA
ENDBRANCH  10  11
ENDBRANCH   9  10
ENDBRANCH   1   9
TORSDOF 5
ENDMDL
