MODEL 1
REMARK VINA RESULT: -7.408455793      0.000      0.000
REMARK  5 active torsions:
REMARK  status: ('A' for Active; 'I' for Inactive)
REMARK    1  A    between atoms: N1_4  and  C4_5 
REMARK    2  A    between atoms: C4_5  and  C5_6 
REMARK    3  A    between atoms: C5_6  and  C6_7 
REMARK    4  A    between atoms: C6_7  and  C7_8 
REMARK    5  A    between atoms: C7_8  and  C8_9 
ROOT
HETATM    1  C5  UNL     1       7.580   4.088  24.022  1.00  0.00     0.020 C 
ENDROOT
BRANCH   1   2
HETATM    2  C4  UNL     1       6.429   4.996  23.696  1.00  0.00     0.128 C 
BRANCH   2   3
HETATM    3  N1  UNL     1       6.482   6.207  24.530  1.00  0.00    -0.366 N 
HETATM    4  C3  UNL     1       7.467   6.552  25.386  1.00  0.00     0.090 A 
HETATM    5  C2  UNL     1       7.192   7.745  26.001  1.00  0.00     0.019 A 
HETATM    6  C1  UNL     1       5.974   8.158  25.498  1.00  0.00     0.019 A 
HETATM    7  C13 UNL     1       5.577   7.185  24.602  1.00  0.00     0.090 A 
ENDBRANCH   2   3
ENDBRANCH   1   2
BRANCH   1   8
HETATM    8  C6  UNL     1       8.578   4.000  22.902  1.00  0.00     0.002 C 
BRANCH   8   9
HETATM    9  C7  UNL     1       9.829   4.770  23.257  1.00  0.00     0.005 C 
BRANCH   9  10
HETATM   10  C8  UNL     1      10.934   3.756  23.446  1.00  0.00    -0.014 C 
HETATM   11  C9  UNL     1      12.173   4.184  22.716  1.00  0.00     0.004 C 
HETATM   12  C10 UNL     1      12.726   2.955  22.011  1.00  0.00     0.000 C 
HETATM   13  C11 UNL     1      12.022   1.827  22.732  1.00  0.00     0.000 C 
HETATM   14  C12 UNL     1      10.603   2.408  22.831  1.00  0.00     0.004 C 
ENDBRANCH   9  10
ENDBRANCH   8   9
ENDBRANCH   1   8
TORSDOF 5
ENDMDL
MODEL 2
REMARK VINA RESULT: -7.312999310      0.462      1.159
REMARK  5 active torsions:
REMARK  status: ('A' for Active; 'I' for Inactive)
REMARK    1  A    between atoms: N1_4  and  C4_5 
REMARK    2  A    between atoms: C4_5  and  C5_6 
REMARK    3  A    between atoms: C5_6  and  C6_7 
REMARK    4  A    between atoms: C6_7  and  C7_8 
REMARK    5  A    between atoms: C7_8  and  C8_9 
ROOT
HETATM    1  C5  UNL     1       7.364   4.296  24.284  1.00  0.00     0.020 C 
ENDROOT
BRANCH   1   2
HETATM    2  C4  UNL     1       6.316   5.335  24.009  1.00  0.00     0.128 C 
BRANCH   2   3
HETATM    3  N1  UNL     1       6.489   6.487  24.909  1.00  0.00    -0.366 N 
HETATM    4  C3  UNL     1       7.617   6.831  25.567  1.00  0.00     0.090 A 
HETATM    5  C2  UNL     1       7.425   7.958  26.320  1.00  0.00     0.019 A 
HETATM    6  C1  UNL     1       6.111   8.331  26.115  1.00  0.00     0.019 A 
HETATM    7  C13 UNL     1       5.577   7.401  25.245  1.00  0.00     0.090 A 
ENDBRANCH   2   3
ENDBRANCH   1   2
BRANCH   1   8
HETATM    8  C6  UNL     1       8.311   4.114  23.131  1.00  0.00     0.002 C 
BRANCH   8   9
HETATM    9  C7  UNL     1       9.711   4.506  23.542  1.00  0.00     0.005 C 
BRANCH   9  10
HETATM   10  C8  UNL     1      10.661   3.806  22.597  1.00  0.00    -0.014 C 
HETATM   11  C9  UNL     1      10.634   2.323  22.825  1.00  0.00     0.004 C 
HETATM   12  C10 UNL     1      12.076   1.840  22.809  1.00  0.00     0.000 C 
HETATM   13  C11 UNL     1      12.794   2.995  22.143  1.00  0.00     0.000 C 
HETATM   14  C12 UNL     1      12.111   4.181  22.842  1.00  0.00     0.004 C 
ENDBRANCH   9  10
ENDBRANCH   8   9
ENDBRANCH   1   8
TORSDOF 5
ENDMDL
MODEL 3
REMARK VINA RESULT: -7.263813245      1.571      6.477
REMARK  5 active torsions:
REMARK  status: ('A' for Active; 'I' for Inactive)
REMARK    1  A    between atoms: N1_4  and  C4_5 
REMARK    2  A    between atoms: C4_5  and  C5_6 
REMARK    3  A    between atoms: C5_6  and  C6_7 
REMARK    4  A    between atoms: C6_7  and  C7_8 
REMARK    5  A    between atoms: C7_8  and  C8_9 
ROOT
HETATM    1  C5  UNL     1       8.500   4.079  23.062  1.00  0.00     0.020 C 
ENDROOT
BRANCH   1   2
HETATM    2  C4  UNL     1       9.851   4.725  23.162  1.00  0.00     0.128 C 
BRANCH   2   3
HETATM    3  N1  UNL     1      10.910   3.741  22.887  1.00  0.00    -0.366 N 
HETATM    4  C3  UNL     1      12.177   4.008  22.504  1.00  0.00     0.090 A 
HETATM    5  C2  UNL     1      12.895   2.854  22.334  1.00  0.00     0.019 A 
HETATM    6  C1  UNL     1      12.028   1.822  22.628  1.00  0.00     0.019 A 
HETATM    7  C13 UNL     1      10.824   2.411  22.960  1.00  0.00     0.090 A 
ENDBRANCH   2   3
ENDBRANCH   1   2
BRANCH   1   8
HETATM    8  C6  UNL     1       7.572   4.512  24.161  1.00  0.00     0.002 C 
BRANCH   8   9
HETATM    9  C7  UNL     1       8.223   5.588  24.998  1.00  0.00     0.005 C 
BRANCH   9  10
HETATM   10  C8  UNL     1       7.375   6.832  24.859  1.00  0.00    -0.014 C 
HETATM   11  C9  UNL     1       7.294   7.564  26.167  1.00  0.00     0.004 C 
HETATM   12  C10 UNL     1       5.844   7.983  26.357  1.00  0.00     0.000 C 
HETATM   13  C11 UNL     1       5.285   7.848  24.956  1.00  0.00     0.000 C 
HETATM   14  C12 UNL     1       5.927   6.518  24.532  1.00  0.00     0.004 C 
ENDBRANCH   9  10
ENDBRANCH   8   9
ENDBRANCH   1   8
TORSDOF 5
ENDMDL
MODEL 4
REMARK VINA RESULT: -7.255389581      0.930      1.803
REMARK  5 active torsions:
REMARK  status: ('A' for Active; 'I' for Inactive)
REMARK    1  A    between atoms: N1_4  and  C4_5 
REMARK    2  A    between atoms: C4_5  and  C5_6 
REMARK    3  A    between atoms: C5_6  and  C6_7 
REMARK    4  A    between atoms: C6_7  and  C7_8 
REMARK    5  A    between atoms: C7_8  and  C8_9 
ROOT
HETATM    1  C5  UNL     1       8.289   4.499  25.076  1.00  0.00     0.020 C 
ENDROOT
BRANCH   1   2
HETATM    2  C4  UNL     1       8.236   5.802  25.819  1.00  0.00     0.128 C 
BRANCH   2   3
HETATM    3  N1  UNL     1       7.044   6.569  25.422  1.00  0.00    -0.366 N 
HETATM    4  C3  UNL     1       6.315   6.398  24.298  1.00  0.00     0.090 A 
HETATM    5  C2  UNL     1       5.273   7.285  24.246  1.00  0.00     0.019 A 
HETATM    6  C1  UNL     1       5.362   8.043  25.396  1.00  0.00     0.019 A 
HETATM    7  C13 UNL     1       6.462   7.570  26.085  1.00  0.00     0.090 A 
ENDBRANCH   2   3
ENDBRANCH   1   2
BRANCH   1   8
HETATM    8  C6  UNL     1       9.675   4.161  24.604  1.00  0.00     0.002 C 
BRANCH   8   9
HETATM    9  C7  UNL     1       9.988   4.911  23.330  1.00  0.00     0.005 C 
BRANCH   9  10
HETATM   10  C8  UNL     1      10.809   3.984  22.463  1.00  0.00    -0.014 C 
HETATM   11  C9  UNL     1      10.547   2.551  22.825  1.00  0.00     0.004 C 
HETATM   12  C10 UNL     1      11.893   1.845  22.866  1.00  0.00     0.000 C 
HETATM   13  C11 UNL     1      12.783   2.804  22.105  1.00  0.00     0.000 C 
HETATM   14  C12 UNL     1      12.302   4.143  22.686  1.00  0.00     0.004 C 
ENDBRANCH   9  10
ENDBRANCH   8   9
ENDBRANCH   1   8
TORSDOF 5
ENDMDL
MODEL 5
REMARK VINA RESULT: -7.090502986      1.623      6.316
REMARK  5 active torsions:
REMARK  status: ('A' for Active; 'I' for Inactive)
REMARK    1  A    between atoms: N1_4  and  C4_5 
REMARK    2  A    between atoms: C4_5  and  C5_6 
REMARK    3  A    between atoms: C5_6  and  C6_7 
REMARK    4  A    between atoms: C6_7  and  C7_8 
REMARK    5  A    between atoms: C7_8  and  C8_9 
ROOT
HETATM    1  C5  UNL     1       8.535   3.986  22.802  1.00  0.00     0.020 C 
ENDROOT
BRANCH   1   2
HETATM    2  C4  UNL     1       9.853   4.702  22.876  1.00  0.00     0.128 C 
BRANCH   2   3
HETATM    3  N1  UNL     1      10.962   3.749  22.713  1.00  0.00    -0.366 N 
HETATM    4  C3  UNL     1      10.914   2.415  22.919  1.00  0.00     0.090 A 
HETATM    5  C2  UNL     1      12.129   1.833  22.675  1.00  0.00     0.019 A 
HETATM    6  C1  UNL     1      12.972   2.860  22.298  1.00  0.00     0.019 A 
HETATM    7  C13 UNL     1      12.214   4.014  22.336  1.00  0.00     0.090 A 
ENDBRANCH   2   3
ENDBRANCH   1   2
BRANCH   1   8
HETATM    8  C6  UNL     1       7.743   4.107  24.073  1.00  0.00     0.002 C 
BRANCH   8   9
HETATM    9  C7  UNL     1       8.397   5.101  25.003  1.00  0.00     0.005 C 
BRANCH   9  10
HETATM   10  C8  UNL     1       7.359   6.149  25.332  1.00  0.00    -0.014 C 
HETATM   11  C9  UNL     1       6.058   5.834  24.653  1.00  0.00     0.004 C 
HETATM   12  C10 UNL     1       5.527   7.136  24.072  1.00  0.00     0.000 C 
HETATM   13  C11 UNL     1       6.330   8.174  24.826  1.00  0.00     0.000 C 
HETATM   14  C12 UNL     1       7.721   7.521  24.794  1.00  0.00     0.004 C 
ENDBRANCH   9  10
ENDBRANCH   8   9
ENDBRANCH   1   8
TORSDOF 5
ENDMDL
