MODEL 1
REMARK VINA RESULT: -7.365261961      0.000      0.000
REMARK  5 active torsions:
REMARK  status: ('A' for Active; 'I' for Inactive)
REMARK    1  A    between atoms: C3_3  and  C4_4 
REMARK    2  A    between atoms: C4_4  and  C5_5 
REMARK    3  A    between atoms: C5_5  and  S1_6 
REMARK    4  A    between atoms: S1_6  and  C6_7 
REMARK    5  A    between atoms: C6_7  and  C7_8 
ROOT
HETATM    1  C1  UNL     1       4.881   8.460  26.221  1.00  0.00     0.012 C 
HETATM    2  C2  UNL     1       5.242   7.891  25.217  1.00  0.00    -0.117 C 
HETATM    3  C3  UNL     1       5.672   7.202  24.001  1.00  0.00     0.093 C 
ENDROOT
BRANCH   3   4
HETATM    4  C4  UNL     1       6.324   5.872  24.389  1.00  0.00     0.022 C 
BRANCH   4   5
HETATM    5  C5  UNL     1       7.742   6.186  24.816  1.00  0.00     0.075 C 
BRANCH   5   6
HETATM    6  S1  UNL     1       8.726   4.673  25.001  1.00  0.00    -0.164 SA
BRANCH   6   7
HETATM    7  C6  UNL     1       8.835   3.898  23.371  1.00  0.00     0.112 C 
BRANCH   7   8
HETATM    8  C7  UNL     1      10.228   3.546  23.013  1.00  0.00    -0.049 A 
HETATM    9  C8  UNL     1      11.111   4.553  22.680  1.00  0.00     0.008 A 
HETATM   10  C9  UNL     1      12.424   4.301  22.336  1.00  0.00     0.001 A 
HETATM   11  C10 UNL     1      12.899   3.000  22.315  1.00  0.00     0.000 A 
HETATM   12  C11 UNL     1      12.008   2.002  22.650  1.00  0.00     0.001 A 
HETATM   13  C12 UNL     1      10.696   2.253  22.993  1.00  0.00     0.008 A 
ENDBRANCH   7   8
ENDBRANCH   6   7
ENDBRANCH   5   6
ENDBRANCH   4   5
ENDBRANCH   3   4
TORSDOF 5
ENDMDL
MODEL 2
REMARK VINA RESULT: -7.351948765      0.042      1.308
REMARK  5 active torsions:
REMARK  status: ('A' for Active; 'I' for Inactive)
REMARK    1  A    between atoms: C3_3  and  C4_4 
REMARK    2  A    between atoms: C4_4  and  C5_5 
REMARK    3  A    between atoms: C5_5  and  S1_6 
REMARK    4  A    between atoms: S1_6  and  C6_7 
REMARK    5  A    between atoms: C6_7  and  C7_8 
ROOT
HETATM    1  C1  UNL     1       4.886   8.466  26.198  1.00  0.00     0.012 C 
HETATM    2  C2  UNL     1       5.238   7.887  25.196  1.00  0.00    -0.117 C 
HETATM    3  C3  UNL     1       5.657   7.187  23.983  1.00  0.00     0.093 C 
ENDROOT
BRANCH   3   4
HETATM    4  C4  UNL     1       6.313   5.861  24.378  1.00  0.00     0.022 C 
BRANCH   4   5
HETATM    5  C5  UNL     1       7.723   6.186  24.827  1.00  0.00     0.075 C 
BRANCH   5   6
HETATM    6  S1  UNL     1       8.717   4.681  25.018  1.00  0.00    -0.164 SA
BRANCH   6   7
HETATM    7  C6  UNL     1       8.841   3.906  23.389  1.00  0.00     0.112 C 
BRANCH   7   8
HETATM    8  C7  UNL     1      10.245   3.630  23.007  1.00  0.00    -0.049 A 
HETATM    9  C8  UNL     1      10.693   2.325  22.992  1.00  0.00     0.008 A 
HETATM   10  C9  UNL     1      11.987   1.991  22.647  1.00  0.00     0.001 A 
HETATM   11  C10 UNL     1      12.891   2.981  22.301  1.00  0.00     0.000 A 
HETATM   12  C11 UNL     1      12.433   4.281  22.319  1.00  0.00     0.001 A 
HETATM   13  C12 UNL     1      11.140   4.616  22.664  1.00  0.00     0.008 A 
ENDBRANCH   7   8
ENDBRANCH   6   7
ENDBRANCH   5   6
ENDBRANCH   4   5
ENDBRANCH   3   4
TORSDOF 5
ENDMDL
MODEL 3
REMARK VINA RESULT: -7.235863942      0.995      1.831
REMARK  5 active torsions:
REMARK  status: ('A' for Active; 'I' for Inactive)
REMARK    1  A    between atoms: C3_3  and  C4_4 
REMARK    2  A    between atoms: C4_4  and  C5_5 
REMARK    3  A    between atoms: C5_5  and  S1_6 
REMARK    4  A    between atoms: S1_6  and  C6_7 
REMARK    5  A    between atoms: C6_7  and  C7_8 
ROOT
HETATM    1  C1  UNL     1       5.614   8.706  27.391  1.00  0.00     0.012 C 
HETATM    2  C2  UNL     1       6.616   8.341  26.821  1.00  0.00    -0.117 C 
HETATM    3  C3  UNL     1       7.828   7.905  26.131  1.00  0.00     0.093 C 
ENDROOT
BRANCH   3   4
HETATM    4  C4  UNL     1       7.474   7.540  24.687  1.00  0.00     0.022 C 
BRANCH   4   5
HETATM    5  C5  UNL     1       7.117   6.068  24.682  1.00  0.00     0.075 C 
BRANCH   5   6
HETATM    6  S1  UNL     1       8.600   5.030  24.795  1.00  0.00    -0.164 SA
BRANCH   6   7
HETATM    7  C6  UNL     1       8.745   4.124  23.237  1.00  0.00     0.112 C 
BRANCH   7   8
HETATM    8  C7  UNL     1      10.149   3.772  22.925  1.00  0.00    -0.049 A 
HETATM    9  C8  UNL     1      10.537   2.449  22.978  1.00  0.00     0.008 A 
HETATM   10  C9  UNL     1      11.827   2.045  22.699  1.00  0.00     0.001 A 
HETATM   11  C10 UNL     1      12.788   2.980  22.352  1.00  0.00     0.000 A 
HETATM   12  C11 UNL     1      12.388   4.299  22.302  1.00  0.00     0.001 A 
HETATM   13  C12 UNL     1      11.100   4.703  22.580  1.00  0.00     0.008 A 
ENDBRANCH   7   8
ENDBRANCH   6   7
ENDBRANCH   5   6
ENDBRANCH   4   5
ENDBRANCH   3   4
TORSDOF 5
ENDMDL
MODEL 4
REMARK VINA RESULT: -7.218188338      1.037      2.088
REMARK  5 active torsions:
REMARK  status: ('A' for Active; 'I' for Inactive)
REMARK    1  A    between atoms: C3_3  and  C4_4 
REMARK    2  A    between atoms: C4_4  and  C5_5 
REMARK    3  A    between atoms: C5_5  and  S1_6 
REMARK    4  A    between atoms: S1_6  and  C6_7 
REMARK    5  A    between atoms: C6_7  and  C7_8 
ROOT
HETATM    1  C1  UNL     1       5.490   4.968  23.338  1.00  0.00     0.012 C 
HETATM    2  C2  UNL     1       5.844   5.966  23.922  1.00  0.00    -0.117 C 
HETATM    3  C3  UNL     1       6.271   7.176  24.622  1.00  0.00     0.093 C 
ENDROOT
BRANCH   3   4
HETATM    4  C4  UNL     1       7.788   7.123  24.824  1.00  0.00     0.022 C 
BRANCH   4   5
HETATM    5  C5  UNL     1       8.047   6.131  25.939  1.00  0.00     0.075 C 
BRANCH   5   6
HETATM    6  S1  UNL     1       8.833   4.623  25.310  1.00  0.00    -0.164 SA
BRANCH   6   7
HETATM    7  C6  UNL     1       9.310   4.938  23.595  1.00  0.00     0.112 C 
BRANCH   7   8
HETATM    8  C7  UNL     1      10.453   4.098  23.170  1.00  0.00    -0.049 A 
HETATM    9  C8  UNL     1      10.336   2.724  23.231  1.00  0.00     0.008 A 
HETATM   10  C9  UNL     1      11.358   1.878  22.852  1.00  0.00     0.001 A 
HETATM   11  C10 UNL     1      12.555   2.397  22.390  1.00  0.00     0.000 A 
HETATM   12  C11 UNL     1      12.661   3.771  22.332  1.00  0.00     0.001 A 
HETATM   13  C12 UNL     1      11.640   4.618  22.711  1.00  0.00     0.008 A 
ENDBRANCH   7   8
ENDBRANCH   6   7
ENDBRANCH   5   6
ENDBRANCH   4   5
ENDBRANCH   3   4
TORSDOF 5
ENDMDL
MODEL 5
REMARK VINA RESULT: -7.201090610      1.233      1.379
REMARK  5 active torsions:
REMARK  status: ('A' for Active; 'I' for Inactive)
REMARK    1  A    between atoms: C3_3  and  C4_4 
REMARK    2  A    between atoms: C4_4  and  C5_5 
REMARK    3  A    between atoms: C5_5  and  S1_6 
REMARK    4  A    between atoms: S1_6  and  C6_7 
REMARK    5  A    between atoms: C6_7  and  C7_8 
ROOT
HETATM    1  C1  UNL     1       7.843   8.329  26.509  1.00  0.00     0.012 C 
HETATM    2  C2  UNL     1       7.344   7.894  25.497  1.00  0.00    -0.117 C 
HETATM    3  C3  UNL     1       6.738   7.372  24.274  1.00  0.00     0.093 C 
ENDROOT
BRANCH   3   4
HETATM    4  C4  UNL     1       5.996   6.074  24.603  1.00  0.00     0.022 C 
BRANCH   4   5
HETATM    5  C5  UNL     1       6.501   5.023  23.636  1.00  0.00     0.075 C 
BRANCH   5   6
HETATM    6  S1  UNL     1       7.981   4.194  24.278  1.00  0.00    -0.164 SA
BRANCH   6   7
HETATM    7  C6  UNL     1       9.417   5.002  23.533  1.00  0.00     0.112 C 
BRANCH   7   8
HETATM    8  C7  UNL     1      10.466   4.030  23.146  1.00  0.00    -0.049 A 
HETATM    9  C8  UNL     1      11.698   4.499  22.738  1.00  0.00     0.008 A 
HETATM   10  C9  UNL     1      12.723   3.655  22.363  1.00  0.00     0.001 A 
HETATM   11  C10 UNL     1      12.536   2.282  22.387  1.00  0.00     0.000 A 
HETATM   12  C11 UNL     1      11.301   1.826  22.797  1.00  0.00     0.001 A 
HETATM   13  C12 UNL     1      10.276   2.669  23.172  1.00  0.00     0.008 A 
ENDBRANCH   7   8
ENDBRANCH   6   7
ENDBRANCH   5   6
ENDBRANCH   4   5
ENDBRANCH   3   4
TORSDOF 5
ENDMDL
