MODEL 1
REMARK VINA RESULT: -6.242217736      0.000      0.000
REMARK  10 active torsions:
REMARK  status: ('A' for Active; 'I' for Inactive)
REMARK    1  A    between atoms: N1_1  and  S1_4 
REMARK    2  A    between atoms: S1_4  and  N2_6 
REMARK    3  A    between atoms: S1_4  and  O5_21 
REMARK    4  A    between atoms: N2_6  and  N3_8 
REMARK       I    between atoms: N3_8  and  C1_10 
REMARK    5  A    between atoms: C1_10  and  C2_12 
REMARK    6  A    between atoms: C3_13  and  O3_14 
REMARK    7  A    between atoms: O5_21  and  C5_22 
REMARK    8  A    between atoms: C5_22  and  C6_23 
REMARK    9  A    between atoms: C6_23  and  O6_24 
REMARK   10  A    between atoms: O6_24  and  S3_25 
ROOT
HETATM    1  N2  UNL     1      -9.297  12.689 -17.024  1.00  0.00    -0.219 N 
ATOM      2  H2  UNL     1      -9.734  13.469 -16.532  1.00  0.00     0.200 HD
ENDROOT
BRANCH   1   3
HETATM    3  S1  UNL     1      -7.810  12.792 -17.473  1.00  0.00     0.247 S 
HETATM    4  O1  UNL     1      -7.301  11.415 -17.742  1.00  0.00    -0.197 OA
BRANCH   3   5
HETATM    5  N1  UNL     1      -7.770  13.672 -18.957  1.00  0.00    -0.322 N 
ATOM      6  H12 UNL     1      -7.000  14.262 -19.271  1.00  0.00     0.169 HD
ATOM      7  H11 UNL     1      -8.645  13.494 -19.451  1.00  0.00     0.169 HD
ENDBRANCH   3   5
BRANCH   3   8
HETATM    8  O5  UNL     1      -6.863  13.503 -16.293  1.00  0.00    -0.273 OA
BRANCH   8   9
HETATM    9  C5  UNL     1      -6.292  14.691 -16.719  1.00  0.00     0.218 C 
BRANCH   9  10
HETATM   10  C6  UNL     1      -7.210  15.825 -16.337  1.00  0.00     0.220 C 
BRANCH  10  11
HETATM   11  O6  UNL     1      -7.794  16.415 -17.463  1.00  0.00    -0.255 OA
BRANCH  11  12
HETATM   12  S3  UNL     1      -9.454  16.340 -17.414  1.00  0.00     0.251 S 
HETATM   13  O7  UNL     1      -9.947  15.637 -16.177  1.00  0.00    -0.572 OA
HETATM   14  O8  UNL     1      -9.957  15.555 -18.604  1.00  0.00    -0.572 OA
HETATM   15  O9  UNL     1     -10.104  17.886 -17.485  1.00  0.00    -0.572 OA
ENDBRANCH  11  12
ENDBRANCH  10  11
ENDBRANCH   9  10
ENDBRANCH   8   9
ENDBRANCH   3   8
ENDBRANCH   1   3
BRANCH   1  16
HETATM   16  N3  UNL     1     -10.046  11.519 -17.293  1.00  0.00    -0.256 N 
HETATM   17  C1  UNL     1     -10.721  10.875 -16.262  1.00  0.00     0.279 C 
HETATM   18  O2  UNL     1     -10.631  11.382 -15.091  1.00  0.00    -0.266 OA
ATOM     19  H3  UNL     1     -10.092  11.149 -18.242  1.00  0.00     0.191 HD
BRANCH  17  20
HETATM   20  C2  UNL     1     -11.540   9.650 -16.386  1.00  0.00     0.143 A 
HETATM   21  C3  UNL     1     -12.721   9.530 -15.712  1.00  0.00     0.145 A 
HETATM   22  S2  UNL     1     -13.256   7.958 -16.193  1.00  0.00     0.015 SA
HETATM   23  N4  UNL     1     -11.989   7.551 -17.194  1.00  0.00    -0.290 N 
HETATM   24  C4  UNL     1     -11.177   8.598 -17.159  1.00  0.00     0.270 A 
ATOM     25  H4  UNL     1     -11.865   6.685 -17.720  1.00  0.00     0.177 HD
HETATM   26  O4  UNL     1     -10.087   8.551 -17.862  1.00  0.00    -0.266 OA
BRANCH  21  27
HETATM   27  O3  UNL     1     -13.389  10.412 -14.838  1.00  0.00    -0.352 OA
ATOM     28  H3  UNL     1     -14.219  10.867 -14.918  1.00  0.00     0.218 HD
ENDBRANCH  21  27
ENDBRANCH  17  20
ENDBRANCH   1  16
TORSDOF 10
ENDMDL
MODEL 2
REMARK VINA RESULT: -6.160655475      1.945      2.598
REMARK  10 active torsions:
REMARK  status: ('A' for Active; 'I' for Inactive)
REMARK    1  A    between atoms: N1_1  and  S1_4 
REMARK    2  A    between atoms: S1_4  and  N2_6 
REMARK    3  A    between atoms: S1_4  and  O5_21 
REMARK    4  A    between atoms: N2_6  and  N3_8 
REMARK       I    between atoms: N3_8  and  C1_10 
REMARK    5  A    between atoms: C1_10  and  C2_12 
REMARK    6  A    between atoms: C3_13  and  O3_14 
REMARK    7  A    between atoms: O5_21  and  C5_22 
REMARK    8  A    between atoms: C5_22  and  C6_23 
REMARK    9  A    between atoms: C6_23  and  O6_24 
REMARK   10  A    between atoms: O6_24  and  S3_25 
ROOT
HETATM    1  N2  UNL     1      -8.755  14.172 -16.620  1.00  0.00    -0.219 N 
ATOM      2  H2  UNL     1      -8.757  14.538 -15.668  1.00  0.00     0.200 HD
ENDROOT
BRANCH   1   3
HETATM    3  S1  UNL     1      -8.707  15.154 -17.827  1.00  0.00     0.247 S 
HETATM    4  O1  UNL     1      -8.039  14.466 -18.970  1.00  0.00    -0.197 OA
BRANCH   3   5
HETATM    5  N1  UNL     1     -10.333  15.497 -18.292  1.00  0.00    -0.322 N 
ATOM      6  H12 UNL     1     -11.014  14.805 -18.607  1.00  0.00     0.169 HD
ATOM      7  H11 UNL     1     -10.483  16.501 -18.194  1.00  0.00     0.169 HD
ENDBRANCH   3   5
BRANCH   3   8
HETATM    8  O5  UNL     1      -7.853  16.542 -17.451  1.00  0.00    -0.273 OA
BRANCH   8   9
HETATM    9  C5  UNL     1      -7.593  16.652 -16.095  1.00  0.00     0.218 C 
BRANCH   9  10
HETATM   10  C6  UNL     1      -8.708  17.444 -15.459  1.00  0.00     0.220 C 
BRANCH  10  11
HETATM   11  O6  UNL     1      -9.008  18.594 -16.197  1.00  0.00    -0.255 OA
BRANCH  11  12
HETATM   12  S3  UNL     1     -10.610  18.648 -16.640  1.00  0.00     0.251 S 
HETATM   13  O7  UNL     1     -11.281  19.908 -16.161  1.00  0.00    -0.572 OA
HETATM   14  O8  UNL     1     -11.344  17.485 -16.013  1.00  0.00    -0.572 OA
HETATM   15  O9  UNL     1     -10.752  18.527 -18.308  1.00  0.00    -0.572 OA
ENDBRANCH  11  12
ENDBRANCH  10  11
ENDBRANCH   9  10
ENDBRANCH   8   9
ENDBRANCH   3   8
ENDBRANCH   1   3
BRANCH   1  16
HETATM   16  N3  UNL     1      -8.798  12.774 -16.837  1.00  0.00    -0.256 N 
HETATM   17  C1  UNL     1     -10.023  12.125 -16.937  1.00  0.00     0.279 C 
HETATM   18  O2  UNL     1     -11.079  12.837 -16.826  1.00  0.00    -0.266 OA
ATOM     19  H3  UNL     1      -7.931  12.244 -16.920  1.00  0.00     0.191 HD
BRANCH  17  20
HETATM   20  C2  UNL     1     -10.227  10.677 -17.160  1.00  0.00     0.143 A 
HETATM   21  C3  UNL     1     -11.350  10.052 -16.699  1.00  0.00     0.145 A 
HETATM   22  S2  UNL     1     -11.096   8.422 -17.212  1.00  0.00     0.015 SA
HETATM   23  N4  UNL     1      -9.622   8.616 -17.963  1.00  0.00    -0.290 N 
HETATM   24  C4  UNL     1      -9.334   9.902 -17.822  1.00  0.00     0.270 A 
ATOM     25  H4  UNL     1      -9.063   7.901 -18.429  1.00  0.00     0.177 HD
HETATM   26  O4  UNL     1      -8.219  10.339 -18.322  1.00  0.00    -0.266 OA
BRANCH  21  27
HETATM   27  O3  UNL     1     -12.463  10.544 -15.985  1.00  0.00    -0.352 OA
ATOM     28  H3  UNL     1     -13.232  10.105 -15.642  1.00  0.00     0.218 HD
ENDBRANCH  21  27
ENDBRANCH  17  20
ENDBRANCH   1  16
TORSDOF 10
ENDMDL
MODEL 3
REMARK VINA RESULT: -6.100263353      1.661      2.792
REMARK  10 active torsions:
REMARK  status: ('A' for Active; 'I' for Inactive)
REMARK    1  A    between atoms: N1_1  and  S1_4 
REMARK    2  A    between atoms: S1_4  and  N2_6 
REMARK    3  A    between atoms: S1_4  and  O5_21 
REMARK    4  A    between atoms: N2_6  and  N3_8 
REMARK       I    between atoms: N3_8  and  C1_10 
REMARK    5  A    between atoms: C1_10  and  C2_12 
REMARK    6  A    between atoms: C3_13  and  O3_14 
REMARK    7  A    between atoms: O5_21  and  C5_22 
REMARK    8  A    between atoms: C5_22  and  C6_23 
REMARK    9  A    between atoms: C6_23  and  O6_24 
REMARK   10  A    between atoms: O6_24  and  S3_25 
ROOT
HETATM    1  N2  UNL     1      -7.796  13.119 -18.292  1.00  0.00    -0.219 N 
ATOM      2  H2  UNL     1      -7.063  12.671 -18.842  1.00  0.00     0.200 HD
ENDROOT
BRANCH   1   3
HETATM    3  S1  UNL     1      -7.665  14.621 -17.903  1.00  0.00     0.247 S 
HETATM    4  O1  UNL     1      -6.371  15.136 -18.438  1.00  0.00    -0.197 OA
BRANCH   3   5
HETATM    5  N1  UNL     1      -8.941  15.480 -18.685  1.00  0.00    -0.322 N 
ATOM      6  H12 UNL     1      -9.497  15.127 -19.465  1.00  0.00     0.169 HD
ATOM      7  H11 UNL     1      -9.033  16.388 -18.230  1.00  0.00     0.169 HD
ENDBRANCH   3   5
BRANCH   3   8
HETATM    8  O5  UNL     1      -7.691  14.827 -16.244  1.00  0.00    -0.273 OA
BRANCH   8   9
HETATM    9  C5  UNL     1      -7.073  16.000 -15.847  1.00  0.00     0.218 C 
BRANCH   9  10
HETATM   10  C6  UNL     1      -8.137  16.973 -15.403  1.00  0.00     0.220 C 
BRANCH  10  11
HETATM   11  O6  UNL     1      -8.523  17.823 -16.444  1.00  0.00    -0.255 OA
BRANCH  11  12
HETATM   12  S3  UNL     1     -10.175  17.870 -16.628  1.00  0.00     0.251 S 
HETATM   13  O7  UNL     1     -10.809  18.911 -15.745  1.00  0.00    -0.572 OA
HETATM   14  O8  UNL     1     -10.763  16.534 -16.235  1.00  0.00    -0.572 OA
HETATM   15  O9  UNL     1     -10.568  18.170 -18.232  1.00  0.00    -0.572 OA
ENDBRANCH  11  12
ENDBRANCH  10  11
ENDBRANCH   9  10
ENDBRANCH   8   9
ENDBRANCH   3   8
ENDBRANCH   1   3
BRANCH   1  16
HETATM   16  N3  UNL     1      -8.928  12.372 -17.888  1.00  0.00    -0.256 N 
HETATM   17  C1  UNL     1      -8.859  10.984 -17.832  1.00  0.00     0.279 C 
HETATM   18  O2  UNL     1      -7.751  10.435 -18.156  1.00  0.00    -0.266 OA
ATOM     19  H3  UNL     1      -9.793  12.851 -17.637  1.00  0.00     0.191 HD
BRANCH  17  20
HETATM   20  C2  UNL     1      -9.952  10.072 -17.431  1.00  0.00     0.143 A 
HETATM   21  C3  UNL     1      -9.944   8.763 -17.818  1.00  0.00     0.145 A 
HETATM   22  S2  UNL     1     -11.399   8.163 -17.105  1.00  0.00     0.015 SA
HETATM   23  N4  UNL     1     -11.923   9.565 -16.374  1.00  0.00    -0.290 N 
HETATM   24  C4  UNL     1     -11.002  10.470 -16.673  1.00  0.00     0.270 A 
ATOM     25  H4  UNL     1     -12.768   9.699 -15.819  1.00  0.00     0.177 HD
HETATM   26  O4  UNL     1     -11.160  11.678 -16.223  1.00  0.00    -0.266 OA
BRANCH  21  27
HETATM   27  O3  UNL     1      -9.025   8.026 -18.595  1.00  0.00    -0.352 OA
ATOM     28  H3  UNL     1      -8.466   8.285 -19.318  1.00  0.00     0.218 HD
ENDBRANCH  21  27
ENDBRANCH  17  20
ENDBRANCH   1  16
TORSDOF 10
ENDMDL
MODEL 4
REMARK VINA RESULT: -6.084023272      2.002      2.675
REMARK  10 active torsions:
REMARK  status: ('A' for Active; 'I' for Inactive)
REMARK    1  A    between atoms: N1_1  and  S1_4 
REMARK    2  A    between atoms: S1_4  and  N2_6 
REMARK    3  A    between atoms: S1_4  and  O5_21 
REMARK    4  A    between atoms: N2_6  and  N3_8 
REMARK       I    between atoms: N3_8  and  C1_10 
REMARK    5  A    between atoms: C1_10  and  C2_12 
REMARK    6  A    between atoms: C3_13  and  O3_14 
REMARK    7  A    between atoms: O5_21  and  C5_22 
REMARK    8  A    between atoms: C5_22  and  C6_23 
REMARK    9  A    between atoms: C6_23  and  O6_24 
REMARK   10  A    between atoms: O6_24  and  S3_25 
ROOT
HETATM    1  N2  UNL     1      -7.701  14.202 -18.846  1.00  0.00    -0.219 N 
ATOM      2  H2  UNL     1      -8.120  14.757 -19.592  1.00  0.00     0.200 HD
ENDROOT
BRANCH   1   3
HETATM    3  S1  UNL     1      -6.518  14.784 -18.017  1.00  0.00     0.247 S 
HETATM    4  O1  UNL     1      -6.278  13.892 -16.845  1.00  0.00    -0.197 OA
BRANCH   3   5
HETATM    5  N1  UNL     1      -5.109  14.741 -19.013  1.00  0.00    -0.322 N 
ATOM      6  H12 UNL     1      -4.948  14.087 -19.779  1.00  0.00     0.169 HD
ATOM      7  H11 UNL     1      -4.479  15.479 -18.696  1.00  0.00     0.169 HD
ENDBRANCH   3   5
BRANCH   3   8
HETATM    8  O5  UNL     1      -6.857  16.327 -17.470  1.00  0.00    -0.273 OA
BRANCH   8   9
HETATM    9  C5  UNL     1      -7.052  16.371 -16.099  1.00  0.00     0.218 C 
BRANCH   9  10
HETATM   10  C6  UNL     1      -8.498  16.708 -15.835  1.00  0.00     0.220 C 
BRANCH  10  11
HETATM   11  O6  UNL     1      -9.184  16.997 -17.019  1.00  0.00    -0.255 OA
BRANCH  11  12
HETATM   12  S3  UNL     1     -10.266  18.244 -16.823  1.00  0.00     0.251 S 
HETATM   13  O7  UNL     1      -9.640  19.425 -16.129  1.00  0.00    -0.572 OA
HETATM   14  O8  UNL     1     -11.418  17.779 -15.961  1.00  0.00    -0.572 OA
HETATM   15  O9  UNL     1     -10.877  18.718 -18.313  1.00  0.00    -0.572 OA
ENDBRANCH  11  12
ENDBRANCH  10  11
ENDBRANCH   9  10
ENDBRANCH   8   9
ENDBRANCH   3   8
ENDBRANCH   1   3
BRANCH   1  16
HETATM   16  N3  UNL     1      -8.199  12.906 -18.569  1.00  0.00    -0.256 N 
HETATM   17  C1  UNL     1      -9.279  12.748 -17.708  1.00  0.00     0.279 C 
HETATM   18  O2  UNL     1      -9.785  13.805 -17.196  1.00  0.00    -0.266 OA
ATOM     19  H3  UNL     1      -7.766  12.090 -19.000  1.00  0.00     0.191 HD
BRANCH  17  20
HETATM   20  C2  UNL     1      -9.908  11.466 -17.324  1.00  0.00     0.143 A 
HETATM   21  C3  UNL     1     -11.096  11.446 -16.651  1.00  0.00     0.145 A 
HETATM   22  S2  UNL     1     -11.375   9.752 -16.455  1.00  0.00     0.015 SA
HETATM   23  N4  UNL     1     -10.010   9.177 -17.217  1.00  0.00    -0.290 N 
HETATM   24  C4  UNL     1      -9.357  10.261 -17.611  1.00  0.00     0.270 A 
ATOM     25  H4  UNL     1      -9.736   8.203 -17.351  1.00  0.00     0.177 HD
HETATM   26  O4  UNL     1      -8.235  10.105 -18.243  1.00  0.00    -0.266 OA
BRANCH  21  27
HETATM   27  O3  UNL     1     -11.929  12.491 -16.201  1.00  0.00    -0.352 OA
ATOM     28  H3  UNL     1     -12.225  13.286 -16.629  1.00  0.00     0.218 HD
ENDBRANCH  21  27
ENDBRANCH  17  20
ENDBRANCH   1  16
TORSDOF 10
ENDMDL
MODEL 5
REMARK VINA RESULT: -6.083186535      4.755      7.660
REMARK  10 active torsions:
REMARK  status: ('A' for Active; 'I' for Inactive)
REMARK    1  A    between atoms: N1_1  and  S1_4 
REMARK    2  A    between atoms: S1_4  and  N2_6 
REMARK    3  A    between atoms: S1_4  and  O5_21 
REMARK    4  A    between atoms: N2_6  and  N3_8 
REMARK       I    between atoms: N3_8  and  C1_10 
REMARK    5  A    between atoms: C1_10  and  C2_12 
REMARK    6  A    between atoms: C3_13  and  O3_14 
REMARK    7  A    between atoms: O5_21  and  C5_22 
REMARK    8  A    between atoms: C5_22  and  C6_23 
REMARK    9  A    between atoms: C6_23  and  O6_24 
REMARK   10  A    between atoms: O6_24  and  S3_25 
ROOT
HETATM    1  N2  UNL     1      -7.137  15.585 -14.961  1.00  0.00    -0.219 N 
ATOM      2  H2  UNL     1      -7.779  15.032 -14.392  1.00  0.00     0.200 HD
ENDROOT
BRANCH   1   3
HETATM    3  S1  UNL     1      -5.953  14.887 -15.692  1.00  0.00     0.247 S 
HETATM    4  O1  UNL     1      -5.527  15.750 -16.832  1.00  0.00    -0.197 OA
BRANCH   3   5
HETATM    5  N1  UNL     1      -4.636  14.786 -14.582  1.00  0.00    -0.322 N 
ATOM      6  H12 UNL     1      -3.683  14.510 -14.821  1.00  0.00     0.169 HD
ATOM      7  H11 UNL     1      -4.982  15.048 -13.659  1.00  0.00     0.169 HD
ENDBRANCH   3   5
BRANCH   3   8
HETATM    8  O5  UNL     1      -6.398  13.386 -16.280  1.00  0.00    -0.273 OA
BRANCH   8   9
HETATM    9  C5  UNL     1      -6.552  13.381 -17.656  1.00  0.00     0.218 C 
BRANCH   9  10
HETATM   10  C6  UNL     1      -8.024  13.475 -17.971  1.00  0.00     0.220 C 
BRANCH  10  11
HETATM   11  O6  UNL     1      -8.285  14.467 -18.923  1.00  0.00    -0.255 OA
BRANCH  11  12
HETATM   12  S3  UNL     1      -9.258  15.671 -18.316  1.00  0.00     0.251 S 
HETATM   13  O7  UNL     1      -8.457  16.745 -17.629  1.00  0.00    -0.572 OA
HETATM   14  O8  UNL     1     -10.197  15.086 -17.285  1.00  0.00    -0.572 OA
HETATM   15  O9  UNL     1     -10.177  16.346 -19.547  1.00  0.00    -0.572 OA
ENDBRANCH  11  12
ENDBRANCH  10  11
ENDBRANCH   9  10
ENDBRANCH   8   9
ENDBRANCH   3   8
ENDBRANCH   1   3
BRANCH   1  16
HETATM   16  N3  UNL     1      -7.327  16.982 -15.079  1.00  0.00    -0.256 N 
HETATM   17  C1  UNL     1      -8.155  17.648 -14.182  1.00  0.00     0.279 C 
HETATM   18  O2  UNL     1      -8.719  16.951 -13.271  1.00  0.00    -0.266 OA
ATOM     19  H3  UNL     1      -6.857  17.500 -15.821  1.00  0.00     0.191 HD
BRANCH  17  20
HETATM   20  C2  UNL     1      -8.450  19.097 -14.178  1.00  0.00     0.143 A 
HETATM   21  C3  UNL     1      -9.102  19.678 -15.228  1.00  0.00     0.145 A 
HETATM   22  S2  UNL     1      -9.190  21.331 -14.732  1.00  0.00     0.015 SA
HETATM   23  N4  UNL     1      -8.418  21.199 -13.262  1.00  0.00    -0.290 N 
HETATM   24  C4  UNL     1      -8.101  19.916 -13.157  1.00  0.00     0.270 A 
ATOM     25  H4  UNL     1      -8.229  21.943 -12.589  1.00  0.00     0.177 HD
HETATM   26  O4  UNL     1      -7.479  19.524 -12.088  1.00  0.00    -0.266 OA
BRANCH  21  27
HETATM   27  O3  UNL     1      -9.600  19.136 -16.431  1.00  0.00    -0.352 OA
ATOM     28  H3  UNL     1     -10.406  19.300 -16.907  1.00  0.00     0.218 HD
ENDBRANCH  21  27
ENDBRANCH  17  20
ENDBRANCH   1  16
TORSDOF 10
ENDMDL
