MODEL 1
REMARK VINA RESULT: -7.803879444      0.000      0.000
REMARK  7 active torsions:
REMARK  status: ('A' for Active; 'I' for Inactive)
REMARK       I    between atoms: C1_4  and  N2_5 
REMARK       I    between atoms: C1_4  and  N4_10 
REMARK    1  A    between atoms: N2_5  and  N3_7 
REMARK    2  A    between atoms: N4_10  and  C2_11 
REMARK    3  A    between atoms: N4_10  and  C4_15 
REMARK    4  A    between atoms: C2_11  and  C3_12 
REMARK    5  A    between atoms: C5_18  and  N6_19 
REMARK    6  A    between atoms: C10_24  and  N7_25 
REMARK    7  A    between atoms: C11_28  and  N8_29 
ROOT
HETATM    1  C4  UNL     1      -9.194  18.435 -14.959  1.00  0.00     0.702 A 
HETATM    2  N5  UNL     1      -8.255  17.486 -15.083  1.00  0.00    -0.173 N 
ATOM      3  H5  UNL     1      -7.543  17.398 -14.359  1.00  0.00     0.186 HD
HETATM    4  C5  UNL     1      -8.226  16.633 -16.153  1.00  0.00     0.156 A 
HETATM    5  C10 UNL     1      -9.210  16.799 -17.094  1.00  0.00     0.191 A 
HETATM    6  C11 UNL     1     -10.179  17.802 -16.937  1.00  0.00     0.152 A 
HETATM    7  N9  UNL     1     -10.163  18.610 -15.873  1.00  0.00    -0.174 N 
ATOM      8  H9  UNL     1     -10.867  19.339 -15.757  1.00  0.00     0.186 HD
ENDROOT
BRANCH   1   9
HETATM    9  N4  UNL     1      -9.172  19.297 -13.837  1.00  0.00    -0.003 N 
HETATM   10  C1  UNL     1      -9.178  20.686 -14.051  1.00  0.00     0.712 C 
HETATM   11  N1  UNL     1     -10.174  21.229 -14.634  1.00  0.00    -0.232 N 
HETATM   12  N2  UNL     1      -8.070  21.442 -13.603  1.00  0.00    -0.071 N 
ATOM     13  H12 UNL     1     -10.179  22.237 -14.789  1.00  0.00     0.174 HD
ATOM     14  H11 UNL     1     -10.974  20.685 -14.956  1.00  0.00     0.174 HD
ATOM     15  H2  UNL     1      -7.786  21.349 -12.628  1.00  0.00     0.212 HD
BRANCH  12  16
HETATM   16  N3  UNL     1      -7.346  22.308 -14.418  1.00  0.00    -0.024 N 
HETATM   17  O1  UNL     1      -7.378  22.225 -15.671  1.00  0.00    -0.516 OA
HETATM   18  O2  UNL     1      -6.572  23.282 -13.868  1.00  0.00    -0.516 OA
ENDBRANCH  12  16
BRANCH   9  19
HETATM   19  C2  UNL     1      -9.154  18.700 -12.528  1.00  0.00     0.279 C 
BRANCH  19  20
HETATM   20  C3  UNL     1      -7.754  18.389 -12.090  1.00  0.00     0.193 C 
HETATM   21  O3  UNL     1      -7.116  19.314 -11.545  1.00  0.00    -0.647 OA
HETATM   22  O4  UNL     1      -7.208  17.121 -12.291  1.00  0.00    -0.647 OA
ENDBRANCH  19  20
ENDBRANCH   9  19
ENDBRANCH   1   9
BRANCH   4  23
HETATM   23  N6  UNL     1      -7.218  15.652 -16.268  1.00  0.00    -0.365 N 
HETATM   24  C6  UNL     1      -6.029  15.745 -17.084  1.00  0.00     0.124 C 
HETATM   25  C7  UNL     1      -5.963  14.363 -17.700  1.00  0.00     0.021 C 
HETATM   26  C8  UNL     1      -6.279  13.509 -16.480  1.00  0.00     0.021 C 
HETATM   27  C9  UNL     1      -7.151  14.350 -15.594  1.00  0.00     0.124 C 
ENDBRANCH   4  23
BRANCH   6  28
HETATM   28  N8  UNL     1     -11.096  17.958 -17.815  1.00  0.00    -0.383 N 
ATOM     29  H82 UNL     1     -11.960  17.425 -17.723  1.00  0.00     0.157 HD
ATOM     30  H81 UNL     1     -10.960  18.605 -18.591  1.00  0.00     0.157 HD
ENDBRANCH   6  28
BRANCH   5  31
HETATM   31  N7  UNL     1      -9.359  15.999 -18.250  1.00  0.00    -0.108 N 
HETATM   32  O5  UNL     1      -9.278  16.491 -19.375  1.00  0.00    -0.531 OA
HETATM   33  O6  UNL     1      -9.625  14.666 -18.107  1.00  0.00    -0.531 OA
ENDBRANCH   5  31
TORSDOF 7
ENDMDL
MODEL 2
REMARK VINA RESULT: -7.448644877      2.788      6.688
REMARK  7 active torsions:
REMARK  status: ('A' for Active; 'I' for Inactive)
REMARK       I    between atoms: C1_4  and  N2_5 
REMARK       I    between atoms: C1_4  and  N4_10 
REMARK    1  A    between atoms: N2_5  and  N3_7 
REMARK    2  A    between atoms: N4_10  and  C2_11 
REMARK    3  A    between atoms: N4_10  and  C4_15 
REMARK    4  A    between atoms: C2_11  and  C3_12 
REMARK    5  A    between atoms: C5_18  and  N6_19 
REMARK    6  A    between atoms: C10_24  and  N7_25 
REMARK    7  A    between atoms: C11_28  and  N8_29 
ROOT
HETATM    1  C4  UNL     1      -7.949  15.913 -16.481  1.00  0.00     0.702 A 
HETATM    2  N5  UNL     1      -7.561  17.050 -15.889  1.00  0.00    -0.173 N 
ATOM      3  H5  UNL     1      -6.583  17.332 -15.951  1.00  0.00     0.186 HD
HETATM    4  C5  UNL     1      -8.440  17.843 -15.201  1.00  0.00     0.156 A 
HETATM    5  C10 UNL     1      -9.741  17.414 -15.152  1.00  0.00     0.191 A 
HETATM    6  C11 UNL     1     -10.116  16.217 -15.782  1.00  0.00     0.152 A 
HETATM    7  N9  UNL     1      -9.219  15.479 -16.440  1.00  0.00    -0.174 N 
ATOM      8  H9  UNL     1      -9.491  14.609 -16.900  1.00  0.00     0.186 HD
ENDROOT
BRANCH   1   9
HETATM    9  N4  UNL     1      -6.996  15.124 -17.171  1.00  0.00    -0.003 N 
HETATM   10  C1  UNL     1      -7.450  14.186 -18.114  1.00  0.00     0.712 C 
HETATM   11  N1  UNL     1      -8.085  14.586 -19.146  1.00  0.00    -0.232 N 
HETATM   12  N2  UNL     1      -7.180  12.816 -17.885  1.00  0.00    -0.071 N 
ATOM     13  H12 UNL     1      -8.414  13.905 -19.830  1.00  0.00     0.174 HD
ATOM     14  H11 UNL     1      -8.279  15.573 -19.311  1.00  0.00     0.174 HD
ATOM     15  H2  UNL     1      -6.215  12.538 -17.712  1.00  0.00     0.212 HD
BRANCH  12  16
HETATM   16  N3  UNL     1      -8.160  11.827 -17.884  1.00  0.00    -0.024 N 
HETATM   17  O1  UNL     1      -7.891  10.624 -18.125  1.00  0.00    -0.516 OA
HETATM   18  O2  UNL     1      -9.455  12.144 -17.617  1.00  0.00    -0.516 OA
ENDBRANCH  12  16
BRANCH   9  19
HETATM   19  C2  UNL     1      -5.604  15.335 -16.874  1.00  0.00     0.279 C 
BRANCH  19  20
HETATM   20  C3  UNL     1      -5.169  14.518 -15.694  1.00  0.00     0.193 C 
HETATM   21  O3  UNL     1      -4.515  13.483 -15.937  1.00  0.00    -0.647 OA
HETATM   22  O4  UNL     1      -5.490  14.913 -14.395  1.00  0.00    -0.647 OA
ENDBRANCH  19  20
ENDBRANCH   9  19
ENDBRANCH   1   9
BRANCH   4  23
HETATM   23  N6  UNL     1      -8.003  19.030 -14.573  1.00  0.00    -0.365 N 
HETATM   24  C6  UNL     1      -7.796  19.215 -13.154  1.00  0.00     0.124 C 
HETATM   25  C7  UNL     1      -8.413  20.577 -12.923  1.00  0.00     0.021 C 
HETATM   26  C8  UNL     1      -7.861  21.331 -14.125  1.00  0.00     0.021 C 
HETATM   27  C9  UNL     1      -7.663  20.309 -15.206  1.00  0.00     0.124 C 
ENDBRANCH   4  23
BRANCH   6  28
HETATM   28  N8  UNL     1     -11.330  15.815 -15.735  1.00  0.00    -0.383 N 
ATOM     29  H82 UNL     1     -11.758  15.649 -14.825  1.00  0.00     0.157 HD
ATOM     30  H81 UNL     1     -11.856  15.666 -16.596  1.00  0.00     0.157 HD
ENDBRANCH   6  28
BRANCH   5  31
HETATM   31  N7  UNL     1     -10.793  18.111 -14.515  1.00  0.00    -0.108 N 
HETATM   32  O5  UNL     1     -11.407  19.002 -15.102  1.00  0.00    -0.531 OA
HETATM   33  O6  UNL     1     -11.109  17.805 -13.222  1.00  0.00    -0.531 OA
ENDBRANCH   5  31
TORSDOF 7
ENDMDL
MODEL 3
REMARK VINA RESULT: -7.290801624      1.877      2.691
REMARK  7 active torsions:
REMARK  status: ('A' for Active; 'I' for Inactive)
REMARK       I    between atoms: C1_4  and  N2_5 
REMARK       I    between atoms: C1_4  and  N4_10 
REMARK    1  A    between atoms: N2_5  and  N3_7 
REMARK    2  A    between atoms: N4_10  and  C2_11 
REMARK    3  A    between atoms: N4_10  and  C4_15 
REMARK    4  A    between atoms: C2_11  and  C3_12 
REMARK    5  A    between atoms: C5_18  and  N6_19 
REMARK    6  A    between atoms: C10_24  and  N7_25 
REMARK    7  A    between atoms: C11_28  and  N8_29 
ROOT
HETATM    1  C4  UNL     1      -8.565  17.779 -14.775  1.00  0.00     0.702 A 
HETATM    2  N5  UNL     1      -9.340  16.701 -14.956  1.00  0.00    -0.173 N 
ATOM      3  H5  UNL     1     -10.237  16.650 -14.474  1.00  0.00     0.186 HD
HETATM    4  C5  UNL     1      -8.963  15.667 -15.771  1.00  0.00     0.156 A 
HETATM    5  C10 UNL     1      -7.747  15.793 -16.394  1.00  0.00     0.191 A 
HETATM    6  C11 UNL     1      -6.958  16.934 -16.184  1.00  0.00     0.152 A 
HETATM    7  N9  UNL     1      -7.372  17.915 -15.378  1.00  0.00    -0.174 N 
ATOM      8  H9  UNL     1      -6.799  18.745 -15.224  1.00  0.00     0.186 HD
ENDROOT
BRANCH   1   9
HETATM    9  N4  UNL     1      -8.999  18.815 -13.914  1.00  0.00    -0.003 N 
HETATM   10  C1  UNL     1      -9.150  20.111 -14.437  1.00  0.00     0.712 C 
HETATM   11  N1  UNL     1     -10.003  20.321 -15.361  1.00  0.00    -0.232 N 
HETATM   12  N2  UNL     1      -8.346  21.148 -13.910  1.00  0.00    -0.071 N 
ATOM     13  H12 UNL     1     -10.113  21.262 -15.741  1.00  0.00     0.174 HD
ATOM     14  H11 UNL     1     -10.584  19.574 -15.741  1.00  0.00     0.174 HD
ATOM     15  H2  UNL     1      -8.347  21.292 -12.901  1.00  0.00     0.212 HD
BRANCH  12  16
HETATM   16  N3  UNL     1      -7.554  21.983 -14.693  1.00  0.00    -0.024 N 
HETATM   17  O1  UNL     1      -7.348  21.756 -15.911  1.00  0.00    -0.516 OA
HETATM   18  O2  UNL     1      -6.972  23.085 -14.148  1.00  0.00    -0.516 OA
ENDBRANCH  12  16
BRANCH   9  19
HETATM   19  C2  UNL     1      -9.274  18.480 -12.541  1.00  0.00     0.279 C 
BRANCH  19  20
HETATM   20  C3  UNL     1      -8.006  18.288 -11.764  1.00  0.00     0.193 C 
HETATM   21  O3  UNL     1      -7.343  19.314 -11.506  1.00  0.00    -0.647 OA
HETATM   22  O4  UNL     1      -7.604  17.016 -11.356  1.00  0.00    -0.647 OA
ENDBRANCH  19  20
ENDBRANCH   9  19
ENDBRANCH   1   9
BRANCH   4  23
HETATM   23  N6  UNL     1      -9.791  14.536 -15.934  1.00  0.00    -0.365 N 
HETATM   24  C6  UNL     1     -10.083  13.543 -14.925  1.00  0.00     0.124 C 
HETATM   25  C7  UNL     1      -9.971  12.255 -15.712  1.00  0.00     0.021 C 
HETATM   26  C8  UNL     1     -10.717  12.648 -16.980  1.00  0.00     0.021 C 
HETATM   27  C9  UNL     1     -10.529  14.129 -17.135  1.00  0.00     0.124 C 
ENDBRANCH   4  23
BRANCH   6  28
HETATM   28  N8  UNL     1      -5.823  17.050 -16.764  1.00  0.00    -0.383 N 
ATOM     29  H82 UNL     1      -5.640  16.496 -17.600  1.00  0.00     0.157 HD
ATOM     30  H81 UNL     1      -5.119  17.688 -16.394  1.00  0.00     0.157 HD
ENDBRANCH   6  28
BRANCH   5  31
HETATM   31  N7  UNL     1      -7.203  14.845 -17.291  1.00  0.00    -0.108 N 
HETATM   32  O5  UNL     1      -6.591  13.861 -16.876  1.00  0.00    -0.531 OA
HETATM   33  O6  UNL     1      -7.339  15.045 -18.635  1.00  0.00    -0.531 OA
ENDBRANCH   5  31
TORSDOF 7
ENDMDL
MODEL 4
REMARK VINA RESULT: -7.158698109      1.370      1.572
REMARK  7 active torsions:
REMARK  status: ('A' for Active; 'I' for Inactive)
REMARK       I    between atoms: C1_4  and  N2_5 
REMARK       I    between atoms: C1_4  and  N4_10 
REMARK    1  A    between atoms: N2_5  and  N3_7 
REMARK    2  A    between atoms: N4_10  and  C2_11 
REMARK    3  A    between atoms: N4_10  and  C4_15 
REMARK    4  A    between atoms: C2_11  and  C3_12 
REMARK    5  A    between atoms: C5_18  and  N6_19 
REMARK    6  A    between atoms: C10_24  and  N7_25 
REMARK    7  A    between atoms: C11_28  and  N8_29 
ROOT
HETATM    1  C4  UNL     1      -9.427  17.755 -14.294  1.00  0.00     0.702 A 
HETATM    2  N5  UNL     1      -8.251  17.266 -14.709  1.00  0.00    -0.173 N 
ATOM      3  H5  UNL     1      -7.393  17.745 -14.439  1.00  0.00     0.186 HD
HETATM    4  C5  UNL     1      -8.170  16.141 -15.486  1.00  0.00     0.156 A 
HETATM    5  C10 UNL     1      -9.357  15.539 -15.817  1.00  0.00     0.191 A 
HETATM    6  C11 UNL     1     -10.572  16.076 -15.367  1.00  0.00     0.152 A 
HETATM    7  N9  UNL     1     -10.598  17.177 -14.611  1.00  0.00    -0.174 N 
ATOM      8  H9  UNL     1     -11.481  17.568 -14.283  1.00  0.00     0.186 HD
ENDROOT
BRANCH   1   9
HETATM    9  N4  UNL     1      -9.456  18.927 -13.501  1.00  0.00    -0.003 N 
HETATM   10  C1  UNL     1      -9.454  20.178 -14.142  1.00  0.00     0.712 C 
HETATM   11  N1  UNL     1     -10.424  20.495 -14.908  1.00  0.00    -0.232 N 
HETATM   12  N2  UNL     1      -8.367  21.053 -13.910  1.00  0.00    -0.071 N 
ATOM     13  H12 UNL     1     -10.423  21.403 -15.373  1.00  0.00     0.174 HD
ATOM     14  H11 UNL     1     -11.208  19.865 -15.075  1.00  0.00     0.174 HD
ATOM     15  H2  UNL     1      -8.126  21.275 -12.945  1.00  0.00     0.212 HD
BRANCH  12  16
HETATM   16  N3  UNL     1      -7.609  21.628 -14.927  1.00  0.00    -0.024 N 
HETATM   17  O1  UNL     1      -7.341  21.011 -15.987  1.00  0.00    -0.516 OA
HETATM   18  O2  UNL     1      -7.130  22.894 -14.792  1.00  0.00    -0.516 OA
ENDBRANCH  12  16
BRANCH   9  19
HETATM   19  C2  UNL     1      -9.495  18.773 -12.071  1.00  0.00     0.279 C 
BRANCH  19  20
HETATM   20  C3  UNL     1      -8.137  18.453 -11.521  1.00  0.00     0.193 C 
HETATM   21  O3  UNL     1      -7.288  19.368 -11.551  1.00  0.00    -0.647 OA
HETATM   22  O4  UNL     1      -7.856  17.189 -11.002  1.00  0.00    -0.647 OA
ENDBRANCH  19  20
ENDBRANCH   9  19
ENDBRANCH   1   9
BRANCH   4  23
HETATM   23  N6  UNL     1      -6.919  15.653 -15.923  1.00  0.00    -0.365 N 
HETATM   24  C6  UNL     1      -6.246  16.015 -17.150  1.00  0.00     0.124 C 
HETATM   25  C7  UNL     1      -5.747  14.673 -17.641  1.00  0.00     0.021 C 
HETATM   26  C8  UNL     1      -5.215  14.091 -16.338  1.00  0.00     0.021 C 
HETATM   27  C9  UNL     1      -6.039  14.698 -15.240  1.00  0.00     0.124 C 
ENDBRANCH   4  23
BRANCH   6  28
HETATM   28  N8  UNL     1     -11.680  15.515 -15.676  1.00  0.00    -0.383 N 
ATOM     29  H82 UNL     1     -11.842  14.552 -15.383  1.00  0.00     0.157 HD
ATOM     30  H81 UNL     1     -12.385  16.026 -16.206  1.00  0.00     0.157 HD
ENDBRANCH   6  28
BRANCH   5  31
HETATM   31  N7  UNL     1      -9.471  14.357 -16.584  1.00  0.00    -0.108 N 
HETATM   32  O5  UNL     1      -9.388  13.249 -16.054  1.00  0.00    -0.531 OA
HETATM   33  O6  UNL     1      -9.648  14.454 -17.935  1.00  0.00    -0.531 OA
ENDBRANCH   5  31
TORSDOF 7
ENDMDL
MODEL 5
REMARK VINA RESULT: -7.138718492      2.346      6.715
REMARK  7 active torsions:
REMARK  status: ('A' for Active; 'I' for Inactive)
REMARK       I    between atoms: C1_4  and  N2_5 
REMARK       I    between atoms: C1_4  and  N4_10 
REMARK    1  A    between atoms: N2_5  and  N3_7 
REMARK    2  A    between atoms: N4_10  and  C2_11 
REMARK    3  A    between atoms: N4_10  and  C4_15 
REMARK    4  A    between atoms: C2_11  and  C3_12 
REMARK    5  A    between atoms: C5_18  and  N6_19 
REMARK    6  A    between atoms: C10_24  and  N7_25 
REMARK    7  A    between atoms: C11_28  and  N8_29 
ROOT
HETATM    1  C4  UNL     1      -8.532  15.835 -15.143  1.00  0.00     0.702 A 
HETATM    2  N5  UNL     1      -9.192  17.000 -15.133  1.00  0.00    -0.173 N 
ATOM      3  H5  UNL     1      -9.808  17.227 -15.913  1.00  0.00     0.186 HD
HETATM    4  C5  UNL     1      -9.062  17.895 -14.105  1.00  0.00     0.156 A 
HETATM    5  C10 UNL     1      -8.221  17.536 -13.083  1.00  0.00     0.191 A 
HETATM    6  C11 UNL     1      -7.543  16.308 -13.123  1.00  0.00     0.152 A 
HETATM    7  N9  UNL     1      -7.704  15.469 -14.150  1.00  0.00    -0.174 N 
ATOM      8  H9  UNL     1      -7.212  14.576 -14.180  1.00  0.00     0.186 HD
ENDROOT
BRANCH   1   9
HETATM    9  N4  UNL     1      -8.694  14.949 -16.236  1.00  0.00    -0.003 N 
HETATM   10  C1  UNL     1      -8.490  15.438 -17.538  1.00  0.00     0.712 C 
HETATM   11  N1  UNL     1      -7.340  15.876 -17.873  1.00  0.00    -0.232 N 
HETATM   12  N2  UNL     1      -9.577  15.421 -18.442  1.00  0.00    -0.071 N 
ATOM     13  H12 UNL     1      -7.191  16.231 -18.818  1.00  0.00     0.174 HD
ATOM     14  H11 UNL     1      -6.555  15.887 -17.222  1.00  0.00     0.174 HD
ATOM     15  H2  UNL     1     -10.068  14.540 -18.588  1.00  0.00     0.212 HD
BRANCH  12  16
HETATM   16  N3  UNL     1     -10.014  16.542 -19.144  1.00  0.00    -0.024 N 
HETATM   17  O1  UNL     1     -10.127  16.541 -20.395  1.00  0.00    -0.516 OA
HETATM   18  O2  UNL     1     -10.333  17.685 -18.480  1.00  0.00    -0.516 OA
ENDBRANCH  12  16
BRANCH   9  19
HETATM   19  C2  UNL     1      -9.052  13.585 -15.951  1.00  0.00     0.279 C 
BRANCH  19  20
HETATM   20  C3  UNL     1      -8.214  12.626 -16.742  1.00  0.00     0.193 C 
HETATM   21  O3  UNL     1      -8.822  11.739 -17.377  1.00  0.00    -0.647 OA
HETATM   22  O4  UNL     1      -6.823  12.737 -16.757  1.00  0.00    -0.647 OA
ENDBRANCH  19  20
ENDBRANCH   9  19
ENDBRANCH   1   9
BRANCH   4  23
HETATM   23  N6  UNL     1      -9.758  19.124 -14.124  1.00  0.00    -0.365 N 
HETATM   24  C6  UNL     1     -11.135  19.328 -13.737  1.00  0.00     0.124 C 
HETATM   25  C7  UNL     1     -11.637  20.242 -14.835  1.00  0.00     0.021 C 
HETATM   26  C8  UNL     1     -10.467  21.212 -14.933  1.00  0.00     0.021 C 
HETATM   27  C9  UNL     1      -9.247  20.439 -14.526  1.00  0.00     0.124 C 
ENDBRANCH   4  23
BRANCH   6  28
HETATM   28  N8  UNL     1      -6.757  15.972 -12.171  1.00  0.00    -0.383 N 
ATOM     29  H82 UNL     1      -7.011  16.219 -11.215  1.00  0.00     0.157 HD
ATOM     30  H81 UNL     1      -5.894  15.467 -12.370  1.00  0.00     0.157 HD
ENDBRANCH   6  28
BRANCH   5  31
HETATM   31  N7  UNL     1      -7.983  18.314 -11.927  1.00  0.00    -0.108 N 
HETATM   32  O5  UNL     1      -7.165  19.234 -11.943  1.00  0.00    -0.531 OA
HETATM   33  O6  UNL     1      -8.652  18.017 -10.775  1.00  0.00    -0.531 OA
ENDBRANCH   5  31
TORSDOF 7
ENDMDL
