MODEL 1
REMARK VINA RESULT: -8.114912061      0.000      0.000
REMARK  11 active torsions:
REMARK  status: ('A' for Active; 'I' for Inactive)
REMARK    1  A    between atoms: C2_3  and  O1_4 
REMARK    2  A    between atoms: C4_7  and  N2_8 
REMARK    3  A    between atoms: C5_11  and  C6_12 
REMARK    4  A    between atoms: C6_12  and  O4_18 
REMARK    5  A    between atoms: N3_13  and  N4_15 
REMARK    6  A    between atoms: O4_18  and  N5_19 
REMARK       I    between atoms: N5_19  and  C7_21 
REMARK    7  A    between atoms: C7_21  and  C8_23 
REMARK    8  A    between atoms: C8_23  and  N6_24 
REMARK    9  A    between atoms: N6_24  and  N7_25 
REMARK       I    between atoms: N7_25  and  C9_27 
REMARK   10  A    between atoms: C9_27  and  C10_29 
REMARK   11  A    between atoms: C12_35  and  N10_36 
ROOT
HETATM    1  O4  UNL     1      66.607  48.246  22.731  1.00  0.00    -0.214 OA
ENDROOT
BRANCH   1   2
HETATM    2  C6  UNL     1      66.269  46.992  23.318  1.00  0.00     0.202 C 
HETATM    3  N3  UNL     1      65.482  47.105  24.317  1.00  0.00    -0.284 N 
ATOM      4  H3  UNL     1      65.202  46.238  24.775  1.00  0.00     0.188 HD
BRANCH   2   5
HETATM    5  C5  UNL     1      66.806  45.770  22.771  1.00  0.00     0.120 A 
HETATM    6  C4  UNL     1      66.104  44.850  22.079  1.00  0.00     0.127 A 
HETATM    7  C3  UNL     1      66.711  43.612  21.712  1.00  0.00     0.093 A 
HETATM    8  C2  UNL     1      68.015  43.359  22.061  1.00  0.00     0.146 A 
HETATM    9  N1  UNL     1      68.686  44.300  22.749  1.00  0.00    -0.298 N 
HETATM   10  C1  UNL     1      70.073  43.978  23.096  1.00  0.00     0.161 C 
HETATM   11  C13 UNL     1      68.153  45.468  23.111  1.00  0.00     0.266 A 
HETATM   12  O7  UNL     1      68.805  46.316  23.746  1.00  0.00    -0.267 OA
BRANCH   6  13
HETATM   13  N2  UNL     1      64.782  45.013  21.656  1.00  0.00    -0.114 N 
HETATM   14  O2  UNL     1      63.751  44.596  22.166  1.00  0.00    -0.532 OA
HETATM   15  O3  UNL     1      64.560  45.838  20.530  1.00  0.00    -0.532 OA
ENDBRANCH   6  13
BRANCH   8  16
HETATM   16  O1  UNL     1      68.646  42.170  21.726  1.00  0.00    -0.346 OA
ATOM     17  H1  UNL     1      69.171  42.121  20.935  1.00  0.00     0.219 HD
ENDBRANCH   8  16
ENDBRANCH   2   5
BRANCH   3  18
HETATM   18  N4  UNL     1      64.974  48.255  24.839  1.00  0.00    -0.343 N 
ATOM     19  H42 UNL     1      65.018  49.068  24.225  1.00  0.00     0.176 HD
ATOM     20  H41 UNL     1      64.561  48.384  25.763  1.00  0.00     0.176 HD
ENDBRANCH   3  18
ENDBRANCH   1   2
BRANCH   1  21
HETATM   21  N5  UNL     1      67.796  48.853  22.992  1.00  0.00    -0.222 N 
HETATM   22  C7  UNL     1      67.927  49.835  23.996  1.00  0.00     0.296 C 
HETATM   23  O5  UNL     1      66.946  50.188  24.695  1.00  0.00    -0.264 OA
ATOM     24  H5  UNL     1      68.617  48.590  22.445  1.00  0.00     0.198 HD
BRANCH  22  25
HETATM   25  C8  UNL     1      69.245  50.502  24.277  1.00  0.00     0.285 C 
BRANCH  25  26
HETATM   26  N6  UNL     1      69.225  51.416  25.277  1.00  0.00    -0.330 NA
BRANCH  26  27
HETATM   27  N7  UNL     1      69.119  52.116  26.165  1.00  0.00    -0.199 N 
HETATM   28  C9  UNL     1      68.223  52.929  26.853  1.00  0.00     0.285 C 
HETATM   29  O6  UNL     1      67.306  52.433  27.546  1.00  0.00    -0.265 OA
ATOM     30  H7  UNL     1      70.022  52.169  26.637  1.00  0.00     0.205 HD
BRANCH  28  31
HETATM   31  C10 UNL     1      68.375  54.385  26.751  1.00  0.00     0.096 A 
HETATM   32  C11 UNL     1      69.523  55.092  27.127  1.00  0.00     0.128 A 
HETATM   33  N8  UNL     1      69.277  56.381  26.891  1.00  0.00    -0.309 N 
HETATM   34  N9  UNL     1      68.064  56.538  26.397  1.00  0.00    -0.285 N 
ATOM     35  H8  UNL     1      69.935  57.140  27.068  1.00  0.00     0.186 HD
HETATM   36  C12 UNL     1      67.476  55.311  26.297  1.00  0.00     0.131 A 
ATOM     37  H9  UNL     1      67.637  57.426  26.134  1.00  0.00     0.188 HD
BRANCH  36  38
HETATM   38  N10 UNL     1      66.284  55.146  25.845  1.00  0.00    -0.384 N 
ATOM     39 2H10 UNL     1      65.452  55.266  26.424  1.00  0.00     0.157 HD
ATOM     40 1H10 UNL     1      65.972  54.888  24.909  1.00  0.00     0.157 HD
ENDBRANCH  36  38
ENDBRANCH  28  31
ENDBRANCH  26  27
ENDBRANCH  25  26
ENDBRANCH  22  25
ENDBRANCH   1  21
TORSDOF 11
ENDMDL
MODEL 2
REMARK VINA RESULT: -8.099806326      2.330      9.529
REMARK  11 active torsions:
REMARK  status: ('A' for Active; 'I' for Inactive)
REMARK    1  A    between atoms: C2_3  and  O1_4 
REMARK    2  A    between atoms: C4_7  and  N2_8 
REMARK    3  A    between atoms: C5_11  and  C6_12 
REMARK    4  A    between atoms: C6_12  and  O4_18 
REMARK    5  A    between atoms: N3_13  and  N4_15 
REMARK    6  A    between atoms: O4_18  and  N5_19 
REMARK       I    between atoms: N5_19  and  C7_21 
REMARK    7  A    between atoms: C7_21  and  C8_23 
REMARK    8  A    between atoms: C8_23  and  N6_24 
REMARK    9  A    between atoms: N6_24  and  N7_25 
REMARK       I    between atoms: N7_25  and  C9_27 
REMARK   10  A    between atoms: C9_27  and  C10_29 
REMARK   11  A    between atoms: C12_35  and  N10_36 
ROOT
HETATM    1  O4  UNL     1      68.494  50.913  25.901  1.00  0.00    -0.214 OA
ENDROOT
BRANCH   1   2
HETATM    2  C6  UNL     1      67.623  51.694  26.717  1.00  0.00     0.202 C 
HETATM    3  N3  UNL     1      67.341  51.129  27.827  1.00  0.00    -0.284 N 
ATOM      4  H3  UNL     1      66.724  51.645  28.455  1.00  0.00     0.188 HD
BRANCH   2   5
HETATM    5  C5  UNL     1      67.160  52.980  26.256  1.00  0.00     0.120 A 
HETATM    6  C4  UNL     1      67.839  54.139  26.368  1.00  0.00     0.127 A 
HETATM    7  C3  UNL     1      67.219  55.372  26.004  1.00  0.00     0.093 A 
HETATM    8  C2  UNL     1      65.928  55.375  25.536  1.00  0.00     0.146 A 
HETATM    9  N1  UNL     1      65.281  54.200  25.435  1.00  0.00    -0.298 N 
HETATM   10  C1  UNL     1      63.907  54.262  24.930  1.00  0.00     0.161 C 
HETATM   11  C13 UNL     1      65.828  53.029  25.765  1.00  0.00     0.266 A 
HETATM   12  O7  UNL     1      65.199  51.960  25.657  1.00  0.00    -0.267 OA
BRANCH   6  13
HETATM   13  N2  UNL     1      69.160  54.247  26.811  1.00  0.00    -0.114 N 
HETATM   14  O2  UNL     1      69.584  54.654  27.885  1.00  0.00    -0.532 OA
HETATM   15  O3  UNL     1      70.172  53.749  25.960  1.00  0.00    -0.532 OA
ENDBRANCH   6  13
BRANCH   8  16
HETATM   16  O1  UNL     1      65.284  56.549  25.170  1.00  0.00    -0.346 OA
ATOM     17  H1  UNL     1      65.231  56.792  24.253  1.00  0.00     0.219 HD
ENDBRANCH   8  16
ENDBRANCH   2   5
BRANCH   3  18
HETATM   18  N4  UNL     1      67.772  49.915  28.267  1.00  0.00    -0.343 N 
ATOM     19  H42 UNL     1      67.059  49.187  28.301  1.00  0.00     0.176 HD
ATOM     20  H41 UNL     1      68.717  49.664  28.559  1.00  0.00     0.176 HD
ENDBRANCH   3  18
ENDBRANCH   1   2
BRANCH   1  21
HETATM   21  N5  UNL     1      68.172  50.603  24.616  1.00  0.00    -0.222 N 
HETATM   22  C7  UNL     1      67.312  49.530  24.302  1.00  0.00     0.296 C 
HETATM   23  O5  UNL     1      66.804  48.816  25.201  1.00  0.00    -0.264 OA
ATOM     24  H5  UNL     1      68.564  51.163  23.859  1.00  0.00     0.198 HD
BRANCH  22  25
HETATM   25  C8  UNL     1      66.962  49.193  22.878  1.00  0.00     0.285 C 
BRANCH  25  26
HETATM   26  N6  UNL     1      66.623  47.900  22.661  1.00  0.00    -0.330 NA
BRANCH  26  27
HETATM   27  N7  UNL     1      66.393  46.790  22.584  1.00  0.00    -0.199 N 
HETATM   28  C9  UNL     1      65.877  45.700  23.279  1.00  0.00     0.285 C 
HETATM   29  O6  UNL     1      64.652  45.609  23.514  1.00  0.00    -0.265 OA
ATOM     30  H7  UNL     1      66.668  46.472  21.655  1.00  0.00     0.205 HD
BRANCH  28  31
HETATM   31  C10 UNL     1      66.801  44.655  23.732  1.00  0.00     0.096 A 
HETATM   32  C11 UNL     1      67.605  43.883  22.884  1.00  0.00     0.128 A 
HETATM   33  N8  UNL     1      68.295  43.048  23.660  1.00  0.00    -0.309 N 
HETATM   34  N9  UNL     1      67.987  43.234  24.930  1.00  0.00    -0.285 N 
ATOM     35  H8  UNL     1      68.967  42.360  23.320  1.00  0.00     0.186 HD
HETATM   36  C12 UNL     1      67.058  44.230  25.006  1.00  0.00     0.131 A 
ATOM     37  H9  UNL     1      68.376  42.720  25.719  1.00  0.00     0.188 HD
BRANCH  36  38
HETATM   38  N10 UNL     1      66.564  44.636  26.122  1.00  0.00    -0.384 N 
ATOM     39 2H10 UNL     1      66.072  44.016  26.766  1.00  0.00     0.157 HD
ATOM     40 1H10 UNL     1      66.571  45.567  26.538  1.00  0.00     0.157 HD
ENDBRANCH  36  38
ENDBRANCH  28  31
ENDBRANCH  26  27
ENDBRANCH  25  26
ENDBRANCH  22  25
ENDBRANCH   1  21
TORSDOF 11
ENDMDL
MODEL 3
REMARK VINA RESULT: -8.093384623      3.104      8.806
REMARK  11 active torsions:
REMARK  status: ('A' for Active; 'I' for Inactive)
REMARK    1  A    between atoms: C2_3  and  O1_4 
REMARK    2  A    between atoms: C4_7  and  N2_8 
REMARK    3  A    between atoms: C5_11  and  C6_12 
REMARK    4  A    between atoms: C6_12  and  O4_18 
REMARK    5  A    between atoms: N3_13  and  N4_15 
REMARK    6  A    between atoms: O4_18  and  N5_19 
REMARK       I    between atoms: N5_19  and  C7_21 
REMARK    7  A    between atoms: C7_21  and  C8_23 
REMARK    8  A    between atoms: C8_23  and  N6_24 
REMARK    9  A    between atoms: N6_24  and  N7_25 
REMARK       I    between atoms: N7_25  and  C9_27 
REMARK   10  A    between atoms: C9_27  and  C10_29 
REMARK   11  A    between atoms: C12_35  and  N10_36 
ROOT
HETATM    1  O4  UNL     1      69.186  53.309  25.821  1.00  0.00    -0.214 OA
ENDROOT
BRANCH   1   2
HETATM    2  C6  UNL     1      68.169  54.038  26.504  1.00  0.00     0.202 C 
HETATM    3  N3  UNL     1      68.625  54.755  27.457  1.00  0.00    -0.284 N 
ATOM      4  H3  UNL     1      67.942  55.304  27.979  1.00  0.00     0.188 HD
BRANCH   2   5
HETATM    5  C5  UNL     1      66.793  53.920  26.089  1.00  0.00     0.120 A 
HETATM    6  C4  UNL     1      66.083  52.774  26.057  1.00  0.00     0.127 A 
HETATM    7  C3  UNL     1      64.773  52.757  25.492  1.00  0.00     0.093 A 
HETATM    8  C2  UNL     1      64.234  53.912  24.982  1.00  0.00     0.146 A 
HETATM    9  N1  UNL     1      64.969  55.038  25.031  1.00  0.00    -0.298 N 
HETATM   10  C1  UNL     1      64.345  56.240  24.473  1.00  0.00     0.161 C 
HETATM   11  C13 UNL     1      66.196  55.092  25.552  1.00  0.00     0.266 A 
HETATM   12  O7  UNL     1      66.847  56.152  25.581  1.00  0.00    -0.267 OA
BRANCH   6  13
HETATM   13  N2  UNL     1      66.527  51.551  26.567  1.00  0.00    -0.114 N 
HETATM   14  O2  UNL     1      66.959  51.290  27.682  1.00  0.00    -0.532 OA
HETATM   15  O3  UNL     1      66.398  50.417  25.734  1.00  0.00    -0.532 OA
ENDBRANCH   6  13
BRANCH   8  16
HETATM   16  O1  UNL     1      62.964  53.944  24.422  1.00  0.00    -0.346 OA
ATOM     17  H1  UNL     1      62.262  53.441  24.819  1.00  0.00     0.219 HD
ENDBRANCH   8  16
ENDBRANCH   2   5
BRANCH   3  18
HETATM   18  N4  UNL     1      69.922  54.868  27.855  1.00  0.00    -0.343 N 
ATOM     19  H42 UNL     1      70.566  55.212  27.144  1.00  0.00     0.176 HD
ATOM     20  H41 UNL     1      70.307  54.651  28.774  1.00  0.00     0.176 HD
ENDBRANCH   3  18
ENDBRANCH   1   2
BRANCH   1  21
HETATM   21  N5  UNL     1      69.614  52.098  26.273  1.00  0.00    -0.222 N 
HETATM   22  C7  UNL     1      69.774  50.995  25.408  1.00  0.00     0.296 C 
HETATM   23  O5  UNL     1      69.530  51.086  24.180  1.00  0.00    -0.264 OA
ATOM     24  H5  UNL     1      69.825  51.986  27.265  1.00  0.00     0.198 HD
BRANCH  22  25
HETATM   25  C8  UNL     1      70.246  49.660  25.916  1.00  0.00     0.285 C 
BRANCH  25  26
HETATM   26  N6  UNL     1      69.267  48.752  26.140  1.00  0.00    -0.330 NA
BRANCH  26  27
HETATM   27  N7  UNL     1      68.372  48.062  26.263  1.00  0.00    -0.199 N 
HETATM   28  C9  UNL     1      67.917  46.765  26.050  1.00  0.00     0.285 C 
HETATM   29  O6  UNL     1      68.337  45.813  26.746  1.00  0.00    -0.265 OA
ATOM     30  H7  UNL     1      67.616  48.597  26.693  1.00  0.00     0.205 HD
BRANCH  28  31
HETATM   31  C10 UNL     1      66.928  46.532  24.991  1.00  0.00     0.096 A 
HETATM   32  C11 UNL     1      66.657  47.425  23.947  1.00  0.00     0.128 A 
HETATM   33  N8  UNL     1      65.706  46.867  23.198  1.00  0.00    -0.309 N 
HETATM   34  N9  UNL     1      65.359  45.693  23.691  1.00  0.00    -0.285 N 
ATOM     35  H8  UNL     1      65.303  47.289  22.362  1.00  0.00     0.186 HD
HETATM   36  C12 UNL     1      66.104  45.456  24.808  1.00  0.00     0.131 A 
ATOM     37  H9  UNL     1      64.653  45.069  23.302  1.00  0.00     0.188 HD
BRANCH  36  38
HETATM   38  N10 UNL     1      65.987  44.383  25.507  1.00  0.00    -0.384 N 
ATOM     39 2H10 UNL     1      66.790  43.826  25.802  1.00  0.00     0.157 HD
ATOM     40 1H10 UNL     1      65.149  43.927  25.866  1.00  0.00     0.157 HD
ENDBRANCH  36  38
ENDBRANCH  28  31
ENDBRANCH  26  27
ENDBRANCH  25  26
ENDBRANCH  22  25
ENDBRANCH   1  21
TORSDOF 11
ENDMDL
MODEL 4
REMARK VINA RESULT: -8.087798514      2.307      3.082
REMARK  11 active torsions:
REMARK  status: ('A' for Active; 'I' for Inactive)
REMARK    1  A    between atoms: C2_3  and  O1_4 
REMARK    2  A    between atoms: C4_7  and  N2_8 
REMARK    3  A    between atoms: C5_11  and  C6_12 
REMARK    4  A    between atoms: C6_12  and  O4_18 
REMARK    5  A    between atoms: N3_13  and  N4_15 
REMARK    6  A    between atoms: O4_18  and  N5_19 
REMARK       I    between atoms: N5_19  and  C7_21 
REMARK    7  A    between atoms: C7_21  and  C8_23 
REMARK    8  A    between atoms: C8_23  and  N6_24 
REMARK    9  A    between atoms: N6_24  and  N7_25 
REMARK       I    between atoms: N7_25  and  C9_27 
REMARK   10  A    between atoms: C9_27  and  C10_29 
REMARK   11  A    between atoms: C12_35  and  N10_36 
ROOT
HETATM    1  O4  UNL     1      65.823  49.484  23.921  1.00  0.00    -0.214 OA
ENDROOT
BRANCH   1   2
HETATM    2  C6  UNL     1      66.866  48.658  23.406  1.00  0.00     0.202 C 
HETATM    3  N3  UNL     1      67.504  49.204  22.444  1.00  0.00    -0.284 N 
ATOM      4  H3  UNL     1      68.266  48.660  22.039  1.00  0.00     0.188 HD
BRANCH   2   5
HETATM    5  C5  UNL     1      67.104  47.355  23.977  1.00  0.00     0.120 A 
HETATM    6  C4  UNL     1      66.383  46.246  23.717  1.00  0.00     0.127 A 
HETATM    7  C3  UNL     1      66.624  45.046  24.451  1.00  0.00     0.093 A 
HETATM    8  C2  UNL     1      67.595  45.022  25.421  1.00  0.00     0.146 A 
HETATM    9  N1  UNL     1      68.297  46.145  25.652  1.00  0.00    -0.298 N 
HETATM   10  C1  UNL     1      69.321  46.063  26.698  1.00  0.00     0.161 C 
HETATM   11  C13 UNL     1      68.100  47.285  24.987  1.00  0.00     0.266 A 
HETATM   12  O7  UNL     1      68.770  48.306  25.228  1.00  0.00    -0.267 OA
BRANCH   6  13
HETATM   13  N2  UNL     1      65.388  46.156  22.740  1.00  0.00    -0.114 N 
HETATM   14  O2  UNL     1      65.402  46.561  21.585  1.00  0.00    -0.532 OA
HETATM   15  O3  UNL     1      64.222  45.429  23.068  1.00  0.00    -0.532 OA
ENDBRANCH   6  13
BRANCH   8  16
HETATM   16  O1  UNL     1      67.864  43.878  26.161  1.00  0.00    -0.346 OA
ATOM     17  H1  UNL     1      67.394  43.719  26.971  1.00  0.00     0.219 HD
ENDBRANCH   8  16
ENDBRANCH   2   5
BRANCH   3  18
HETATM   18  N4  UNL     1      67.283  50.432  21.900  1.00  0.00    -0.343 N 
ATOM     19  H42 UNL     1      66.302  50.675  21.762  1.00  0.00     0.176 HD
ATOM     20  H41 UNL     1      67.982  51.119  21.622  1.00  0.00     0.176 HD
ENDBRANCH   3  18
ENDBRANCH   1   2
BRANCH   1  21
HETATM   21  N5  UNL     1      65.845  49.934  25.204  1.00  0.00    -0.222 N 
HETATM   22  C7  UNL     1      66.671  51.005  25.604  1.00  0.00     0.296 C 
HETATM   23  O5  UNL     1      67.421  51.592  24.786  1.00  0.00    -0.264 OA
ATOM     24  H5  UNL     1      65.247  49.483  25.898  1.00  0.00     0.198 HD
BRANCH  22  25
HETATM   25  C8  UNL     1      66.690  51.496  27.026  1.00  0.00     0.285 C 
BRANCH  25  26
HETATM   26  N6  UNL     1      67.422  52.616  27.237  1.00  0.00    -0.330 NA
BRANCH  26  27
HETATM   27  N7  UNL     1      67.931  53.614  27.430  1.00  0.00    -0.199 N 
HETATM   28  C9  UNL     1      68.531  54.706  26.811  1.00  0.00     0.285 C 
HETATM   29  O6  UNL     1      67.849  55.542  26.179  1.00  0.00    -0.265 OA
ATOM     30  H7  UNL     1      67.958  53.767  28.438  1.00  0.00     0.205 HD
BRANCH  28  31
HETATM   31  C10 UNL     1      69.987  54.859  26.914  1.00  0.00     0.096 A 
HETATM   32  C11 UNL     1      70.912  53.831  26.693  1.00  0.00     0.128 A 
HETATM   33  N8  UNL     1      72.123  54.354  26.884  1.00  0.00    -0.309 N 
HETATM   34  N9  UNL     1      72.031  55.630  27.209  1.00  0.00    -0.285 N 
ATOM     35  H8  UNL     1      72.999  53.839  26.792  1.00  0.00     0.186 HD
HETATM   36  C12 UNL     1      70.711  55.974  27.235  1.00  0.00     0.131 A 
ATOM     37  H9  UNL     1      72.813  56.252  27.407  1.00  0.00     0.188 HD
BRANCH  36  38
HETATM   38  N10 UNL     1      70.308  57.161  27.521  1.00  0.00    -0.384 N 
ATOM     39 2H10 UNL     1      69.991  57.822  26.812  1.00  0.00     0.157 HD
ATOM     40 1H10 UNL     1      70.235  57.624  28.427  1.00  0.00     0.157 HD
ENDBRANCH  36  38
ENDBRANCH  28  31
ENDBRANCH  26  27
ENDBRANCH  25  26
ENDBRANCH  22  25
ENDBRANCH   1  21
TORSDOF 11
ENDMDL
MODEL 5
REMARK VINA RESULT: -7.892917558      5.402      7.540
REMARK  11 active torsions:
REMARK  status: ('A' for Active; 'I' for Inactive)
REMARK    1  A    between atoms: C2_3  and  O1_4 
REMARK    2  A    between atoms: C4_7  and  N2_8 
REMARK    3  A    between atoms: C5_11  and  C6_12 
REMARK    4  A    between atoms: C6_12  and  O4_18 
REMARK    5  A    between atoms: N3_13  and  N4_15 
REMARK    6  A    between atoms: O4_18  and  N5_19 
REMARK       I    between atoms: N5_19  and  C7_21 
REMARK    7  A    between atoms: C7_21  and  C8_23 
REMARK    8  A    between atoms: C8_23  and  N6_24 
REMARK    9  A    between atoms: N6_24  and  N7_25 
REMARK       I    between atoms: N7_25  and  C9_27 
REMARK   10  A    between atoms: C9_27  and  C10_29 
REMARK   11  A    between atoms: C12_35  and  N10_36 
ROOT
HETATM    1  O4  UNL     1      74.225  51.759  26.640  1.00  0.00    -0.214 OA
ENDROOT
BRANCH   1   2
HETATM    2  C6  UNL     1      73.003  51.026  26.621  1.00  0.00     0.202 C 
HETATM    3  N3  UNL     1      72.422  50.996  27.758  1.00  0.00    -0.284 N 
ATOM      4  H3  UNL     1      71.538  50.488  27.803  1.00  0.00     0.188 HD
BRANCH   2   5
HETATM    5  C5  UNL     1      72.545  50.416  25.397  1.00  0.00     0.120 A 
HETATM    6  C4  UNL     1      71.756  51.007  24.478  1.00  0.00     0.127 A 
HETATM    7  C3  UNL     1      71.250  50.256  23.376  1.00  0.00     0.093 A 
HETATM    8  C2  UNL     1      71.573  48.927  23.249  1.00  0.00     0.146 A 
HETATM    9  N1  UNL     1      72.365  48.369  24.183  1.00  0.00    -0.298 N 
HETATM   10  C1  UNL     1      72.676  46.949  23.999  1.00  0.00     0.161 C 
HETATM   11  C13 UNL     1      72.855  49.039  25.227  1.00  0.00     0.266 A 
HETATM   12  O7  UNL     1      73.586  48.491  26.071  1.00  0.00    -0.267 OA
BRANCH   6  13
HETATM   13  N2  UNL     1      71.384  52.355  24.499  1.00  0.00    -0.114 N 
HETATM   14  O2  UNL     1      70.530  52.910  25.178  1.00  0.00    -0.532 OA
HETATM   15  O3  UNL     1      72.133  53.245  23.698  1.00  0.00    -0.532 OA
ENDBRANCH   6  13
BRANCH   8  16
HETATM   16  O1  UNL     1      71.104  48.156  22.194  1.00  0.00    -0.346 OA
ATOM     17  H1  UNL     1      70.723  48.580  21.434  1.00  0.00     0.219 HD
ENDBRANCH   8  16
ENDBRANCH   2   5
BRANCH   3  18
HETATM   18  N4  UNL     1      72.849  51.567  28.917  1.00  0.00    -0.343 N 
ATOM     19  H42 UNL     1      73.051  52.565  28.861  1.00  0.00     0.176 HD
ATOM     20  H41 UNL     1      72.986  51.109  29.817  1.00  0.00     0.176 HD
ENDBRANCH   3  18
ENDBRANCH   1   2
BRANCH   1  21
HETATM   21  N5  UNL     1      74.346  52.952  25.997  1.00  0.00    -0.222 N 
HETATM   22  C7  UNL     1      73.836  54.148  26.544  1.00  0.00     0.296 C 
HETATM   23  O5  UNL     1      73.251  54.161  27.655  1.00  0.00    -0.264 OA
ATOM     24  H5  UNL     1      74.818  52.982  25.093  1.00  0.00     0.198 HD
BRANCH  22  25
HETATM   25  C8  UNL     1      73.973  55.463  25.826  1.00  0.00     0.285 C 
BRANCH  25  26
HETATM   26  N6  UNL     1      73.041  56.392  26.147  1.00  0.00    -0.330 NA
BRANCH  26  27
HETATM   27  N7  UNL     1      72.177  57.083  26.406  1.00  0.00    -0.199 N 
HETATM   28  C9  UNL     1      71.249  57.968  25.869  1.00  0.00     0.285 C 
HETATM   29  O6  UNL     1      70.289  57.555  25.181  1.00  0.00    -0.265 OA
ATOM     30  H7  UNL     1      72.025  57.036  27.414  1.00  0.00     0.205 HD
BRANCH  28  31
HETATM   31  C10 UNL     1      71.416  59.403  26.125  1.00  0.00     0.096 A 
HETATM   32  C11 UNL     1      71.842  59.948  27.343  1.00  0.00     0.128 A 
HETATM   33  N8  UNL     1      71.865  61.272  27.186  1.00  0.00    -0.309 N 
HETATM   34  N9  UNL     1      71.486  61.601  25.966  1.00  0.00    -0.285 N 
ATOM     35  H8  UNL     1      72.138  61.938  27.909  1.00  0.00     0.186 HD
HETATM   36  C12 UNL     1      71.200  60.457  25.280  1.00  0.00     0.131 A 
ATOM     37  H9  UNL     1      71.417  62.549  25.597  1.00  0.00     0.188 HD
BRANCH  36  38
HETATM   38  N10 UNL     1      70.803  60.460  24.057  1.00  0.00    -0.384 N 
ATOM     39 2H10 UNL     1      71.272  59.928  23.323  1.00  0.00     0.157 HD
ATOM     40 1H10 UNL     1      70.017  60.948  23.628  1.00  0.00     0.157 HD
ENDBRANCH  36  38
ENDBRANCH  28  31
ENDBRANCH  26  27
ENDBRANCH  25  26
ENDBRANCH  22  25
ENDBRANCH   1  21
TORSDOF 11
ENDMDL
