MODEL 1
REMARK VINA RESULT: -9.043926056      0.000      0.000
REMARK  8 active torsions:
REMARK  status: ('A' for Active; 'I' for Inactive)
REMARK    1  A    between atoms: O1_2  and  C2_3 
REMARK       I    between atoms: C2_3  and  N1_5 
REMARK    2  A    between atoms: N1_5  and  C3_7 
REMARK    3  A    between atoms: C3_7  and  C5_9 
REMARK    4  A    between atoms: C3_7  and  C6_16 
REMARK    5  A    between atoms: C7_20  and  C8_21 
REMARK    6  A    between atoms: N9_30  and  C11_32 
REMARK    7  A    between atoms: C11_32  and  C12_33 
REMARK    8  A    between atoms: C12_33  and  O4_34 
ROOT
HETATM    1  C6  UNL     1      66.382  49.465  25.197  1.00  0.00     0.077 A 
HETATM    2  N6  UNL     1      65.293  49.805  24.492  1.00  0.00    -0.261 N 
ATOM      3  H6  UNL     1      64.677  49.149  24.012  1.00  0.00     0.194 HD
HETATM    4  O3  UNL     1      65.143  51.063  24.509  1.00  0.00    -0.233 OA
HETATM    5  C7  UNL     1      66.109  51.670  25.220  1.00  0.00     0.150 A 
HETATM    6  C13 UNL     1      66.899  50.666  25.661  1.00  0.00     0.005 A 
HETATM    7  C14 UNL     1      68.088  50.726  26.503  1.00  0.00     0.054 C 
ENDROOT
BRANCH   5   8
HETATM    8  C8  UNL     1      66.186  53.139  25.401  1.00  0.00     0.146 A 
HETATM    9  N7  UNL     1      65.092  53.815  24.953  1.00  0.00    -0.321 N 
HETATM   10  C9  UNL     1      64.824  55.099  25.018  1.00  0.00     0.147 A 
ATOM     11  H7  UNL     1      64.378  53.242  24.503  1.00  0.00     0.169 HD
HETATM   12  N8  UNL     1      63.723  55.622  24.545  1.00  0.00    -0.379 N 
HETATM   13  S1  UNL     1      66.052  56.023  25.781  1.00  0.00    -0.018 SA
ATOM     14  H82 UNL     1      62.993  55.073  24.091  1.00  0.00     0.158 HD
ATOM     15  H81 UNL     1      63.515  56.618  24.595  1.00  0.00     0.158 HD
HETATM   16  C10 UNL     1      67.352  55.044  26.284  1.00  0.00     0.149 A 
HETATM   17  N9  UNL     1      68.405  55.454  26.878  1.00  0.00    -0.368 N 
HETATM   18  N10 UNL     1      67.219  53.719  26.011  1.00  0.00    -0.320 N 
ATOM     19  H9  UNL     1      68.442  56.458  27.051  1.00  0.00     0.161 HD
ATOM     20  H10 UNL     1      67.984  53.110  26.301  1.00  0.00     0.169 HD
BRANCH  17  21
HETATM   21  C11 UNL     1      69.527  54.722  27.330  1.00  0.00     0.147 C 
BRANCH  21  22
HETATM   22  C12 UNL     1      70.725  55.568  27.697  1.00  0.00     0.183 C 
BRANCH  22  23
HETATM   23  O4  UNL     1      70.370  56.914  27.719  1.00  0.00    -0.399 OA
ATOM     24  H4  UNL     1      71.032  57.432  27.277  1.00  0.00     0.209 HD
ENDBRANCH  22  23
ENDBRANCH  21  22
ENDBRANCH  17  21
ENDBRANCH   5   8
BRANCH   1  25
HETATM   25  C3  UNL     1      66.830  48.079  25.384  1.00  0.00     0.136 C 
HETATM   26  C4  UNL     1      68.372  48.152  25.177  1.00  0.00     0.054 C 
BRANCH  25  27
HETATM   27  N1  UNL     1      66.345  47.277  24.281  1.00  0.00    -0.315 N 
HETATM   28  C2  UNL     1      65.000  46.916  24.071  1.00  0.00     0.361 C 
HETATM   29  O2  UNL     1      64.117  47.287  24.868  1.00  0.00    -0.238 OA
ATOM     30  H1  UNL     1      67.032  46.947  23.602  1.00  0.00     0.166 HD
BRANCH  28  31
HETATM   31  O1  UNL     1      64.583  46.147  22.994  1.00  0.00    -0.309 OA
HETATM   32  C1  UNL     1      65.520  45.478  22.205  1.00  0.00     0.215 C 
ENDBRANCH  28  31
ENDBRANCH  25  27
BRANCH  25  33
HETATM   33  C5  UNL     1      66.557  47.482  26.686  1.00  0.00     0.142 A 
HETATM   34  N2  UNL     1      65.936  46.317  26.919  1.00  0.00    -0.271 N 
HETATM   35  N3  UNL     1      65.873  46.091  28.229  1.00  0.00    -0.007 NA
ATOM     36  H2  UNL     1      65.566  45.697  26.199  1.00  0.00     0.185 HD
HETATM   37  N4  UNL     1      66.461  47.123  28.810  1.00  0.00    -0.007 NA
HETATM   38  N5  UNL     1      66.878  47.972  27.884  1.00  0.00    -0.271 N 
ATOM     39  H5  UNL     1      67.364  48.852  28.057  1.00  0.00     0.185 HD
ENDBRANCH  25  33
ENDBRANCH   1  25
TORSDOF 8
ENDMDL
MODEL 2
REMARK VINA RESULT: -8.926716319      1.328      1.548
REMARK  8 active torsions:
REMARK  status: ('A' for Active; 'I' for Inactive)
REMARK    1  A    between atoms: O1_2  and  C2_3 
REMARK       I    between atoms: C2_3  and  N1_5 
REMARK    2  A    between atoms: N1_5  and  C3_7 
REMARK    3  A    between atoms: C3_7  and  C5_9 
REMARK    4  A    between atoms: C3_7  and  C6_16 
REMARK    5  A    between atoms: C7_20  and  C8_21 
REMARK    6  A    between atoms: N9_30  and  C11_32 
REMARK    7  A    between atoms: C11_32  and  C12_33 
REMARK    8  A    between atoms: C12_33  and  O4_34 
ROOT
HETATM    1  C6  UNL     1      66.975  49.325  25.496  1.00  0.00     0.077 A 
HETATM    2  N6  UNL     1      67.066  49.619  26.801  1.00  0.00    -0.261 N 
ATOM      3  H6  UNL     1      67.230  48.941  27.545  1.00  0.00     0.194 HD
HETATM    4  O3  UNL     1      66.918  50.865  26.975  1.00  0.00    -0.233 OA
HETATM    5  C7  UNL     1      66.715  51.509  25.813  1.00  0.00     0.150 A 
HETATM    6  C13 UNL     1      66.750  50.543  24.869  1.00  0.00     0.005 A 
HETATM    7  C14 UNL     1      66.617  50.658  23.421  1.00  0.00     0.054 C 
ENDROOT
BRANCH   5   8
HETATM    8  C8  UNL     1      66.503  52.973  25.719  1.00  0.00     0.146 A 
HETATM    9  N7  UNL     1      65.291  53.331  25.209  1.00  0.00    -0.321 N 
HETATM   10  C9  UNL     1      64.776  54.528  25.051  1.00  0.00     0.147 A 
ATOM     11  H7  UNL     1      64.699  52.557  24.906  1.00  0.00     0.169 HD
HETATM   12  N8  UNL     1      63.588  54.731  24.546  1.00  0.00    -0.379 N 
HETATM   13  S1  UNL     1      65.807  55.797  25.572  1.00  0.00    -0.018 SA
ATOM     14  H82 UNL     1      62.975  53.977  24.237  1.00  0.00     0.158 HD
ATOM     15  H81 UNL     1      63.188  55.661  24.424  1.00  0.00     0.158 HD
HETATM   16  C10 UNL     1      67.280  55.198  26.181  1.00  0.00     0.149 A 
HETATM   17  N9  UNL     1      68.239  55.907  26.637  1.00  0.00    -0.368 N 
HETATM   18  N10 UNL     1      67.408  53.845  26.161  1.00  0.00    -0.320 N 
ATOM     19  H9  UNL     1      68.079  56.914  26.623  1.00  0.00     0.161 HD
ATOM     20  H10 UNL     1      68.283  53.460  26.520  1.00  0.00     0.169 HD
BRANCH  17  21
HETATM   21  C11 UNL     1      69.489  55.502  27.160  1.00  0.00     0.147 C 
BRANCH  21  22
HETATM   22  C12 UNL     1      70.591  56.529  27.024  1.00  0.00     0.183 C 
BRANCH  22  23
HETATM   23  O4  UNL     1      70.330  57.619  27.850  1.00  0.00    -0.399 OA
ATOM     24  H4  UNL     1      71.023  57.711  28.495  1.00  0.00     0.209 HD
ENDBRANCH  22  23
ENDBRANCH  21  22
ENDBRANCH  17  21
ENDBRANCH   5   8
BRANCH   1  25
HETATM   25  C3  UNL     1      67.113  47.966  24.956  1.00  0.00     0.136 C 
HETATM   26  C4  UNL     1      68.561  47.937  24.382  1.00  0.00     0.054 C 
BRANCH  25  27
HETATM   27  N1  UNL     1      66.253  47.831  23.800  1.00  0.00    -0.315 N 
HETATM   28  C2  UNL     1      65.969  46.621  23.137  1.00  0.00     0.361 C 
HETATM   29  O2  UNL     1      66.475  45.553  23.534  1.00  0.00    -0.238 OA
ATOM     30  H1  UNL     1      65.817  48.679  23.437  1.00  0.00     0.166 HD
BRANCH  28  31
HETATM   31  O1  UNL     1      65.134  46.542  22.033  1.00  0.00    -0.309 OA
HETATM   32  C1  UNL     1      64.811  45.299  21.485  1.00  0.00     0.215 C 
ENDBRANCH  28  31
ENDBRANCH  25  27
BRANCH  25  33
HETATM   33  C5  UNL     1      66.962  46.875  25.911  1.00  0.00     0.142 A 
HETATM   34  N2  UNL     1      65.842  46.529  26.561  1.00  0.00    -0.271 N 
HETATM   35  N3  UNL     1      66.078  45.479  27.345  1.00  0.00    -0.007 NA
ATOM     36  H2  UNL     1      64.942  47.001  26.470  1.00  0.00     0.185 HD
HETATM   37  N4  UNL     1      67.353  45.173  27.176  1.00  0.00    -0.007 NA
HETATM   38  N5  UNL     1      67.898  46.013  26.310  1.00  0.00    -0.271 N 
ATOM     39  H5  UNL     1      68.869  46.003  25.999  1.00  0.00     0.185 HD
ENDBRANCH  25  33
ENDBRANCH   1  25
TORSDOF 8
ENDMDL
MODEL 3
REMARK VINA RESULT: -8.721268395      2.110      3.230
REMARK  8 active torsions:
REMARK  status: ('A' for Active; 'I' for Inactive)
REMARK    1  A    between atoms: O1_2  and  C2_3 
REMARK       I    between atoms: C2_3  and  N1_5 
REMARK    2  A    between atoms: N1_5  and  C3_7 
REMARK    3  A    between atoms: C3_7  and  C5_9 
REMARK    4  A    between atoms: C3_7  and  C6_16 
REMARK    5  A    between atoms: C7_20  and  C8_21 
REMARK    6  A    between atoms: N9_30  and  C11_32 
REMARK    7  A    between atoms: C11_32  and  C12_33 
REMARK    8  A    between atoms: C12_33  and  O4_34 
ROOT
HETATM    1  C6  UNL     1      66.413  48.858  24.718  1.00  0.00     0.077 A 
HETATM    2  N6  UNL     1      65.270  49.506  24.446  1.00  0.00    -0.261 N 
ATOM      3  H6  UNL     1      64.435  49.079  24.045  1.00  0.00     0.194 HD
HETATM    4  O3  UNL     1      65.381  50.728  24.761  1.00  0.00    -0.233 OA
HETATM    5  C7  UNL     1      66.596  51.003  25.266  1.00  0.00     0.150 A 
HETATM    6  C13 UNL     1      67.257  49.826  25.244  1.00  0.00     0.005 A 
HETATM    7  C14 UNL     1      68.608  49.514  25.695  1.00  0.00     0.054 C 
ENDROOT
BRANCH   5   8
HETATM    8  C8  UNL     1      67.005  52.357  25.710  1.00  0.00     0.146 A 
HETATM    9  N7  UNL     1      68.290  52.433  26.156  1.00  0.00    -0.321 N 
HETATM   10  C9  UNL     1      68.969  53.483  26.559  1.00  0.00     0.147 A 
ATOM     11  H7  UNL     1      68.798  51.549  26.181  1.00  0.00     0.169 HD
HETATM   12  N8  UNL     1      70.211  53.415  26.963  1.00  0.00    -0.379 N 
HETATM   13  S1  UNL     1      68.076  54.946  26.503  1.00  0.00    -0.018 SA
ATOM     14  H82 UNL     1      70.741  52.545  26.997  1.00  0.00     0.158 HD
ATOM     15  H81 UNL     1      70.738  54.230  27.276  1.00  0.00     0.158 HD
HETATM   16  C10 UNL     1      66.493  54.693  25.928  1.00  0.00     0.149 A 
HETATM   17  N9  UNL     1      65.602  55.595  25.780  1.00  0.00    -0.368 N 
HETATM   18  N10 UNL     1      66.190  53.406  25.612  1.00  0.00    -0.320 N 
ATOM     19  H9  UNL     1      65.893  56.538  26.037  1.00  0.00     0.161 HD
ATOM     20  H10 UNL     1      65.247  53.226  25.266  1.00  0.00     0.169 HD
BRANCH  17  21
HETATM   21  C11 UNL     1      64.272  55.481  25.314  1.00  0.00     0.147 C 
BRANCH  21  22
HETATM   22  C12 UNL     1      63.735  56.719  24.631  1.00  0.00     0.183 C 
BRANCH  22  23
HETATM   23  O4  UNL     1      64.109  56.722  23.289  1.00  0.00    -0.399 OA
ATOM     24  H4  UNL     1      63.368  56.967  22.747  1.00  0.00     0.209 HD
ENDBRANCH  22  23
ENDBRANCH  21  22
ENDBRANCH  17  21
ENDBRANCH   5   8
BRANCH   1  25
HETATM   25  C3  UNL     1      66.610  47.422  24.480  1.00  0.00     0.136 C 
HETATM   26  C4  UNL     1      67.962  47.352  23.710  1.00  0.00     0.054 C 
BRANCH  25  27
HETATM   27  N1  UNL     1      65.618  46.963  23.532  1.00  0.00    -0.315 N 
HETATM   28  C2  UNL     1      65.170  45.634  23.406  1.00  0.00     0.361 C 
HETATM   29  O2  UNL     1      65.634  44.741  24.143  1.00  0.00    -0.238 OA
ATOM     30  H1  UNL     1      65.210  47.657  22.905  1.00  0.00     0.166 HD
BRANCH  28  31
HETATM   31  O1  UNL     1      64.213  45.242  22.482  1.00  0.00    -0.309 OA
HETATM   32  C1  UNL     1      64.597  44.828  21.205  1.00  0.00     0.215 C 
ENDBRANCH  28  31
ENDBRANCH  25  27
BRANCH  25  33
HETATM   33  C5  UNL     1      66.699  46.578  25.667  1.00  0.00     0.142 A 
HETATM   34  N2  UNL     1      67.699  45.742  25.982  1.00  0.00    -0.271 N 
HETATM   35  N3  UNL     1      67.441  45.144  27.143  1.00  0.00    -0.007 NA
ATOM     36  H2  UNL     1      68.533  45.588  25.416  1.00  0.00     0.185 HD
HETATM   37  N4  UNL     1      66.274  45.615  27.549  1.00  0.00    -0.007 NA
HETATM   38  N5  UNL     1      65.816  46.484  26.661  1.00  0.00    -0.271 N 
ATOM     39  H5  UNL     1      64.936  46.995  26.726  1.00  0.00     0.185 HD
ENDBRANCH  25  33
ENDBRANCH   1  25
TORSDOF 8
ENDMDL
MODEL 4
REMARK VINA RESULT: -8.689029107      2.322      3.179
REMARK  8 active torsions:
REMARK  status: ('A' for Active; 'I' for Inactive)
REMARK    1  A    between atoms: O1_2  and  C2_3 
REMARK       I    between atoms: C2_3  and  N1_5 
REMARK    2  A    between atoms: N1_5  and  C3_7 
REMARK    3  A    between atoms: C3_7  and  C5_9 
REMARK    4  A    between atoms: C3_7  and  C6_16 
REMARK    5  A    between atoms: C7_20  and  C8_21 
REMARK    6  A    between atoms: N9_30  and  C11_32 
REMARK    7  A    between atoms: C11_32  and  C12_33 
REMARK    8  A    between atoms: C12_33  and  O4_34 
ROOT
HETATM    1  C6  UNL     1      67.123  49.348  26.119  1.00  0.00     0.077 A 
HETATM    2  N6  UNL     1      67.114  49.743  27.401  1.00  0.00    -0.261 N 
ATOM      3  H6  UNL     1      67.194  49.121  28.206  1.00  0.00     0.194 HD
HETATM    4  O3  UNL     1      66.991  51.002  27.465  1.00  0.00    -0.233 OA
HETATM    5  C7  UNL     1      66.907  51.556  26.244  1.00  0.00     0.150 A 
HETATM    6  C13 UNL     1      66.989  50.518  25.384  1.00  0.00     0.005 A 
HETATM    7  C14 UNL     1      66.981  50.520  23.925  1.00  0.00     0.054 C 
ENDROOT
BRANCH   5   8
HETATM    8  C8  UNL     1      66.749  53.013  26.019  1.00  0.00     0.146 A 
HETATM    9  N7  UNL     1      65.567  53.365  25.442  1.00  0.00    -0.321 N 
HETATM   10  C9  UNL     1      65.099  54.560  25.167  1.00  0.00     0.147 A 
ATOM     11  H7  UNL     1      64.957  52.588  25.187  1.00  0.00     0.169 HD
HETATM   12  N8  UNL     1      63.934  54.758  24.608  1.00  0.00    -0.379 N 
HETATM   13  S1  UNL     1      66.158  55.835  25.612  1.00  0.00    -0.018 SA
ATOM     14  H82 UNL     1      63.305  54.001  24.343  1.00  0.00     0.158 HD
ATOM     15  H81 UNL     1      63.571  55.687  24.394  1.00  0.00     0.158 HD
HETATM   16  C10 UNL     1      67.590  55.243  26.317  1.00  0.00     0.149 A 
HETATM   17  N9  UNL     1      68.560  55.956  26.743  1.00  0.00    -0.368 N 
HETATM   18  N10 UNL     1      67.671  53.889  26.416  1.00  0.00    -0.320 N 
ATOM     19  H9  UNL     1      68.436  56.963  26.638  1.00  0.00     0.161 HD
ATOM     20  H10 UNL     1      68.520  53.508  26.834  1.00  0.00     0.169 HD
BRANCH  17  21
HETATM   21  C11 UNL     1      69.779  55.557  27.338  1.00  0.00     0.147 C 
BRANCH  21  22
HETATM   22  C12 UNL     1      70.842  56.632  27.379  1.00  0.00     0.183 C 
BRANCH  22  23
HETATM   23  O4  UNL     1      70.295  57.825  27.845  1.00  0.00    -0.399 OA
ATOM     24  H4  UNL     1      70.989  58.430  28.079  1.00  0.00     0.209 HD
ENDBRANCH  22  23
ENDBRANCH  21  22
ENDBRANCH  17  21
ENDBRANCH   5   8
BRANCH   1  25
HETATM   25  C3  UNL     1      67.262  47.948  25.700  1.00  0.00     0.136 C 
HETATM   26  C4  UNL     1      67.470  47.175  27.036  1.00  0.00     0.054 C 
BRANCH  25  27
HETATM   27  N1  UNL     1      68.512  47.795  24.985  1.00  0.00    -0.315 N 
HETATM   28  C2  UNL     1      69.774  48.198  25.463  1.00  0.00     0.361 C 
HETATM   29  O2  UNL     1      69.880  48.736  26.583  1.00  0.00    -0.238 OA
ATOM     30  H1  UNL     1      68.475  47.362  24.062  1.00  0.00     0.166 HD
BRANCH  28  31
HETATM   31  O1  UNL     1      70.946  48.027  24.741  1.00  0.00    -0.309 OA
HETATM   32  C1  UNL     1      72.133  47.696  25.397  1.00  0.00     0.215 C 
ENDBRANCH  28  31
ENDBRANCH  25  27
BRANCH  25  33
HETATM   33  C5  UNL     1      66.126  47.370  24.992  1.00  0.00     0.142 A 
HETATM   34  N2  UNL     1      66.131  46.260  24.240  1.00  0.00    -0.271 N 
HETATM   35  N3  UNL     1      64.911  46.033  23.758  1.00  0.00    -0.007 NA
ATOM     36  H2  UNL     1      66.948  45.676  24.063  1.00  0.00     0.185 HD
HETATM   37  N4  UNL     1      64.146  47.009  24.217  1.00  0.00    -0.007 NA
HETATM   38  N5  UNL     1      64.873  47.825  24.964  1.00  0.00    -0.271 N 
ATOM     39  H5  UNL     1      64.533  48.661  25.440  1.00  0.00     0.185 HD
ENDBRANCH  25  33
ENDBRANCH   1  25
TORSDOF 8
ENDMDL
MODEL 5
REMARK VINA RESULT: -8.640802987      2.046      2.854
REMARK  8 active torsions:
REMARK  status: ('A' for Active; 'I' for Inactive)
REMARK    1  A    between atoms: O1_2  and  C2_3 
REMARK       I    between atoms: C2_3  and  N1_5 
REMARK    2  A    between atoms: N1_5  and  C3_7 
REMARK    3  A    between atoms: C3_7  and  C5_9 
REMARK    4  A    between atoms: C3_7  and  C6_16 
REMARK    5  A    between atoms: C7_20  and  C8_21 
REMARK    6  A    between atoms: N9_30  and  C11_32 
REMARK    7  A    between atoms: C11_32  and  C12_33 
REMARK    8  A    between atoms: C12_33  and  O4_34 
ROOT
HETATM    1  C6  UNL     1      67.121  49.451  25.990  1.00  0.00     0.077 A 
HETATM    2  N6  UNL     1      67.208  49.840  27.272  1.00  0.00    -0.261 N 
ATOM      3  H6  UNL     1      67.360  49.216  28.064  1.00  0.00     0.194 HD
HETATM    4  O3  UNL     1      67.074  51.097  27.352  1.00  0.00    -0.233 OA
HETATM    5  C7  UNL     1      66.887  51.656  26.144  1.00  0.00     0.150 A 
HETATM    6  C13 UNL     1      66.915  50.622  25.275  1.00  0.00     0.005 A 
HETATM    7  C14 UNL     1      66.792  50.631  23.821  1.00  0.00     0.054 C 
ENDROOT
BRANCH   5   8
HETATM    8  C8  UNL     1      66.693  53.111  25.940  1.00  0.00     0.146 A 
HETATM    9  N7  UNL     1      65.491  53.443  25.392  1.00  0.00    -0.321 N 
HETATM   10  C9  UNL     1      64.992  54.632  25.141  1.00  0.00     0.147 A 
ATOM     11  H7  UNL     1      64.893  52.656  25.139  1.00  0.00     0.169 HD
HETATM   12  N8  UNL     1      63.812  54.810  24.608  1.00  0.00    -0.379 N 
HETATM   13  S1  UNL     1      66.032  55.924  25.579  1.00  0.00    -0.018 SA
ATOM     14  H82 UNL     1      63.194  54.042  24.347  1.00  0.00     0.158 HD
ATOM     15  H81 UNL     1      63.424  55.733  24.413  1.00  0.00     0.158 HD
HETATM   16  C10 UNL     1      67.491  55.355  26.248  1.00  0.00     0.149 A 
HETATM   17  N9  UNL     1      68.453  56.084  26.663  1.00  0.00    -0.368 N 
HETATM   18  N10 UNL     1      67.603  54.002  26.329  1.00  0.00    -0.320 N 
ATOM     19  H9  UNL     1      68.306  57.089  26.573  1.00  0.00     0.161 HD
ATOM     20  H10 UNL     1      68.469  53.635  26.725  1.00  0.00     0.169 HD
BRANCH  17  21
HETATM   21  C11 UNL     1      69.692  55.705  27.229  1.00  0.00     0.147 C 
BRANCH  21  22
HETATM   22  C12 UNL     1      70.762  56.773  27.176  1.00  0.00     0.183 C 
BRANCH  22  23
HETATM   23  O4  UNL     1      70.339  57.906  27.866  1.00  0.00    -0.399 OA
ATOM     24  H4  UNL     1      70.426  58.674  27.313  1.00  0.00     0.209 HD
ENDBRANCH  22  23
ENDBRANCH  21  22
ENDBRANCH  17  21
ENDBRANCH   5   8
BRANCH   1  25
HETATM   25  C3  UNL     1      67.246  48.055  25.553  1.00  0.00     0.136 C 
HETATM   26  C4  UNL     1      67.322  47.250  26.885  1.00  0.00     0.054 C 
BRANCH  25  27
HETATM   27  N1  UNL     1      68.541  47.871  24.934  1.00  0.00    -0.315 N 
HETATM   28  C2  UNL     1      69.148  46.627  24.677  1.00  0.00     0.361 C 
HETATM   29  O2  UNL     1      68.569  45.568  24.989  1.00  0.00    -0.238 OA
ATOM     30  H1  UNL     1      69.055  48.710  24.662  1.00  0.00     0.166 HD
BRANCH  28  31
HETATM   31  O1  UNL     1      70.393  46.502  24.077  1.00  0.00    -0.309 OA
HETATM   32  C1  UNL     1      70.493  46.078  22.751  1.00  0.00     0.215 C 
ENDBRANCH  28  31
ENDBRANCH  25  27
BRANCH  25  33
HETATM   33  C5  UNL     1      66.149  47.530  24.748  1.00  0.00     0.142 A 
HETATM   34  N2  UNL     1      66.238  47.012  23.515  1.00  0.00    -0.271 N 
HETATM   35  N3  UNL     1      65.034  46.628  23.097  1.00  0.00    -0.007 NA
ATOM     36  H2  UNL     1      67.100  46.925  22.977  1.00  0.00     0.185 HD
HETATM   37  N4  UNL     1      64.195  46.910  24.079  1.00  0.00    -0.007 NA
HETATM   38  N5  UNL     1      64.861  47.458  25.084  1.00  0.00    -0.271 N 
ATOM     39  H5  UNL     1      64.457  47.772  25.967  1.00  0.00     0.185 HD
ENDBRANCH  25  33
ENDBRANCH   1  25
TORSDOF 8
ENDMDL
