MODEL 1
REMARK VINA RESULT: -8.570067218      0.000      0.000
REMARK  8 active torsions:
REMARK  status: ('A' for Active; 'I' for Inactive)
REMARK    1  A    between atoms: O1_2  and  C2_3 
REMARK    2  A    between atoms: C2_3  and  N1_4 
REMARK    3  A    between atoms: C3_7  and  C4_8 
REMARK    4  A    between atoms: C5_17  and  S1_18 
REMARK    5  A    between atoms: S1_18  and  C6_19 
REMARK    6  A    between atoms: C6_19  and  C7_20 
REMARK    7  A    between atoms: C10_26  and  N10_27 
REMARK    8  A    between atoms: C11_32  and  N12_33 
REMARK       I    between atoms: N12_33  and  C12_35 
ROOT
HETATM    1  C7  UNL     1      72.178  53.619  27.154  1.00  0.00     0.005 A 
HETATM    2  C8  UNL     1      72.572  52.373  26.611  1.00  0.00     0.032 A 
HETATM    3  C9  UNL     1      73.958  51.856  26.597  1.00  0.00     0.070 C 
HETATM    4  N8  UNL     1      71.525  51.752  26.125  1.00  0.00    -0.283 N 
ATOM      5  H8  UNL     1      71.538  50.835  25.678  1.00  0.00     0.188 HD
HETATM    6  N9  UNL     1      70.448  52.498  26.304  1.00  0.00    -0.086 N 
HETATM    7  C10 UNL     1      69.158  52.313  25.968  1.00  0.00     0.699 A 
HETATM    8  N11 UNL     1      68.227  53.237  26.233  1.00  0.00    -0.175 N 
ATOM      9  H11 UNL     1      67.259  53.061  25.964  1.00  0.00     0.186 HD
HETATM   10  C11 UNL     1      68.540  54.389  26.847  1.00  0.00     0.125 A 
HETATM   11  C13 UNL     1      69.857  54.577  27.192  1.00  0.00     0.082 A 
HETATM   12  C14 UNL     1      70.826  53.653  26.935  1.00  0.00     0.087 A 
ENDROOT
BRANCH   1  13
HETATM   13  C6  UNL     1      73.122  54.579  27.718  1.00  0.00     0.125 C 
BRANCH  13  14
HETATM   14  S1  UNL     1      73.676  55.954  26.791  1.00  0.00    -0.087 SA
BRANCH  14  15
HETATM   15  C5  UNL     1      72.616  57.345  26.658  1.00  0.00     0.165 A 
HETATM   16  N1  UNL     1      71.998  57.957  27.696  1.00  0.00    -0.245 N 
HETATM   17  N2  UNL     1      71.313  58.947  27.225  1.00  0.00    -0.276 N 
HETATM   18  C3  UNL     1      71.447  59.025  25.908  1.00  0.00     0.169 A 
ATOM     19  H2  UNL     1      70.748  59.581  27.789  1.00  0.00     0.189 HD
HETATM   20  N7  UNL     1      72.261  58.021  25.573  1.00  0.00    -0.317 N 
ATOM     21  H7  UNL     1      72.565  57.805  24.624  1.00  0.00     0.169 HD
BRANCH  16  22
HETATM   22  C2  UNL     1      72.083  57.578  29.076  1.00  0.00     0.318 C 
BRANCH  22  23
HETATM   23  O1  UNL     1      72.096  58.641  29.963  1.00  0.00    -0.375 OA
HETATM   24  C1  UNL     1      72.682  58.138  31.149  1.00  0.00     0.203 C 
ENDBRANCH  22  23
ENDBRANCH  16  22
BRANCH  18  25
HETATM   25  C4  UNL     1      70.848  59.992  24.986  1.00  0.00     0.177 A 
HETATM   26  N3  UNL     1      69.814  60.821  25.213  1.00  0.00    -0.267 N 
HETATM   27  N4  UNL     1      69.580  61.536  24.124  1.00  0.00    -0.007 NA
ATOM     28  H3  UNL     1      69.291  60.888  26.087  1.00  0.00     0.185 HD
HETATM   29  N5  UNL     1      70.459  61.180  23.179  1.00  0.00    -0.007 NA
HETATM   30  N6  UNL     1      71.223  60.241  23.718  1.00  0.00    -0.267 N 
ATOM     31  H6  UNL     1      71.991  59.771  23.237  1.00  0.00     0.185 HD
ENDBRANCH  18  25
ENDBRANCH  14  15
ENDBRANCH  13  14
ENDBRANCH   1  13
BRANCH   7  32
HETATM   32  N10 UNL     1      68.840  51.200  25.371  1.00  0.00    -0.233 N 
ATOM     33 2H10 UNL     1      68.888  51.121  24.355  1.00  0.00     0.174 HD
ATOM     34 1H10 UNL     1      68.544  50.416  25.953  1.00  0.00     0.174 HD
ENDBRANCH   7  32
BRANCH  10  35
HETATM   35  N12 UNL     1      67.635  55.280  27.100  1.00  0.00    -0.317 N 
HETATM   36  C12 UNL     1      67.012  55.933  26.006  1.00  0.00     0.187 C 
HETATM   37  N13 UNL     1      65.831  55.554  25.654  1.00  0.00    -0.373 N 
HETATM   38  N14 UNL     1      67.611  56.987  25.264  1.00  0.00    -0.064 NA
ATOM     39 2H13 UNL     1      65.401  54.797  26.186  1.00  0.00     0.158 HD
ATOM     40 1H13 UNL     1      65.383  56.023  24.866  1.00  0.00     0.158 HD
ATOM     41  H12 UNL     1      67.378  55.507  28.061  1.00  0.00     0.170 HD
ENDBRANCH  10  35
TORSDOF 8
ENDMDL
MODEL 2
REMARK VINA RESULT: -8.482494986      4.380      9.415
REMARK  8 active torsions:
REMARK  status: ('A' for Active; 'I' for Inactive)
REMARK    1  A    between atoms: O1_2  and  C2_3 
REMARK    2  A    between atoms: C2_3  and  N1_4 
REMARK    3  A    between atoms: C3_7  and  C4_8 
REMARK    4  A    between atoms: C5_17  and  S1_18 
REMARK    5  A    between atoms: S1_18  and  C6_19 
REMARK    6  A    between atoms: C6_19  and  C7_20 
REMARK    7  A    between atoms: C10_26  and  N10_27 
REMARK    8  A    between atoms: C11_32  and  N12_33 
REMARK       I    between atoms: N12_33  and  C12_35 
ROOT
HETATM    1  C7  UNL     1      67.287  54.203  26.051  1.00  0.00     0.005 A 
HETATM    2  C8  UNL     1      66.779  55.523  26.112  1.00  0.00     0.032 A 
HETATM    3  C9  UNL     1      65.395  55.916  25.763  1.00  0.00     0.070 C 
HETATM    4  N8  UNL     1      67.719  56.339  26.524  1.00  0.00    -0.283 N 
ATOM      5  H8  UNL     1      67.610  57.345  26.654  1.00  0.00     0.188 HD
HETATM    6  N9  UNL     1      68.829  55.656  26.744  1.00  0.00    -0.086 N 
HETATM    7  C10 UNL     1      70.055  56.037  27.149  1.00  0.00     0.699 A 
HETATM    8  N11 UNL     1      71.053  55.155  27.279  1.00  0.00    -0.175 N 
ATOM      9  H11 UNL     1      71.969  55.480  27.589  1.00  0.00     0.186 HD
HETATM   10  C11 UNL     1      70.875  53.852  27.010  1.00  0.00     0.125 A 
HETATM   11  C13 UNL     1      69.623  53.463  26.598  1.00  0.00     0.082 A 
HETATM   12  C14 UNL     1      68.587  54.339  26.458  1.00  0.00     0.087 A 
ENDROOT
BRANCH   1  13
HETATM   13  C6  UNL     1      66.505  53.069  25.569  1.00  0.00     0.125 C 
BRANCH  13  14
HETATM   14  S1  UNL     1      66.292  51.635  26.546  1.00  0.00    -0.087 SA
BRANCH  14  15
HETATM   15  C5  UNL     1      66.525  50.072  25.785  1.00  0.00     0.165 A 
HETATM   16  N1  UNL     1      67.562  49.234  26.025  1.00  0.00    -0.245 N 
HETATM   17  N2  UNL     1      67.396  48.176  25.301  1.00  0.00    -0.276 N 
HETATM   18  C3  UNL     1      66.285  48.270  24.582  1.00  0.00     0.169 A 
ATOM     19  H2  UNL     1      68.032  47.380  25.284  1.00  0.00     0.189 HD
HETATM   20  N7  UNL     1      65.757  49.455  24.897  1.00  0.00    -0.317 N 
ATOM     21  H7  UNL     1      64.891  49.831  24.511  1.00  0.00     0.169 HD
BRANCH  16  22
HETATM   22  C2  UNL     1      68.655  49.474  26.922  1.00  0.00     0.318 C 
BRANCH  22  23
HETATM   23  O1  UNL     1      68.776  48.541  27.938  1.00  0.00    -0.375 OA
HETATM   24  C1  UNL     1      67.989  49.039  29.004  1.00  0.00     0.203 C 
ENDBRANCH  22  23
ENDBRANCH  16  22
BRANCH  18  25
HETATM   25  C4  UNL     1      65.727  47.302  23.637  1.00  0.00     0.177 A 
HETATM   26  N3  UNL     1      64.739  46.414  23.848  1.00  0.00    -0.267 N 
HETATM   27  N4  UNL     1      64.530  45.722  22.739  1.00  0.00    -0.007 NA
ATOM     28  H3  UNL     1      64.231  46.292  24.724  1.00  0.00     0.185 HD
HETATM   29  N5  UNL     1      65.378  46.152  21.797  1.00  0.00    -0.007 NA
HETATM   30  N6  UNL     1      66.099  47.113  22.357  1.00  0.00    -0.267 N 
ATOM     31  H6  UNL     1      66.834  47.637  21.883  1.00  0.00     0.185 HD
ENDBRANCH  18  25
ENDBRANCH  14  15
ENDBRANCH  13  14
ENDBRANCH   1  13
BRANCH   7  32
HETATM   32  N10 UNL     1      70.243  57.299  27.412  1.00  0.00    -0.233 N 
ATOM     33 2H10 UNL     1      70.791  57.886  26.783  1.00  0.00     0.174 HD
ATOM     34 1H10 UNL     1      69.825  57.674  28.263  1.00  0.00     0.174 HD
ENDBRANCH   7  32
BRANCH  10  35
HETATM   35  N12 UNL     1      71.844  53.003  27.137  1.00  0.00    -0.317 N 
HETATM   36  C12 UNL     1      72.915  53.334  28.007  1.00  0.00     0.187 C 
HETATM   37  N13 UNL     1      72.949  52.790  29.176  1.00  0.00    -0.373 N 
HETATM   38  N14 UNL     1      73.962  54.234  27.671  1.00  0.00    -0.064 NA
ATOM     39 2H13 UNL     1      72.198  52.145  29.417  1.00  0.00     0.158 HD
ATOM     40 1H13 UNL     1      73.719  53.028  29.802  1.00  0.00     0.158 HD
ATOM     41  H12 UNL     1      71.839  52.121  26.624  1.00  0.00     0.170 HD
ENDBRANCH  10  35
TORSDOF 8
ENDMDL
MODEL 3
REMARK VINA RESULT: -8.480383453      1.907      2.613
REMARK  8 active torsions:
REMARK  status: ('A' for Active; 'I' for Inactive)
REMARK    1  A    between atoms: O1_2  and  C2_3 
REMARK    2  A    between atoms: C2_3  and  N1_4 
REMARK    3  A    between atoms: C3_7  and  C4_8 
REMARK    4  A    between atoms: C5_17  and  S1_18 
REMARK    5  A    between atoms: S1_18  and  C6_19 
REMARK    6  A    between atoms: C6_19  and  C7_20 
REMARK    7  A    between atoms: C10_26  and  N10_27 
REMARK    8  A    between atoms: C11_32  and  N12_33 
REMARK       I    between atoms: N12_33  and  C12_35 
ROOT
HETATM    1  C7  UNL     1      72.247  53.768  27.256  1.00  0.00     0.005 A 
HETATM    2  C8  UNL     1      72.712  52.557  26.691  1.00  0.00     0.032 A 
HETATM    3  C9  UNL     1      74.120  52.102  26.703  1.00  0.00     0.070 C 
HETATM    4  N8  UNL     1      71.707  51.904  26.159  1.00  0.00    -0.283 N 
ATOM      5  H8  UNL     1      71.774  51.002  25.689  1.00  0.00     0.188 HD
HETATM    6  N9  UNL     1      70.594  52.596  26.327  1.00  0.00    -0.086 N 
HETATM    7  C10 UNL     1      69.323  52.364  25.949  1.00  0.00     0.699 A 
HETATM    8  N11 UNL     1      68.344  53.238  26.212  1.00  0.00    -0.175 N 
ATOM      9  H11 UNL     1      67.393  53.028  25.911  1.00  0.00     0.186 HD
HETATM   10  C11 UNL     1      68.588  54.386  26.865  1.00  0.00     0.125 A 
HETATM   11  C13 UNL     1      69.886  54.622  27.253  1.00  0.00     0.082 A 
HETATM   12  C14 UNL     1      70.902  53.749  26.999  1.00  0.00     0.087 A 
ENDROOT
BRANCH   1  13
HETATM   13  C6  UNL     1      73.132  54.753  27.872  1.00  0.00     0.125 C 
BRANCH  13  14
HETATM   14  S1  UNL     1      73.962  55.952  26.908  1.00  0.00    -0.087 SA
BRANCH  14  15
HETATM   15  C5  UNL     1      72.995  57.125  26.032  1.00  0.00     0.165 A 
HETATM   16  N1  UNL     1      72.627  57.019  24.733  1.00  0.00    -0.245 N 
HETATM   17  N2  UNL     1      71.914  58.055  24.435  1.00  0.00    -0.276 N 
HETATM   18  C3  UNL     1      71.787  58.855  25.485  1.00  0.00     0.169 A 
ATOM     19  H2  UNL     1      71.505  58.232  23.518  1.00  0.00     0.189 HD
HETATM   20  N7  UNL     1      72.466  58.260  26.469  1.00  0.00    -0.317 N 
ATOM     21  H7  UNL     1      72.564  58.625  27.416  1.00  0.00     0.169 HD
BRANCH  16  22
HETATM   22  C2  UNL     1      72.967  55.949  23.841  1.00  0.00     0.318 C 
BRANCH  22  23
HETATM   23  O1  UNL     1      73.939  56.269  22.908  1.00  0.00    -0.375 OA
HETATM   24  C1  UNL     1      75.078  55.513  23.273  1.00  0.00     0.203 C 
ENDBRANCH  22  23
ENDBRANCH  16  22
BRANCH  18  25
HETATM   25  C4  UNL     1      71.066  60.125  25.582  1.00  0.00     0.177 A 
HETATM   26  N3  UNL     1      71.483  61.274  26.141  1.00  0.00    -0.267 N 
HETATM   27  N4  UNL     1      70.534  62.189  26.021  1.00  0.00    -0.007 NA
ATOM     28  H3  UNL     1      72.388  61.419  26.589  1.00  0.00     0.185 HD
HETATM   29  N5  UNL     1      69.491  61.644  25.382  1.00  0.00    -0.007 NA
HETATM   30  N6  UNL     1      69.829  60.390  25.121  1.00  0.00    -0.267 N 
ATOM     31  H6  UNL     1      69.233  59.717  24.638  1.00  0.00     0.185 HD
ENDBRANCH  18  25
ENDBRANCH  14  15
ENDBRANCH  13  14
ENDBRANCH   1  13
BRANCH   7  32
HETATM   32  N10 UNL     1      69.072  51.255  25.314  1.00  0.00    -0.233 N 
ATOM     33 2H10 UNL     1      69.267  50.351  25.745  1.00  0.00     0.174 HD
ATOM     34 1H10 UNL     1      68.675  51.324  24.377  1.00  0.00     0.174 HD
ENDBRANCH   7  32
BRANCH  10  35
HETATM   35  N12 UNL     1      67.638  55.228  27.116  1.00  0.00    -0.317 N 
HETATM   36  C12 UNL     1      66.984  55.847  26.020  1.00  0.00     0.187 C 
HETATM   37  N13 UNL     1      65.825  55.407  25.666  1.00  0.00    -0.373 N 
HETATM   38  N14 UNL     1      67.529  56.931  25.279  1.00  0.00    -0.064 NA
ATOM     39 2H13 UNL     1      65.434  54.630  26.198  1.00  0.00     0.158 HD
ATOM     40 1H13 UNL     1      65.354  55.852  24.877  1.00  0.00     0.158 HD
ATOM     41  H12 UNL     1      67.367  55.442  28.077  1.00  0.00     0.170 HD
ENDBRANCH  10  35
TORSDOF 8
ENDMDL
MODEL 4
REMARK VINA RESULT: -8.431481058      2.907      5.101
REMARK  8 active torsions:
REMARK  status: ('A' for Active; 'I' for Inactive)
REMARK    1  A    between atoms: O1_2  and  C2_3 
REMARK    2  A    between atoms: C2_3  and  N1_4 
REMARK    3  A    between atoms: C3_7  and  C4_8 
REMARK    4  A    between atoms: C5_17  and  S1_18 
REMARK    5  A    between atoms: S1_18  and  C6_19 
REMARK    6  A    between atoms: C6_19  and  C7_20 
REMARK    7  A    between atoms: C10_26  and  N10_27 
REMARK    8  A    between atoms: C11_32  and  N12_33 
REMARK       I    between atoms: N12_33  and  C12_35 
ROOT
HETATM    1  C7  UNL     1      73.800  53.800  26.062  1.00  0.00     0.005 A 
HETATM    2  C8  UNL     1      74.500  54.979  25.713  1.00  0.00     0.032 A 
HETATM    3  C9  UNL     1      75.270  55.818  26.658  1.00  0.00     0.070 C 
HETATM    4  N8  UNL     1      74.362  55.211  24.430  1.00  0.00    -0.283 N 
ATOM      5  H8  UNL     1      74.769  55.999  23.927  1.00  0.00     0.188 HD
HETATM    6  N9  UNL     1      73.612  54.265  23.890  1.00  0.00    -0.086 N 
HETATM    7  C10 UNL     1      73.174  54.072  22.633  1.00  0.00     0.699 A 
HETATM    8  N11 UNL     1      72.388  53.036  22.317  1.00  0.00    -0.175 N 
ATOM      9  H11 UNL     1      72.075  52.921  21.353  1.00  0.00     0.186 HD
HETATM   10  C11 UNL     1      72.002  52.144  23.244  1.00  0.00     0.125 A 
HETATM   11  C13 UNL     1      72.451  52.340  24.528  1.00  0.00     0.082 A 
HETATM   12  C14 UNL     1      73.254  53.386  24.876  1.00  0.00     0.087 A 
ENDROOT
BRANCH   1  13
HETATM   13  C6  UNL     1      73.706  53.303  27.432  1.00  0.00     0.125 C 
BRANCH  13  14
HETATM   14  S1  UNL     1      72.580  54.001  28.573  1.00  0.00    -0.087 SA
BRANCH  14  15
HETATM   15  C5  UNL     1      71.262  54.974  27.946  1.00  0.00     0.165 A 
HETATM   16  N1  UNL     1      71.225  56.329  27.944  1.00  0.00    -0.245 N 
HETATM   17  N2  UNL     1      70.114  56.696  27.395  1.00  0.00    -0.276 N 
HETATM   18  C3  UNL     1      69.401  55.640  27.026  1.00  0.00     0.169 A 
ATOM     19  H2  UNL     1      69.825  57.665  27.263  1.00  0.00     0.189 HD
HETATM   20  N7  UNL     1      70.131  54.579  27.377  1.00  0.00    -0.317 N 
ATOM     21  H7  UNL     1      69.860  53.607  27.229  1.00  0.00     0.169 HD
BRANCH  16  22
HETATM   22  C2  UNL     1      72.236  57.205  28.460  1.00  0.00     0.318 C 
BRANCH  22  23
HETATM   23  O1  UNL     1      71.746  58.351  29.064  1.00  0.00    -0.375 OA
HETATM   24  C1  UNL     1      72.285  59.429  28.322  1.00  0.00     0.203 C 
ENDBRANCH  22  23
ENDBRANCH  16  22
BRANCH  18  25
HETATM   25  C4  UNL     1      68.092  55.607  26.372  1.00  0.00     0.177 A 
HETATM   26  N3  UNL     1      67.301  54.541  26.157  1.00  0.00    -0.267 N 
HETATM   27  N4  UNL     1      66.200  54.933  25.535  1.00  0.00    -0.007 NA
ATOM     28  H3  UNL     1      67.515  53.581  26.428  1.00  0.00     0.185 HD
HETATM   29  N5  UNL     1      66.263  56.256  25.341  1.00  0.00    -0.007 NA
HETATM   30  N6  UNL     1      67.419  56.652  25.855  1.00  0.00    -0.267 N 
ATOM     31  H6  UNL     1      67.752  57.616  25.858  1.00  0.00     0.185 HD
ENDBRANCH  18  25
ENDBRANCH  14  15
ENDBRANCH  13  14
ENDBRANCH   1  13
BRANCH   7  32
HETATM   32  N10 UNL     1      73.540  54.931  21.723  1.00  0.00    -0.233 N 
ATOM     33 2H10 UNL     1      74.329  54.733  21.107  1.00  0.00     0.174 HD
ATOM     34 1H10 UNL     1      73.012  55.800  21.651  1.00  0.00     0.174 HD
ENDBRANCH   7  32
BRANCH  10  35
HETATM   35  N12 UNL     1      71.240  51.144  22.934  1.00  0.00    -0.317 N 
HETATM   36  C12 UNL     1      70.933  50.935  21.565  1.00  0.00     0.187 C 
HETATM   37  N13 UNL     1      71.565  50.009  20.926  1.00  0.00    -0.373 N 
HETATM   38  N14 UNL     1      69.966  51.686  20.844  1.00  0.00    -0.064 NA
ATOM     39 2H13 UNL     1      72.259  49.471  21.443  1.00  0.00     0.158 HD
ATOM     40 1H13 UNL     1      71.345  49.859  19.941  1.00  0.00     0.158 HD
ATOM     41  H12 UNL     1      70.871  50.523  23.655  1.00  0.00     0.170 HD
ENDBRANCH  10  35
TORSDOF 8
ENDMDL
MODEL 5
REMARK VINA RESULT: -8.317845240      2.623      3.629
REMARK  8 active torsions:
REMARK  status: ('A' for Active; 'I' for Inactive)
REMARK    1  A    between atoms: O1_2  and  C2_3 
REMARK    2  A    between atoms: C2_3  and  N1_4 
REMARK    3  A    between atoms: C3_7  and  C4_8 
REMARK    4  A    between atoms: C5_17  and  S1_18 
REMARK    5  A    between atoms: S1_18  and  C6_19 
REMARK    6  A    between atoms: C6_19  and  C7_20 
REMARK    7  A    between atoms: C10_26  and  N10_27 
REMARK    8  A    between atoms: C11_32  and  N12_33 
REMARK       I    between atoms: N12_33  and  C12_35 
ROOT
HETATM    1  C7  UNL     1      72.574  55.771  27.152  1.00  0.00     0.005 A 
HETATM    2  C8  UNL     1      73.526  54.805  26.745  1.00  0.00     0.032 A 
HETATM    3  C9  UNL     1      74.990  55.017  26.716  1.00  0.00     0.070 C 
HETATM    4  N8  UNL     1      72.912  53.699  26.401  1.00  0.00    -0.283 N 
ATOM      5  H8  UNL     1      73.370  52.849  26.071  1.00  0.00     0.188 HD
HETATM    6  N9  UNL     1      71.607  53.855  26.547  1.00  0.00    -0.086 N 
HETATM    7  C10 UNL     1      70.570  53.032  26.311  1.00  0.00     0.699 A 
HETATM    8  N11 UNL     1      69.306  53.424  26.512  1.00  0.00    -0.175 N 
ATOM      9  H11 UNL     1      68.544  52.772  26.322  1.00  0.00     0.186 HD
HETATM   10  C11 UNL     1      69.019  54.657  26.959  1.00  0.00     0.125 A 
HETATM   11  C13 UNL     1      70.079  55.497  27.202  1.00  0.00     0.082 A 
HETATM   12  C14 UNL     1      71.376  55.124  27.007  1.00  0.00     0.087 A 
ENDROOT
BRANCH   1  13
HETATM   13  C6  UNL     1      72.934  57.133  27.536  1.00  0.00     0.125 C 
BRANCH  13  14
HETATM   14  S1  UNL     1      72.071  58.512  26.898  1.00  0.00    -0.087 SA
BRANCH  14  15
HETATM   15  C5  UNL     1      71.819  58.601  25.164  1.00  0.00     0.165 A 
HETATM   16  N1  UNL     1      71.333  59.678  24.501  1.00  0.00    -0.245 N 
HETATM   17  N2  UNL     1      71.298  59.388  23.242  1.00  0.00    -0.276 N 
HETATM   18  C3  UNL     1      71.742  58.156  23.031  1.00  0.00     0.169 A 
ATOM     19  H2  UNL     1      70.973  60.021  22.511  1.00  0.00     0.189 HD
HETATM   20  N7  UNL     1      72.061  57.683  24.238  1.00  0.00    -0.317 N 
ATOM     21  H7  UNL     1      72.436  56.753  24.422  1.00  0.00     0.169 HD
BRANCH  16  22
HETATM   22  C2  UNL     1      70.927  60.922  25.087  1.00  0.00     0.318 C 
BRANCH  22  23
HETATM   23  O1  UNL     1      69.558  61.129  25.100  1.00  0.00    -0.375 OA
HETATM   24  C1  UNL     1      69.384  62.489  25.450  1.00  0.00     0.203 C 
ENDBRANCH  22  23
ENDBRANCH  16  22
BRANCH  18  25
HETATM   25  C4  UNL     1      71.869  57.438  21.763  1.00  0.00     0.177 A 
HETATM   26  N3  UNL     1      72.512  56.279  21.528  1.00  0.00    -0.267 N 
HETATM   27  N4  UNL     1      72.391  55.965  20.248  1.00  0.00    -0.007 NA
ATOM     28  H3  UNL     1      73.013  55.730  22.226  1.00  0.00     0.185 HD
HETATM   29  N5  UNL     1      71.670  56.914  19.638  1.00  0.00    -0.007 NA
HETATM   30  N6  UNL     1      71.359  57.802  20.572  1.00  0.00    -0.267 N 
ATOM     31  H6  UNL     1      70.809  58.646  20.409  1.00  0.00     0.185 HD
ENDBRANCH  18  25
ENDBRANCH  14  15
ENDBRANCH  13  14
ENDBRANCH   1  13
BRANCH   7  32
HETATM   32  N10 UNL     1      70.833  51.832  25.876  1.00  0.00    -0.233 N 
ATOM     33 2H10 UNL     1      70.683  51.589  24.896  1.00  0.00     0.174 HD
ATOM     34 1H10 UNL     1      71.191  51.152  26.545  1.00  0.00     0.174 HD
ENDBRANCH   7  32
BRANCH  10  35
HETATM   35  N12 UNL     1      67.795  55.032  27.151  1.00  0.00    -0.317 N 
HETATM   36  C12 UNL     1      67.026  55.414  26.022  1.00  0.00     0.187 C 
HETATM   37  N13 UNL     1      66.170  54.575  25.546  1.00  0.00    -0.373 N 
HETATM   38  N14 UNL     1      67.139  56.674  25.375  1.00  0.00    -0.064 NA
ATOM     39 2H13 UNL     1      66.089  53.671  26.011  1.00  0.00     0.158 HD
ATOM     40 1H13 UNL     1      65.617  54.850  24.734  1.00  0.00     0.158 HD
ATOM     41  H12 UNL     1      67.394  55.051  28.090  1.00  0.00     0.170 HD
ENDBRANCH  10  35
TORSDOF 8
ENDMDL
