MODEL 1
REMARK VINA RESULT: -8.201952253      0.000      0.000
REMARK  11 active torsions:
REMARK  status: ('A' for Active; 'I' for Inactive)
REMARK    1  A    between atoms: O1_2  and  C2_3 
REMARK    2  A    between atoms: C3_6  and  C4_7 
REMARK    3  A    between atoms: C4_7  and  N2_8 
REMARK    4  A    between atoms: N2_8  and  C6_10 
REMARK    5  A    between atoms: C8_14  and  N4_15 
REMARK    6  A    between atoms: C9_20  and  N6_21 
REMARK       I    between atoms: N6_21  and  C10_23 
REMARK    7  A    between atoms: C13_34  and  C14_35 
REMARK    8  A    between atoms: C14_35  and  N10_36 
REMARK    9  A    between atoms: C14_35  and  N11_40 
REMARK   10  A    between atoms: C14_35  and  C15_44 
REMARK   11  A    between atoms: C15_44  and  O3_45 
ROOT
HETATM    1  C2  UNL     1      71.545  58.887  24.996  1.00  0.00     0.172 A 
HETATM    2  N1  UNL     1      72.103  57.818  25.566  1.00  0.00    -0.322 N 
ATOM      3  H1  UNL     1      72.189  56.966  25.011  1.00  0.00     0.169 HD
HETATM    4  C3  UNL     1      72.555  57.799  26.815  1.00  0.00     0.116 A 
HETATM    5  N8  UNL     1      72.427  58.947  27.528  1.00  0.00    -0.287 N 
ATOM      6  H8  UNL     1      72.758  58.984  28.492  1.00  0.00     0.188 HD
HETATM    7  N9  UNL     1      71.884  60.002  26.989  1.00  0.00    -0.295 N 
ATOM      8  H9  UNL     1      71.807  60.844  27.559  1.00  0.00     0.187 HD
HETATM    9  C13 UNL     1      71.419  60.048  25.728  1.00  0.00     0.143 A 
ENDROOT
BRANCH   4  10
HETATM   10  C4  UNL     1      73.179  56.623  27.470  1.00  0.00     0.202 C 
BRANCH  10  11
HETATM   11  N2  UNL     1      72.212  55.925  28.289  1.00  0.00    -0.359 N 
HETATM   12  C5  UNL     1      72.334  55.996  29.719  1.00  0.00     0.152 C 
BRANCH  11  13
HETATM   13  C6  UNL     1      71.152  55.179  27.717  1.00  0.00     0.149 A 
HETATM   14  N3  UNL     1      69.925  55.597  27.493  1.00  0.00    -0.331 N 
HETATM   15  C7  UNL     1      69.049  54.799  26.960  1.00  0.00     0.113 A 
ATOM     16  H3  UNL     1      69.661  56.552  27.738  1.00  0.00     0.168 HD
HETATM   17  C8  UNL     1      67.707  55.091  26.657  1.00  0.00     0.144 A 
HETATM   18  C12 UNL     1      69.447  53.529  26.646  1.00  0.00     0.124 A 
HETATM   19  N5  UNL     1      66.943  54.143  26.106  1.00  0.00    -0.174 N 
HETATM   20  C9  UNL     1      67.336  52.897  25.800  1.00  0.00     0.687 A 
ATOM     21  H5  UNL     1      65.976  54.388  25.900  1.00  0.00     0.186 HD
HETATM   22  N7  UNL     1      68.618  52.599  26.083  1.00  0.00    -0.183 N 
ATOM     23  H7  UNL     1      68.977  51.667  25.873  1.00  0.00     0.185 HD
HETATM   24  S1  UNL     1      71.099  53.566  27.155  1.00  0.00    -0.033 SA
BRANCH  17  25
HETATM   25  N4  UNL     1      67.222  56.263  26.909  1.00  0.00    -0.383 N 
ATOM     26  H42 UNL     1      67.796  56.978  27.354  1.00  0.00     0.157 HD
ATOM     27  H41 UNL     1      66.256  56.483  26.663  1.00  0.00     0.157 HD
ENDBRANCH  17  25
BRANCH  20  28
HETATM   28  N6  UNL     1      66.562  52.021  25.271  1.00  0.00    -0.160 N 
HETATM   29  C10 UNL     1      65.486  52.326  24.416  1.00  0.00     0.231 C 
HETATM   30  C11 UNL     1      64.253  52.919  24.977  1.00  0.00     0.118 C 
HETATM   31  O2  UNL     1      65.541  52.110  23.186  1.00  0.00    -0.273 OA
ATOM     32  H6  UNL     1      66.739  51.039  25.484  1.00  0.00     0.187 HD
ENDBRANCH  20  28
ENDBRANCH  11  13
ENDBRANCH  10  11
ENDBRANCH   4  10
BRANCH   1  33
HETATM   33  O1  UNL     1      71.094  58.854  23.704  1.00  0.00    -0.339 OA
HETATM   34  C1  UNL     1      71.708  58.094  22.700  1.00  0.00     0.211 C 
ENDBRANCH   1  33
BRANCH   9  35
HETATM   35  C14 UNL     1      70.830  61.286  25.222  1.00  0.00     0.349 C 
BRANCH  35  36
HETATM   36  N10 UNL     1      70.856  62.286  26.298  1.00  0.00    -0.037 N 
ATOM     37 3H10 UNL     1      69.964  62.358  26.787  1.00  0.00     0.277 HD
ATOM     38 2H10 UNL     1      71.427  61.994  27.091  1.00  0.00     0.277 HD
ATOM     39 1H10 UNL     1      71.160  63.176  25.902  1.00  0.00     0.277 HD
ENDBRANCH  35  36
BRANCH  35  40
HETATM   40  N11 UNL     1      69.460  61.154  24.810  1.00  0.00    -0.037 N 
ATOM     41 3H11 UNL     1      68.854  61.019  25.620  1.00  0.00     0.277 HD
ATOM     42 2H11 UNL     1      69.099  62.046  24.473  1.00  0.00     0.277 HD
ATOM     43 1H11 UNL     1      69.304  60.419  24.119  1.00  0.00     0.277 HD
ENDBRANCH  35  40
BRANCH  35  44
HETATM   44  C15 UNL     1      71.612  61.877  24.057  1.00  0.00     0.240 C 
BRANCH  44  45
HETATM   45  O3  UNL     1      70.975  61.635  22.841  1.00  0.00    -0.396 OA
ATOM     46  H3  UNL     1      71.208  62.287  22.190  1.00  0.00     0.209 HD
ENDBRANCH  44  45
ENDBRANCH  35  44
ENDBRANCH   9  35
TORSDOF 11
ENDMDL
MODEL 2
REMARK VINA RESULT: -7.770083473      1.677      2.613
REMARK  11 active torsions:
REMARK  status: ('A' for Active; 'I' for Inactive)
REMARK    1  A    between atoms: O1_2  and  C2_3 
REMARK    2  A    between atoms: C3_6  and  C4_7 
REMARK    3  A    between atoms: C4_7  and  N2_8 
REMARK    4  A    between atoms: N2_8  and  C6_10 
REMARK    5  A    between atoms: C8_14  and  N4_15 
REMARK    6  A    between atoms: C9_20  and  N6_21 
REMARK       I    between atoms: N6_21  and  C10_23 
REMARK    7  A    between atoms: C13_34  and  C14_35 
REMARK    8  A    between atoms: C14_35  and  N10_36 
REMARK    9  A    between atoms: C14_35  and  N11_40 
REMARK   10  A    between atoms: C14_35  and  C15_44 
REMARK   11  A    between atoms: C15_44  and  O3_45 
ROOT
HETATM    1  C2  UNL     1      71.938  58.727  26.635  1.00  0.00     0.172 A 
HETATM    2  N1  UNL     1      72.455  57.501  26.725  1.00  0.00    -0.322 N 
ATOM      3  H1  UNL     1      72.697  57.148  27.651  1.00  0.00     0.169 HD
HETATM    4  C3  UNL     1      72.672  56.713  25.678  1.00  0.00     0.116 A 
HETATM    5  N8  UNL     1      72.340  57.211  24.460  1.00  0.00    -0.287 N 
ATOM      6  H8  UNL     1      72.488  56.645  23.624  1.00  0.00     0.188 HD
HETATM    7  N9  UNL     1      71.834  58.407  24.350  1.00  0.00    -0.295 N 
ATOM      8  H9  UNL     1      71.598  58.743  23.417  1.00  0.00     0.187 HD
HETATM    9  C13 UNL     1      71.604  59.225  25.393  1.00  0.00     0.143 A 
ENDROOT
BRANCH   4  10
HETATM   10  C4  UNL     1      73.246  55.347  25.753  1.00  0.00     0.202 C 
BRANCH  10  11
HETATM   11  N2  UNL     1      72.585  54.575  26.783  1.00  0.00    -0.359 N 
HETATM   12  C5  UNL     1      73.314  54.242  27.975  1.00  0.00     0.152 C 
BRANCH  11  13
HETATM   13  C6  UNL     1      71.242  54.143  26.645  1.00  0.00     0.149 A 
HETATM   14  N3  UNL     1      70.830  53.006  26.127  1.00  0.00    -0.331 N 
HETATM   15  C7  UNL     1      69.560  52.739  26.063  1.00  0.00     0.113 A 
ATOM     16  H3  UNL     1      71.510  52.332  25.775  1.00  0.00     0.168 HD
HETATM   17  C8  UNL     1      68.961  51.577  25.543  1.00  0.00     0.144 A 
HETATM   18  C12 UNL     1      68.684  53.671  26.548  1.00  0.00     0.124 A 
HETATM   19  N5  UNL     1      67.629  51.471  25.558  1.00  0.00    -0.174 N 
HETATM   20  C9  UNL     1      66.772  52.386  26.034  1.00  0.00     0.687 A 
ATOM     21  H5  UNL     1      67.228  50.616  25.173  1.00  0.00     0.186 HD
HETATM   22  N7  UNL     1      67.327  53.506  26.537  1.00  0.00    -0.183 N 
ATOM     23  H7  UNL     1      66.727  54.239  26.914  1.00  0.00     0.185 HD
HETATM   24  S1  UNL     1      69.775  54.904  27.077  1.00  0.00    -0.033 SA
BRANCH  17  25
HETATM   25  N4  UNL     1      69.692  50.627  25.059  1.00  0.00    -0.383 N 
ATOM     26  H42 UNL     1      70.219  50.766  24.196  1.00  0.00     0.157 HD
ATOM     27  H41 UNL     1      69.749  49.728  25.536  1.00  0.00     0.157 HD
ENDBRANCH  17  25
BRANCH  20  28
HETATM   28  N6  UNL     1      65.498  52.235  26.025  1.00  0.00    -0.160 N 
HETATM   29  C10 UNL     1      64.645  52.751  25.030  1.00  0.00     0.231 C 
HETATM   30  C11 UNL     1      64.366  54.203  24.988  1.00  0.00     0.118 C 
HETATM   31  O2  UNL     1      64.112  52.013  24.174  1.00  0.00    -0.273 OA
ATOM     32  H6  UNL     1      65.075  51.707  26.789  1.00  0.00     0.187 HD
ENDBRANCH  20  28
ENDBRANCH  11  13
ENDBRANCH  10  11
ENDBRANCH   4  10
BRANCH   1  33
HETATM   33  O1  UNL     1      71.733  59.500  27.746  1.00  0.00    -0.339 OA
HETATM   34  C1  UNL     1      72.311  59.217  28.990  1.00  0.00     0.211 C 
ENDBRANCH   1  33
BRANCH   9  35
HETATM   35  C14 UNL     1      71.029  60.547  25.158  1.00  0.00     0.349 C 
BRANCH  35  36
HETATM   36  N10 UNL     1      71.558  61.469  26.173  1.00  0.00    -0.037 N 
ATOM     37 3H10 UNL     1      70.858  61.735  26.864  1.00  0.00     0.277 HD
ATOM     38 2H10 UNL     1      72.217  61.017  26.808  1.00  0.00     0.277 HD
ATOM     39 1H10 UNL     1      71.964  62.274  25.694  1.00  0.00     0.277 HD
ENDBRANCH  35  36
BRANCH  35  40
HETATM   40  N11 UNL     1      69.596  60.587  25.269  1.00  0.00    -0.037 N 
ATOM     41 3H11 UNL     1      69.204  59.650  25.181  1.00  0.00     0.277 HD
ATOM     42 2H11 UNL     1      69.316  60.803  26.225  1.00  0.00     0.277 HD
ATOM     43 1H11 UNL     1      69.149  61.227  24.611  1.00  0.00     0.277 HD
ENDBRANCH  35  40
BRANCH  35  44
HETATM   44  C15 UNL     1      71.409  61.124  23.802  1.00  0.00     0.240 C 
BRANCH  44  45
HETATM   45  O3  UNL     1      70.719  60.492  22.768  1.00  0.00    -0.396 OA
ATOM     46  H3  UNL     1      70.645  61.055  22.006  1.00  0.00     0.209 HD
ENDBRANCH  44  45
ENDBRANCH  35  44
ENDBRANCH   9  35
TORSDOF 11
ENDMDL
MODEL 3
REMARK VINA RESULT: -7.753262066      3.324      8.182
REMARK  11 active torsions:
REMARK  status: ('A' for Active; 'I' for Inactive)
REMARK    1  A    between atoms: O1_2  and  C2_3 
REMARK    2  A    between atoms: C3_6  and  C4_7 
REMARK    3  A    between atoms: C4_7  and  N2_8 
REMARK    4  A    between atoms: N2_8  and  C6_10 
REMARK    5  A    between atoms: C8_14  and  N4_15 
REMARK    6  A    between atoms: C9_20  and  N6_21 
REMARK       I    between atoms: N6_21  and  C10_23 
REMARK    7  A    between atoms: C13_34  and  C14_35 
REMARK    8  A    between atoms: C14_35  and  N10_36 
REMARK    9  A    between atoms: C14_35  and  N11_40 
REMARK   10  A    between atoms: C14_35  and  C15_44 
REMARK   11  A    between atoms: C15_44  and  O3_45 
ROOT
HETATM    1  C2  UNL     1      71.814  52.977  25.287  1.00  0.00     0.172 A 
HETATM    2  N1  UNL     1      72.476  54.022  25.785  1.00  0.00    -0.322 N 
ATOM      3  H1  UNL     1      72.685  54.801  25.161  1.00  0.00     0.169 HD
HETATM    4  C3  UNL     1      72.879  54.105  27.048  1.00  0.00     0.116 A 
HETATM    5  N8  UNL     1      72.587  53.052  27.853  1.00  0.00    -0.287 N 
ATOM      6  H8  UNL     1      72.874  53.068  28.831  1.00  0.00     0.188 HD
HETATM    7  N9  UNL     1      71.941  52.022  27.385  1.00  0.00    -0.295 N 
ATOM      8  H9  UNL     1      71.740  51.252  28.023  1.00  0.00     0.187 HD
HETATM    9  C13 UNL     1      71.521  51.912  26.112  1.00  0.00     0.143 A 
ENDROOT
BRANCH   4  10
HETATM   10  C4  UNL     1      73.617  55.256  27.625  1.00  0.00     0.202 C 
BRANCH  10  11
HETATM   11  N2  UNL     1      72.702  56.180  28.258  1.00  0.00    -0.359 N 
HETATM   12  C5  UNL     1      72.120  55.823  29.522  1.00  0.00     0.152 C 
BRANCH  11  13
HETATM   13  C6  UNL     1      72.368  57.423  27.664  1.00  0.00     0.149 A 
HETATM   14  N3  UNL     1      72.039  57.632  26.408  1.00  0.00    -0.331 N 
HETATM   15  C7  UNL     1      71.755  58.832  25.998  1.00  0.00     0.113 A 
ATOM     16  H3  UNL     1      72.006  56.850  25.754  1.00  0.00     0.168 HD
HETATM   17  C8  UNL     1      71.388  59.221  24.696  1.00  0.00     0.144 A 
HETATM   18  C12 UNL     1      71.812  59.851  26.908  1.00  0.00     0.124 A 
HETATM   19  N5  UNL     1      71.130  60.509  24.451  1.00  0.00    -0.174 N 
HETATM   20  C9  UNL     1      71.186  61.506  25.346  1.00  0.00     0.687 A 
ATOM     21  H5  UNL     1      70.866  60.755  23.498  1.00  0.00     0.186 HD
HETATM   22  N7  UNL     1      71.536  61.153  26.598  1.00  0.00    -0.183 N 
ATOM     23  H7  UNL     1      71.597  61.867  27.324  1.00  0.00     0.185 HD
HETATM   24  S1  UNL     1      72.283  58.993  28.333  1.00  0.00    -0.033 SA
BRANCH  17  25
HETATM   25  N4  UNL     1      71.300  58.340  23.753  1.00  0.00    -0.383 N 
ATOM     26  H42 UNL     1      71.702  58.523  22.833  1.00  0.00     0.157 HD
ATOM     27  H41 UNL     1      70.828  57.452  23.921  1.00  0.00     0.157 HD
ENDBRANCH  17  25
BRANCH  20  28
HETATM   28  N6  UNL     1      70.928  62.730  25.060  1.00  0.00    -0.160 N 
HETATM   29  C10 UNL     1      70.986  63.270  23.760  1.00  0.00     0.231 C 
HETATM   30  C11 UNL     1      72.300  63.511  23.127  1.00  0.00     0.118 C 
HETATM   31  O2  UNL     1      69.951  63.553  23.119  1.00  0.00    -0.273 OA
ATOM     32  H6  UNL     1      70.664  63.352  25.824  1.00  0.00     0.187 HD
ENDBRANCH  20  28
ENDBRANCH  11  13
ENDBRANCH  10  11
ENDBRANCH   4  10
BRANCH   1  33
HETATM   33  O1  UNL     1      71.420  52.940  23.976  1.00  0.00    -0.339 OA
HETATM   34  C1  UNL     1      72.321  53.015  22.906  1.00  0.00     0.211 C 
ENDBRANCH   1  33
BRANCH   9  35
HETATM   35  C14 UNL     1      70.800  50.713  25.691  1.00  0.00     0.349 C 
BRANCH  35  36
HETATM   36  N10 UNL     1      71.610  50.015  24.683  1.00  0.00    -0.037 N 
ATOM     37 3H10 UNL     1      71.176  50.022  23.759  1.00  0.00     0.277 HD
ATOM     38 2H10 UNL     1      72.460  50.525  24.440  1.00  0.00     0.277 HD
ATOM     39 1H10 UNL     1      71.801  49.072  25.020  1.00  0.00     0.277 HD
ENDBRANCH  35  36
BRANCH  35  40
HETATM   40  N11 UNL     1      69.525  50.982  25.087  1.00  0.00    -0.037 N 
ATOM     41 3H11 UNL     1      68.767  50.735  25.723  1.00  0.00     0.277 HD
ATOM     42 2H11 UNL     1      69.367  51.987  25.014  1.00  0.00     0.277 HD
ATOM     43 1H11 UNL     1      69.393  50.532  24.180  1.00  0.00     0.277 HD
ENDBRANCH  35  40
BRANCH  35  44
HETATM   44  C15 UNL     1      70.578  49.728  26.830  1.00  0.00     0.240 C 
BRANCH  44  45
HETATM   45  O3  UNL     1      69.422  50.031  27.548  1.00  0.00    -0.396 OA
ATOM     46  H3  UNL     1      69.629  50.404  28.398  1.00  0.00     0.209 HD
ENDBRANCH  44  45
ENDBRANCH  35  44
ENDBRANCH   9  35
TORSDOF 11
ENDMDL
MODEL 4
REMARK VINA RESULT: -7.712264629      1.654      2.293
REMARK  11 active torsions:
REMARK  status: ('A' for Active; 'I' for Inactive)
REMARK    1  A    between atoms: O1_2  and  C2_3 
REMARK    2  A    between atoms: C3_6  and  C4_7 
REMARK    3  A    between atoms: C4_7  and  N2_8 
REMARK    4  A    between atoms: N2_8  and  C6_10 
REMARK    5  A    between atoms: C8_14  and  N4_15 
REMARK    6  A    between atoms: C9_20  and  N6_21 
REMARK       I    between atoms: N6_21  and  C10_23 
REMARK    7  A    between atoms: C13_34  and  C14_35 
REMARK    8  A    between atoms: C14_35  and  N10_36 
REMARK    9  A    between atoms: C14_35  and  N11_40 
REMARK   10  A    between atoms: C14_35  and  C15_44 
REMARK   11  A    between atoms: C15_44  and  O3_45 
ROOT
HETATM    1  C2  UNL     1      71.748  58.464  24.336  1.00  0.00     0.172 A 
HETATM    2  N1  UNL     1      72.304  57.262  24.496  1.00  0.00    -0.322 N 
ATOM      3  H1  UNL     1      72.439  56.680  23.669  1.00  0.00     0.169 HD
HETATM    4  C3  UNL     1      72.693  56.780  25.671  1.00  0.00     0.116 A 
HETATM    5  N8  UNL     1      72.500  57.577  26.752  1.00  0.00    -0.287 N 
ATOM      6  H8  UNL     1      72.781  57.252  27.677  1.00  0.00     0.188 HD
HETATM    7  N9  UNL     1      71.957  58.754  26.617  1.00  0.00    -0.295 N 
ATOM      8  H9  UNL     1      71.830  59.321  27.455  1.00  0.00     0.187 HD
HETATM    9  C13 UNL     1      71.555  59.266  25.441  1.00  0.00     0.143 A 
ENDROOT
BRANCH   4  10
HETATM   10  C4  UNL     1      73.313  55.447  25.874  1.00  0.00     0.202 C 
BRANCH  10  11
HETATM   11  N2  UNL     1      72.625  54.720  26.918  1.00  0.00    -0.359 N 
HETATM   12  C5  UNL     1      73.314  54.463  28.153  1.00  0.00     0.152 C 
BRANCH  11  13
HETATM   13  C6  UNL     1      71.296  54.259  26.754  1.00  0.00     0.149 A 
HETATM   14  N3  UNL     1      70.918  53.118  26.221  1.00  0.00    -0.331 N 
HETATM   15  C7  UNL     1      69.656  52.823  26.133  1.00  0.00     0.113 A 
ATOM     16  H3  UNL     1      71.619  52.462  25.875  1.00  0.00     0.168 HD
HETATM   17  C8  UNL     1      69.092  51.652  25.594  1.00  0.00     0.144 A 
HETATM   18  C12 UNL     1      68.750  53.730  26.610  1.00  0.00     0.124 A 
HETATM   19  N5  UNL     1      67.762  51.515  25.585  1.00  0.00    -0.174 N 
HETATM   20  C9  UNL     1      66.878  52.407  26.053  1.00  0.00     0.687 A 
ATOM     21  H5  UNL     1      67.388  50.654  25.187  1.00  0.00     0.186 HD
HETATM   22  N7  UNL     1      67.398  53.535  26.574  1.00  0.00    -0.183 N 
ATOM     23  H7  UNL     1      66.776  54.252  26.946  1.00  0.00     0.185 HD
HETATM   24  S1  UNL     1      69.804  54.983  27.166  1.00  0.00    -0.033 SA
BRANCH  17  25
HETATM   25  N4  UNL     1      69.853  50.722  25.115  1.00  0.00    -0.383 N 
ATOM     26  H42 UNL     1      70.863  50.755  25.254  1.00  0.00     0.157 HD
ATOM     27  H41 UNL     1      69.448  49.946  24.591  1.00  0.00     0.157 HD
ENDBRANCH  17  25
BRANCH  20  28
HETATM   28  N6  UNL     1      65.607  52.228  26.021  1.00  0.00    -0.160 N 
HETATM   29  C10 UNL     1      64.761  52.726  25.012  1.00  0.00     0.231 C 
HETATM   30  C11 UNL     1      64.450  54.171  24.967  1.00  0.00     0.118 C 
HETATM   31  O2  UNL     1      64.260  51.978  24.145  1.00  0.00    -0.273 OA
ATOM     32  H6  UNL     1      65.183  51.689  26.776  1.00  0.00     0.187 HD
ENDBRANCH  20  28
ENDBRANCH  11  13
ENDBRANCH  10  11
ENDBRANCH   4  10
BRANCH   1  33
HETATM   33  O1  UNL     1      71.364  58.915  23.102  1.00  0.00    -0.339 OA
HETATM   34  C1  UNL     1      71.505  58.156  21.933  1.00  0.00     0.211 C 
ENDBRANCH   1  33
BRANCH   9  35
HETATM   35  C14 UNL     1      70.961  60.600  25.400  1.00  0.00     0.349 C 
BRANCH  35  36
HETATM   36  N10 UNL     1      69.553  60.469  25.003  1.00  0.00    -0.037 N 
ATOM     37 3H10 UNL     1      69.443  60.034  24.087  1.00  0.00     0.277 HD
ATOM     38 2H10 UNL     1      69.054  59.767  25.551  1.00  0.00     0.277 HD
ATOM     39 1H10 UNL     1      69.117  61.390  25.055  1.00  0.00     0.277 HD
ENDBRANCH  35  36
BRANCH  35  40
HETATM   40  N11 UNL     1      71.580  61.485  24.452  1.00  0.00    -0.037 N 
ATOM     41 3H11 UNL     1      72.358  61.985  24.881  1.00  0.00     0.277 HD
ATOM     42 2H11 UNL     1      72.087  60.954  23.744  1.00  0.00     0.277 HD
ATOM     43 1H11 UNL     1      70.931  62.140  24.013  1.00  0.00     0.277 HD
ENDBRANCH  35  40
BRANCH  35  44
HETATM   44  C15 UNL     1      70.970  61.291  26.757  1.00  0.00     0.240 C 
BRANCH  44  45
HETATM   45  O3  UNL     1      72.270  61.480  27.224  1.00  0.00    -0.396 OA
ATOM     46  H3  UNL     1      72.275  61.917  28.068  1.00  0.00     0.209 HD
ENDBRANCH  44  45
ENDBRANCH  35  44
ENDBRANCH   9  35
TORSDOF 11
ENDMDL
MODEL 5
REMARK VINA RESULT: -7.695467065      2.302      8.372
REMARK  11 active torsions:
REMARK  status: ('A' for Active; 'I' for Inactive)
REMARK    1  A    between atoms: O1_2  and  C2_3 
REMARK    2  A    between atoms: C3_6  and  C4_7 
REMARK    3  A    between atoms: C4_7  and  N2_8 
REMARK    4  A    between atoms: N2_8  and  C6_10 
REMARK    5  A    between atoms: C8_14  and  N4_15 
REMARK    6  A    between atoms: C9_20  and  N6_21 
REMARK       I    between atoms: N6_21  and  C10_23 
REMARK    7  A    between atoms: C13_34  and  C14_35 
REMARK    8  A    between atoms: C14_35  and  N10_36 
REMARK    9  A    between atoms: C14_35  and  N11_40 
REMARK   10  A    between atoms: C14_35  and  C15_44 
REMARK   11  A    between atoms: C15_44  and  O3_45 
ROOT
HETATM    1  C2  UNL     1      68.678  53.364  26.419  1.00  0.00     0.172 A 
HETATM    2  N1  UNL     1      69.756  54.148  26.477  1.00  0.00    -0.322 N 
ATOM      3  H1  UNL     1      69.620  55.158  26.438  1.00  0.00     0.169 HD
HETATM    4  C3  UNL     1      70.997  53.686  26.584  1.00  0.00     0.116 A 
HETATM    5  N8  UNL     1      71.146  52.338  26.633  1.00  0.00    -0.287 N 
ATOM      6  H8  UNL     1      72.079  51.934  26.715  1.00  0.00     0.188 HD
HETATM    7  N9  UNL     1      70.106  51.556  26.578  1.00  0.00    -0.295 N 
ATOM      8  H9  UNL     1      70.260  50.549  26.618  1.00  0.00     0.187 HD
HETATM    9  C13 UNL     1      68.839  51.996  26.470  1.00  0.00     0.143 A 
ENDROOT
BRANCH   4  10
HETATM   10  C4  UNL     1      72.212  54.537  26.650  1.00  0.00     0.202 C 
BRANCH  10  11
HETATM   11  N2  UNL     1      72.002  55.652  27.547  1.00  0.00    -0.359 N 
HETATM   12  C5  UNL     1      71.980  55.408  28.963  1.00  0.00     0.152 C 
BRANCH  11  13
HETATM   13  C6  UNL     1      71.820  56.972  27.066  1.00  0.00     0.149 A 
HETATM   14  N3  UNL     1      71.694  57.343  25.810  1.00  0.00    -0.331 N 
HETATM   15  C7  UNL     1      71.532  58.596  25.510  1.00  0.00     0.113 A 
ATOM     16  H3  UNL     1      71.724  56.642  25.068  1.00  0.00     0.168 HD
HETATM   17  C8  UNL     1      71.383  59.152  24.226  1.00  0.00     0.144 A 
HETATM   18  C12 UNL     1      71.498  59.501  26.536  1.00  0.00     0.124 A 
HETATM   19  N5  UNL     1      71.226  60.473  24.103  1.00  0.00    -0.174 N 
HETATM   20  C9  UNL     1      71.193  61.357  25.110  1.00  0.00     0.687 A 
ATOM     21  H5  UNL     1      71.121  60.841  23.159  1.00  0.00     0.186 HD
HETATM   22  N7  UNL     1      71.333  60.845  26.348  1.00  0.00    -0.183 N 
ATOM     23  H7  UNL     1      71.316  61.467  27.156  1.00  0.00     0.185 HD
HETATM   24  S1  UNL     1      71.708  58.459  27.900  1.00  0.00    -0.033 SA
BRANCH  17  25
HETATM   25  N4  UNL     1      71.399  58.390  23.181  1.00  0.00    -0.383 N 
ATOM     26  H42 UNL     1      71.518  57.381  23.275  1.00  0.00     0.157 HD
ATOM     27  H41 UNL     1      71.292  58.793  22.250  1.00  0.00     0.157 HD
ENDBRANCH  17  25
BRANCH  20  28
HETATM   28  N6  UNL     1      71.038  62.620  24.940  1.00  0.00    -0.160 N 
HETATM   29  C10 UNL     1      71.131  63.269  23.693  1.00  0.00     0.231 C 
HETATM   30  C11 UNL     1      72.455  63.454  23.063  1.00  0.00     0.118 C 
HETATM   31  O2  UNL     1      70.118  63.696  23.098  1.00  0.00    -0.273 OA
ATOM     32  H6  UNL     1      70.835  63.190  25.761  1.00  0.00     0.187 HD
ENDBRANCH  20  28
ENDBRANCH  11  13
ENDBRANCH  10  11
ENDBRANCH   4  10
BRANCH   1  33
HETATM   33  O1  UNL     1      67.419  53.890  26.309  1.00  0.00    -0.339 OA
HETATM   34  C1  UNL     1      67.166  55.267  26.265  1.00  0.00     0.211 C 
ENDBRANCH   1  33
BRANCH   9  35
HETATM   35  C14 UNL     1      67.743  51.031  26.419  1.00  0.00     0.349 C 
BRANCH  35  36
HETATM   36  N10 UNL     1      67.234  50.980  25.041  1.00  0.00    -0.037 N 
ATOM     37 3H10 UNL     1      67.958  50.737  24.365  1.00  0.00     0.277 HD
ATOM     38 2H10 UNL     1      66.619  50.183  24.879  1.00  0.00     0.277 HD
ATOM     39 1H10 UNL     1      66.784  51.872  24.831  1.00  0.00     0.277 HD
ENDBRANCH  35  36
BRANCH  35  40
HETATM   40  N11 UNL     1      66.628  51.371  27.260  1.00  0.00    -0.037 N 
ATOM     41 3H11 UNL     1      65.752  51.075  26.831  1.00  0.00     0.277 HD
ATOM     42 2H11 UNL     1      66.617  50.785  28.095  1.00  0.00     0.277 HD
ATOM     43 1H11 UNL     1      66.587  52.359  27.514  1.00  0.00     0.277 HD
ENDBRANCH  35  40
BRANCH  35  44
HETATM   44  C15 UNL     1      68.182  49.618  26.775  1.00  0.00     0.240 C 
BRANCH  44  45
HETATM   45  O3  UNL     1      68.638  49.543  28.091  1.00  0.00    -0.396 OA
ATOM     46  H3  UNL     1      68.563  48.660  28.434  1.00  0.00     0.209 HD
ENDBRANCH  44  45
ENDBRANCH  35  44
ENDBRANCH   9  35
TORSDOF 11
ENDMDL
