MODEL 1
REMARK VINA RESULT: -7.826724917      0.000      0.000
REMARK  10 active torsions:
REMARK  status: ('A' for Active; 'I' for Inactive)
REMARK    1  A    between atoms: O1_2  and  C2_3 
REMARK    2  A    between atoms: C7_9  and  O2_10 
REMARK    3  A    between atoms: C12_18  and  C13_19 
REMARK    4  A    between atoms: C16_23  and  O4_24 
REMARK    5  A    between atoms: O4_24  and  C17_25 
REMARK    6  A    between atoms: C17_25  and  C18_26 
REMARK    7  A    between atoms: C18_26  and  C19_27 
REMARK    8  A    between atoms: C19_27  and  N2_28 
REMARK    9  A    between atoms: N2_28  and  C21_30 
REMARK   10  A    between atoms: C29_43  and  O5_44 
ROOT
HETATM    1  C13 UNL     1      40.227 -22.863  26.153  1.00  0.00    -0.041 A 
HETATM    2  C14 UNL     1      39.276 -22.243  26.925  1.00  0.00     0.030 A 
HETATM    3  C15 UNL     1      38.275 -21.550  26.264  1.00  0.00     0.047 A 
HETATM    4 BR1  UNL     1      36.931 -20.671  27.291  1.00  0.00    -0.048 Br
HETATM    5  C16 UNL     1      38.182 -21.448  24.894  1.00  0.00     0.119 A 
HETATM    6  C29 UNL     1      39.152 -22.081  24.138  1.00  0.00     0.103 A 
HETATM    7  C31 UNL     1      40.175 -22.788  24.783  1.00  0.00     0.048 A 
ENDROOT
BRANCH   5   8
HETATM    8  O4  UNL     1      37.190 -20.760  24.250  1.00  0.00    -0.347 OA
BRANCH   8   9
HETATM    9  C17 UNL     1      37.397 -19.561  23.510  1.00  0.00     0.177 C 
BRANCH   9  10
HETATM   10  C18 UNL     1      37.610 -18.390  24.429  1.00  0.00     0.046 C 
BRANCH  10  11
HETATM   11  C19 UNL     1      38.935 -17.735  24.365  1.00  0.00     0.126 C 
BRANCH  11  12
HETATM   12  N2  UNL     1      39.171 -16.619  25.210  1.00  0.00    -0.371 N 
HETATM   13  C20 UNL     1      39.952 -15.496  24.728  1.00  0.00     0.151 C 
BRANCH  12  14
HETATM   14  C21 UNL     1      38.652 -16.535  26.556  1.00  0.00     0.116 A 
HETATM   15  N3  UNL     1      37.717 -15.584  26.848  1.00  0.00    -0.338 N 
HETATM   16  C22 UNL     1      37.196 -15.497  28.085  1.00  0.00     0.182 A 
ATOM     17  H3  UNL     1      37.412 -14.935  26.123  1.00  0.00     0.168 HD
HETATM   18  N4  UNL     1      37.574 -16.336  29.075  1.00  0.00    -0.351 N 
HETATM   19  C23 UNL     1      38.496 -17.297  28.847  1.00  0.00     0.048 A 
ATOM     20  H4  UNL     1      37.159 -16.242  30.002  1.00  0.00     0.166 HD
HETATM   21  C24 UNL     1      38.885 -18.153  29.867  1.00  0.00     0.057 A 
HETATM   22  C28 UNL     1      39.025 -17.377  27.572  1.00  0.00     0.035 A 
HETATM   23  C25 UNL     1      39.828 -19.133  29.652  1.00  0.00     0.048 A 
HETATM   24  N5  UNL     1      40.239 -20.025  30.692  1.00  0.00    -0.102 NA
HETATM   25  C26 UNL     1      40.354 -19.211  28.382  1.00  0.00     0.027 A 
HETATM   26  C27 UNL     1      39.965 -18.351  27.352  1.00  0.00     0.019 A 
ENDBRANCH  12  14
ENDBRANCH  11  12
ENDBRANCH  10  11
ENDBRANCH   9  10
ENDBRANCH   8   9
ENDBRANCH   5   8
BRANCH   6  27
HETATM   27  O5  UNL     1      39.109 -22.013  22.749  1.00  0.00    -0.353 OA
HETATM   28  C30 UNL     1      38.573 -23.065  21.966  1.00  0.00     0.210 C 
ENDBRANCH   6  27
BRANCH   1  29
HETATM   29  C12 UNL     1      41.319 -23.616  26.824  1.00  0.00     0.091 A 
HETATM   30  C5  UNL     1      42.041 -22.873  27.851  1.00  0.00     0.006 A 
HETATM   31  C4  UNL     1      42.660 -21.704  27.493  1.00  0.00     0.046 A 
HETATM   32  C6  UNL     1      42.122 -23.303  29.182  1.00  0.00     0.081 A 
HETATM   33  C3  UNL     1      43.336 -20.989  28.446  1.00  0.00     0.064 A 
HETATM   34 CL1  UNL     1      42.665 -21.037  25.869  1.00  0.00    -0.084 Cl
HETATM   35  C2  UNL     1      43.427 -21.389  29.752  1.00  0.00     0.105 A 
HETATM   36  C7  UNL     1      42.814 -22.563  30.134  1.00  0.00     0.127 A 
HETATM   37  N1  UNL     1      41.508 -24.533  29.613  1.00  0.00    -0.329 N 
HETATM   38  C8  UNL     1      41.561 -25.019  30.970  1.00  0.00     0.158 C 
HETATM   39  C9  UNL     1      40.815 -25.273  28.582  1.00  0.00     0.150 A 
HETATM   40  C10 UNL     1      40.730 -24.883  27.350  1.00  0.00     0.008 A 
HETATM   41  O3  UNL     1      40.073 -26.448  28.366  1.00  0.00    -0.331 OA
HETATM   42  C11 UNL     1      39.934 -26.117  27.032  1.00  0.00     0.217 A 
BRANCH  35  43
HETATM   43  O1  UNL     1      44.117 -20.641  30.678  1.00  0.00    -0.353 OA
HETATM   44  C1  UNL     1      45.523 -20.549  30.719  1.00  0.00     0.210 C 
ENDBRANCH  35  43
BRANCH  36  45
HETATM   45  O2  UNL     1      42.881 -23.002  31.436  1.00  0.00    -0.356 OA
ATOM     46  H2  UNL     1      42.894 -22.386  32.158  1.00  0.00     0.218 HD
ENDBRANCH  36  45
ENDBRANCH   1  29
TORSDOF 10
ENDMDL
MODEL 2
REMARK VINA RESULT: -7.715757888      5.001      9.421
REMARK  10 active torsions:
REMARK  status: ('A' for Active; 'I' for Inactive)
REMARK    1  A    between atoms: O1_2  and  C2_3 
REMARK    2  A    between atoms: C7_9  and  O2_10 
REMARK    3  A    between atoms: C12_18  and  C13_19 
REMARK    4  A    between atoms: C16_23  and  O4_24 
REMARK    5  A    between atoms: O4_24  and  C17_25 
REMARK    6  A    between atoms: C17_25  and  C18_26 
REMARK    7  A    between atoms: C18_26  and  C19_27 
REMARK    8  A    between atoms: C19_27  and  N2_28 
REMARK    9  A    between atoms: N2_28  and  C21_30 
REMARK   10  A    between atoms: C29_43  and  O5_44 
ROOT
HETATM    1  C13 UNL     1      39.554 -20.265  27.567  1.00  0.00    -0.041 A 
HETATM    2  C14 UNL     1      40.402 -21.309  27.839  1.00  0.00     0.030 A 
HETATM    3  C15 UNL     1      39.909 -22.591  27.662  1.00  0.00     0.047 A 
HETATM    4 BR1  UNL     1      41.048 -24.075  28.027  1.00  0.00    -0.048 Br
HETATM    5  C16 UNL     1      38.631 -22.874  27.234  1.00  0.00     0.119 A 
HETATM    6  C29 UNL     1      37.794 -21.806  26.966  1.00  0.00     0.103 A 
HETATM    7  C31 UNL     1      38.270 -20.499  27.139  1.00  0.00     0.048 A 
ENDROOT
BRANCH   5   8
HETATM    8  O4  UNL     1      38.152 -24.145  27.063  1.00  0.00    -0.347 OA
BRANCH   8   9
HETATM    9  C17 UNL     1      38.138 -24.835  25.818  1.00  0.00     0.177 C 
BRANCH   9  10
HETATM   10  C18 UNL     1      37.558 -26.215  25.973  1.00  0.00     0.046 C 
BRANCH  10  11
HETATM   11  C19 UNL     1      37.113 -26.885  24.731  1.00  0.00     0.126 C 
BRANCH  11  12
HETATM   12  N2  UNL     1      35.717 -26.999  24.496  1.00  0.00    -0.371 N 
HETATM   13  C20 UNL     1      34.874 -25.821  24.559  1.00  0.00     0.151 C 
BRANCH  12  14
HETATM   14  C21 UNL     1      35.079 -28.255  24.180  1.00  0.00     0.116 A 
HETATM   15  N3  UNL     1      34.745 -28.522  22.884  1.00  0.00    -0.338 N 
HETATM   16  C22 UNL     1      34.172 -29.693  22.554  1.00  0.00     0.182 A 
ATOM     17  H3  UNL     1      34.932 -27.827  22.160  1.00  0.00     0.168 HD
HETATM   18  N4  UNL     1      33.907 -30.639  23.481  1.00  0.00    -0.351 N 
HETATM   19  C23 UNL     1      34.213 -30.433  24.781  1.00  0.00     0.048 A 
ATOM     20  H4  UNL     1      33.471 -31.517  23.197  1.00  0.00     0.166 HD
HETATM   21  C24 UNL     1      33.934 -31.405  25.730  1.00  0.00     0.057 A 
HETATM   22  C28 UNL     1      34.801 -29.226  25.109  1.00  0.00     0.035 A 
HETATM   23  C25 UNL     1      34.234 -31.207  27.061  1.00  0.00     0.048 A 
HETATM   24  N5  UNL     1      33.954 -32.199  28.053  1.00  0.00    -0.102 NA
HETATM   25  C26 UNL     1      34.819 -30.003  27.385  1.00  0.00     0.027 A 
HETATM   26  C27 UNL     1      35.102 -29.022  26.431  1.00  0.00     0.019 A 
ENDBRANCH  12  14
ENDBRANCH  11  12
ENDBRANCH  10  11
ENDBRANCH   9  10
ENDBRANCH   8   9
ENDBRANCH   5   8
BRANCH   6  27
HETATM   27  O5  UNL     1      36.493 -22.031  26.531  1.00  0.00    -0.353 OA
HETATM   28  C30 UNL     1      36.036 -21.569  25.272  1.00  0.00     0.210 C 
ENDBRANCH   6  27
BRANCH   1  29
HETATM   29  C12 UNL     1      40.044 -18.873  27.746  1.00  0.00     0.091 A 
HETATM   30  C5  UNL     1      39.914 -18.017  26.573  1.00  0.00     0.006 A 
HETATM   31  C4  UNL     1      40.532 -18.405  25.413  1.00  0.00     0.046 A 
HETATM   32  C6  UNL     1      39.181 -16.823  26.584  1.00  0.00     0.081 A 
HETATM   33  C3  UNL     1      40.414 -17.617  24.299  1.00  0.00     0.064 A 
HETATM   34 CL1  UNL     1      41.497 -19.861  25.239  1.00  0.00    -0.084 Cl
HETATM   35  C2  UNL     1      39.702 -16.448  24.286  1.00  0.00     0.105 A 
HETATM   36  C7  UNL     1      39.074 -16.037  25.441  1.00  0.00     0.127 A 
HETATM   37  N1  UNL     1      38.525 -16.354  27.778  1.00  0.00    -0.329 N 
HETATM   38  C8  UNL     1      37.758 -15.135  27.841  1.00  0.00     0.158 C 
HETATM   39  C9  UNL     1      38.680 -17.199  28.940  1.00  0.00     0.150 A 
HETATM   40  C10 UNL     1      39.352 -18.306  28.941  1.00  0.00     0.008 A 
HETATM   41  O3  UNL     1      38.322 -17.298  30.297  1.00  0.00    -0.331 OA
HETATM   42  C11 UNL     1      39.019 -18.487  30.395  1.00  0.00     0.217 A 
BRANCH  35  43
HETATM   43  O1  UNL     1      39.610 -15.685  23.144  1.00  0.00    -0.353 OA
HETATM   44  C1  UNL     1      40.323 -15.958  21.960  1.00  0.00     0.210 C 
ENDBRANCH  35  43
BRANCH  36  45
HETATM   45  O2  UNL     1      38.349 -14.868  25.472  1.00  0.00    -0.356 OA
ATOM     46  H2  UNL     1      38.573 -14.172  26.078  1.00  0.00     0.218 HD
ENDBRANCH  36  45
ENDBRANCH   1  29
TORSDOF 10
ENDMDL
MODEL 3
REMARK VINA RESULT: -7.701935698      4.890      9.415
REMARK  10 active torsions:
REMARK  status: ('A' for Active; 'I' for Inactive)
REMARK    1  A    between atoms: O1_2  and  C2_3 
REMARK    2  A    between atoms: C7_9  and  O2_10 
REMARK    3  A    between atoms: C12_18  and  C13_19 
REMARK    4  A    between atoms: C16_23  and  O4_24 
REMARK    5  A    between atoms: O4_24  and  C17_25 
REMARK    6  A    between atoms: C17_25  and  C18_26 
REMARK    7  A    between atoms: C18_26  and  C19_27 
REMARK    8  A    between atoms: C19_27  and  N2_28 
REMARK    9  A    between atoms: N2_28  and  C21_30 
REMARK   10  A    between atoms: C29_43  and  O5_44 
ROOT
HETATM    1  C13 UNL     1      39.585 -20.243  27.587  1.00  0.00    -0.041 A 
HETATM    2  C14 UNL     1      38.370 -20.470  26.991  1.00  0.00     0.030 A 
HETATM    3  C15 UNL     1      37.947 -21.785  26.891  1.00  0.00     0.047 A 
HETATM    4 BR1  UNL     1      36.267 -22.153  26.070  1.00  0.00    -0.048 Br
HETATM    5  C16 UNL     1      38.669 -22.865  27.348  1.00  0.00     0.119 A 
HETATM    6  C29 UNL     1      39.891 -22.612  27.945  1.00  0.00     0.103 A 
HETATM    7  C31 UNL     1      40.341 -21.289  28.058  1.00  0.00     0.048 A 
ENDROOT
BRANCH   5   8
HETATM    8  O4  UNL     1      38.244 -24.162  27.243  1.00  0.00    -0.347 OA
BRANCH   8   9
HETATM    9  C17 UNL     1      38.561 -25.023  26.155  1.00  0.00     0.177 C 
BRANCH   9  10
HETATM   10  C18 UNL     1      37.590 -26.170  26.076  1.00  0.00     0.046 C 
BRANCH  10  11
HETATM   11  C19 UNL     1      37.126 -26.547  24.723  1.00  0.00     0.126 C 
BRANCH  11  12
HETATM   12  N2  UNL     1      35.727 -26.669  24.506  1.00  0.00    -0.371 N 
HETATM   13  C20 UNL     1      34.857 -25.532  24.735  1.00  0.00     0.151 C 
BRANCH  12  14
HETATM   14  C21 UNL     1      35.112 -27.892  24.048  1.00  0.00     0.116 A 
HETATM   15  N3  UNL     1      34.790 -28.019  22.728  1.00  0.00    -0.338 N 
HETATM   16  C22 UNL     1      34.239 -29.156  22.266  1.00  0.00     0.182 A 
ATOM     17  H3  UNL     1      34.968 -27.246  22.087  1.00  0.00     0.168 HD
HETATM   18  N4  UNL     1      33.985 -30.203  23.081  1.00  0.00    -0.351 N 
HETATM   19  C23 UNL     1      34.281 -30.138  24.397  1.00  0.00     0.048 A 
ATOM     20  H4  UNL     1      33.565 -31.051  22.698  1.00  0.00     0.166 HD
HETATM   21  C24 UNL     1      34.013 -31.213  25.231  1.00  0.00     0.057 A 
HETATM   22  C28 UNL     1      34.846 -28.965  24.861  1.00  0.00     0.035 A 
HETATM   23  C25 UNL     1      34.302 -31.159  26.577  1.00  0.00     0.048 A 
HETATM   24  N5  UNL     1      34.035 -32.259  27.451  1.00  0.00    -0.102 NA
HETATM   25  C26 UNL     1      34.865 -29.989  27.038  1.00  0.00     0.027 A 
HETATM   26  C27 UNL     1      35.137 -28.904  26.200  1.00  0.00     0.019 A 
ENDBRANCH  12  14
ENDBRANCH  11  12
ENDBRANCH  10  11
ENDBRANCH   9  10
ENDBRANCH   8   9
ENDBRANCH   5   8
BRANCH   6  27
HETATM   27  O5  UNL     1      40.664 -23.663  28.426  1.00  0.00    -0.353 OA
HETATM   28  C30 UNL     1      40.588 -24.089  29.775  1.00  0.00     0.210 C 
ENDBRANCH   6  27
BRANCH   1  29
HETATM   29  C12 UNL     1      40.076 -18.846  27.713  1.00  0.00     0.091 A 
HETATM   30  C5  UNL     1      39.995 -18.051  26.493  1.00  0.00     0.006 A 
HETATM   31  C4  UNL     1      40.655 -18.500  25.380  1.00  0.00     0.046 A 
HETATM   32  C6  UNL     1      39.269 -16.855  26.415  1.00  0.00     0.081 A 
HETATM   33  C3  UNL     1      40.584 -17.771  24.223  1.00  0.00     0.064 A 
HETATM   34 CL1  UNL     1      41.618 -19.967  25.318  1.00  0.00    -0.084 Cl
HETATM   35  C2  UNL     1      39.880 -16.601  24.122  1.00  0.00     0.105 A 
HETATM   36  C7  UNL     1      39.209 -16.128  25.230  1.00  0.00     0.127 A 
HETATM   37  N1  UNL     1      38.570 -16.323  27.557  1.00  0.00    -0.329 N 
HETATM   38  C8  UNL     1      37.808 -15.099  27.528  1.00  0.00     0.158 C 
HETATM   39  C9  UNL     1      38.677 -17.107  28.767  1.00  0.00     0.150 A 
HETATM   40  C10 UNL     1      39.341 -18.215  28.850  1.00  0.00     0.008 A 
HETATM   41  O3  UNL     1      38.267 -17.135  30.112  1.00  0.00    -0.331 OA
HETATM   42  C11 UNL     1      38.952 -18.320  30.298  1.00  0.00     0.217 A 
BRANCH  35  43
HETATM   43  O1  UNL     1      39.835 -15.897  22.940  1.00  0.00    -0.353 OA
HETATM   44  C1  UNL     1      39.180 -16.358  21.780  1.00  0.00     0.210 C 
ENDBRANCH  35  43
BRANCH  36  45
HETATM   45  O2  UNL     1      38.490 -14.957  25.173  1.00  0.00    -0.356 OA
ATOM     46  H2  UNL     1      38.891 -14.154  24.862  1.00  0.00     0.218 HD
ENDBRANCH  36  45
ENDBRANCH   1  29
TORSDOF 10
ENDMDL
MODEL 4
REMARK VINA RESULT: -7.695018773      1.247      1.746
REMARK  10 active torsions:
REMARK  status: ('A' for Active; 'I' for Inactive)
REMARK    1  A    between atoms: O1_2  and  C2_3 
REMARK    2  A    between atoms: C7_9  and  O2_10 
REMARK    3  A    between atoms: C12_18  and  C13_19 
REMARK    4  A    between atoms: C16_23  and  O4_24 
REMARK    5  A    between atoms: O4_24  and  C17_25 
REMARK    6  A    between atoms: C17_25  and  C18_26 
REMARK    7  A    between atoms: C18_26  and  C19_27 
REMARK    8  A    between atoms: C19_27  and  N2_28 
REMARK    9  A    between atoms: N2_28  and  C21_30 
REMARK   10  A    between atoms: C29_43  and  O5_44 
ROOT
HETATM    1  C13 UNL     1      40.721 -22.893  25.786  1.00  0.00    -0.041 A 
HETATM    2  C14 UNL     1      40.973 -22.871  24.437  1.00  0.00     0.030 A 
HETATM    3  C15 UNL     1      40.106 -22.142  23.641  1.00  0.00     0.047 A 
HETATM    4 BR1  UNL     1      40.413 -22.081  21.760  1.00  0.00    -0.048 Br
HETATM    5  C16 UNL     1      39.018 -21.448  24.120  1.00  0.00     0.119 A 
HETATM    6  C29 UNL     1      38.784 -21.484  25.482  1.00  0.00     0.103 A 
HETATM    7  C31 UNL     1      39.647 -22.216  26.309  1.00  0.00     0.048 A 
ENDROOT
BRANCH   5   8
HETATM    8  O4  UNL     1      38.165 -20.731  23.324  1.00  0.00    -0.347 OA
BRANCH   8   9
HETATM    9  C17 UNL     1      38.455 -19.440  22.797  1.00  0.00     0.177 C 
BRANCH   9  10
HETATM   10  C18 UNL     1      39.232 -18.616  23.788  1.00  0.00     0.046 C 
BRANCH  10  11
HETATM   11  C19 UNL     1      38.458 -17.630  24.574  1.00  0.00     0.126 C 
BRANCH  11  12
HETATM   12  N2  UNL     1      39.165 -16.791  25.476  1.00  0.00    -0.371 N 
HETATM   13  C20 UNL     1      40.302 -16.021  25.009  1.00  0.00     0.151 C 
BRANCH  12  14
HETATM   14  C21 UNL     1      38.797 -16.652  26.865  1.00  0.00     0.116 A 
HETATM   15  N3  UNL     1      38.021 -15.594  27.244  1.00  0.00    -0.338 N 
HETATM   16  C22 UNL     1      37.641 -15.451  28.526  1.00  0.00     0.182 A 
ATOM     17  H3  UNL     1      37.729 -14.907  26.549  1.00  0.00     0.168 HD
HETATM   18  N4  UNL     1      38.007 -16.338  29.478  1.00  0.00    -0.351 N 
HETATM   19  C23 UNL     1      38.775 -17.405  29.165  1.00  0.00     0.048 A 
ATOM     20  H4  UNL     1      37.702 -16.199  30.441  1.00  0.00     0.166 HD
HETATM   21  C24 UNL     1      39.153 -18.308  30.146  1.00  0.00     0.057 A 
HETATM   22  C28 UNL     1      39.161 -17.541  27.845  1.00  0.00     0.035 A 
HETATM   23  C25 UNL     1      39.941 -19.398  29.845  1.00  0.00     0.048 A 
HETATM   24  N5  UNL     1      40.339 -20.341  30.844  1.00  0.00    -0.102 NA
HETATM   25  C26 UNL     1      40.325 -19.532  28.529  1.00  0.00     0.027 A 
HETATM   26  C27 UNL     1      39.945 -18.623  27.538  1.00  0.00     0.019 A 
ENDBRANCH  12  14
ENDBRANCH  11  12
ENDBRANCH  10  11
ENDBRANCH   9  10
ENDBRANCH   8   9
ENDBRANCH   5   8
BRANCH   6  27
HETATM   27  O5  UNL     1      37.700 -20.802  26.023  1.00  0.00    -0.353 OA
HETATM   28  C30 UNL     1      37.139 -21.162  27.274  1.00  0.00     0.210 C 
ENDBRANCH   6  27
BRANCH   1  29
HETATM   29  C12 UNL     1      41.628 -23.666  26.676  1.00  0.00     0.091 A 
HETATM   30  C5  UNL     1      42.266 -22.888  27.731  1.00  0.00     0.006 A 
HETATM   31  C4  UNL     1      43.042 -21.817  27.372  1.00  0.00     0.046 A 
HETATM   32  C6  UNL     1      42.115 -23.189  29.091  1.00  0.00     0.081 A 
HETATM   33  C3  UNL     1      43.643 -21.070  28.350  1.00  0.00     0.064 A 
HETATM   34 CL1  UNL     1      43.343 -21.318  25.716  1.00  0.00    -0.084 Cl
HETATM   35  C2  UNL     1      43.508 -21.345  29.684  1.00  0.00     0.105 A 
HETATM   36  C7  UNL     1      42.734 -22.419  30.070  1.00  0.00     0.127 A 
HETATM   37  N1  UNL     1      41.328 -24.314  29.530  1.00  0.00    -0.329 N 
HETATM   38  C8  UNL     1      41.140 -24.664  30.915  1.00  0.00     0.158 C 
HETATM   39  C9  UNL     1      40.719 -25.090  28.473  1.00  0.00     0.150 A 
HETATM   40  C10 UNL     1      40.849 -24.820  27.214  1.00  0.00     0.008 A 
HETATM   41  O3  UNL     1      39.903 -26.214  28.251  1.00  0.00    -0.331 OA
HETATM   42  C11 UNL     1      39.987 -26.007  26.887  1.00  0.00     0.217 A 
BRANCH  35  43
HETATM   43  O1  UNL     1      44.130 -20.570  30.636  1.00  0.00    -0.353 OA
HETATM   44  C1  UNL     1      45.526 -20.539  30.831  1.00  0.00     0.210 C 
ENDBRANCH  35  43
BRANCH  36  45
HETATM   45  O2  UNL     1      42.572 -22.730  31.400  1.00  0.00    -0.356 OA
ATOM     46  H2  UNL     1      41.827 -22.404  31.889  1.00  0.00     0.218 HD
ENDBRANCH  36  45
ENDBRANCH   1  29
TORSDOF 10
ENDMDL
MODEL 5
REMARK VINA RESULT: -7.685410584      3.454      7.617
REMARK  10 active torsions:
REMARK  status: ('A' for Active; 'I' for Inactive)
REMARK    1  A    between atoms: O1_2  and  C2_3 
REMARK    2  A    between atoms: C7_9  and  O2_10 
REMARK    3  A    between atoms: C12_18  and  C13_19 
REMARK    4  A    between atoms: C16_23  and  O4_24 
REMARK    5  A    between atoms: O4_24  and  C17_25 
REMARK    6  A    between atoms: C17_25  and  C18_26 
REMARK    7  A    between atoms: C18_26  and  C19_27 
REMARK    8  A    between atoms: C19_27  and  N2_28 
REMARK    9  A    between atoms: N2_28  and  C21_30 
REMARK   10  A    between atoms: C29_43  and  O5_44 
ROOT
HETATM    1  C13 UNL     1      39.742 -20.168  27.807  1.00  0.00    -0.041 A 
HETATM    2  C14 UNL     1      40.643 -21.125  28.200  1.00  0.00     0.030 A 
HETATM    3  C15 UNL     1      40.260 -22.450  28.066  1.00  0.00     0.047 A 
HETATM    4 BR1  UNL     1      41.477 -23.818  28.598  1.00  0.00    -0.048 Br
HETATM    5  C16 UNL     1      39.042 -22.855  27.569  1.00  0.00     0.119 A 
HETATM    6  C29 UNL     1      38.150 -21.872  27.181  1.00  0.00     0.103 A 
HETATM    7  C31 UNL     1      38.514 -20.524  27.306  1.00  0.00     0.048 A 
ENDROOT
BRANCH   5   8
HETATM    8  O4  UNL     1      38.672 -24.167  27.443  1.00  0.00    -0.347 OA
BRANCH   8   9
HETATM    9  C17 UNL     1      39.094 -25.019  26.383  1.00  0.00     0.177 C 
BRANCH   9  10
HETATM   10  C18 UNL     1      38.170 -26.199  26.240  1.00  0.00     0.046 C 
BRANCH  10  11
HETATM   11  C19 UNL     1      36.861 -25.936  25.603  1.00  0.00     0.126 C 
BRANCH  11  12
HETATM   12  N2  UNL     1      36.840 -25.658  24.210  1.00  0.00    -0.371 N 
HETATM   13  C20 UNL     1      37.603 -26.483  23.294  1.00  0.00     0.151 C 
BRANCH  12  14
HETATM   14  C21 UNL     1      36.071 -24.575  23.643  1.00  0.00     0.116 A 
HETATM   15  N3  UNL     1      34.742 -24.764  23.394  1.00  0.00    -0.338 N 
HETATM   16  C22 UNL     1      33.994 -23.766  22.889  1.00  0.00     0.182 A 
ATOM     17  H3  UNL     1      34.314 -25.668  23.592  1.00  0.00     0.168 HD
HETATM   18  N4  UNL     1      34.522 -22.554  22.611  1.00  0.00    -0.351 N 
HETATM   19  C23 UNL     1      35.832 -22.306  22.835  1.00  0.00     0.048 A 
ATOM     20  H4  UNL     1      33.927 -21.819  22.228  1.00  0.00     0.166 HD
HETATM   21  C24 UNL     1      36.371 -21.062  22.542  1.00  0.00     0.057 A 
HETATM   22  C28 UNL     1      36.591 -23.338  23.353  1.00  0.00     0.035 A 
HETATM   23  C25 UNL     1      37.705 -20.796  22.758  1.00  0.00     0.048 A 
HETATM   24  N5  UNL     1      38.277 -19.519  22.465  1.00  0.00    -0.102 NA
HETATM   25  C26 UNL     1      38.461 -21.827  23.275  1.00  0.00     0.027 A 
HETATM   26  C27 UNL     1      37.920 -23.081  23.570  1.00  0.00     0.019 A 
ENDBRANCH  12  14
ENDBRANCH  11  12
ENDBRANCH  10  11
ENDBRANCH   9  10
ENDBRANCH   8   9
ENDBRANCH   5   8
BRANCH   6  27
HETATM   27  O5  UNL     1      36.904 -22.221  26.671  1.00  0.00    -0.353 OA
HETATM   28  C30 UNL     1      35.926 -21.245  26.358  1.00  0.00     0.210 C 
ENDBRANCH   6  27
BRANCH   1  29
HETATM   29  C12 UNL     1      40.113 -18.734  27.936  1.00  0.00     0.091 A 
HETATM   30  C5  UNL     1      39.954 -17.944  26.720  1.00  0.00     0.006 A 
HETATM   31  C4  UNL     1      40.639 -18.331  25.599  1.00  0.00     0.046 A 
HETATM   32  C6  UNL     1      39.128 -16.814  26.654  1.00  0.00     0.081 A 
HETATM   33  C3  UNL     1      40.496 -17.606  24.446  1.00  0.00     0.064 A 
HETATM   34 CL1  UNL     1      41.723 -19.711  25.522  1.00  0.00    -0.084 Cl
HETATM   35  C2  UNL     1      39.694 -16.499  24.357  1.00  0.00     0.105 A 
HETATM   36  C7  UNL     1      38.997 -16.090  25.473  1.00  0.00     0.127 A 
HETATM   37  N1  UNL     1      38.397 -16.347  27.805  1.00  0.00    -0.329 N 
HETATM   38  C8  UNL     1      37.534 -15.193  27.788  1.00  0.00     0.158 C 
HETATM   39  C9  UNL     1      38.581 -17.125  29.010  1.00  0.00     0.150 A 
HETATM   40  C10 UNL     1      39.338 -18.173  29.082  1.00  0.00     0.008 A 
HETATM   41  O3  UNL     1      38.187 -17.193  30.358  1.00  0.00    -0.331 OA
HETATM   42  C11 UNL     1      38.973 -18.316  30.533  1.00  0.00     0.217 A 
BRANCH  35  43
HETATM   43  O1  UNL     1      39.579 -15.798  23.179  1.00  0.00    -0.353 OA
HETATM   44  C1  UNL     1      40.035 -16.277  21.934  1.00  0.00     0.210 C 
ENDBRANCH  35  43
BRANCH  36  45
HETATM   45  O2  UNL     1      38.180 -14.984  25.428  1.00  0.00    -0.356 OA
ATOM     46  H2  UNL     1      38.528 -14.115  25.589  1.00  0.00     0.218 HD
ENDBRANCH  36  45
ENDBRANCH   1  29
TORSDOF 10
ENDMDL
