MODEL 1
REMARK VINA RESULT: -8.064312515      0.000      0.000
REMARK  14 active torsions:
REMARK  status: ('A' for Active; 'I' for Inactive)
REMARK    1  A    between atoms: C2_2  and  C4_4 
REMARK    2  A    between atoms: C14_17  and  O4_18 
REMARK    3  A    between atoms: O4_18  and  C15_19 
REMARK    4  A    between atoms: C15_19  and  C16_21 
REMARK    5  A    between atoms: C16_21  and  C17_22 
REMARK    6  A    between atoms: C16_21  and  N1_24 
REMARK    7  A    between atoms: N1_24  and  N2_26 
REMARK    8  A    between atoms: N2_26  and  N3_27 
REMARK    9  A    between atoms: C22_34  and  O6_35 
REMARK   10  A    between atoms: C23_37  and  O7_38 
REMARK   11  A    between atoms: O7_38  and  C24_39 
REMARK   12  A    between atoms: C24_39  and  O8_40 
REMARK   13  A    between atoms: C24_39  and  C25_43 
REMARK   14  A    between atoms: O8_40  and  O9_41 
ROOT
HETATM    1  C4  UNL     1      37.818 -21.187  22.188  1.00  0.00    -0.003 C 
HETATM    2  C5  UNL     1      36.620 -20.690  21.359  1.00  0.00     0.008 C 
HETATM    3  C6  UNL     1      35.864 -19.721  22.290  1.00  0.00     0.038 C 
HETATM    4  C7  UNL     1      36.949 -19.307  23.181  1.00  0.00     0.063 C 
HETATM    5  C8  UNL     1      37.960 -18.503  22.419  1.00  0.00     0.046 C 
HETATM    6  O1  UNL     1      36.708 -18.890  24.439  1.00  0.00    -0.369 OA
HETATM    7  C9  UNL     1      37.992 -19.058  25.024  1.00  0.00     0.194 C 
HETATM    8  C10 UNL     1      38.561 -20.310  24.463  1.00  0.00     0.051 C 
HETATM    9  C11 UNL     1      38.708 -21.412  25.450  1.00  0.00    -0.003 C 
HETATM   10  C12 UNL     1      37.921 -21.791  26.498  1.00  0.00     0.045 C 
HETATM   11  C13 UNL     1      36.707 -21.096  26.805  1.00  0.00     0.294 C 
HETATM   12  O2  UNL     1      35.526 -21.498  26.923  1.00  0.00    -0.259 OA
HETATM   13  O3  UNL     1      36.748 -19.657  27.037  1.00  0.00    -0.276 OA
HETATM   14  C14 UNL     1      37.837 -18.869  26.493  1.00  0.00     0.208 C 
HETATM   15  C18 UNL     1      39.131 -19.103  27.237  1.00  0.00     0.073 C 
HETATM   16  C19 UNL     1      39.122 -19.994  28.393  1.00  0.00     0.012 C 
HETATM   17  C20 UNL     1      40.014 -21.148  28.512  1.00  0.00     0.013 C 
HETATM   18  C21 UNL     1      41.469 -20.607  28.584  1.00  0.00     0.012 C 
HETATM   19  C22 UNL     1      40.040 -22.305  27.658  1.00  0.00     0.155 C 
HETATM   20  C23 UNL     1      38.691 -22.855  27.149  1.00  0.00     0.193 C 
HETATM   21  C31 UNL     1      37.496 -20.718  23.520  1.00  0.00     0.034 C 
ENDROOT
BRANCH  14  22
HETATM   22  O4  UNL     1      37.414 -17.529  26.634  1.00  0.00    -0.278 OA
BRANCH  22  23
HETATM   23  C15 UNL     1      37.663 -16.695  27.688  1.00  0.00     0.288 C 
HETATM   24  O5  UNL     1      37.075 -16.976  28.777  1.00  0.00    -0.263 OA
BRANCH  23  25
HETATM   25  C16 UNL     1      38.561 -15.521  27.618  1.00  0.00     0.227 C 
BRANCH  25  26
HETATM   26  C17 UNL     1      39.848 -15.781  26.918  1.00  0.00     0.152 C 
HETATM   27 CL1  UNL     1      39.653 -15.404  25.194  1.00  0.00    -0.128 Cl
ENDBRANCH  25  26
BRANCH  25  28
HETATM   28  N1  UNL     1      37.855 -14.358  27.117  1.00  0.00    -0.237 N 
ATOM     29  H1  UNL     1      38.060 -14.044  26.169  1.00  0.00     0.198 HD
BRANCH  28  30
HETATM   30  N2  UNL     1      37.035 -13.736  27.760  1.00  0.00    -0.248 NA
BRANCH  30  31
HETATM   31  N3  UNL     1      36.242 -13.142  28.463  1.00  0.00    -0.261 N 
ATOM     32  H32 UNL     1      36.574 -12.474  27.768  1.00  0.00     0.193 HD
ATOM     33  H31 UNL     1      35.568 -12.695  29.085  1.00  0.00     0.193 HD
ENDBRANCH  30  31
ENDBRANCH  28  30
ENDBRANCH  25  28
ENDBRANCH  23  25
ENDBRANCH  22  23
ENDBRANCH  14  22
BRANCH   1  34
HETATM   34  C2  UNL     1      37.892 -22.681  21.996  1.00  0.00    -0.018 C 
HETATM   35  C1  UNL     1      37.177 -23.189  20.787  1.00  0.00     0.010 C 
HETATM   36  C3  UNL     1      39.379 -23.012  21.805  1.00  0.00     0.010 C 
ENDBRANCH   1  34
BRANCH  20  37
HETATM   37  O7  UNL     1      39.047 -23.724  26.108  1.00  0.00    -0.342 OA
BRANCH  37  38
HETATM   38  C24 UNL     1      38.615 -25.016  26.264  1.00  0.00     0.331 C 
BRANCH  38  39
HETATM   39  O8  UNL     1      38.494 -25.275  27.625  1.00  0.00    -0.205 OA
BRANCH  39  40
HETATM   40  O9  UNL     1      39.367 -26.158  27.987  1.00  0.00    -0.248 OA
ATOM     41  H9  UNL     1      38.997 -26.729  28.650  1.00  0.00     0.253 HD
ENDBRANCH  39  40
ENDBRANCH  38  39
BRANCH  38  42
HETATM   42  C25 UNL     1      37.383 -25.346  25.536  1.00  0.00     0.001 A 
HETATM   43  C26 UNL     1      36.946 -26.653  25.518  1.00  0.00     0.012 A 
HETATM   44  C27 UNL     1      35.790 -27.044  24.850  1.00  0.00     0.002 A 
HETATM   45  C28 UNL     1      35.059 -26.089  24.181  1.00  0.00     0.024 A 
HETATM   46  C29 UNL     1      35.474 -24.776  24.184  1.00  0.00     0.034 A 
HETATM   47 CL2  UNL     1      34.531 -23.591  23.331  1.00  0.00    -0.084 Cl
HETATM   48  C30 UNL     1      36.621 -24.412  24.853  1.00  0.00     0.036 A 
ENDBRANCH  38  42
ENDBRANCH  37  38
ENDBRANCH  20  37
BRANCH  19  49
HETATM   49  O6  UNL     1      40.564 -23.404  28.415  1.00  0.00    -0.392 OA
ATOM     50  H6  UNL     1      39.833 -23.941  28.696  1.00  0.00     0.210 HD
ENDBRANCH  19  49
TORSDOF 14
ENDMDL
MODEL 2
REMARK VINA RESULT: -7.999773644      2.278      2.905
REMARK  14 active torsions:
REMARK  status: ('A' for Active; 'I' for Inactive)
REMARK    1  A    between atoms: C2_2  and  C4_4 
REMARK    2  A    between atoms: C14_17  and  O4_18 
REMARK    3  A    between atoms: O4_18  and  C15_19 
REMARK    4  A    between atoms: C15_19  and  C16_21 
REMARK    5  A    between atoms: C16_21  and  C17_22 
REMARK    6  A    between atoms: C16_21  and  N1_24 
REMARK    7  A    between atoms: N1_24  and  N2_26 
REMARK    8  A    between atoms: N2_26  and  N3_27 
REMARK    9  A    between atoms: C22_34  and  O6_35 
REMARK   10  A    between atoms: C23_37  and  O7_38 
REMARK   11  A    between atoms: O7_38  and  C24_39 
REMARK   12  A    between atoms: C24_39  and  O8_40 
REMARK   13  A    between atoms: C24_39  and  C25_43 
REMARK   14  A    between atoms: O8_40  and  O9_41 
ROOT
HETATM    1  C4  UNL     1      40.407 -21.129  23.667  1.00  0.00    -0.003 C 
HETATM    2  C5  UNL     1      39.440 -20.367  22.743  1.00  0.00     0.008 C 
HETATM    3  C6  UNL     1      38.640 -19.439  23.679  1.00  0.00     0.038 C 
HETATM    4  C7  UNL     1      39.586 -19.301  24.788  1.00  0.00     0.063 C 
HETATM    5  C8  UNL     1      40.799 -18.546  24.336  1.00  0.00     0.046 C 
HETATM    6  O1  UNL     1      39.169 -19.029  26.040  1.00  0.00    -0.369 OA
HETATM    7  C9  UNL     1      40.300 -19.447  26.792  1.00  0.00     0.194 C 
HETATM    8  C10 UNL     1      40.819 -20.677  26.142  1.00  0.00     0.051 C 
HETATM    9  C11 UNL     1      40.664 -21.911  26.954  1.00  0.00    -0.003 C 
HETATM   10  C12 UNL     1      39.664 -22.318  27.788  1.00  0.00     0.045 C 
HETATM   11  C13 UNL     1      38.498 -21.514  27.999  1.00  0.00     0.294 C 
HETATM   12  O2  UNL     1      37.278 -21.764  27.859  1.00  0.00    -0.259 OA
HETATM   13  O3  UNL     1      38.655 -20.138  28.458  1.00  0.00    -0.276 OA
HETATM   14  C14 UNL     1      39.903 -19.439  28.228  1.00  0.00     0.208 C 
HETATM   15  C18 UNL     1      41.009 -19.944  29.126  1.00  0.00     0.073 C 
HETATM   16  C19 UNL     1      40.693 -20.974  30.111  1.00  0.00     0.012 C 
HETATM   17  C20 UNL     1      41.416 -22.244  30.191  1.00  0.00     0.013 C 
HETATM   18  C21 UNL     1      42.885 -21.919  30.582  1.00  0.00     0.012 C 
HETATM   19  C22 UNL     1      41.469 -23.267  29.182  1.00  0.00     0.155 C 
HETATM   20  C23 UNL     1      40.182 -23.555  28.381  1.00  0.00     0.193 C 
HETATM   21  C31 UNL     1      39.904 -20.806  24.986  1.00  0.00     0.034 C 
ENDROOT
BRANCH  14  22
HETATM   22  O4  UNL     1      39.612 -18.085  28.506  1.00  0.00    -0.278 OA
BRANCH  22  23
HETATM   23  C15 UNL     1      38.576 -17.605  29.258  1.00  0.00     0.288 C 
HETATM   24  O5  UNL     1      38.630 -17.842  30.503  1.00  0.00    -0.263 OA
BRANCH  23  25
HETATM   25  C16 UNL     1      37.435 -16.845  28.702  1.00  0.00     0.227 C 
BRANCH  25  26
HETATM   26  C17 UNL     1      37.277 -15.481  29.276  1.00  0.00     0.152 C 
HETATM   27 CL1  UNL     1      35.552 -15.175  29.569  1.00  0.00    -0.128 Cl
ENDBRANCH  25  26
BRANCH  25  28
HETATM   28  N1  UNL     1      37.455 -16.864  27.253  1.00  0.00    -0.237 N 
ATOM     29  H1  UNL     1      37.159 -17.717  26.780  1.00  0.00     0.198 HD
BRANCH  28  30
HETATM   30  N2  UNL     1      37.805 -15.925  26.569  1.00  0.00    -0.248 NA
BRANCH  30  31
HETATM   31  N3  UNL     1      38.202 -15.028  25.852  1.00  0.00    -0.261 N 
ATOM     32  H32 UNL     1      38.586 -15.895  25.477  1.00  0.00     0.193 HD
ATOM     33  H31 UNL     1      38.505 -14.236  25.285  1.00  0.00     0.193 HD
ENDBRANCH  30  31
ENDBRANCH  28  30
ENDBRANCH  25  28
ENDBRANCH  23  25
ENDBRANCH  22  23
ENDBRANCH  14  22
BRANCH   1  34
HETATM   34  C2  UNL     1      40.350 -22.580  23.258  1.00  0.00    -0.018 C 
HETATM   35  C1  UNL     1      41.496 -23.408  23.737  1.00  0.00     0.010 C 
HETATM   36  C3  UNL     1      39.084 -23.155  23.908  1.00  0.00     0.010 C 
ENDBRANCH   1  34
BRANCH  20  37
HETATM   37  O7  UNL     1      40.622 -24.316  27.288  1.00  0.00    -0.342 OA
BRANCH  37  38
HETATM   38  C24 UNL     1      40.288 -25.645  27.340  1.00  0.00     0.331 C 
BRANCH  38  39
HETATM   39  O8  UNL     1      39.627 -25.883  28.541  1.00  0.00    -0.205 OA
BRANCH  39  40
HETATM   40  O9  UNL     1      40.049 -26.986  29.067  1.00  0.00    -0.248 OA
ATOM     41  H9  UNL     1      39.381 -27.352  29.635  1.00  0.00     0.253 HD
ENDBRANCH  39  40
ENDBRANCH  38  39
BRANCH  38  42
HETATM   42  C25 UNL     1      39.516 -26.132  26.190  1.00  0.00     0.001 A 
HETATM   43  C26 UNL     1      40.188 -26.638  25.099  1.00  0.00     0.012 A 
HETATM   44  C27 UNL     1      39.529 -27.116  23.971  1.00  0.00     0.002 A 
HETATM   45  C28 UNL     1      38.154 -27.080  23.947  1.00  0.00     0.024 A 
HETATM   46  C29 UNL     1      37.458 -26.580  25.024  1.00  0.00     0.034 A 
HETATM   47 CL2  UNL     1      35.721 -26.547  24.965  1.00  0.00    -0.084 Cl
HETATM   48  C30 UNL     1      38.132 -26.113  26.130  1.00  0.00     0.036 A 
ENDBRANCH  38  42
ENDBRANCH  37  38
ENDBRANCH  20  37
BRANCH  19  49
HETATM   49  O6  UNL     1      41.723 -24.519  29.832  1.00  0.00    -0.392 OA
ATOM     50  H6  UNL     1      42.634 -24.530  30.102  1.00  0.00     0.210 HD
ENDBRANCH  19  49
TORSDOF 14
ENDMDL
MODEL 3
REMARK VINA RESULT: -7.998492008      1.576      1.807
REMARK  14 active torsions:
REMARK  status: ('A' for Active; 'I' for Inactive)
REMARK    1  A    between atoms: C2_2  and  C4_4 
REMARK    2  A    between atoms: C14_17  and  O4_18 
REMARK    3  A    between atoms: O4_18  and  C15_19 
REMARK    4  A    between atoms: C15_19  and  C16_21 
REMARK    5  A    between atoms: C16_21  and  C17_22 
REMARK    6  A    between atoms: C16_21  and  N1_24 
REMARK    7  A    between atoms: N1_24  and  N2_26 
REMARK    8  A    between atoms: N2_26  and  N3_27 
REMARK    9  A    between atoms: C22_34  and  O6_35 
REMARK   10  A    between atoms: C23_37  and  O7_38 
REMARK   11  A    between atoms: O7_38  and  C24_39 
REMARK   12  A    between atoms: C24_39  and  O8_40 
REMARK   13  A    between atoms: C24_39  and  C25_43 
REMARK   14  A    between atoms: O8_40  and  O9_41 
ROOT
HETATM    1  C4  UNL     1      37.224 -21.384  22.485  1.00  0.00    -0.003 C 
HETATM    2  C5  UNL     1      35.863 -20.776  22.100  1.00  0.00     0.008 C 
HETATM    3  C6  UNL     1      35.652 -19.611  23.087  1.00  0.00     0.038 C 
HETATM    4  C7  UNL     1      37.041 -19.300  23.432  1.00  0.00     0.063 C 
HETATM    5  C8  UNL     1      37.756 -18.752  22.234  1.00  0.00     0.046 C 
HETATM    6  O1  UNL     1      37.364 -18.730  24.610  1.00  0.00    -0.369 OA
HETATM    7  C9  UNL     1      38.745 -19.053  24.689  1.00  0.00     0.194 C 
HETATM    8  C10 UNL     1      38.898 -20.429  24.154  1.00  0.00     0.051 C 
HETATM    9  C11 UNL     1      39.292 -21.441  25.169  1.00  0.00    -0.003 C 
HETATM   10  C12 UNL     1      38.943 -21.582  26.480  1.00  0.00     0.045 C 
HETATM   11  C13 UNL     1      38.036 -20.670  27.110  1.00  0.00     0.294 C 
HETATM   12  O2  UNL     1      36.959 -20.857  27.721  1.00  0.00    -0.259 OA
HETATM   13  O3  UNL     1      38.333 -19.242  27.088  1.00  0.00    -0.276 OA
HETATM   14  C14 UNL     1      39.203 -18.701  26.062  1.00  0.00     0.208 C 
HETATM   15  C18 UNL     1      40.649 -19.075  26.293  1.00  0.00     0.073 C 
HETATM   16  C19 UNL     1      40.992 -19.837  27.490  1.00  0.00     0.012 C 
HETATM   17  C20 UNL     1      41.718 -21.107  27.440  1.00  0.00     0.013 C 
HETATM   18  C21 UNL     1      43.136 -20.811  26.878  1.00  0.00     0.012 C 
HETATM   19  C22 UNL     1      41.272 -22.328  26.825  1.00  0.00     0.155 C 
HETATM   20  C23 UNL     1      39.777 -22.693  26.949  1.00  0.00     0.193 C 
HETATM   21  C31 UNL     1      37.509 -20.743  23.752  1.00  0.00     0.034 C 
ENDROOT
BRANCH  14  22
HETATM   22  O4  UNL     1      39.028 -17.302  26.146  1.00  0.00    -0.278 OA
BRANCH  22  23
HETATM   23  C15 UNL     1      38.981 -16.546  27.283  1.00  0.00     0.288 C 
HETATM   24  O5  UNL     1      40.074 -16.416  27.915  1.00  0.00    -0.263 OA
BRANCH  23  25
HETATM   25  C16 UNL     1      37.755 -15.893  27.791  1.00  0.00     0.227 C 
BRANCH  25  26
HETATM   26  C17 UNL     1      37.664 -15.844  29.276  1.00  0.00     0.152 C 
HETATM   27 CL1  UNL     1      37.446 -17.495  29.895  1.00  0.00    -0.128 Cl
ENDBRANCH  25  26
BRANCH  25  28
HETATM   28  N1  UNL     1      37.551 -14.606  27.157  1.00  0.00    -0.237 N 
ATOM     29  H1  UNL     1      38.126 -14.374  26.347  1.00  0.00     0.198 HD
BRANCH  28  30
HETATM   30  N2  UNL     1      36.738 -13.788  27.532  1.00  0.00    -0.248 NA
BRANCH  30  31
HETATM   31  N3  UNL     1      35.922 -13.003  27.972  1.00  0.00    -0.261 N 
ATOM     32  H32 UNL     1      35.791 -13.877  28.481  1.00  0.00     0.193 HD
ATOM     33  H31 UNL     1      35.258 -12.302  28.302  1.00  0.00     0.193 HD
ENDBRANCH  30  31
ENDBRANCH  28  30
ENDBRANCH  25  28
ENDBRANCH  23  25
ENDBRANCH  22  23
ENDBRANCH  14  22
BRANCH   1  34
HETATM   34  C2  UNL     1      37.043 -22.881  22.509  1.00  0.00    -0.018 C 
HETATM   35  C1  UNL     1      36.057 -23.405  21.517  1.00  0.00     0.010 C 
HETATM   36  C3  UNL     1      38.407 -23.481  22.140  1.00  0.00     0.010 C 
ENDBRANCH   1  34
BRANCH  20  37
HETATM   37  O7  UNL     1      39.592 -23.704  25.996  1.00  0.00    -0.342 OA
BRANCH  37  38
HETATM   38  C24 UNL     1      38.942 -24.820  26.460  1.00  0.00     0.331 C 
BRANCH  38  39
HETATM   39  O8  UNL     1      38.868 -24.737  27.846  1.00  0.00    -0.205 OA
BRANCH  39  40
HETATM   40  O9  UNL     1      39.257 -25.850  28.377  1.00  0.00    -0.248 OA
ATOM     41  H9  UNL     1      38.549 -26.236  28.880  1.00  0.00     0.253 HD
ENDBRANCH  39  40
ENDBRANCH  38  39
BRANCH  38  42
HETATM   42  C25 UNL     1      37.625 -25.061  25.858  1.00  0.00     0.001 A 
HETATM   43  C26 UNL     1      36.706 -24.034  25.826  1.00  0.00     0.012 A 
HETATM   44  C27 UNL     1      35.437 -24.185  25.275  1.00  0.00     0.002 A 
HETATM   45  C28 UNL     1      35.090 -25.406  24.745  1.00  0.00     0.024 A 
HETATM   46  C29 UNL     1      35.989 -26.447  24.763  1.00  0.00     0.034 A 
HETATM   47 CL2  UNL     1      35.522 -27.978  24.085  1.00  0.00    -0.084 Cl
HETATM   48  C30 UNL     1      37.240 -26.275  25.313  1.00  0.00     0.036 A 
ENDBRANCH  38  42
ENDBRANCH  37  38
ENDBRANCH  20  37
BRANCH  19  49
HETATM   49  O6  UNL     1      41.919 -23.422  27.489  1.00  0.00    -0.392 OA
ATOM     50  H6  UNL     1      41.291 -23.821  28.079  1.00  0.00     0.210 HD
ENDBRANCH  19  49
TORSDOF 14
ENDMDL
MODEL 4
REMARK VINA RESULT: -7.936330225      3.852      8.196
REMARK  14 active torsions:
REMARK  status: ('A' for Active; 'I' for Inactive)
REMARK    1  A    between atoms: C2_2  and  C4_4 
REMARK    2  A    between atoms: C14_17  and  O4_18 
REMARK    3  A    between atoms: O4_18  and  C15_19 
REMARK    4  A    between atoms: C15_19  and  C16_21 
REMARK    5  A    between atoms: C16_21  and  C17_22 
REMARK    6  A    between atoms: C16_21  and  N1_24 
REMARK    7  A    between atoms: N1_24  and  N2_26 
REMARK    8  A    between atoms: N2_26  and  N3_27 
REMARK    9  A    between atoms: C22_34  and  O6_35 
REMARK   10  A    between atoms: C23_37  and  O7_38 
REMARK   11  A    between atoms: O7_38  and  C24_39 
REMARK   12  A    between atoms: C24_39  and  O8_40 
REMARK   13  A    between atoms: C24_39  and  C25_43 
REMARK   14  A    between atoms: O8_40  and  O9_41 
ROOT
HETATM    1  C4  UNL     1      40.589 -23.135  27.000  1.00  0.00    -0.003 C 
HETATM    2  C5  UNL     1      40.495 -24.553  27.590  1.00  0.00     0.008 C 
HETATM    3  C6  UNL     1      39.166 -25.123  27.054  1.00  0.00     0.038 C 
HETATM    4  C7  UNL     1      39.009 -24.327  25.835  1.00  0.00     0.063 C 
HETATM    5  C8  UNL     1      40.081 -24.682  24.849  1.00  0.00     0.046 C 
HETATM    6  O1  UNL     1      37.794 -24.082  25.305  1.00  0.00    -0.369 OA
HETATM    7  C9  UNL     1      38.085 -22.956  24.489  1.00  0.00     0.194 C 
HETATM    8  C10 UNL     1      39.050 -22.115  25.241  1.00  0.00     0.051 C 
HETATM    9  C11 UNL     1      38.506 -20.807  25.688  1.00  0.00    -0.003 C 
HETATM   10  C12 UNL     1      37.267 -20.456  26.140  1.00  0.00     0.045 C 
HETATM   11  C13 UNL     1      36.220 -21.424  26.264  1.00  0.00     0.294 C 
HETATM   12  O2  UNL     1      35.508 -21.759  27.240  1.00  0.00    -0.259 OA
HETATM   13  O3  UNL     1      35.840 -22.217  25.101  1.00  0.00    -0.276 OA
HETATM   14  C14 UNL     1      36.784 -22.405  24.017  1.00  0.00     0.208 C 
HETATM   15  C18 UNL     1      36.962 -21.148  23.197  1.00  0.00     0.073 C 
HETATM   16  C19 UNL     1      36.159 -19.976  23.531  1.00  0.00     0.012 C 
HETATM   17  C20 UNL     1      36.748 -18.667  23.820  1.00  0.00     0.013 C 
HETATM   18  C21 UNL     1      37.443 -18.173  22.521  1.00  0.00     0.012 C 
HETATM   19  C22 UNL     1      37.624 -18.343  24.912  1.00  0.00     0.155 C 
HETATM   20  C23 UNL     1      37.344 -18.999  26.281  1.00  0.00     0.193 C 
HETATM   21  C31 UNL     1      39.261 -22.930  26.459  1.00  0.00     0.034 C 
ENDROOT
BRANCH  14  22
HETATM   22  O4  UNL     1      36.227 -23.439  23.232  1.00  0.00    -0.278 OA
BRANCH  22  23
HETATM   23  C15 UNL     1      34.999 -24.019  23.388  1.00  0.00     0.288 C 
HETATM   24  O5  UNL     1      33.995 -23.272  23.173  1.00  0.00    -0.263 OA
BRANCH  23  25
HETATM   25  C16 UNL     1      34.795 -25.431  23.781  1.00  0.00     0.227 C 
BRANCH  25  26
HETATM   26  C17 UNL     1      35.436 -26.414  22.865  1.00  0.00     0.152 C 
HETATM   27 CL1  UNL     1      34.375 -27.830  22.708  1.00  0.00    -0.128 Cl
ENDBRANCH  25  26
BRANCH  25  28
HETATM   28  N1  UNL     1      35.132 -25.635  25.176  1.00  0.00    -0.237 N 
ATOM     29  H1  UNL     1      35.063 -24.838  25.808  1.00  0.00     0.198 HD
BRANCH  28  30
HETATM   30  N2  UNL     1      35.491 -26.699  25.636  1.00  0.00    -0.248 NA
BRANCH  30  31
HETATM   31  N3  UNL     1      35.784 -27.773  26.122  1.00  0.00    -0.261 N 
ATOM     32  H32 UNL     1      34.805 -27.605  26.351  1.00  0.00     0.193 HD
ATOM     33  H31 UNL     1      36.086 -28.668  26.507  1.00  0.00     0.193 HD
ENDBRANCH  30  31
ENDBRANCH  28  30
ENDBRANCH  25  28
ENDBRANCH  23  25
ENDBRANCH  22  23
ENDBRANCH  14  22
BRANCH   1  34
HETATM   34  C2  UNL     1      41.010 -22.221  28.124  1.00  0.00    -0.018 C 
HETATM   35  C1  UNL     1      41.564 -20.907  27.683  1.00  0.00     0.010 C 
HETATM   36  C3  UNL     1      39.737 -21.921  28.927  1.00  0.00     0.010 C 
ENDBRANCH   1  34
BRANCH  20  37
HETATM   37  O7  UNL     1      38.517 -18.774  27.015  1.00  0.00    -0.342 OA
BRANCH  37  38
HETATM   38  C24 UNL     1      38.316 -18.344  28.302  1.00  0.00     0.331 C 
BRANCH  38  39
HETATM   39  O8  UNL     1      39.501 -18.516  29.010  1.00  0.00    -0.205 OA
BRANCH  39  40
HETATM   40  O9  UNL     1      39.284 -18.378  30.277  1.00  0.00    -0.248 OA
ATOM     41  H9  UNL     1      38.409 -18.678  30.492  1.00  0.00     0.253 HD
ENDBRANCH  39  40
ENDBRANCH  38  39
BRANCH  38  42
HETATM   42  C25 UNL     1      37.805 -16.973  28.422  1.00  0.00     0.001 A 
HETATM   43  C26 UNL     1      38.535 -15.937  27.880  1.00  0.00     0.012 A 
HETATM   44  C27 UNL     1      38.118 -14.612  27.954  1.00  0.00     0.002 A 
HETATM   45  C28 UNL     1      36.933 -14.328  28.593  1.00  0.00     0.024 A 
HETATM   46  C29 UNL     1      36.185 -15.345  29.143  1.00  0.00     0.034 A 
HETATM   47 CL2  UNL     1      34.693 -14.956  29.945  1.00  0.00    -0.084 Cl
HETATM   48  C30 UNL     1      36.617 -16.649  29.057  1.00  0.00     0.036 A 
ENDBRANCH  38  42
ENDBRANCH  37  38
ENDBRANCH  20  37
BRANCH  19  49
HETATM   49  O6  UNL     1      37.480 -16.945  25.197  1.00  0.00    -0.392 OA
ATOM     50  H6  UNL     1      37.904 -16.458  24.500  1.00  0.00     0.210 HD
ENDBRANCH  19  49
TORSDOF 14
ENDMDL
MODEL 5
REMARK VINA RESULT: -7.928206714      4.069      8.386
REMARK  14 active torsions:
REMARK  status: ('A' for Active; 'I' for Inactive)
REMARK    1  A    between atoms: C2_2  and  C4_4 
REMARK    2  A    between atoms: C14_17  and  O4_18 
REMARK    3  A    between atoms: O4_18  and  C15_19 
REMARK    4  A    between atoms: C15_19  and  C16_21 
REMARK    5  A    between atoms: C16_21  and  C17_22 
REMARK    6  A    between atoms: C16_21  and  N1_24 
REMARK    7  A    between atoms: N1_24  and  N2_26 
REMARK    8  A    between atoms: N2_26  and  N3_27 
REMARK    9  A    between atoms: C22_34  and  O6_35 
REMARK   10  A    between atoms: C23_37  and  O7_38 
REMARK   11  A    between atoms: O7_38  and  C24_39 
REMARK   12  A    between atoms: C24_39  and  O8_40 
REMARK   13  A    between atoms: C24_39  and  C25_43 
REMARK   14  A    between atoms: O8_40  and  O9_41 
ROOT
HETATM    1  C4  UNL     1      41.633 -21.928  27.832  1.00  0.00    -0.003 C 
HETATM    2  C5  UNL     1      41.814 -23.269  28.565  1.00  0.00     0.008 C 
HETATM    3  C6  UNL     1      40.695 -24.178  28.019  1.00  0.00     0.038 C 
HETATM    4  C7  UNL     1      40.459 -23.555  26.715  1.00  0.00     0.063 C 
HETATM    5  C8  UNL     1      41.658 -23.740  25.835  1.00  0.00     0.046 C 
HETATM    6  O1  UNL     1      39.266 -23.648  26.094  1.00  0.00    -0.369 OA
HETATM    7  C9  UNL     1      39.360 -22.564  25.180  1.00  0.00     0.194 C 
HETATM    8  C10 UNL     1      40.049 -21.457  25.891  1.00  0.00     0.051 C 
HETATM    9  C11 UNL     1      39.190 -20.276  26.164  1.00  0.00    -0.003 C 
HETATM   10  C12 UNL     1      37.872 -20.182  26.505  1.00  0.00     0.045 C 
HETATM   11  C13 UNL     1      37.063 -21.351  26.673  1.00  0.00     0.294 C 
HETATM   12  O2  UNL     1      36.370 -21.751  27.638  1.00  0.00    -0.259 OA
HETATM   13  O3  UNL     1      36.965 -22.313  25.582  1.00  0.00    -0.276 OA
HETATM   14  C14 UNL     1      38.010 -22.375  24.579  1.00  0.00     0.208 C 
HETATM   15  C18 UNL     1      37.965 -21.192  23.641  1.00  0.00     0.073 C 
HETATM   16  C19 UNL     1      36.895 -20.212  23.802  1.00  0.00     0.012 C 
HETATM   17  C20 UNL     1      37.150 -18.782  23.982  1.00  0.00     0.013 C 
HETATM   18  C21 UNL     1      37.817 -18.260  22.678  1.00  0.00     0.012 C 
HETATM   19  C22 UNL     1      37.841 -18.164  25.081  1.00  0.00     0.155 C 
HETATM   20  C23 UNL     1      37.608 -18.740  26.494  1.00  0.00     0.193 C 
HETATM   21  C31 UNL     1      40.340 -22.086  27.199  1.00  0.00     0.034 C 
ENDROOT
BRANCH  14  22
HETATM   22  O4  UNL     1      37.764 -23.578  23.880  1.00  0.00    -0.278 OA
BRANCH  22  23
HETATM   23  C15 UNL     1      36.573 -24.241  23.779  1.00  0.00     0.288 C 
HETATM   24  O5  UNL     1      35.630 -23.615  23.204  1.00  0.00    -0.263 OA
BRANCH  23  25
HETATM   25  C16 UNL     1      36.343 -25.610  24.291  1.00  0.00     0.227 C 
BRANCH  25  26
HETATM   26  C17 UNL     1      37.148 -25.950  25.496  1.00  0.00     0.152 C 
HETATM   27 CL1  UNL     1      38.630 -26.783  24.982  1.00  0.00    -0.128 Cl
ENDBRANCH  25  26
BRANCH  25  28
HETATM   28  N1  UNL     1      34.927 -25.873  24.448  1.00  0.00    -0.237 N 
ATOM     29  H1  UNL     1      34.304 -25.079  24.591  1.00  0.00     0.198 HD
BRANCH  28  30
HETATM   30  N2  UNL     1      34.438 -26.984  24.420  1.00  0.00    -0.248 NA
BRANCH  30  31
HETATM   31  N3  UNL     1      33.985 -28.107  24.330  1.00  0.00    -0.261 N 
ATOM     32  H32 UNL     1      34.616 -27.982  23.539  1.00  0.00     0.193 HD
ATOM     33  H31 UNL     1      33.572 -29.040  24.305  1.00  0.00     0.193 HD
ENDBRANCH  30  31
ENDBRANCH  28  30
ENDBRANCH  25  28
ENDBRANCH  23  25
ENDBRANCH  22  23
ENDBRANCH  14  22
BRANCH   1  34
HETATM   34  C2  UNL     1      41.747 -20.843  28.874  1.00  0.00    -0.018 C 
HETATM   35  C1  UNL     1      40.755 -20.940  29.985  1.00  0.00     0.010 C 
HETATM   36  C3  UNL     1      43.138 -21.003  29.503  1.00  0.00     0.010 C 
ENDBRANCH   1  34
BRANCH  20  37
HETATM   37  O7  UNL     1      38.638 -18.183  27.265  1.00  0.00    -0.342 OA
BRANCH  37  38
HETATM   38  C24 UNL     1      38.268 -17.798  28.528  1.00  0.00     0.331 C 
BRANCH  38  39
HETATM   39  O8  UNL     1      39.393 -17.835  29.344  1.00  0.00    -0.205 OA
BRANCH  39  40
HETATM   40  O9  UNL     1      39.042 -18.042  30.572  1.00  0.00    -0.248 OA
ATOM     41  H9  UNL     1      39.209 -18.947  30.809  1.00  0.00     0.253 HD
ENDBRANCH  39  40
ENDBRANCH  38  39
BRANCH  38  42
HETATM   42  C25 UNL     1      37.587 -16.499  28.600  1.00  0.00     0.001 A 
HETATM   43  C26 UNL     1      38.159 -15.407  27.984  1.00  0.00     0.012 A 
HETATM   44  C27 UNL     1      37.576 -14.145  28.010  1.00  0.00     0.002 A 
HETATM   45  C28 UNL     1      36.385 -13.982  28.678  1.00  0.00     0.024 A 
HETATM   46  C29 UNL     1      35.792 -15.056  29.302  1.00  0.00     0.034 A 
HETATM   47 CL2  UNL     1      34.286 -14.820  30.139  1.00  0.00    -0.084 Cl
HETATM   48  C30 UNL     1      36.387 -16.297  29.263  1.00  0.00     0.036 A 
ENDBRANCH  38  42
ENDBRANCH  37  38
ENDBRANCH  20  37
BRANCH  19  49
HETATM   49  O6  UNL     1      37.364 -16.818  25.205  1.00  0.00    -0.392 OA
ATOM     50  H6  UNL     1      36.686 -16.807  25.871  1.00  0.00     0.210 HD
ENDBRANCH  19  49
TORSDOF 14
ENDMDL
