MODEL 1
REMARK VINA RESULT: -8.836797062      0.000      0.000
REMARK  11 active torsions:
REMARK  status: ('A' for Active; 'I' for Inactive)
REMARK    1  A    between atoms: O1_2  and  C2_3 
REMARK    2  A    between atoms: C5_6  and  C6_7 
REMARK    3  A    between atoms: C6_7  and  C7_8 
REMARK    4  A    between atoms: C8_9  and  O2_10 
REMARK    5  A    between atoms: C9_12  and  O3_13 
REMARK    6  A    between atoms: C10_15  and  C11_16 
REMARK    7  A    between atoms: C14_20  and  O4_21 
REMARK    8  A    between atoms: O4_21  and  C15_22 
REMARK    9  A    between atoms: C15_22  and  C16_23 
REMARK   10  A    between atoms: C19_29  and  O5_30 
REMARK   11  A    between atoms: C33_48  and  O8_49 
ROOT
HETATM    1  C7  UNL     1      41.117 -24.386  25.455  1.00  0.00     0.119 C 
HETATM    2  C8  UNL     1      40.168 -23.256  25.175  1.00  0.00     0.170 C 
HETATM    3  C9  UNL     1      39.781 -22.427  26.336  1.00  0.00     0.162 C 
HETATM    4  C10 UNL     1      40.812 -21.311  26.502  1.00  0.00     0.088 C 
HETATM    5  C22 UNL     1      41.790 -21.833  27.438  1.00  0.00     0.021 A 
HETATM    6  C23 UNL     1      42.434 -23.062  27.238  1.00  0.00     0.041 A 
HETATM    7  C24 UNL     1      43.368 -23.505  28.134  1.00  0.00     0.048 A 
HETATM    8  C25 UNL     1      43.663 -22.720  29.240  1.00  0.00     0.051 A 
HETATM    9  C26 UNL     1      43.031 -21.518  29.435  1.00  0.00     0.123 A 
HETATM   10  C27 UNL     1      42.071 -21.053  28.518  1.00  0.00     0.160 A 
HETATM   11  F2  UNL     1      41.480 -19.846  28.790  1.00  0.00    -0.202 F 
HETATM   12  O6  UNL     1      43.501 -20.953  30.587  1.00  0.00    -0.334 OA
HETATM   13  C28 UNL     1      44.749 -21.522  30.928  1.00  0.00     0.199 C 
HETATM   14  C29 UNL     1      44.935 -21.598  32.426  1.00  0.00     0.048 C 
HETATM   15  C30 UNL     1      44.593 -22.902  30.360  1.00  0.00     0.191 C 
HETATM   16  O7  UNL     1      45.095 -23.981  30.700  1.00  0.00    -0.289 OA
HETATM   17  N2  UNL     1      42.278 -24.040  26.185  1.00  0.00    -0.377 N 
HETATM   18  C31 UNL     1      43.537 -24.698  25.878  1.00  0.00     0.150 C 
ENDROOT
BRANCH   4  19
HETATM   19  C11 UNL     1      40.245 -20.005  26.576  1.00  0.00    -0.041 A 
HETATM   20  C12 UNL     1      39.089 -19.780  27.294  1.00  0.00     0.053 A 
HETATM   21  C13 UNL     1      38.510 -18.533  27.337  1.00  0.00     0.153 A 
HETATM   22  F1  UNL     1      37.355 -18.376  28.073  1.00  0.00    -0.203 F 
HETATM   23  C14 UNL     1      39.063 -17.465  26.666  1.00  0.00     0.141 A 
HETATM   24  C19 UNL     1      40.229 -17.699  25.944  1.00  0.00     0.105 A 
HETATM   25  C21 UNL     1      40.804 -18.945  25.903  1.00  0.00     0.047 A 
BRANCH  23  26
HETATM   26  O4  UNL     1      38.447 -16.229  26.737  1.00  0.00    -0.339 OA
BRANCH  26  27
HETATM   27  C15 UNL     1      38.683 -15.306  27.782  1.00  0.00     0.240 C 
BRANCH  27  28
HETATM   28  C16 UNL     1      37.369 -14.820  28.343  1.00  0.00     0.075 A 
HETATM   29  N1  UNL     1      36.749 -13.677  28.102  1.00  0.00    -0.361 N 
HETATM   30  C17 UNL     1      35.616 -13.420  28.676  1.00  0.00     0.096 A 
ATOM     31  H1  UNL     1      37.162 -12.997  27.464  1.00  0.00     0.165 HD
HETATM   32  C18 UNL     1      35.110 -14.375  29.528  1.00  0.00     0.068 A 
HETATM   33  S1  UNL     1      36.311 -15.585  29.438  1.00  0.00    -0.085 SA
ENDBRANCH  27  28
ENDBRANCH  26  27
ENDBRANCH  23  26
BRANCH  24  34
HETATM   34  O5  UNL     1      40.802 -16.619  25.256  1.00  0.00    -0.353 OA
HETATM   35  C20 UNL     1      40.615 -16.570  23.858  1.00  0.00     0.210 C 
ENDBRANCH  24  34
ENDBRANCH   4  19
BRANCH   3  36
HETATM   36  O3  UNL     1      39.691 -23.107  27.543  1.00  0.00    -0.392 OA
ATOM     37  H3  UNL     1      39.195 -22.663  28.221  1.00  0.00     0.210 HD
ENDBRANCH   3  36
BRANCH   2  38
HETATM   38  O2  UNL     1      39.051 -23.784  24.539  1.00  0.00    -0.391 OA
ATOM     39  H2  UNL     1      38.293 -23.285  24.818  1.00  0.00     0.210 HD
ENDBRANCH   2  38
BRANCH   1  40
HETATM   40  C6  UNL     1      40.316 -25.559  25.865  1.00  0.00     0.066 C 
BRANCH  40  41
HETATM   41  C5  UNL     1      40.816 -26.379  26.981  1.00  0.00    -0.053 A 
HETATM   42  C4  UNL     1      41.544 -27.522  26.736  1.00  0.00     0.010 A 
HETATM   43  C3  UNL     1      41.996 -28.324  27.763  1.00  0.00     0.040 A 
HETATM   44  C2  UNL     1      41.719 -27.981  29.070  1.00  0.00     0.101 A 
HETATM   45  C33 UNL     1      40.997 -26.852  29.350  1.00  0.00     0.102 A 
HETATM   46  C32 UNL     1      40.555 -26.064  28.297  1.00  0.00     0.046 A 
BRANCH  44  47
HETATM   47  O1  UNL     1      42.164 -28.774  30.129  1.00  0.00    -0.353 OA
HETATM   48  C1  UNL     1      43.478 -29.265  30.106  1.00  0.00     0.210 C 
ENDBRANCH  44  47
BRANCH  45  49
HETATM   49  O8  UNL     1      40.744 -26.549  30.681  1.00  0.00    -0.353 OA
HETATM   50  C34 UNL     1      40.755 -25.184  31.055  1.00  0.00     0.210 C 
ENDBRANCH  45  49
ENDBRANCH  40  41
ENDBRANCH   1  40
TORSDOF 11
ENDMDL
MODEL 2
REMARK VINA RESULT: -8.649808861      0.802      1.535
REMARK  11 active torsions:
REMARK  status: ('A' for Active; 'I' for Inactive)
REMARK    1  A    between atoms: O1_2  and  C2_3 
REMARK    2  A    between atoms: C5_6  and  C6_7 
REMARK    3  A    between atoms: C6_7  and  C7_8 
REMARK    4  A    between atoms: C8_9  and  O2_10 
REMARK    5  A    between atoms: C9_12  and  O3_13 
REMARK    6  A    between atoms: C10_15  and  C11_16 
REMARK    7  A    between atoms: C14_20  and  O4_21 
REMARK    8  A    between atoms: O4_21  and  C15_22 
REMARK    9  A    between atoms: C15_22  and  C16_23 
REMARK   10  A    between atoms: C19_29  and  O5_30 
REMARK   11  A    between atoms: C33_48  and  O8_49 
ROOT
HETATM    1  C7  UNL     1      40.880 -24.701  26.094  1.00  0.00     0.119 C 
HETATM    2  C8  UNL     1      39.912 -23.591  25.801  1.00  0.00     0.170 C 
HETATM    3  C9  UNL     1      39.652 -22.642  26.904  1.00  0.00     0.162 C 
HETATM    4  C10 UNL     1      40.700 -21.530  26.845  1.00  0.00     0.088 C 
HETATM    5  C22 UNL     1      41.769 -21.969  27.723  1.00  0.00     0.021 A 
HETATM    6  C23 UNL     1      42.383 -23.221  27.585  1.00  0.00     0.041 A 
HETATM    7  C24 UNL     1      43.405 -23.585  28.419  1.00  0.00     0.048 A 
HETATM    8  C25 UNL     1      43.818 -22.696  29.401  1.00  0.00     0.051 A 
HETATM    9  C26 UNL     1      43.216 -21.471  29.536  1.00  0.00     0.123 A 
HETATM   10  C27 UNL     1      42.165 -21.087  28.682  1.00  0.00     0.160 A 
HETATM   11  F2  UNL     1      41.611 -19.851  28.888  1.00  0.00    -0.202 F 
HETATM   12  O6  UNL     1      43.807 -20.799  30.569  1.00  0.00    -0.334 OA
HETATM   13  C28 UNL     1      45.081 -21.348  30.834  1.00  0.00     0.199 C 
HETATM   14  C29 UNL     1      45.424 -21.275  32.304  1.00  0.00     0.048 C 
HETATM   15  C30 UNL     1      44.861 -22.777  30.430  1.00  0.00     0.191 C 
HETATM   16  O7  UNL     1      45.391 -23.823  30.825  1.00  0.00    -0.289 OA
HETATM   17  N2  UNL     1      42.113 -24.299  26.659  1.00  0.00    -0.377 N 
HETATM   18  C31 UNL     1      43.330 -25.004  26.292  1.00  0.00     0.150 C 
ENDROOT
BRANCH   4  19
HETATM   19  C11 UNL     1      40.149 -20.215  26.844  1.00  0.00    -0.041 A 
HETATM   20  C12 UNL     1      39.012 -19.928  27.570  1.00  0.00     0.053 A 
HETATM   21  C13 UNL     1      38.448 -18.674  27.541  1.00  0.00     0.153 A 
HETATM   22  F1  UNL     1      37.312 -18.454  28.290  1.00  0.00    -0.203 F 
HETATM   23  C14 UNL     1      38.998 -17.661  26.789  1.00  0.00     0.141 A 
HETATM   24  C19 UNL     1      40.145 -17.957  26.059  1.00  0.00     0.105 A 
HETATM   25  C21 UNL     1      40.705 -19.210  26.090  1.00  0.00     0.047 A 
BRANCH  23  26
HETATM   26  O4  UNL     1      38.398 -16.415  26.789  1.00  0.00    -0.339 OA
BRANCH  26  27
HETATM   27  C15 UNL     1      38.672 -15.424  27.761  1.00  0.00     0.240 C 
BRANCH  27  28
HETATM   28  C16 UNL     1      37.378 -14.881  28.319  1.00  0.00     0.075 A 
HETATM   29  N1  UNL     1      36.795 -13.724  28.053  1.00  0.00    -0.361 N 
HETATM   30  C17 UNL     1      35.676 -13.416  28.628  1.00  0.00     0.096 A 
ATOM     31  H1  UNL     1      37.227 -13.075  27.396  1.00  0.00     0.165 HD
HETATM   32  C18 UNL     1      35.144 -14.332  29.506  1.00  0.00     0.068 A 
HETATM   33  S1  UNL     1      36.303 -15.584  29.438  1.00  0.00    -0.085 SA
ENDBRANCH  27  28
ENDBRANCH  26  27
ENDBRANCH  23  26
BRANCH  24  34
HETATM   34  O5  UNL     1      40.715 -16.933  25.288  1.00  0.00    -0.353 OA
HETATM   35  C20 UNL     1      40.479 -16.963  23.897  1.00  0.00     0.210 C 
ENDBRANCH  24  34
ENDBRANCH   4  19
BRANCH   3  36
HETATM   36  O3  UNL     1      39.688 -23.195  28.178  1.00  0.00    -0.392 OA
ATOM     37  H3  UNL     1      40.452 -23.727  28.366  1.00  0.00     0.210 HD
ENDBRANCH   3  36
BRANCH   2  38
HETATM   38  O2  UNL     1      38.732 -24.164  25.343  1.00  0.00    -0.391 OA
ATOM     39  H2  UNL     1      38.937 -24.676  24.570  1.00  0.00     0.210 HD
ENDBRANCH   2  38
BRANCH   1  40
HETATM   40  C6  UNL     1      40.122 -25.813  26.705  1.00  0.00     0.066 C 
BRANCH  40  41
HETATM   41  C5  UNL     1      40.848 -26.738  27.590  1.00  0.00    -0.053 A 
HETATM   42  C4  UNL     1      40.859 -26.539  28.953  1.00  0.00     0.010 A 
HETATM   43  C3  UNL     1      41.558 -27.373  29.799  1.00  0.00     0.040 A 
HETATM   44  C2  UNL     1      42.266 -28.437  29.279  1.00  0.00     0.101 A 
HETATM   45  C33 UNL     1      42.277 -28.665  27.929  1.00  0.00     0.102 A 
HETATM   46  C32 UNL     1      41.566 -27.810  27.101  1.00  0.00     0.046 A 
BRANCH  44  47
HETATM   47  O1  UNL     1      42.982 -29.297  30.113  1.00  0.00    -0.353 OA
HETATM   48  C1  UNL     1      44.316 -28.993  30.422  1.00  0.00     0.210 C 
ENDBRANCH  44  47
BRANCH  45  49
HETATM   49  O8  UNL     1      43.004 -29.748  27.454  1.00  0.00    -0.353 OA
HETATM   50  C34 UNL     1      43.692 -29.588  26.227  1.00  0.00     0.210 C 
ENDBRANCH  45  49
ENDBRANCH  40  41
ENDBRANCH   1  40
TORSDOF 11
ENDMDL
MODEL 3
REMARK VINA RESULT: -8.626655346      3.885     10.784
REMARK  11 active torsions:
REMARK  status: ('A' for Active; 'I' for Inactive)
REMARK    1  A    between atoms: O1_2  and  C2_3 
REMARK    2  A    between atoms: C5_6  and  C6_7 
REMARK    3  A    between atoms: C6_7  and  C7_8 
REMARK    4  A    between atoms: C8_9  and  O2_10 
REMARK    5  A    between atoms: C9_12  and  O3_13 
REMARK    6  A    between atoms: C10_15  and  C11_16 
REMARK    7  A    between atoms: C14_20  and  O4_21 
REMARK    8  A    between atoms: O4_21  and  C15_22 
REMARK    9  A    between atoms: C15_22  and  C16_23 
REMARK   10  A    between atoms: C19_29  and  O5_30 
REMARK   11  A    between atoms: C33_48  and  O8_49 
ROOT
HETATM    1  C7  UNL     1      40.114 -19.847  28.380  1.00  0.00     0.119 C 
HETATM    2  C8  UNL     1      40.910 -20.909  29.083  1.00  0.00     0.170 C 
HETATM    3  C9  UNL     1      40.225 -22.201  29.301  1.00  0.00     0.162 C 
HETATM    4  C10 UNL     1      40.439 -23.079  28.068  1.00  0.00     0.088 C 
HETATM    5  C22 UNL     1      39.291 -22.827  27.218  1.00  0.00     0.021 A 
HETATM    6  C23 UNL     1      38.916 -21.532  26.832  1.00  0.00     0.041 A 
HETATM    7  C24 UNL     1      37.840 -21.341  26.009  1.00  0.00     0.048 A 
HETATM    8  C25 UNL     1      37.129 -22.447  25.567  1.00  0.00     0.051 A 
HETATM    9  C26 UNL     1      37.495 -23.714  25.947  1.00  0.00     0.123 A 
HETATM   10  C27 UNL     1      38.601 -23.921  26.791  1.00  0.00     0.160 A 
HETATM   11  F2  UNL     1      38.896 -25.216  27.131  1.00  0.00    -0.202 F 
HETATM   12  O6  UNL     1      36.636 -24.612  25.378  1.00  0.00    -0.334 OA
HETATM   13  C28 UNL     1      35.986 -24.022  24.271  1.00  0.00     0.199 C 
HETATM   14  C29 UNL     1      34.577 -24.543  24.109  1.00  0.00     0.048 C 
HETATM   15  C30 UNL     1      35.955 -22.583  24.697  1.00  0.00     0.191 C 
HETATM   16  O7  UNL     1      35.164 -21.673  24.422  1.00  0.00    -0.289 OA
HETATM   17  N2  UNL     1      39.490 -20.251  27.176  1.00  0.00    -0.377 N 
HETATM   18  C31 UNL     1      39.392 -19.309  26.073  1.00  0.00     0.150 C 
ENDROOT
BRANCH   4  19
HETATM   19  C11 UNL     1      40.951 -24.377  28.363  1.00  0.00    -0.041 A 
HETATM   20  C12 UNL     1      40.604 -25.021  29.532  1.00  0.00     0.053 A 
HETATM   21  C13 UNL     1      41.126 -26.254  29.847  1.00  0.00     0.153 A 
HETATM   22  F1  UNL     1      40.737 -26.843  31.030  1.00  0.00    -0.203 F 
HETATM   23  C14 UNL     1      42.013 -26.889  29.007  1.00  0.00     0.141 A 
HETATM   24  C19 UNL     1      42.359 -26.233  27.829  1.00  0.00     0.105 A 
HETATM   25  C21 UNL     1      41.837 -25.003  27.519  1.00  0.00     0.047 A 
BRANCH  23  26
HETATM   26  O4  UNL     1      42.514 -28.128  29.362  1.00  0.00    -0.339 OA
BRANCH  26  27
HETATM   27  C15 UNL     1      43.807 -28.313  29.905  1.00  0.00     0.240 C 
BRANCH  27  28
HETATM   28  C16 UNL     1      43.894 -29.664  30.573  1.00  0.00     0.075 A 
HETATM   29  N1  UNL     1      43.143 -30.732  30.360  1.00  0.00    -0.361 N 
HETATM   30  C17 UNL     1      43.358 -31.819  31.030  1.00  0.00     0.096 A 
ATOM     31  H1  UNL     1      42.393 -30.698  29.669  1.00  0.00     0.165 HD
HETATM   32  C18 UNL     1      44.382 -31.803  31.950  1.00  0.00     0.068 A 
HETATM   33  S1  UNL     1      44.967 -30.207  31.780  1.00  0.00    -0.085 SA
ENDBRANCH  27  28
ENDBRANCH  26  27
ENDBRANCH  23  26
BRANCH  24  34
HETATM   34  O5  UNL     1      43.263 -26.870  26.965  1.00  0.00    -0.353 OA
HETATM   35  C20 UNL     1      42.722 -27.580  25.872  1.00  0.00     0.210 C 
ENDBRANCH  24  34
ENDBRANCH   4  19
BRANCH   3  36
HETATM   36  O3  UNL     1      38.858 -22.112  29.530  1.00  0.00    -0.392 OA
ATOM     37  H3  UNL     1      38.438 -22.927  29.781  1.00  0.00     0.210 HD
ENDBRANCH   3  36
BRANCH   2  38
HETATM   38  O2  UNL     1      41.371 -20.375  30.280  1.00  0.00    -0.391 OA
ATOM     39  H2  UNL     1      41.402 -21.077  30.919  1.00  0.00     0.210 HD
ENDBRANCH   2  38
BRANCH   1  40
HETATM   40  C6  UNL     1      39.333 -19.117  29.401  1.00  0.00     0.066 C 
BRANCH  40  41
HETATM   41  C5  UNL     1      38.666 -17.869  28.996  1.00  0.00    -0.053 A 
HETATM   42  C4  UNL     1      37.444 -17.524  29.530  1.00  0.00     0.010 A 
HETATM   43  C3  UNL     1      36.785 -16.377  29.143  1.00  0.00     0.040 A 
HETATM   44  C2  UNL     1      37.354 -15.547  28.199  1.00  0.00     0.101 A 
HETATM   45  C33 UNL     1      38.567 -15.859  27.646  1.00  0.00     0.102 A 
HETATM   46  C32 UNL     1      39.207 -17.020  28.054  1.00  0.00     0.046 A 
BRANCH  44  47
HETATM   47  O1  UNL     1      36.708 -14.379  27.789  1.00  0.00    -0.353 OA
HETATM   48  C1  UNL     1      35.858 -13.719  28.688  1.00  0.00     0.210 C 
ENDBRANCH  44  47
BRANCH  45  49
HETATM   49  O8  UNL     1      39.098 -14.993  26.701  1.00  0.00    -0.353 OA
HETATM   50  C34 UNL     1      39.407 -15.526  25.425  1.00  0.00     0.210 C 
ENDBRANCH  45  49
ENDBRANCH  40  41
ENDBRANCH   1  40
TORSDOF 11
ENDMDL
MODEL 4
REMARK VINA RESULT: -8.560456445      3.744     10.368
REMARK  11 active torsions:
REMARK  status: ('A' for Active; 'I' for Inactive)
REMARK    1  A    between atoms: O1_2  and  C2_3 
REMARK    2  A    between atoms: C5_6  and  C6_7 
REMARK    3  A    between atoms: C6_7  and  C7_8 
REMARK    4  A    between atoms: C8_9  and  O2_10 
REMARK    5  A    between atoms: C9_12  and  O3_13 
REMARK    6  A    between atoms: C10_15  and  C11_16 
REMARK    7  A    between atoms: C14_20  and  O4_21 
REMARK    8  A    between atoms: O4_21  and  C15_22 
REMARK    9  A    between atoms: C15_22  and  C16_23 
REMARK   10  A    between atoms: C19_29  and  O5_30 
REMARK   11  A    between atoms: C33_48  and  O8_49 
ROOT
HETATM    1  C7  UNL     1      39.183 -20.036  27.861  1.00  0.00     0.119 C 
HETATM    2  C8  UNL     1      40.451 -20.480  28.533  1.00  0.00     0.170 C 
HETATM    3  C9  UNL     1      40.461 -21.862  29.058  1.00  0.00     0.162 C 
HETATM    4  C10 UNL     1      40.909 -22.804  27.940  1.00  0.00     0.088 C 
HETATM    5  C22 UNL     1      39.684 -23.253  27.307  1.00  0.00     0.021 A 
HETATM    6  C23 UNL     1      38.719 -22.356  26.827  1.00  0.00     0.041 A 
HETATM    7  C24 UNL     1      37.588 -22.823  26.214  1.00  0.00     0.048 A 
HETATM    8  C25 UNL     1      37.414 -24.192  26.079  1.00  0.00     0.051 A 
HETATM    9  C26 UNL     1      38.359 -25.069  26.550  1.00  0.00     0.123 A 
HETATM   10  C27 UNL     1      39.526 -24.599  27.180  1.00  0.00     0.160 A 
HETATM   11  F2  UNL     1      40.416 -25.540  27.630  1.00  0.00    -0.202 F 
HETATM   12  O6  UNL     1      37.946 -26.346  26.291  1.00  0.00    -0.334 OA
HETATM   13  C28 UNL     1      36.976 -26.340  25.263  1.00  0.00     0.199 C 
HETATM   14  C29 UNL     1      35.952 -27.433  25.456  1.00  0.00     0.048 C 
HETATM   15  C30 UNL     1      36.341 -24.997  25.484  1.00  0.00     0.191 C 
HETATM   16  O7  UNL     1      35.196 -24.593  25.248  1.00  0.00    -0.289 OA
HETATM   17  N2  UNL     1      38.680 -20.912  26.871  1.00  0.00    -0.377 N 
HETATM   18  C31 UNL     1      38.037 -20.360  25.690  1.00  0.00     0.150 C 
ENDROOT
BRANCH   4  19
HETATM   19  C11 UNL     1      41.987 -23.663  28.305  1.00  0.00    -0.041 A 
HETATM   20  C12 UNL     1      42.086 -24.162  29.586  1.00  0.00     0.053 A 
HETATM   21  C13 UNL     1      43.145 -24.957  29.960  1.00  0.00     0.153 A 
HETATM   22  F1  UNL     1      43.183 -25.424  31.256  1.00  0.00    -0.203 F 
HETATM   23  C14 UNL     1      44.143 -25.282  29.069  1.00  0.00     0.141 A 
HETATM   24  C19 UNL     1      44.037 -24.775  27.778  1.00  0.00     0.105 A 
HETATM   25  C21 UNL     1      42.980 -23.982  27.409  1.00  0.00     0.047 A 
BRANCH  23  26
HETATM   26  O4  UNL     1      45.189 -26.084  29.488  1.00  0.00    -0.339 OA
BRANCH  26  27
HETATM   27  C15 UNL     1      45.475 -27.345  28.914  1.00  0.00     0.240 C 
BRANCH  27  28
HETATM   28  C16 UNL     1      44.789 -28.434  29.703  1.00  0.00     0.075 A 
HETATM   29  N1  UNL     1      45.328 -29.293  30.552  1.00  0.00    -0.361 N 
HETATM   30  C17 UNL     1      44.584 -30.170  31.147  1.00  0.00     0.096 A 
ATOM     31  H1  UNL     1      46.331 -29.264  30.739  1.00  0.00     0.165 HD
HETATM   32  C18 UNL     1      43.240 -30.161  30.854  1.00  0.00     0.068 A 
HETATM   33  S1  UNL     1      43.144 -28.876  29.734  1.00  0.00    -0.085 SA
ENDBRANCH  27  28
ENDBRANCH  26  27
ENDBRANCH  23  26
BRANCH  24  34
HETATM   34  O5  UNL     1      45.048 -25.099  26.861  1.00  0.00    -0.353 OA
HETATM   35  C20 UNL     1      45.990 -24.095  26.555  1.00  0.00     0.210 C 
ENDBRANCH  24  34
ENDBRANCH   4  19
BRANCH   3  36
HETATM   36  O3  UNL     1      39.241 -22.320  29.537  1.00  0.00    -0.392 OA
ATOM     37  H3  UNL     1      38.932 -23.129  29.147  1.00  0.00     0.210 HD
ENDBRANCH   3  36
BRANCH   2  38
HETATM   38  O2  UNL     1      40.751 -19.561  29.530  1.00  0.00    -0.391 OA
ATOM     39  H2  UNL     1      40.441 -18.709  29.245  1.00  0.00     0.210 HD
ENDBRANCH   2  38
BRANCH   1  40
HETATM   40  C6  UNL     1      38.278 -19.511  28.905  1.00  0.00     0.066 C 
BRANCH  40  41
HETATM   41  C5  UNL     1      37.877 -18.097  28.822  1.00  0.00    -0.053 A 
HETATM   42  C4  UNL     1      37.325 -17.461  29.912  1.00  0.00     0.010 A 
HETATM   43  C3  UNL     1      36.912 -16.148  29.849  1.00  0.00     0.040 A 
HETATM   44  C2  UNL     1      37.052 -15.443  28.671  1.00  0.00     0.101 A 
HETATM   45  C33 UNL     1      37.596 -16.043  27.568  1.00  0.00     0.102 A 
HETATM   46  C32 UNL     1      38.002 -17.366  27.659  1.00  0.00     0.046 A 
BRANCH  44  47
HETATM   47  O1  UNL     1      36.643 -14.112  28.580  1.00  0.00    -0.353 OA
HETATM   48  C1  UNL     1      35.394 -13.745  29.104  1.00  0.00     0.210 C 
ENDBRANCH  44  47
BRANCH  45  49
HETATM   49  O8  UNL     1      37.716 -15.293  26.406  1.00  0.00    -0.353 OA
HETATM   50  C34 UNL     1      38.926 -15.401  25.678  1.00  0.00     0.210 C 
ENDBRANCH  45  49
ENDBRANCH  40  41
ENDBRANCH   1  40
TORSDOF 11
ENDMDL
MODEL 5
REMARK VINA RESULT: -8.484736340      3.616     10.426
REMARK  11 active torsions:
REMARK  status: ('A' for Active; 'I' for Inactive)
REMARK    1  A    between atoms: O1_2  and  C2_3 
REMARK    2  A    between atoms: C5_6  and  C6_7 
REMARK    3  A    between atoms: C6_7  and  C7_8 
REMARK    4  A    between atoms: C8_9  and  O2_10 
REMARK    5  A    between atoms: C9_12  and  O3_13 
REMARK    6  A    between atoms: C10_15  and  C11_16 
REMARK    7  A    between atoms: C14_20  and  O4_21 
REMARK    8  A    between atoms: O4_21  and  C15_22 
REMARK    9  A    between atoms: C15_22  and  C16_23 
REMARK   10  A    between atoms: C19_29  and  O5_30 
REMARK   11  A    between atoms: C33_48  and  O8_49 
ROOT
HETATM    1  C7  UNL     1      39.207 -20.010  27.820  1.00  0.00     0.119 C 
HETATM    2  C8  UNL     1      40.486 -20.407  28.499  1.00  0.00     0.170 C 
HETATM    3  C9  UNL     1      40.528 -21.771  29.067  1.00  0.00     0.162 C 
HETATM    4  C10 UNL     1      40.992 -22.737  27.976  1.00  0.00     0.088 C 
HETATM    5  C22 UNL     1      39.774 -23.231  27.362  1.00  0.00     0.021 A 
HETATM    6  C23 UNL     1      38.788 -22.370  26.860  1.00  0.00     0.041 A 
HETATM    7  C24 UNL     1      37.666 -22.879  26.266  1.00  0.00     0.048 A 
HETATM    8  C25 UNL     1      37.521 -24.256  26.173  1.00  0.00     0.051 A 
HETATM    9  C26 UNL     1      38.485 -25.097  26.667  1.00  0.00     0.123 A 
HETATM   10  C27 UNL     1      39.644 -24.584  27.277  1.00  0.00     0.160 A 
HETATM   11  F2  UNL     1      40.556 -25.491  27.752  1.00  0.00    -0.202 F 
HETATM   12  O6  UNL     1      38.098 -26.390  26.449  1.00  0.00    -0.334 OA
HETATM   13  C28 UNL     1      37.125 -26.435  25.425  1.00  0.00     0.199 C 
HETATM   14  C29 UNL     1      36.125 -27.544  25.656  1.00  0.00     0.048 C 
HETATM   15  C30 UNL     1      36.463 -25.101  25.608  1.00  0.00     0.191 C 
HETATM   16  O7  UNL     1      35.309 -24.728  25.365  1.00  0.00    -0.289 OA
HETATM   17  N2  UNL     1      38.719 -20.926  26.860  1.00  0.00    -0.377 N 
HETATM   18  C31 UNL     1      38.060 -20.424  25.665  1.00  0.00     0.150 C 
ENDROOT
BRANCH   4  19
HETATM   19  C11 UNL     1      42.090 -23.562  28.362  1.00  0.00    -0.041 A 
HETATM   20  C12 UNL     1      42.871 -24.183  27.412  1.00  0.00     0.053 A 
HETATM   21  C13 UNL     1      43.905 -25.014  27.774  1.00  0.00     0.153 A 
HETATM   22  F1  UNL     1      44.648 -25.604  26.774  1.00  0.00    -0.203 F 
HETATM   23  C14 UNL     1      44.197 -25.256  29.097  1.00  0.00     0.141 A 
HETATM   24  C19 UNL     1      43.405 -24.626  30.052  1.00  0.00     0.105 A 
HETATM   25  C21 UNL     1      42.373 -23.797  29.686  1.00  0.00     0.047 A 
BRANCH  23  26
HETATM   26  O4  UNL     1      45.245 -26.099  29.417  1.00  0.00    -0.339 OA
BRANCH  26  27
HETATM   27  C15 UNL     1      45.419 -27.375  28.830  1.00  0.00     0.240 C 
BRANCH  27  28
HETATM   28  C16 UNL     1      44.695 -28.418  29.648  1.00  0.00     0.075 A 
HETATM   29  N1  UNL     1      45.198 -29.248  30.546  1.00  0.00    -0.361 N 
HETATM   30  C17 UNL     1      44.425 -30.086  31.158  1.00  0.00     0.096 A 
ATOM     31  H1  UNL     1      46.196 -29.227  30.755  1.00  0.00     0.165 HD
HETATM   32  C18 UNL     1      43.088 -30.068  30.831  1.00  0.00     0.068 A 
HETATM   33  S1  UNL     1      43.042 -28.830  29.655  1.00  0.00    -0.085 SA
ENDBRANCH  27  28
ENDBRANCH  26  27
ENDBRANCH  23  26
BRANCH  24  34
HETATM   34  O5  UNL     1      43.692 -24.864  31.404  1.00  0.00    -0.353 OA
HETATM   35  C20 UNL     1      44.408 -23.866  32.099  1.00  0.00     0.210 C 
ENDBRANCH  24  34
ENDBRANCH   4  19
BRANCH   3  36
HETATM   36  O3  UNL     1      39.319 -22.240  29.565  1.00  0.00    -0.392 OA
ATOM     37  H3  UNL     1      38.726 -22.597  28.915  1.00  0.00     0.210 HD
ENDBRANCH   3  36
BRANCH   2  38
HETATM   38  O2  UNL     1      40.770 -19.451  29.467  1.00  0.00    -0.391 OA
ATOM     39  H2  UNL     1      41.692 -19.519  29.683  1.00  0.00     0.210 HD
ENDBRANCH   2  38
BRANCH   1  40
HETATM   40  C6  UNL     1      38.295 -19.473  28.851  1.00  0.00     0.066 C 
BRANCH  40  41
HETATM   41  C5  UNL     1      37.873 -18.067  28.733  1.00  0.00    -0.053 A 
HETATM   42  C4  UNL     1      37.216 -17.444  29.772  1.00  0.00     0.010 A 
HETATM   43  C3  UNL     1      36.783 -16.139  29.672  1.00  0.00     0.040 A 
HETATM   44  C2  UNL     1      37.008 -15.431  28.510  1.00  0.00     0.101 A 
HETATM   45  C33 UNL     1      37.657 -16.018  27.458  1.00  0.00     0.102 A 
HETATM   46  C32 UNL     1      38.081 -17.333  27.585  1.00  0.00     0.046 A 
BRANCH  44  47
HETATM   47  O1  UNL     1      36.580 -14.108  28.383  1.00  0.00    -0.353 OA
HETATM   48  C1  UNL     1      35.396 -13.711  29.022  1.00  0.00     0.210 C 
ENDBRANCH  44  47
BRANCH  45  49
HETATM   49  O8  UNL     1      37.860 -15.265  26.310  1.00  0.00    -0.353 OA
HETATM   50  C34 UNL     1      39.037 -15.513  25.563  1.00  0.00     0.210 C 
ENDBRANCH  45  49
ENDBRANCH  40  41
ENDBRANCH   1  40
TORSDOF 11
ENDMDL
