MODEL 1
REMARK VINA RESULT: -8.857541369      0.000      0.000
REMARK  11 active torsions:
REMARK  status: ('A' for Active; 'I' for Inactive)
REMARK    1  A    between atoms: O1_1  and  C1_3 
REMARK    2  A    between atoms: C3_5  and  C4_6 
REMARK    3  A    between atoms: C10_14  and  C11_15 
REMARK    4  A    between atoms: C11_15  and  O2_16 
REMARK    5  A    between atoms: C11_15  and  C12_19 
REMARK    6  A    between atoms: C12_19  and  N2_20 
REMARK    7  A    between atoms: N3_23  and  C15_24 
REMARK    8  A    between atoms: C15_24  and  C16_25 
REMARK    9  A    between atoms: C16_25  and  C17_26 
REMARK   10  A    between atoms: C17_26  and  N4_27 
REMARK   11  A    between atoms: N5_30  and  C20_31 
ROOT
HETATM    1  N2  UNL     1      36.810 -20.733  24.694  1.00  0.00    -0.347 N 
HETATM    2  C13 UNL     1      37.538 -21.439  23.734  1.00  0.00     0.098 C 
HETATM    3  C14 UNL     1      37.180 -22.912  23.848  1.00  0.00     0.318 C 
HETATM    4  N3  UNL     1      35.759 -23.116  23.668  1.00  0.00     0.097 N 
HETATM    5  C28 UNL     1      35.040 -21.865  23.561  1.00  0.00     0.318 C 
HETATM    6  C29 UNL     1      35.428 -20.863  24.602  1.00  0.00     0.098 C 
ENDROOT
BRANCH   4   7
HETATM    7  C15 UNL     1      35.522 -23.829  22.430  1.00  0.00     0.275 C 
BRANCH   7   8
HETATM    8  C16 UNL     1      35.146 -25.260  22.624  1.00  0.00     0.050 C 
BRANCH   8   9
HETATM    9  C17 UNL     1      36.299 -26.132  22.183  1.00  0.00     0.129 C 
BRANCH   9  10
HETATM   10  N4  UNL     1      36.975 -26.826  23.209  1.00  0.00    -0.371 N 
HETATM   11  C18 UNL     1      36.217 -27.262  24.296  1.00  0.00     0.083 C 
HETATM   12  C19 UNL     1      36.733 -26.944  25.649  1.00  0.00     0.169 C 
HETATM   13  N5  UNL     1      38.107 -26.560  25.667  1.00  0.00    -0.357 N 
HETATM   14  C26 UNL     1      38.999 -26.956  24.612  1.00  0.00     0.169 C 
HETATM   15  C27 UNL     1      38.371 -26.711  23.281  1.00  0.00     0.083 C 
BRANCH  13  16
HETATM   16  C20 UNL     1      38.666 -25.803  26.783  1.00  0.00     0.120 A 
HETATM   17  C21 UNL     1      38.520 -24.438  26.861  1.00  0.00     0.137 A 
HETATM   18  N6  UNL     1      39.106 -23.813  27.894  1.00  0.00    -0.355 N 
HETATM   19  C22 UNL     1      39.826 -24.499  28.844  1.00  0.00     0.102 A 
ATOM     20  H6  UNL     1      39.014 -22.801  27.978  1.00  0.00     0.166 HD
HETATM   21  S1  UNL     1      40.698 -24.086  30.248  1.00  0.00    -0.080 SA
HETATM   22  C25 UNL     1      39.972 -25.852  28.771  1.00  0.00     0.090 A 
HETATM   23  C23 UNL     1      41.231 -25.636  30.713  1.00  0.00     0.078 A 
HETATM   24  C24 UNL     1      40.710 -26.448  29.752  1.00  0.00     0.070 A 
HETATM   25 CL1  UNL     1      41.022 -28.211  29.836  1.00  0.00    -0.081 Cl
HETATM   26  N7  UNL     1      39.367 -26.466  27.709  1.00  0.00    -0.338 N 
ATOM     27  H7  UNL     1      39.454 -27.478  27.619  1.00  0.00     0.167 HD
ENDBRANCH  13  16
ENDBRANCH   9  10
ENDBRANCH   8   9
ENDBRANCH   7   8
ENDBRANCH   4   7
BRANCH   1  28
HETATM   28  C12 UNL     1      37.413 -19.781  25.509  1.00  0.00     0.124 C 
BRANCH  28  29
HETATM   29  C11 UNL     1      38.122 -20.245  26.744  1.00  0.00     0.191 C 
HETATM   30 BR1  UNL     1      39.944 -20.721  26.284  1.00  0.00    -0.041 Br
BRANCH  29  31
HETATM   31  C10 UNL     1      38.155 -19.159  27.757  1.00  0.00     0.063 A 
HETATM   32  N1  UNL     1      37.546 -17.967  27.596  1.00  0.00    -0.359 N 
HETATM   33  C3  UNL     1      37.600 -17.004  28.526  1.00  0.00     0.016 A 
ATOM     34  H1  UNL     1      37.025 -17.793  26.736  1.00  0.00     0.165 HD
HETATM   35  C2  UNL     1      38.301 -17.233  29.697  1.00  0.00     0.061 A 
HETATM   36  C1  UNL     1      38.945 -18.439  29.916  1.00  0.00     0.069 A 
HETATM   37  C30 UNL     1      38.855 -19.391  28.923  1.00  0.00     0.066 A 
BRANCH  33  38
HETATM   38  C4  UNL     1      36.918 -15.683  28.322  1.00  0.00     0.036 C 
HETATM   39  C5  UNL     1      37.960 -14.628  27.946  1.00  0.00     0.011 C 
HETATM   40  C6  UNL     1      37.262 -13.306  27.864  1.00  0.00     0.001 C 
HETATM   41  C7  UNL     1      35.766 -13.401  28.041  1.00  0.00     0.000 C 
HETATM   42  C8  UNL     1      35.394 -14.022  29.352  1.00  0.00     0.001 C 
HETATM   43  C9  UNL     1      36.254 -15.221  29.591  1.00  0.00     0.011 C 
ENDBRANCH  33  38
BRANCH  36  44
HETATM   44  O1  UNL     1      39.652 -18.696  31.075  1.00  0.00    -0.361 OA
ATOM     45  H1  UNL     1      40.072 -19.532  31.236  1.00  0.00     0.217 HD
ENDBRANCH  36  44
ENDBRANCH  29  31
BRANCH  29  46
HETATM   46  O2  UNL     1      37.553 -21.354  27.331  1.00  0.00    -0.369 OA
ATOM     47  H2  UNL     1      36.620 -21.194  27.416  1.00  0.00     0.212 HD
ENDBRANCH  29  46
ENDBRANCH  28  29
ENDBRANCH   1  28
TORSDOF 11
ENDMDL
MODEL 2
REMARK VINA RESULT: -8.505061658      1.922      2.255
REMARK  11 active torsions:
REMARK  status: ('A' for Active; 'I' for Inactive)
REMARK    1  A    between atoms: O1_1  and  C1_3 
REMARK    2  A    between atoms: C3_5  and  C4_6 
REMARK    3  A    between atoms: C10_14  and  C11_15 
REMARK    4  A    between atoms: C11_15  and  O2_16 
REMARK    5  A    between atoms: C11_15  and  C12_19 
REMARK    6  A    between atoms: C12_19  and  N2_20 
REMARK    7  A    between atoms: N3_23  and  C15_24 
REMARK    8  A    between atoms: C15_24  and  C16_25 
REMARK    9  A    between atoms: C16_25  and  C17_26 
REMARK   10  A    between atoms: C17_26  and  N4_27 
REMARK   11  A    between atoms: N5_30  and  C20_31 
ROOT
HETATM    1  N2  UNL     1      36.241 -21.461  25.464  1.00  0.00    -0.347 N 
HETATM    2  C13 UNL     1      36.640 -22.798  25.509  1.00  0.00     0.098 C 
HETATM    3  C14 UNL     1      35.476 -23.662  25.051  1.00  0.00     0.318 C 
HETATM    4  N3  UNL     1      35.052 -23.295  23.717  1.00  0.00     0.097 N 
HETATM    5  C28 UNL     1      35.751 -22.128  23.225  1.00  0.00     0.318 C 
HETATM    6  C29 UNL     1      35.817 -21.011  24.218  1.00  0.00     0.098 C 
ENDROOT
BRANCH   4   7
HETATM    7  C15 UNL     1      35.358 -24.371  22.795  1.00  0.00     0.275 C 
BRANCH   7   8
HETATM    8  C16 UNL     1      36.138 -25.484  23.410  1.00  0.00     0.050 C 
BRANCH   8   9
HETATM    9  C17 UNL     1      37.601 -25.297  23.077  1.00  0.00     0.129 C 
BRANCH   9  10
HETATM   10  N4  UNL     1      38.518 -25.848  23.996  1.00  0.00    -0.371 N 
HETATM   11  C18 UNL     1      37.995 -26.569  25.070  1.00  0.00     0.083 C 
HETATM   12  C19 UNL     1      38.500 -26.226  26.421  1.00  0.00     0.169 C 
HETATM   13  N5  UNL     1      39.709 -25.467  26.410  1.00  0.00    -0.357 N 
HETATM   14  C26 UNL     1      40.595 -25.506  25.280  1.00  0.00     0.169 C 
HETATM   15  C27 UNL     1      39.827 -25.345  24.012  1.00  0.00     0.083 C 
BRANCH  13  16
HETATM   16  C20 UNL     1      40.114 -24.674  27.567  1.00  0.00     0.120 A 
HETATM   17  C21 UNL     1      39.696 -25.000  28.835  1.00  0.00     0.137 A 
HETATM   18  N6  UNL     1      40.074 -24.191  29.837  1.00  0.00    -0.355 N 
HETATM   19  C22 UNL     1      40.849 -23.077  29.616  1.00  0.00     0.102 A 
ATOM     20  H6  UNL     1      39.778 -24.409  30.789  1.00  0.00     0.166 HD
HETATM   21  S1  UNL     1      41.506 -21.837  30.583  1.00  0.00    -0.080 SA
HETATM   22  C25 UNL     1      41.266 -22.750  28.361  1.00  0.00     0.090 A 
HETATM   23  C23 UNL     1      42.294 -20.929  29.376  1.00  0.00     0.078 A 
HETATM   24  C24 UNL     1      42.025 -21.623  28.235  1.00  0.00     0.070 A 
HETATM   25 CL1  UNL     1      42.670 -21.022  26.675  1.00  0.00    -0.081 Cl
HETATM   26  N7  UNL     1      40.868 -23.590  27.357  1.00  0.00    -0.338 N 
ATOM     27  H7  UNL     1      41.160 -23.378  26.403  1.00  0.00     0.167 HD
ENDBRANCH  13  16
ENDBRANCH   9  10
ENDBRANCH   8   9
ENDBRANCH   7   8
ENDBRANCH   4   7
BRANCH   1  28
HETATM   28  C12 UNL     1      36.491 -20.592  26.521  1.00  0.00     0.124 C 
BRANCH  28  29
HETATM   29  C11 UNL     1      37.856 -20.591  27.137  1.00  0.00     0.191 C 
HETATM   30 BR1  UNL     1      39.183 -20.469  25.730  1.00  0.00    -0.041 Br
BRANCH  29  31
HETATM   31  C10 UNL     1      38.011 -19.423  28.042  1.00  0.00     0.063 A 
HETATM   32  N1  UNL     1      37.445 -18.221  27.816  1.00  0.00    -0.359 N 
HETATM   33  C3  UNL     1      37.610 -17.184  28.648  1.00  0.00     0.016 A 
ATOM     34  H1  UNL     1      36.870 -18.096  26.982  1.00  0.00     0.165 HD
HETATM   35  C2  UNL     1      38.385 -17.345  29.783  1.00  0.00     0.061 A 
HETATM   36  C1  UNL     1      38.989 -18.557  30.066  1.00  0.00     0.069 A 
HETATM   37  C30 UNL     1      38.784 -19.588  29.173  1.00  0.00     0.066 A 
BRANCH  33  38
HETATM   38  C4  UNL     1      36.975 -15.853  28.372  1.00  0.00     0.036 C 
HETATM   39  C5  UNL     1      38.058 -14.842  27.992  1.00  0.00     0.011 C 
HETATM   40  C6  UNL     1      37.402 -13.506  27.838  1.00  0.00     0.001 C 
HETATM   41  C7  UNL     1      35.899 -13.552  27.967  1.00  0.00     0.000 C 
HETATM   42  C8  UNL     1      35.466 -14.112  29.288  1.00  0.00     0.001 C 
HETATM   43  C9  UNL     1      36.283 -15.325  29.600  1.00  0.00     0.011 C 
ENDBRANCH  33  38
BRANCH  36  44
HETATM   44  O1  UNL     1      39.768 -18.747  31.192  1.00  0.00    -0.361 OA
ATOM     45  H1  UNL     1      39.772 -19.567  31.672  1.00  0.00     0.217 HD
ENDBRANCH  36  44
ENDBRANCH  29  31
BRANCH  29  46
HETATM   46  O2  UNL     1      38.141 -21.728  27.862  1.00  0.00    -0.369 OA
ATOM     47  H2  UNL     1      37.329 -22.045  28.240  1.00  0.00     0.212 HD
ENDBRANCH  29  46
ENDBRANCH  28  29
ENDBRANCH   1  28
TORSDOF 11
ENDMDL
MODEL 3
REMARK VINA RESULT: -8.358365523      2.050      2.583
REMARK  11 active torsions:
REMARK  status: ('A' for Active; 'I' for Inactive)
REMARK    1  A    between atoms: O1_1  and  C1_3 
REMARK    2  A    between atoms: C3_5  and  C4_6 
REMARK    3  A    between atoms: C10_14  and  C11_15 
REMARK    4  A    between atoms: C11_15  and  O2_16 
REMARK    5  A    between atoms: C11_15  and  C12_19 
REMARK    6  A    between atoms: C12_19  and  N2_20 
REMARK    7  A    between atoms: N3_23  and  C15_24 
REMARK    8  A    between atoms: C15_24  and  C16_25 
REMARK    9  A    between atoms: C16_25  and  C17_26 
REMARK   10  A    between atoms: C17_26  and  N4_27 
REMARK   11  A    between atoms: N5_30  and  C20_31 
ROOT
HETATM    1  N2  UNL     1      37.109 -22.515  26.439  1.00  0.00    -0.347 N 
HETATM    2  C13 UNL     1      38.143 -23.327  25.970  1.00  0.00     0.098 C 
HETATM    3  C14 UNL     1      37.715 -24.779  26.111  1.00  0.00     0.318 C 
HETATM    4  N3  UNL     1      36.491 -25.032  25.382  1.00  0.00     0.097 N 
HETATM    5  C28 UNL     1      35.930 -23.820  24.825  1.00  0.00     0.318 C 
HETATM    6  C29 UNL     1      35.887 -22.683  25.795  1.00  0.00     0.098 C 
ENDROOT
BRANCH   4   7
HETATM    7  C15 UNL     1      36.765 -25.907  24.259  1.00  0.00     0.275 C 
BRANCH   7   8
HETATM    8  C16 UNL     1      37.741 -26.992  24.568  1.00  0.00     0.050 C 
BRANCH   8   9
HETATM    9  C17 UNL     1      38.758 -27.065  23.452  1.00  0.00     0.129 C 
BRANCH   9  10
HETATM   10  N4  UNL     1      40.041 -26.562  23.753  1.00  0.00    -0.371 N 
HETATM   11  C18 UNL     1      40.777 -27.228  24.734  1.00  0.00     0.083 C 
HETATM   12  C19 UNL     1      41.383 -26.397  25.802  1.00  0.00     0.169 C 
HETATM   13  N5  UNL     1      41.441 -25.006  25.488  1.00  0.00    -0.357 N 
HETATM   14  C26 UNL     1      41.425 -24.555  24.124  1.00  0.00     0.169 C 
HETATM   15  C27 UNL     1      40.351 -25.252  23.359  1.00  0.00     0.083 C 
BRANCH  13  16
HETATM   16  C20 UNL     1      41.579 -23.999  26.536  1.00  0.00     0.120 A 
HETATM   17  C21 UNL     1      42.172 -22.785  26.283  1.00  0.00     0.137 A 
HETATM   18  N6  UNL     1      42.302 -21.935  27.314  1.00  0.00    -0.355 N 
HETATM   19  C22 UNL     1      41.862 -22.254  28.578  1.00  0.00     0.102 A 
ATOM     20  H6  UNL     1      42.739 -21.027  27.156  1.00  0.00     0.166 HD
HETATM   21  S1  UNL     1      41.854 -21.483  30.097  1.00  0.00    -0.080 SA
HETATM   22  C25 UNL     1      41.273 -23.456  28.832  1.00  0.00     0.090 A 
HETATM   23  C23 UNL     1      41.105 -22.700  31.024  1.00  0.00     0.078 A 
HETATM   24  C24 UNL     1      40.876 -23.690  30.116  1.00  0.00     0.070 A 
HETATM   25 CL1  UNL     1      40.084 -25.204  30.657  1.00  0.00    -0.081 Cl
HETATM   26  N7  UNL     1      41.152 -24.305  27.766  1.00  0.00    -0.338 N 
ATOM     27  H7  UNL     1      40.717 -25.215  27.917  1.00  0.00     0.167 HD
ENDBRANCH  13  16
ENDBRANCH   9  10
ENDBRANCH   8   9
ENDBRANCH   7   8
ENDBRANCH   4   7
BRANCH   1  28
HETATM   28  C12 UNL     1      37.353 -21.453  27.303  1.00  0.00     0.124 C 
BRANCH  28  29
HETATM   29  C11 UNL     1      38.154 -20.292  26.798  1.00  0.00     0.191 C 
HETATM   30 BR1  UNL     1      37.335 -19.618  25.176  1.00  0.00    -0.041 Br
BRANCH  29  31
HETATM   31  C10 UNL     1      38.175 -19.204  27.809  1.00  0.00     0.063 A 
HETATM   32  N1  UNL     1      37.552 -18.020  27.648  1.00  0.00    -0.359 N 
HETATM   33  C3  UNL     1      37.597 -17.055  28.576  1.00  0.00     0.016 A 
ATOM     34  H1  UNL     1      37.027 -17.853  26.789  1.00  0.00     0.165 HD
HETATM   35  C2  UNL     1      38.303 -17.274  29.746  1.00  0.00     0.061 A 
HETATM   36  C1  UNL     1      38.961 -18.471  29.966  1.00  0.00     0.069 A 
HETATM   37  C30 UNL     1      38.881 -19.427  28.974  1.00  0.00     0.066 A 
BRANCH  33  38
HETATM   38  C4  UNL     1      36.900 -15.742  28.372  1.00  0.00     0.036 C 
HETATM   39  C5  UNL     1      37.923 -14.683  27.959  1.00  0.00     0.011 C 
HETATM   40  C6  UNL     1      37.212 -13.368  27.877  1.00  0.00     0.001 C 
HETATM   41  C7  UNL     1      35.721 -13.473  28.089  1.00  0.00     0.000 C 
HETATM   42  C8  UNL     1      35.385 -14.081  29.417  1.00  0.00     0.001 C 
HETATM   43  C9  UNL     1      36.260 -15.270  29.651  1.00  0.00     0.011 C 
ENDBRANCH  33  38
BRANCH  36  44
HETATM   44  O1  UNL     1      39.674 -18.719  31.123  1.00  0.00    -0.361 OA
ATOM     45  H1  UNL     1      39.579 -19.527  31.614  1.00  0.00     0.217 HD
ENDBRANCH  36  44
ENDBRANCH  29  31
BRANCH  29  46
HETATM   46  O2  UNL     1      39.459 -20.607  26.488  1.00  0.00    -0.369 OA
ATOM     47  H2  UNL     1      39.505 -21.544  26.336  1.00  0.00     0.212 HD
ENDBRANCH  29  46
ENDBRANCH  28  29
ENDBRANCH   1  28
TORSDOF 11
ENDMDL
MODEL 4
REMARK VINA RESULT: -8.277798552      3.609      7.892
REMARK  11 active torsions:
REMARK  status: ('A' for Active; 'I' for Inactive)
REMARK    1  A    between atoms: O1_1  and  C1_3 
REMARK    2  A    between atoms: C3_5  and  C4_6 
REMARK    3  A    between atoms: C10_14  and  C11_15 
REMARK    4  A    between atoms: C11_15  and  O2_16 
REMARK    5  A    between atoms: C11_15  and  C12_19 
REMARK    6  A    between atoms: C12_19  and  N2_20 
REMARK    7  A    between atoms: N3_23  and  C15_24 
REMARK    8  A    between atoms: C15_24  and  C16_25 
REMARK    9  A    between atoms: C16_25  and  C17_26 
REMARK   10  A    between atoms: C17_26  and  N4_27 
REMARK   11  A    between atoms: N5_30  and  C20_31 
ROOT
HETATM    1  N2  UNL     1      38.001 -24.131  25.636  1.00  0.00    -0.347 N 
HETATM    2  C13 UNL     1      37.889 -24.261  24.249  1.00  0.00     0.098 C 
HETATM    3  C14 UNL     1      36.556 -24.923  23.936  1.00  0.00     0.318 C 
HETATM    4  N3  UNL     1      35.456 -24.151  24.471  1.00  0.00     0.097 N 
HETATM    5  C28 UNL     1      35.912 -23.035  25.270  1.00  0.00     0.318 C 
HETATM    6  C29 UNL     1      36.987 -23.399  26.245  1.00  0.00     0.098 C 
ENDROOT
BRANCH   4   7
HETATM    7  C15 UNL     1      34.684 -23.585  23.384  1.00  0.00     0.275 C 
BRANCH   7   8
HETATM    8  C16 UNL     1      34.716 -22.094  23.338  1.00  0.00     0.050 C 
BRANCH   8   9
HETATM    9  C17 UNL     1      35.761 -21.659  22.336  1.00  0.00     0.129 C 
BRANCH   9  10
HETATM   10  N4  UNL     1      36.570 -20.570  22.723  1.00  0.00    -0.371 N 
HETATM   11  C18 UNL     1      37.898 -20.842  23.055  1.00  0.00     0.083 C 
HETATM   12  C19 UNL     1      38.403 -20.278  24.329  1.00  0.00     0.169 C 
HETATM   13  N5  UNL     1      37.587 -19.237  24.864  1.00  0.00    -0.357 N 
HETATM   14  C26 UNL     1      36.713 -18.475  24.016  1.00  0.00     0.169 C 
HETATM   15  C27 UNL     1      35.940 -19.380  23.118  1.00  0.00     0.083 C 
BRANCH  13  16
HETATM   16  C20 UNL     1      37.655 -18.873  26.276  1.00  0.00     0.120 A 
HETATM   17  C21 UNL     1      37.719 -19.834  27.257  1.00  0.00     0.137 A 
HETATM   18  N6  UNL     1      37.730 -19.415  28.532  1.00  0.00    -0.355 N 
HETATM   19  C22 UNL     1      37.678 -18.080  28.858  1.00  0.00     0.102 A 
ATOM     20  H6  UNL     1      37.778 -20.107  29.280  1.00  0.00     0.166 HD
HETATM   21  S1  UNL     1      37.661 -17.177  30.302  1.00  0.00    -0.080 SA
HETATM   22  C25 UNL     1      37.615 -17.124  27.889  1.00  0.00     0.090 A 
HETATM   23  C23 UNL     1      37.571 -15.606  29.649  1.00  0.00     0.078 A 
HETATM   24  C24 UNL     1      37.558 -15.826  28.304  1.00  0.00     0.070 A 
HETATM   25 CL1  UNL     1      37.469 -14.423  27.192  1.00  0.00    -0.081 Cl
HETATM   26  N7  UNL     1      37.605 -17.576  26.598  1.00  0.00    -0.338 N 
ATOM     27  H7  UNL     1      37.557 -16.890  25.844  1.00  0.00     0.167 HD
ENDBRANCH  13  16
ENDBRANCH   9  10
ENDBRANCH   8   9
ENDBRANCH   7   8
ENDBRANCH   4   7
BRANCH   1  28
HETATM   28  C12 UNL     1      39.165 -24.488  26.307  1.00  0.00     0.124 C 
BRANCH  28  29
HETATM   29  C11 UNL     1      39.368 -25.927  26.669  1.00  0.00     0.191 C 
HETATM   30 BR1  UNL     1      40.374 -26.797  25.258  1.00  0.00    -0.041 Br
BRANCH  29  31
HETATM   31  C10 UNL     1      40.133 -26.036  27.937  1.00  0.00     0.063 A 
HETATM   32  N1  UNL     1      40.745 -24.994  28.534  1.00  0.00    -0.359 N 
HETATM   33  C3  UNL     1      41.435 -25.126  29.675  1.00  0.00     0.016 A 
ATOM     34  H1  UNL     1      40.680 -24.072  28.102  1.00  0.00     0.165 HD
HETATM   35  C2  UNL     1      41.526 -26.372  30.269  1.00  0.00     0.061 A 
HETATM   36  C1  UNL     1      40.917 -27.477  29.702  1.00  0.00     0.069 A 
HETATM   37  C30 UNL     1      40.221 -27.281  28.527  1.00  0.00     0.066 A 
BRANCH  33  38
HETATM   38  C4  UNL     1      42.112 -23.952  30.317  1.00  0.00     0.036 C 
HETATM   39  C5  UNL     1      42.093 -22.764  29.354  1.00  0.00     0.011 C 
HETATM   40  C6  UNL     1      42.875 -21.653  29.982  1.00  0.00     0.001 C 
HETATM   41  C7  UNL     1      43.335 -21.957  31.387  1.00  0.00     0.000 C 
HETATM   42  C8  UNL     1      44.184 -23.190  31.445  1.00  0.00     0.001 C 
HETATM   43  C9  UNL     1      43.555 -24.262  30.614  1.00  0.00     0.011 C 
ENDBRANCH  33  38
BRANCH  36  44
HETATM   44  O1  UNL     1      40.990 -28.734  30.273  1.00  0.00    -0.361 OA
ATOM     45  H1  UNL     1      40.770 -29.522  29.791  1.00  0.00     0.217 HD
ENDBRANCH  36  44
ENDBRANCH  29  31
BRANCH  29  46
HETATM   46  O2  UNL     1      38.195 -26.635  26.821  1.00  0.00    -0.369 OA
ATOM     47  H2  UNL     1      38.419 -27.551  26.941  1.00  0.00     0.212 HD
ENDBRANCH  29  46
ENDBRANCH  28  29
ENDBRANCH   1  28
TORSDOF 11
ENDMDL
MODEL 5
REMARK VINA RESULT: -8.212290863      3.924      7.311
REMARK  11 active torsions:
REMARK  status: ('A' for Active; 'I' for Inactive)
REMARK    1  A    between atoms: O1_1  and  C1_3 
REMARK    2  A    between atoms: C3_5  and  C4_6 
REMARK    3  A    between atoms: C10_14  and  C11_15 
REMARK    4  A    between atoms: C11_15  and  O2_16 
REMARK    5  A    between atoms: C11_15  and  C12_19 
REMARK    6  A    between atoms: C12_19  and  N2_20 
REMARK    7  A    between atoms: N3_23  and  C15_24 
REMARK    8  A    between atoms: C15_24  and  C16_25 
REMARK    9  A    between atoms: C16_25  and  C17_26 
REMARK   10  A    between atoms: C17_26  and  N4_27 
REMARK   11  A    between atoms: N5_30  and  C20_31 
ROOT
HETATM    1  N2  UNL     1      39.983 -25.346  26.537  1.00  0.00    -0.347 N 
HETATM    2  C13 UNL     1      39.168 -26.431  26.209  1.00  0.00     0.098 C 
HETATM    3  C14 UNL     1      37.717 -25.987  26.302  1.00  0.00     0.318 C 
HETATM    4  N3  UNL     1      37.461 -24.867  25.423  1.00  0.00     0.097 N 
HETATM    5  C28 UNL     1      38.670 -24.384  24.792  1.00  0.00     0.318 C 
HETATM    6  C29 UNL     1      39.813 -24.217  25.742  1.00  0.00     0.098 C 
ENDROOT
BRANCH   4   7
HETATM    7  C15 UNL     1      36.580 -25.282  24.350  1.00  0.00     0.275 C 
BRANCH   7   8
HETATM    8  C16 UNL     1      35.539 -24.271  24.004  1.00  0.00     0.050 C 
BRANCH   8   9
HETATM    9  C17 UNL     1      35.817 -23.738  22.617  1.00  0.00     0.129 C 
BRANCH   9  10
HETATM   10  N4  UNL     1      36.069 -22.354  22.527  1.00  0.00    -0.371 N 
HETATM   11  C18 UNL     1      37.386 -21.954  22.299  1.00  0.00     0.083 C 
HETATM   12  C19 UNL     1      37.935 -20.902  23.187  1.00  0.00     0.169 C 
HETATM   13  N5  UNL     1      36.940 -20.183  23.914  1.00  0.00    -0.357 N 
HETATM   14  C26 UNL     1      35.585 -20.115  23.440  1.00  0.00     0.169 C 
HETATM   15  C27 UNL     1      35.107 -21.468  23.036  1.00  0.00     0.083 C 
BRANCH  13  16
HETATM   16  C20 UNL     1      37.275 -19.445  25.128  1.00  0.00     0.120 A 
HETATM   17  C21 UNL     1      36.868 -19.887  26.364  1.00  0.00     0.137 A 
HETATM   18  N6  UNL     1      37.177 -19.124  27.425  1.00  0.00    -0.355 N 
HETATM   19  C22 UNL     1      37.872 -17.945  27.293  1.00  0.00     0.102 A 
ATOM     20  H6  UNL     1      36.888 -19.428  28.355  1.00  0.00     0.166 HD
HETATM   21  S1  UNL     1      38.429 -16.732  28.352  1.00  0.00    -0.080 SA
HETATM   22  C25 UNL     1      38.278 -17.504  26.070  1.00  0.00     0.090 A 
HETATM   23  C23 UNL     1      39.162 -15.689  27.222  1.00  0.00     0.078 A 
HETATM   24  C24 UNL     1      38.955 -16.320  26.032  1.00  0.00     0.070 A 
HETATM   25 CL1  UNL     1      39.571 -15.567  24.527  1.00  0.00    -0.081 Cl
HETATM   26  N7  UNL     1      37.951 -18.298  25.004  1.00  0.00    -0.338 N 
ATOM     27  H7  UNL     1      38.237 -18.000  24.071  1.00  0.00     0.167 HD
ENDBRANCH  13  16
ENDBRANCH   9  10
ENDBRANCH   8   9
ENDBRANCH   7   8
ENDBRANCH   4   7
BRANCH   1  28
HETATM   28  C12 UNL     1      41.050 -25.478  27.419  1.00  0.00     0.124 C 
BRANCH  28  29
HETATM   29  C11 UNL     1      40.805 -25.241  28.877  1.00  0.00     0.191 C 
HETATM   30 BR1  UNL     1      42.145 -26.192  29.905  1.00  0.00    -0.041 Br
BRANCH  29  31
HETATM   31  C10 UNL     1      40.907 -23.791  29.186  1.00  0.00     0.063 A 
HETATM   32  N1  UNL     1      42.045 -23.188  29.583  1.00  0.00    -0.359 N 
HETATM   33  C3  UNL     1      42.102 -21.879  29.862  1.00  0.00     0.016 A 
ATOM     34  H1  UNL     1      42.893 -23.749  29.674  1.00  0.00     0.165 HD
HETATM   35  C2  UNL     1      40.957 -21.111  29.739  1.00  0.00     0.061 A 
HETATM   36  C1  UNL     1      39.761 -21.677  29.334  1.00  0.00     0.069 A 
HETATM   37  C30 UNL     1      39.763 -23.029  29.062  1.00  0.00     0.066 A 
BRANCH  33  38
HETATM   38  C4  UNL     1      43.380 -21.231  30.308  1.00  0.00     0.036 C 
HETATM   39  C5  UNL     1      44.333 -21.116  29.117  1.00  0.00     0.011 C 
HETATM   40  C6  UNL     1      45.633 -20.573  29.623  1.00  0.00     0.001 C 
HETATM   41  C7  UNL     1      45.599 -20.186  31.082  1.00  0.00     0.000 C 
HETATM   42  C8  UNL     1      45.224 -21.340  31.961  1.00  0.00     0.001 C 
HETATM   43  C9  UNL     1      44.070 -22.069  31.352  1.00  0.00     0.011 C 
ENDBRANCH  33  38
BRANCH  36  44
HETATM   44  O1  UNL     1      38.603 -20.935  29.202  1.00  0.00    -0.361 OA
ATOM     45  H1  UNL     1      38.249 -20.696  28.354  1.00  0.00     0.217 HD
ENDBRANCH  36  44
ENDBRANCH  29  31
BRANCH  29  46
HETATM   46  O2  UNL     1      39.575 -25.682  29.315  1.00  0.00    -0.369 OA
ATOM     47  H2  UNL     1      39.655 -25.906  30.235  1.00  0.00     0.212 HD
ENDBRANCH  29  46
ENDBRANCH  28  29
ENDBRANCH   1  28
TORSDOF 11
ENDMDL
