MODEL 1
REMARK VINA RESULT: -8.748245201      0.000      0.000
REMARK  16 active torsions:
REMARK  status: ('A' for Active; 'I' for Inactive)
REMARK    1  A    between atoms: C3_3  and  C4_4 
REMARK    2  A    between atoms: C3_3  and  C27_40 
REMARK    3  A    between atoms: C4_4  and  C5_5 
REMARK    4  A    between atoms: C5_5  and  O1_6 
REMARK    5  A    between atoms: C5_5  and  C6_8 
REMARK    6  A    between atoms: C6_8  and  C7_9 
REMARK    7  A    between atoms: C7_9  and  O2_10 
REMARK    8  A    between atoms: C7_9  and  C8_12 
REMARK    9  A    between atoms: C8_12  and  C9_13 
REMARK   10  A    between atoms: C10_14  and  C11_15 
REMARK   11  A    between atoms: C17_22  and  C18_23 
REMARK   12  A    between atoms: C21_27  and  O4_28 
REMARK   13  A    between atoms: O4_28  and  C22_29 
REMARK   14  A    between atoms: C22_29  and  O6_31 
REMARK   15  A    between atoms: C25_34  and  O7_35 
REMARK   16  A    between atoms: C26_37  and  O8_38 
ROOT
HETATM    1  C1  UNL     1     -16.768  20.982  11.042  1.00  0.00     0.012 C 
HETATM    2  C2  UNL     1     -17.504  21.931  11.180  1.00  0.00    -0.112 C 
HETATM    3  C3  UNL     1     -18.343  23.075  11.356  1.00  0.00     0.071 C 
ENDROOT
BRANCH   3   4
HETATM    4  C4  UNL     1     -19.623  22.888  12.098  1.00  0.00     0.049 C 
BRANCH   4   5
HETATM    5  C5  UNL     1     -19.813  21.738  13.003  1.00  0.00     0.121 C 
BRANCH   5   6
HETATM    6  O1  UNL     1     -21.063  21.154  12.712  1.00  0.00    -0.395 OA
ATOM      7  H1  UNL     1     -20.907  20.319  12.288  1.00  0.00     0.210 HD
ENDBRANCH   5   6
BRANCH   5   8
HETATM    8  C6  UNL     1     -19.516  21.964  14.420  1.00  0.00     0.063 C 
BRANCH   8   9
HETATM    9  C7  UNL     1     -19.035  20.745  15.197  1.00  0.00     0.124 C 
BRANCH   9  10
HETATM   10  O2  UNL     1     -18.585  19.727  14.395  1.00  0.00    -0.395 OA
ATOM     11  H2  UNL     1     -19.260  19.099  14.166  1.00  0.00     0.210 HD
ENDBRANCH   9  10
BRANCH   9  12
HETATM   12  C8  UNL     1     -19.974  20.351  16.269  1.00  0.00     0.058 C 
BRANCH  12  13
HETATM   13  C9  UNL     1     -20.063  18.838  16.266  1.00  0.00    -0.027 C 
HETATM   14  C10 UNL     1     -21.169  18.238  16.644  1.00  0.00    -0.016 C 
BRANCH  14  15
HETATM   15  C11 UNL     1     -21.317  16.753  16.662  1.00  0.00     0.109 C 
HETATM   16  C12 UNL     1     -20.170  16.113  17.334  1.00  0.00     0.144 C 
HETATM   17  O3  UNL     1     -20.183  16.129  18.560  1.00  0.00    -0.296 OA
HETATM   18  C13 UNL     1     -19.042  15.475  16.641  1.00  0.00     0.074 C 
HETATM   19  C14 UNL     1     -18.761  14.088  17.176  1.00  0.00     0.022 C 
HETATM   20  C15 UNL     1     -19.000  15.611  15.194  1.00  0.00    -0.014 C 
HETATM   21  C16 UNL     1     -19.312  14.754  14.244  1.00  0.00     0.005 C 
HETATM   22  C17 UNL     1     -19.808  13.394  14.335  1.00  0.00    -0.048 C 
HETATM   23  C19 UNL     1     -21.050  13.035  14.673  1.00  0.00    -0.011 C 
HETATM   24  C20 UNL     1     -22.155  13.923  15.008  1.00  0.00     0.048 A 
HETATM   25  C21 UNL     1     -23.426  13.159  15.515  1.00  0.00     0.149 A 
HETATM   26  C24 UNL     1     -22.571  14.072  16.392  1.00  0.00     0.057 A 
HETATM   27  C25 UNL     1     -23.319  15.351  16.700  1.00  0.00     0.155 C 
HETATM   28  C26 UNL     1     -22.547  16.354  17.480  1.00  0.00     0.162 C 
BRANCH  22  29
HETATM   29  C18 UNL     1     -18.894  12.274  13.915  1.00  0.00     0.152 C 
HETATM   30 CL1  UNL     1     -18.955  10.939  15.083  1.00  0.00    -0.126 Cl
ENDBRANCH  22  29
BRANCH  25  31
HETATM   31  O4  UNL     1     -24.644  13.603  15.006  1.00  0.00    -0.291 OA
BRANCH  31  32
HETATM   32  C22 UNL     1     -25.787  12.866  15.163  1.00  0.00     0.406 C 
HETATM   33  O5  UNL     1     -26.894  13.259  14.710  1.00  0.00    -0.230 OA
BRANCH  32  34
HETATM   34  O6  UNL     1     -25.777  11.631  15.837  1.00  0.00    -0.303 OA
HETATM   35  C23 UNL     1     -26.607  11.362  16.938  1.00  0.00     0.215 C 
ENDBRANCH  32  34
ENDBRANCH  31  32
ENDBRANCH  25  31
BRANCH  27  36
HETATM   36  O7  UNL     1     -23.866  15.936  15.564  1.00  0.00    -0.392 OA
ATOM     37  H7  UNL     1     -23.294  16.590  15.178  1.00  0.00     0.210 HD
ENDBRANCH  27  36
BRANCH  28  38
HETATM   38  O8  UNL     1     -23.312  17.500  17.644  1.00  0.00    -0.392 OA
ATOM     39  H8  UNL     1     -23.970  17.302  18.300  1.00  0.00     0.210 HD
ENDBRANCH  28  38
ENDBRANCH  14  15
ENDBRANCH  12  13
ENDBRANCH   9  12
ENDBRANCH   8   9
ENDBRANCH   5   8
ENDBRANCH   4   5
ENDBRANCH   3   4
BRANCH   3  40
HETATM   40  C27 UNL     1     -17.634  24.235  11.955  1.00  0.00     0.005 A 
HETATM   41  C28 UNL     1     -18.596  25.362  12.381  1.00  0.00     0.011 A 
HETATM   42  C29 UNL     1     -17.345  25.546  11.491  1.00  0.00    -0.013 A 
HETATM   43  C30 UNL     1     -17.635  26.197  10.196  1.00  0.00     0.010 C 
ENDBRANCH   3  40
TORSDOF 16
ENDMDL
MODEL 2
REMARK VINA RESULT: -8.550801069      0.980      1.029
REMARK  16 active torsions:
REMARK  status: ('A' for Active; 'I' for Inactive)
REMARK    1  A    between atoms: C3_3  and  C4_4 
REMARK    2  A    between atoms: C3_3  and  C27_40 
REMARK    3  A    between atoms: C4_4  and  C5_5 
REMARK    4  A    between atoms: C5_5  and  O1_6 
REMARK    5  A    between atoms: C5_5  and  C6_8 
REMARK    6  A    between atoms: C6_8  and  C7_9 
REMARK    7  A    between atoms: C7_9  and  O2_10 
REMARK    8  A    between atoms: C7_9  and  C8_12 
REMARK    9  A    between atoms: C8_12  and  C9_13 
REMARK   10  A    between atoms: C10_14  and  C11_15 
REMARK   11  A    between atoms: C17_22  and  C18_23 
REMARK   12  A    between atoms: C21_27  and  O4_28 
REMARK   13  A    between atoms: O4_28  and  C22_29 
REMARK   14  A    between atoms: C22_29  and  O6_31 
REMARK   15  A    between atoms: C25_34  and  O7_35 
REMARK   16  A    between atoms: C26_37  and  O8_38 
ROOT
HETATM    1  C1  UNL     1     -16.813  21.095  10.902  1.00  0.00     0.012 C 
HETATM    2  C2  UNL     1     -17.572  22.007  11.137  1.00  0.00    -0.112 C 
HETATM    3  C3  UNL     1     -18.436  23.108  11.426  1.00  0.00     0.071 C 
ENDROOT
BRANCH   3   4
HETATM    4  C4  UNL     1     -19.655  22.837  12.241  1.00  0.00     0.049 C 
BRANCH   4   5
HETATM    5  C5  UNL     1     -19.760  21.616  13.064  1.00  0.00     0.121 C 
BRANCH   5   6
HETATM    6  O1  UNL     1     -21.111  21.215  13.082  1.00  0.00    -0.395 OA
ATOM      7  H1  UNL     1     -21.644  21.964  12.841  1.00  0.00     0.210 HD
ENDBRANCH   5   6
BRANCH   5   8
HETATM    8  C6  UNL     1     -19.072  21.639  14.357  1.00  0.00     0.063 C 
BRANCH   8   9
HETATM    9  C7  UNL     1     -19.625  20.694  15.416  1.00  0.00     0.124 C 
BRANCH   9  10
HETATM   10  O2  UNL     1     -20.538  21.283  16.253  1.00  0.00    -0.395 OA
ATOM     11  H2  UNL     1     -21.036  20.660  16.770  1.00  0.00     0.210 HD
ENDBRANCH   9  10
BRANCH   9  12
HETATM   12  C8  UNL     1     -18.565  19.902  16.078  1.00  0.00     0.058 C 
BRANCH  12  13
HETATM   13  C9  UNL     1     -18.976  18.445  16.017  1.00  0.00    -0.027 C 
HETATM   14  C10 UNL     1     -19.899  17.982  16.829  1.00  0.00    -0.016 C 
BRANCH  14  15
HETATM   15  C11 UNL     1     -20.346  16.557  16.816  1.00  0.00     0.109 C 
HETATM   16  C12 UNL     1     -19.309  15.670  17.377  1.00  0.00     0.144 C 
HETATM   17  O3  UNL     1     -19.231  15.634  18.600  1.00  0.00    -0.296 OA
HETATM   18  C13 UNL     1     -18.388  14.849  16.579  1.00  0.00     0.074 C 
HETATM   19  C14 UNL     1     -18.359  13.412  17.050  1.00  0.00     0.022 C 
HETATM   20  C15 UNL     1     -18.422  15.038  15.137  1.00  0.00    -0.014 C 
HETATM   21  C16 UNL     1     -18.970  14.305  14.191  1.00  0.00     0.005 C 
HETATM   22  C17 UNL     1     -19.726  13.070  14.282  1.00  0.00    -0.048 C 
HETATM   23  C19 UNL     1     -20.988  12.954  14.705  1.00  0.00    -0.011 C 
HETATM   24  C20 UNL     1     -21.861  14.030  15.152  1.00  0.00     0.048 A 
HETATM   25  C21 UNL     1     -23.222  13.518  15.736  1.00  0.00     0.149 A 
HETATM   26  C24 UNL     1     -22.137  14.199  16.569  1.00  0.00     0.057 A 
HETATM   27  C25 UNL     1     -22.585  15.588  16.971  1.00  0.00     0.155 C 
HETATM   28  C26 UNL     1     -21.570  16.379  17.716  1.00  0.00     0.162 C 
BRANCH  22  29
HETATM   29  C18 UNL     1     -19.093  11.808  13.758  1.00  0.00     0.152 C 
HETATM   30 CL1  UNL     1     -18.935  10.600  15.047  1.00  0.00    -0.126 Cl
ENDBRANCH  22  29
BRANCH  25  31
HETATM   31  O4  UNL     1     -24.356  14.220  15.337  1.00  0.00    -0.291 OA
BRANCH  31  32
HETATM   32  C22 UNL     1     -25.611  13.769  15.645  1.00  0.00     0.406 C 
HETATM   33  O5  UNL     1     -26.240  12.992  14.878  1.00  0.00    -0.230 OA
BRANCH  32  34
HETATM   34  O6  UNL     1     -26.258  14.151  16.834  1.00  0.00    -0.303 OA
HETATM   35  C23 UNL     1     -27.177  13.322  17.498  1.00  0.00     0.215 C 
ENDBRANCH  32  34
ENDBRANCH  31  32
ENDBRANCH  25  31
BRANCH  27  36
HETATM   36  O7  UNL     1     -23.080  16.321  15.900  1.00  0.00    -0.392 OA
ATOM     37  H7  UNL     1     -23.703  16.986  16.168  1.00  0.00     0.210 HD
ENDBRANCH  27  36
BRANCH  28  38
HETATM   38  O8  UNL     1     -22.071  17.647  17.974  1.00  0.00    -0.392 OA
ATOM     39  H8  UNL     1     -22.440  17.970  17.161  1.00  0.00     0.210 HD
ENDBRANCH  28  38
ENDBRANCH  14  15
ENDBRANCH  12  13
ENDBRANCH   9  12
ENDBRANCH   8   9
ENDBRANCH   5   8
ENDBRANCH   4   5
ENDBRANCH   3   4
BRANCH   3  40
HETATM   40  C27 UNL     1     -17.729  24.265  12.035  1.00  0.00     0.005 A 
HETATM   41  C28 UNL     1     -18.698  25.346  12.552  1.00  0.00     0.011 A 
HETATM   42  C29 UNL     1     -17.499  25.600  11.610  1.00  0.00    -0.013 A 
HETATM   43  C30 UNL     1     -17.872  26.291  10.358  1.00  0.00     0.010 C 
ENDBRANCH   3  40
TORSDOF 16
ENDMDL
MODEL 3
REMARK VINA RESULT: -8.527587481      2.597      4.325
REMARK  16 active torsions:
REMARK  status: ('A' for Active; 'I' for Inactive)
REMARK    1  A    between atoms: C3_3  and  C4_4 
REMARK    2  A    between atoms: C3_3  and  C27_40 
REMARK    3  A    between atoms: C4_4  and  C5_5 
REMARK    4  A    between atoms: C5_5  and  O1_6 
REMARK    5  A    between atoms: C5_5  and  C6_8 
REMARK    6  A    between atoms: C6_8  and  C7_9 
REMARK    7  A    between atoms: C7_9  and  O2_10 
REMARK    8  A    between atoms: C7_9  and  C8_12 
REMARK    9  A    between atoms: C8_12  and  C9_13 
REMARK   10  A    between atoms: C10_14  and  C11_15 
REMARK   11  A    between atoms: C17_22  and  C18_23 
REMARK   12  A    between atoms: C21_27  and  O4_28 
REMARK   13  A    between atoms: O4_28  and  C22_29 
REMARK   14  A    between atoms: C22_29  and  O6_31 
REMARK   15  A    between atoms: C25_34  and  O7_35 
REMARK   16  A    between atoms: C26_37  and  O8_38 
ROOT
HETATM    1  C1  UNL     1     -17.236  20.817  11.464  1.00  0.00     0.012 C 
HETATM    2  C2  UNL     1     -17.941  21.793  11.580  1.00  0.00    -0.112 C 
HETATM    3  C3  UNL     1     -18.743  22.967  11.729  1.00  0.00     0.071 C 
ENDROOT
BRANCH   3   4
HETATM    4  C4  UNL     1     -20.034  22.836  12.463  1.00  0.00     0.049 C 
BRANCH   4   5
HETATM    5  C5  UNL     1     -20.488  21.526  12.970  1.00  0.00     0.121 C 
BRANCH   5   6
HETATM    6  O1  UNL     1     -21.364  20.967  12.018  1.00  0.00    -0.395 OA
ATOM      7  H1  UNL     1     -21.353  20.023  12.125  1.00  0.00     0.210 HD
ENDBRANCH   5   6
BRANCH   5   8
HETATM    8  C6  UNL     1     -20.933  21.485  14.366  1.00  0.00     0.063 C 
BRANCH   8   9
HETATM    9  C7  UNL     1     -22.041  20.486  14.676  1.00  0.00     0.124 C 
BRANCH   9  10
HETATM   10  O2  UNL     1     -23.222  20.761  14.036  1.00  0.00    -0.395 OA
ATOM     11  H2  UNL     1     -23.991  20.544  14.550  1.00  0.00     0.210 HD
ENDBRANCH   9  10
BRANCH   9  12
HETATM   12  C8  UNL     1     -22.147  20.189  16.121  1.00  0.00     0.058 C 
BRANCH  12  13
HETATM   13  C9  UNL     1     -21.930  18.700  16.300  1.00  0.00    -0.027 C 
HETATM   14  C10 UNL     1     -22.775  17.840  15.778  1.00  0.00    -0.016 C 
BRANCH  14  15
HETATM   15  C11 UNL     1     -22.615  16.362  15.920  1.00  0.00     0.109 C 
HETATM   16  C12 UNL     1     -23.614  15.807  16.854  1.00  0.00     0.144 C 
HETATM   17  O3  UNL     1     -24.742  15.641  16.404  1.00  0.00    -0.296 OA
HETATM   18  C13 UNL     1     -23.344  15.451  18.254  1.00  0.00     0.074 C 
HETATM   19  C14 UNL     1     -23.830  14.056  18.586  1.00  0.00     0.022 C 
HETATM   20  C15 UNL     1     -22.034  15.802  18.780  1.00  0.00    -0.014 C 
HETATM   21  C16 UNL     1     -20.970  15.057  18.995  1.00  0.00     0.005 C 
HETATM   22  C17 UNL     1     -20.757  13.640  18.768  1.00  0.00    -0.048 C 
HETATM   23  C19 UNL     1     -20.574  13.056  17.580  1.00  0.00    -0.011 C 
HETATM   24  C20 UNL     1     -20.542  13.713  16.280  1.00  0.00     0.048 A 
HETATM   25  C21 UNL     1     -20.470  12.705  15.083  1.00  0.00     0.149 A 
HETATM   26  C24 UNL     1     -21.676  13.595  15.380  1.00  0.00     0.057 A 
HETATM   27  C25 UNL     1     -21.784  14.691  14.342  1.00  0.00     0.155 C 
HETATM   28  C26 UNL     1     -22.876  15.671  14.580  1.00  0.00     0.162 C 
BRANCH  22  29
HETATM   29  C18 UNL     1     -20.620  12.740  19.967  1.00  0.00     0.152 C 
HETATM   30 CL1  UNL     1     -21.676  13.283  21.286  1.00  0.00    -0.126 Cl
ENDBRANCH  22  29
BRANCH  25  31
HETATM   31  O4  UNL     1     -19.580  13.034  14.064  1.00  0.00    -0.291 OA
BRANCH  31  32
HETATM   32  C22 UNL     1     -18.243  12.767  14.180  1.00  0.00     0.406 C 
HETATM   33  O5  UNL     1     -17.798  11.589  14.137  1.00  0.00    -0.230 OA
BRANCH  32  34
HETATM   34  O6  UNL     1     -17.300  13.797  14.353  1.00  0.00    -0.303 OA
HETATM   35  C23 UNL     1     -16.520  13.924  15.515  1.00  0.00     0.215 C 
ENDBRANCH  32  34
ENDBRANCH  31  32
ENDBRANCH  25  31
BRANCH  27  36
HETATM   36  O7  UNL     1     -20.579  15.349  14.132  1.00  0.00    -0.392 OA
ATOM     37  H7  UNL     1     -20.436  16.057  14.751  1.00  0.00     0.210 HD
ENDBRANCH  27  36
BRANCH  28  38
HETATM   38  O8  UNL     1     -22.835  16.656  13.603  1.00  0.00    -0.392 OA
ATOM     39  H8  UNL     1     -21.972  16.619  13.209  1.00  0.00     0.210 HD
ENDBRANCH  28  38
ENDBRANCH  14  15
ENDBRANCH  12  13
ENDBRANCH   9  12
ENDBRANCH   8   9
ENDBRANCH   5   8
ENDBRANCH   4   5
ENDBRANCH   3   4
BRANCH   3  40
HETATM   40  C27 UNL     1     -18.000  24.113  12.314  1.00  0.00     0.005 A 
HETATM   41  C28 UNL     1     -18.932  25.259  12.755  1.00  0.00     0.011 A 
HETATM   42  C29 UNL     1     -17.692  25.417  11.844  1.00  0.00    -0.013 A 
HETATM   43  C30 UNL     1     -17.991  26.072  10.553  1.00  0.00     0.010 C 
ENDBRANCH   3  40
TORSDOF 16
ENDMDL
MODEL 4
REMARK VINA RESULT: -8.498959644      2.871      4.290
REMARK  16 active torsions:
REMARK  status: ('A' for Active; 'I' for Inactive)
REMARK    1  A    between atoms: C3_3  and  C4_4 
REMARK    2  A    between atoms: C3_3  and  C27_40 
REMARK    3  A    between atoms: C4_4  and  C5_5 
REMARK    4  A    between atoms: C5_5  and  O1_6 
REMARK    5  A    between atoms: C5_5  and  C6_8 
REMARK    6  A    between atoms: C6_8  and  C7_9 
REMARK    7  A    between atoms: C7_9  and  O2_10 
REMARK    8  A    between atoms: C7_9  and  C8_12 
REMARK    9  A    between atoms: C8_12  and  C9_13 
REMARK   10  A    between atoms: C10_14  and  C11_15 
REMARK   11  A    between atoms: C17_22  and  C18_23 
REMARK   12  A    between atoms: C21_27  and  O4_28 
REMARK   13  A    between atoms: O4_28  and  C22_29 
REMARK   14  A    between atoms: C22_29  and  O6_31 
REMARK   15  A    between atoms: C25_34  and  O7_35 
REMARK   16  A    between atoms: C26_37  and  O8_38 
ROOT
HETATM    1  C1  UNL     1     -16.820  21.030  11.050  1.00  0.00     0.012 C 
HETATM    2  C2  UNL     1     -17.580  21.942  11.284  1.00  0.00    -0.112 C 
HETATM    3  C3  UNL     1     -18.447  23.042  11.569  1.00  0.00     0.071 C 
ENDROOT
BRANCH   3   4
HETATM    4  C4  UNL     1     -19.639  22.781  12.426  1.00  0.00     0.049 C 
BRANCH   4   5
HETATM    5  C5  UNL     1     -19.771  21.516  13.175  1.00  0.00     0.121 C 
BRANCH   5   6
HETATM    6  O1  UNL     1     -21.116  21.101  13.099  1.00  0.00    -0.395 OA
ATOM      7  H1  UNL     1     -21.535  21.304  13.927  1.00  0.00     0.210 HD
ENDBRANCH   5   6
BRANCH   5   8
HETATM    8  C6  UNL     1     -19.152  21.476  14.503  1.00  0.00     0.063 C 
BRANCH   8   9
HETATM    9  C7  UNL     1     -19.721  20.441  15.466  1.00  0.00     0.124 C 
BRANCH   9  10
HETATM   10  O2  UNL     1     -20.689  20.941  16.299  1.00  0.00    -0.395 OA
ATOM     11  H2  UNL     1     -20.510  20.793  17.220  1.00  0.00     0.210 HD
ENDBRANCH   9  10
BRANCH   9  12
HETATM   12  C8  UNL     1     -18.666  19.635  16.118  1.00  0.00     0.058 C 
BRANCH  12  13
HETATM   13  C9  UNL     1     -19.202  18.227  16.283  1.00  0.00    -0.027 C 
HETATM   14  C10 UNL     1     -18.448  17.192  15.987  1.00  0.00    -0.016 C 
BRANCH  14  15
HETATM   15  C11 UNL     1     -18.919  15.783  16.128  1.00  0.00     0.109 C 
HETATM   16  C12 UNL     1     -19.315  15.222  14.822  1.00  0.00     0.144 C 
HETATM   17  O3  UNL     1     -18.402  14.843  14.096  1.00  0.00    -0.296 OA
HETATM   18  C13 UNL     1     -20.701  15.093  14.351  1.00  0.00     0.074 C 
HETATM   19  C14 UNL     1     -20.997  13.701  13.837  1.00  0.00     0.022 C 
HETATM   20  C15 UNL     1     -21.735  15.689  15.183  1.00  0.00    -0.014 C 
HETATM   21  C16 UNL     1     -22.584  15.134  16.022  1.00  0.00     0.005 C 
HETATM   22  C17 UNL     1     -22.758  13.742  16.395  1.00  0.00    -0.048 C 
HETATM   23  C19 UNL     1     -21.950  13.039  17.194  1.00  0.00    -0.011 C 
HETATM   24  C20 UNL     1     -20.744  13.517  17.855  1.00  0.00     0.048 A 
HETATM   25  C21 UNL     1     -19.950  12.380  18.585  1.00  0.00     0.149 A 
HETATM   26  C24 UNL     1     -19.438  13.126  17.353  1.00  0.00     0.057 A 
HETATM   27  C25 UNL     1     -18.303  14.050  17.738  1.00  0.00     0.155 C 
HETATM   28  C26 UNL     1     -17.781  14.892  16.630  1.00  0.00     0.162 C 
BRANCH  22  29
HETATM   29  C18 UNL     1     -24.009  13.036  15.942  1.00  0.00     0.152 C 
HETATM   30 CL1  UNL     1     -24.420  11.712  17.050  1.00  0.00    -0.126 Cl
ENDBRANCH  22  29
BRANCH  25  31
HETATM   31  O4  UNL     1     -19.470  12.693  19.854  1.00  0.00    -0.291 OA
BRANCH  31  32
HETATM   32  C22 UNL     1     -20.007  12.120  20.974  1.00  0.00     0.406 C 
HETATM   33  O5  UNL     1     -21.028  12.598  21.537  1.00  0.00    -0.230 OA
BRANCH  32  34
HETATM   34  O6  UNL     1     -19.445  10.966  21.550  1.00  0.00    -0.303 OA
HETATM   35  C23 UNL     1     -19.820   9.667  21.167  1.00  0.00     0.215 C 
ENDBRANCH  32  34
ENDBRANCH  31  32
ENDBRANCH  25  31
BRANCH  27  36
HETATM   36  O7  UNL     1     -18.605  14.836  18.843  1.00  0.00    -0.392 OA
ATOM     37  H7  UNL     1     -18.217  15.702  18.793  1.00  0.00     0.210 HD
ENDBRANCH  27  36
BRANCH  28  38
HETATM   38  O8  UNL     1     -16.792  15.736  17.116  1.00  0.00    -0.392 OA
ATOM     39  H8  UNL     1     -15.985  15.501  16.673  1.00  0.00     0.210 HD
ENDBRANCH  28  38
ENDBRANCH  14  15
ENDBRANCH  12  13
ENDBRANCH   9  12
ENDBRANCH   8   9
ENDBRANCH   5   8
ENDBRANCH   4   5
ENDBRANCH   3   4
BRANCH   3  40
HETATM   40  C27 UNL     1     -17.734  24.220  12.126  1.00  0.00     0.005 A 
HETATM   41  C28 UNL     1     -18.695  25.348  12.550  1.00  0.00     0.011 A 
HETATM   42  C29 UNL     1     -17.466  25.522  11.629  1.00  0.00    -0.013 A 
HETATM   43  C30 UNL     1     -17.791  26.143  10.327  1.00  0.00     0.010 C 
ENDBRANCH   3  40
TORSDOF 16
ENDMDL
MODEL 5
REMARK VINA RESULT: -8.468833626      1.348      1.549
REMARK  16 active torsions:
REMARK  status: ('A' for Active; 'I' for Inactive)
REMARK    1  A    between atoms: C3_3  and  C4_4 
REMARK    2  A    between atoms: C3_3  and  C27_40 
REMARK    3  A    between atoms: C4_4  and  C5_5 
REMARK    4  A    between atoms: C5_5  and  O1_6 
REMARK    5  A    between atoms: C5_5  and  C6_8 
REMARK    6  A    between atoms: C6_8  and  C7_9 
REMARK    7  A    between atoms: C7_9  and  O2_10 
REMARK    8  A    between atoms: C7_9  and  C8_12 
REMARK    9  A    between atoms: C8_12  and  C9_13 
REMARK   10  A    between atoms: C10_14  and  C11_15 
REMARK   11  A    between atoms: C17_22  and  C18_23 
REMARK   12  A    between atoms: C21_27  and  O4_28 
REMARK   13  A    between atoms: O4_28  and  C22_29 
REMARK   14  A    between atoms: C22_29  and  O6_31 
REMARK   15  A    between atoms: C25_34  and  O7_35 
REMARK   16  A    between atoms: C26_37  and  O8_38 
ROOT
HETATM    1  C1  UNL     1     -16.813  21.029  11.061  1.00  0.00     0.012 C 
HETATM    2  C2  UNL     1     -17.574  21.949  11.260  1.00  0.00    -0.112 C 
HETATM    3  C3  UNL     1     -18.441  23.058  11.507  1.00  0.00     0.071 C 
ENDROOT
BRANCH   3   4
HETATM    4  C4  UNL     1     -19.693  22.800  12.275  1.00  0.00     0.049 C 
BRANCH   4   5
HETATM    5  C5  UNL     1     -19.825  21.604  13.129  1.00  0.00     0.121 C 
BRANCH   5   6
HETATM    6  O1  UNL     1     -21.109  21.059  12.922  1.00  0.00    -0.395 OA
ATOM      7  H1  UNL     1     -21.022  20.310  12.343  1.00  0.00     0.210 HD
ENDBRANCH   5   6
BRANCH   5   8
HETATM    8  C6  UNL     1     -19.396  21.744  14.523  1.00  0.00     0.063 C 
BRANCH   8   9
HETATM    9  C7  UNL     1     -19.044  20.447  15.240  1.00  0.00     0.124 C 
BRANCH   9  10
HETATM   10  O2  UNL     1     -18.365  19.553  14.452  1.00  0.00    -0.395 OA
ATOM     11  H2  UNL     1     -18.616  18.649  14.601  1.00  0.00     0.210 HD
ENDBRANCH   9  10
BRANCH   9  12
HETATM   12  C8  UNL     1     -20.185  19.895  16.002  1.00  0.00     0.058 C 
BRANCH  12  13
HETATM   13  C9  UNL     1     -19.873  18.442  16.302  1.00  0.00    -0.027 C 
HETATM   14  C10 UNL     1     -20.845  17.596  16.563  1.00  0.00    -0.016 C 
BRANCH  14  15
HETATM   15  C11 UNL     1     -20.601  16.154  16.865  1.00  0.00     0.109 C 
HETATM   16  C12 UNL     1     -19.174  15.903  17.142  1.00  0.00     0.144 C 
HETATM   17  O3  UNL     1     -18.779  16.205  18.263  1.00  0.00    -0.296 OA
HETATM   18  C13 UNL     1     -18.222  15.330  16.181  1.00  0.00     0.074 C 
HETATM   19  C14 UNL     1     -17.441  14.179  16.777  1.00  0.00     0.022 C 
HETATM   20  C15 UNL     1     -18.703  15.126  14.823  1.00  0.00    -0.014 C 
HETATM   21  C16 UNL     1     -19.090  14.029  14.207  1.00  0.00     0.005 C 
HETATM   22  C17 UNL     1     -19.170  12.663  14.689  1.00  0.00    -0.048 C 
HETATM   23  C19 UNL     1     -20.096  12.180  15.523  1.00  0.00    -0.011 C 
HETATM   24  C20 UNL     1     -21.209  12.912  16.111  1.00  0.00     0.048 A 
HETATM   25  C21 UNL     1     -22.003  12.078  17.173  1.00  0.00     0.149 A 
HETATM   26  C24 UNL     1     -21.160  13.307  17.508  1.00  0.00     0.057 A 
HETATM   27  C25 UNL     1     -22.057  14.470  17.875  1.00  0.00     0.155 C 
HETATM   28  C26 UNL     1     -21.345  15.748  18.139  1.00  0.00     0.162 C 
BRANCH  22  29
HETATM   29  C18 UNL     1     -18.201  11.655  14.132  1.00  0.00     0.152 C 
HETATM   30 CL1  UNL     1     -17.631  10.558  15.405  1.00  0.00    -0.126 Cl
ENDBRANCH  22  29
BRANCH  25  31
HETATM   31  O4  UNL     1     -23.391  12.167  17.101  1.00  0.00    -0.291 OA
BRANCH  31  32
HETATM   32  C22 UNL     1     -24.185  11.099  17.418  1.00  0.00     0.406 C 
HETATM   33  O5  UNL     1     -23.913  10.335  18.382  1.00  0.00    -0.230 OA
BRANCH  32  34
HETATM   34  O6  UNL     1     -25.346  10.803  16.681  1.00  0.00    -0.303 OA
HETATM   35  C23 UNL     1     -26.575  10.499  17.290  1.00  0.00     0.215 C 
ENDBRANCH  32  34
ENDBRANCH  31  32
ENDBRANCH  25  31
BRANCH  27  36
HETATM   36  O7  UNL     1     -23.080  14.666  16.955  1.00  0.00    -0.392 OA
ATOM     37  H7  UNL     1     -23.326  13.866  16.505  1.00  0.00     0.210 HD
ENDBRANCH  27  36
BRANCH  28  38
HETATM   38  O8  UNL     1     -22.272  16.748  18.402  1.00  0.00    -0.392 OA
ATOM     39  H8  UNL     1     -22.847  16.420  19.083  1.00  0.00     0.210 HD
ENDBRANCH  28  38
ENDBRANCH  14  15
ENDBRANCH  12  13
ENDBRANCH   9  12
ENDBRANCH   8   9
ENDBRANCH   5   8
ENDBRANCH   4   5
ENDBRANCH   3   4
BRANCH   3  40
HETATM   40  C27 UNL     1     -17.750  24.213  12.136  1.00  0.00     0.005 A 
HETATM   41  C28 UNL     1     -18.734  25.276  12.663  1.00  0.00     0.011 A 
HETATM   42  C29 UNL     1     -17.533  25.557  11.731  1.00  0.00    -0.013 A 
HETATM   43  C30 UNL     1     -17.908  26.262  10.487  1.00  0.00     0.010 C 
ENDBRANCH   3  40
TORSDOF 16
ENDMDL
