MODEL 1
REMARK VINA RESULT: -8.758648096      0.000      0.000
REMARK  13 active torsions:
REMARK  status: ('A' for Active; 'I' for Inactive)
REMARK       I    between atoms: C2_2  and  N1_4 
REMARK    1  A    between atoms: N1_4  and  C4_6 
REMARK    2  A    between atoms: C4_6  and  O2_7 
REMARK    3  A    between atoms: C4_6  and  C5_9 
REMARK    4  A    between atoms: C5_9  and  C6_10 
REMARK    5  A    between atoms: C6_10  and  C7_11 
REMARK    6  A    between atoms: C13_17  and  O3_18 
REMARK    7  A    between atoms: C13_17  and  C14_20 
REMARK    8  A    between atoms: C14_20  and  N2_21 
REMARK    9  A    between atoms: C14_20  and  N3_29 
REMARK   10  A    between atoms: N2_21  and  C15_23 
REMARK   11  A    between atoms: N3_29  and  S1_31 
REMARK   12  A    between atoms: S1_31  and  C21_34 
REMARK   13  A    between atoms: C26_40  and  O6_41 
ROOT
HETATM    1  C14 UNL     1     -21.891  21.535  14.894  1.00  0.00     0.246 C 
ENDROOT
BRANCH   1   2
HETATM    2  C13 UNL     1     -21.849  20.090  14.835  1.00  0.00     0.092 C 
HETATM    3  C6  UNL     1     -21.411  19.037  15.721  1.00  0.00    -0.017 C 
BRANCH   3   4
HETATM    4  C5  UNL     1     -20.144  19.322  16.437  1.00  0.00     0.066 C 
BRANCH   4   5
HETATM    5  C4  UNL     1     -18.917  18.573  16.211  1.00  0.00     0.144 C 
BRANCH   5   6
HETATM    6  N1  UNL     1     -17.875  18.211  17.081  1.00  0.00    -0.303 N 
HETATM    7  C2  UNL     1     -17.612  17.041  17.777  1.00  0.00     0.221 C 
HETATM    8  C1  UNL     1     -18.428  15.833  17.770  1.00  0.00     0.117 C 
HETATM    9  O1  UNL     1     -16.553  16.989  18.504  1.00  0.00    -0.273 OA
HETATM   10  C3  UNL     1     -16.830  19.275  17.298  1.00  0.00     0.161 C 
ENDBRANCH   5   6
BRANCH   5  11
HETATM   11  O2  UNL     1     -18.727  18.145  14.991  1.00  0.00    -0.346 OA
ATOM     12  H2  UNL     1     -19.438  18.378  14.405  1.00  0.00     0.219 HD
ENDBRANCH   5  11
ENDBRANCH   4   5
ENDBRANCH   3   4
BRANCH   3  13
HETATM   13  C7  UNL     1     -22.398  18.198  16.464  1.00  0.00     0.021 C 
HETATM   14  C8  UNL     1     -22.963  18.964  17.632  1.00  0.00     0.009 C 
HETATM   15  C9  UNL     1     -22.777  18.141  18.945  1.00  0.00     0.001 C 
HETATM   16  C10 UNL     1     -23.571  16.884  18.904  1.00  0.00     0.000 C 
HETATM   17  C11 UNL     1     -23.349  16.268  17.551  1.00  0.00     0.001 C 
HETATM   18  C12 UNL     1     -22.048  16.855  16.917  1.00  0.00     0.009 C 
ENDBRANCH   3  13
BRANCH   2  19
HETATM   19  O3  UNL     1     -23.002  19.594  14.118  1.00  0.00    -0.360 OA
ATOM     20  H3  UNL     1     -22.680  19.054  13.406  1.00  0.00     0.217 HD
ENDBRANCH   2  19
ENDBRANCH   1   2
BRANCH   1  21
HETATM   21  N2  UNL     1     -21.483  22.365  15.927  1.00  0.00    -0.392 N 
ATOM     22  H2  UNL     1     -20.599  22.864  15.837  1.00  0.00     0.156 HD
BRANCH  21  23
HETATM   23  C15 UNL     1     -22.240  22.539  17.086  1.00  0.00     0.079 C 
HETATM   24  C16 UNL     1     -23.760  22.551  16.837  1.00  0.00     0.024 C 
HETATM   25  C17 UNL     1     -24.409  22.384  18.192  1.00  0.00     0.002 C 
HETATM   26  C18 UNL     1     -24.164  23.696  18.952  1.00  0.00     0.000 C 
HETATM   27  C19 UNL     1     -22.659  23.780  19.149  1.00  0.00     0.002 C 
HETATM   28  C20 UNL     1     -21.962  23.866  17.799  1.00  0.00     0.024 C 
ENDBRANCH  21  23
ENDBRANCH   1  21
BRANCH   1  29
HETATM   29  N3  UNL     1     -21.063  22.017  13.737  1.00  0.00    -0.288 N 
ATOM     30  H3  UNL     1     -21.511  22.399  12.903  1.00  0.00     0.175 HD
BRANCH  29  31
HETATM   31  S1  UNL     1     -19.420  21.919  13.833  1.00  0.00     0.263 S 
HETATM   32  O4  UNL     1     -18.764  20.591  13.600  1.00  0.00    -0.200 OA
HETATM   33  O5  UNL     1     -18.870  22.365  15.185  1.00  0.00    -0.200 OA
BRANCH  31  34
HETATM   34  C21 UNL     1     -18.666  23.030  12.697  1.00  0.00     0.112 A 
HETATM   35  C22 UNL     1     -17.967  22.599  11.597  1.00  0.00     0.030 A 
HETATM   36  C23 UNL     1     -17.396  23.536  10.765  1.00  0.00     0.025 A 
HETATM   37  C24 UNL     1     -17.513  24.880  11.018  1.00  0.00     0.036 A 
HETATM   38 CL1  UNL     1     -16.765  26.050   9.928  1.00  0.00    -0.084 Cl
HETATM   39  C25 UNL     1     -18.206  25.330  12.110  1.00  0.00     0.061 A 
HETATM   40  C26 UNL     1     -18.791  24.390  12.963  1.00  0.00     0.090 A 
BRANCH  40  41
HETATM   41  O6  UNL     1     -19.481  24.894  14.054  1.00  0.00    -0.359 OA
ATOM     42  H6  UNL     1     -20.389  25.169  14.019  1.00  0.00     0.217 HD
ENDBRANCH  40  41
ENDBRANCH  31  34
ENDBRANCH  29  31
ENDBRANCH   1  29
TORSDOF 13
ENDMDL
MODEL 2
REMARK VINA RESULT: -8.594929650      0.838      1.697
REMARK  13 active torsions:
REMARK  status: ('A' for Active; 'I' for Inactive)
REMARK       I    between atoms: C2_2  and  N1_4 
REMARK    1  A    between atoms: N1_4  and  C4_6 
REMARK    2  A    between atoms: C4_6  and  O2_7 
REMARK    3  A    between atoms: C4_6  and  C5_9 
REMARK    4  A    between atoms: C5_9  and  C6_10 
REMARK    5  A    between atoms: C6_10  and  C7_11 
REMARK    6  A    between atoms: C13_17  and  O3_18 
REMARK    7  A    between atoms: C13_17  and  C14_20 
REMARK    8  A    between atoms: C14_20  and  N2_21 
REMARK    9  A    between atoms: C14_20  and  N3_29 
REMARK   10  A    between atoms: N2_21  and  C15_23 
REMARK   11  A    between atoms: N3_29  and  S1_31 
REMARK   12  A    between atoms: S1_31  and  C21_34 
REMARK   13  A    between atoms: C26_40  and  O6_41 
ROOT
HETATM    1  C14 UNL     1     -22.004  21.597  14.794  1.00  0.00     0.246 C 
ENDROOT
BRANCH   1   2
HETATM    2  C13 UNL     1     -22.104  20.153  14.827  1.00  0.00     0.092 C 
HETATM    3  C6  UNL     1     -21.788  19.123  15.787  1.00  0.00    -0.017 C 
BRANCH   3   4
HETATM    4  C5  UNL     1     -20.511  19.328  16.513  1.00  0.00     0.066 C 
BRANCH   4   5
HETATM    5  C4  UNL     1     -19.277  18.640  16.164  1.00  0.00     0.144 C 
BRANCH   5   6
HETATM    6  N1  UNL     1     -18.512  17.693  16.863  1.00  0.00    -0.303 N 
HETATM    7  C2  UNL     1     -17.186  17.690  17.272  1.00  0.00     0.221 C 
HETATM    8  C1  UNL     1     -16.211  18.748  17.036  1.00  0.00     0.117 C 
HETATM    9  O1  UNL     1     -16.750  16.671  17.922  1.00  0.00    -0.273 OA
HETATM   10  C3  UNL     1     -19.257  16.448  17.270  1.00  0.00     0.161 C 
ENDBRANCH   5   6
BRANCH   5  11
HETATM   11  O2  UNL     1     -18.773  18.934  14.995  1.00  0.00    -0.346 OA
ATOM     12  H2  UNL     1     -19.336  19.505  14.485  1.00  0.00     0.219 HD
ENDBRANCH   5  11
ENDBRANCH   4   5
ENDBRANCH   3   4
BRANCH   3  13
HETATM   13  C7  UNL     1     -22.866  18.433  16.558  1.00  0.00     0.021 C 
HETATM   14  C8  UNL     1     -22.910  18.950  17.972  1.00  0.00     0.009 C 
HETATM   15  C9  UNL     1     -22.807  17.759  18.975  1.00  0.00     0.001 C 
HETATM   16  C10 UNL     1     -23.990  16.865  18.867  1.00  0.00     0.000 C 
HETATM   17  C11 UNL     1     -24.239  16.641  17.401  1.00  0.00     0.001 C 
HETATM   18  C12 UNL     1     -22.943  16.976  16.595  1.00  0.00     0.009 C 
ENDBRANCH   3  13
BRANCH   2  19
HETATM   19  O3  UNL     1     -23.288  19.727  14.116  1.00  0.00    -0.360 OA
ATOM     20  H3  UNL     1     -24.039  20.049  14.600  1.00  0.00     0.217 HD
ENDBRANCH   2  19
ENDBRANCH   1   2
BRANCH   1  21
HETATM   21  N2  UNL     1     -21.658  22.457  15.825  1.00  0.00    -0.392 N 
ATOM     22  H2  UNL     1     -20.834  23.047  15.717  1.00  0.00     0.156 HD
BRANCH  21  23
HETATM   23  C15 UNL     1     -22.398  22.543  17.004  1.00  0.00     0.079 C 
HETATM   24  C16 UNL     1     -23.919  22.638  16.775  1.00  0.00     0.024 C 
HETATM   25  C17 UNL     1     -24.563  22.361  18.115  1.00  0.00     0.002 C 
HETATM   26  C18 UNL     1     -24.261  23.579  18.999  1.00  0.00     0.000 C 
HETATM   27  C19 UNL     1     -22.751  23.586  19.186  1.00  0.00     0.002 C 
HETATM   28  C20 UNL     1     -22.063  23.780  17.842  1.00  0.00     0.024 C 
ENDBRANCH  21  23
ENDBRANCH   1  21
BRANCH   1  29
HETATM   29  N3  UNL     1     -20.981  21.913  13.741  1.00  0.00    -0.288 N 
ATOM     30  H3  UNL     1     -21.161  21.692  12.761  1.00  0.00     0.175 HD
BRANCH  29  31
HETATM   31  S1  UNL     1     -19.563  22.622  14.192  1.00  0.00     0.263 S 
HETATM   32  O4  UNL     1     -18.721  21.948  15.235  1.00  0.00    -0.200 OA
HETATM   33  O5  UNL     1     -19.743  24.038  14.729  1.00  0.00    -0.200 OA
BRANCH  31  34
HETATM   34  C21 UNL     1     -18.510  22.842  12.800  1.00  0.00     0.112 A 
HETATM   35  C22 UNL     1     -18.190  24.082  12.306  1.00  0.00     0.030 A 
HETATM   36  C23 UNL     1     -17.369  24.164  11.203  1.00  0.00     0.025 A 
HETATM   37  C24 UNL     1     -16.872  23.037  10.597  1.00  0.00     0.036 A 
HETATM   38 CL1  UNL     1     -15.823  23.185   9.185  1.00  0.00    -0.084 Cl
HETATM   39  C25 UNL     1     -17.180  21.791  11.076  1.00  0.00     0.061 A 
HETATM   40  C26 UNL     1     -18.012  21.693  12.195  1.00  0.00     0.090 A 
BRANCH  40  41
HETATM   41  O6  UNL     1     -18.295  20.411  12.640  1.00  0.00    -0.359 OA
ATOM     42  H6  UNL     1     -18.659  19.732  12.085  1.00  0.00     0.217 HD
ENDBRANCH  40  41
ENDBRANCH  31  34
ENDBRANCH  29  31
ENDBRANCH   1  29
TORSDOF 13
ENDMDL
MODEL 3
REMARK VINA RESULT: -8.488473343      1.939      4.891
REMARK  13 active torsions:
REMARK  status: ('A' for Active; 'I' for Inactive)
REMARK       I    between atoms: C2_2  and  N1_4 
REMARK    1  A    between atoms: N1_4  and  C4_6 
REMARK    2  A    between atoms: C4_6  and  O2_7 
REMARK    3  A    between atoms: C4_6  and  C5_9 
REMARK    4  A    between atoms: C5_9  and  C6_10 
REMARK    5  A    between atoms: C6_10  and  C7_11 
REMARK    6  A    between atoms: C13_17  and  O3_18 
REMARK    7  A    between atoms: C13_17  and  C14_20 
REMARK    8  A    between atoms: C14_20  and  N2_21 
REMARK    9  A    between atoms: C14_20  and  N3_29 
REMARK   10  A    between atoms: N2_21  and  C15_23 
REMARK   11  A    between atoms: N3_29  and  S1_31 
REMARK   12  A    between atoms: S1_31  and  C21_34 
REMARK   13  A    between atoms: C26_40  and  O6_41 
ROOT
HETATM    1  C14 UNL     1     -19.652  20.859  15.377  1.00  0.00     0.246 C 
ENDROOT
BRANCH   1   2
HETATM    2  C13 UNL     1     -21.039  21.264  15.455  1.00  0.00     0.092 C 
HETATM    3  C6  UNL     1     -22.181  20.872  16.246  1.00  0.00    -0.017 C 
BRANCH   3   4
HETATM    4  C5  UNL     1     -22.307  19.411  16.463  1.00  0.00     0.066 C 
BRANCH   4   5
HETATM    5  C4  UNL     1     -23.028  18.530  15.556  1.00  0.00     0.144 C 
BRANCH   5   6
HETATM    6  N1  UNL     1     -23.497  17.215  15.715  1.00  0.00    -0.303 N 
HETATM    7  C2  UNL     1     -24.223  16.604  16.725  1.00  0.00     0.221 C 
HETATM    8  C1  UNL     1     -24.690  17.238  17.953  1.00  0.00     0.117 C 
HETATM    9  O1  UNL     1     -24.529  15.364  16.593  1.00  0.00    -0.273 OA
HETATM   10  C3  UNL     1     -23.174  16.284  14.574  1.00  0.00     0.161 C 
ENDBRANCH   5   6
BRANCH   5  11
HETATM   11  O2  UNL     1     -23.307  19.028  14.381  1.00  0.00    -0.346 OA
ATOM     12  H2  UNL     1     -22.744  19.757  14.148  1.00  0.00     0.219 HD
ENDBRANCH   5  11
ENDBRANCH   4   5
ENDBRANCH   3   4
BRANCH   3  13
HETATM   13  C7  UNL     1     -22.680  21.736  17.358  1.00  0.00     0.021 C 
HETATM   14  C8  UNL     1     -23.556  20.937  18.288  1.00  0.00     0.009 C 
HETATM   15  C9  UNL     1     -24.937  21.645  18.453  1.00  0.00     0.001 C 
HETATM   16  C10 UNL     1     -24.785  22.965  19.122  1.00  0.00     0.000 C 
HETATM   17  C11 UNL     1     -23.619  23.655  18.473  1.00  0.00     0.001 C 
HETATM   18  C12 UNL     1     -23.339  23.008  17.079  1.00  0.00     0.009 C 
ENDBRANCH   3  13
BRANCH   2  19
HETATM   19  O3  UNL     1     -21.149  22.686  15.220  1.00  0.00    -0.360 OA
ATOM     20  H3  UNL     1     -20.403  22.943  14.690  1.00  0.00     0.217 HD
ENDBRANCH   2  19
ENDBRANCH   1   2
BRANCH   1  21
HETATM   21  N2  UNL     1     -19.128  19.684  14.861  1.00  0.00    -0.392 N 
ATOM     22  H2  UNL     1     -19.430  19.374  13.937  1.00  0.00     0.156 HD
BRANCH  21  23
HETATM   23  C15 UNL     1     -18.204  18.909  15.561  1.00  0.00     0.079 C 
HETATM   24  C16 UNL     1     -18.838  17.737  16.334  1.00  0.00     0.024 C 
HETATM   25  C17 UNL     1     -17.698  16.820  16.717  1.00  0.00     0.002 C 
HETATM   26  C18 UNL     1     -16.893  17.562  17.795  1.00  0.00     0.000 C 
HETATM   27  C19 UNL     1     -16.312  18.785  17.104  1.00  0.00     0.002 C 
HETATM   28  C20 UNL     1     -17.436  19.695  16.628  1.00  0.00     0.024 C 
ENDBRANCH  21  23
ENDBRANCH   1  21
BRANCH   1  29
HETATM   29  N3  UNL     1     -18.962  21.915  14.560  1.00  0.00    -0.288 N 
ATOM     30  H3  UNL     1     -18.555  22.735  15.011  1.00  0.00     0.175 HD
BRANCH  29  31
HETATM   31  S1  UNL     1     -18.872  21.729  12.925  1.00  0.00     0.263 S 
HETATM   32  O4  UNL     1     -20.096  21.279  12.184  1.00  0.00    -0.200 OA
HETATM   33  O5  UNL     1     -17.798  20.736  12.491  1.00  0.00    -0.200 OA
BRANCH  31  34
HETATM   34  C21 UNL     1     -18.375  23.231  12.156  1.00  0.00     0.112 A 
HETATM   35  C22 UNL     1     -17.649  23.260  10.993  1.00  0.00     0.030 A 
HETATM   36  C23 UNL     1     -17.290  24.481  10.465  1.00  0.00     0.025 A 
HETATM   37  C24 UNL     1     -17.644  25.656  11.080  1.00  0.00     0.036 A 
HETATM   38 CL1  UNL     1     -17.163  27.200  10.373  1.00  0.00    -0.084 Cl
HETATM   39  C25 UNL     1     -18.369  25.647  12.242  1.00  0.00     0.061 A 
HETATM   40  C26 UNL     1     -18.740  24.416  12.788  1.00  0.00     0.090 A 
BRANCH  40  41
HETATM   41  O6  UNL     1     -19.472  24.460  13.964  1.00  0.00    -0.359 OA
ATOM     42  H6  UNL     1     -20.275  24.958  14.064  1.00  0.00     0.217 HD
ENDBRANCH  40  41
ENDBRANCH  31  34
ENDBRANCH  29  31
ENDBRANCH   1  29
TORSDOF 13
ENDMDL
MODEL 4
REMARK VINA RESULT: -8.486031960      1.036      1.437
REMARK  13 active torsions:
REMARK  status: ('A' for Active; 'I' for Inactive)
REMARK       I    between atoms: C2_2  and  N1_4 
REMARK    1  A    between atoms: N1_4  and  C4_6 
REMARK    2  A    between atoms: C4_6  and  O2_7 
REMARK    3  A    between atoms: C4_6  and  C5_9 
REMARK    4  A    between atoms: C5_9  and  C6_10 
REMARK    5  A    between atoms: C6_10  and  C7_11 
REMARK    6  A    between atoms: C13_17  and  O3_18 
REMARK    7  A    between atoms: C13_17  and  C14_20 
REMARK    8  A    between atoms: C14_20  and  N2_21 
REMARK    9  A    between atoms: C14_20  and  N3_29 
REMARK   10  A    between atoms: N2_21  and  C15_23 
REMARK   11  A    between atoms: N3_29  and  S1_31 
REMARK   12  A    between atoms: S1_31  and  C21_34 
REMARK   13  A    between atoms: C26_40  and  O6_41 
ROOT
HETATM    1  C14 UNL     1     -21.389  22.124  15.172  1.00  0.00     0.246 C 
ENDROOT
BRANCH   1   2
HETATM    2  C13 UNL     1     -21.495  20.705  14.908  1.00  0.00     0.092 C 
HETATM    3  C6  UNL     1     -21.251  19.498  15.662  1.00  0.00    -0.017 C 
BRANCH   3   4
HETATM    4  C5  UNL     1     -20.029  19.532  16.501  1.00  0.00     0.066 C 
BRANCH   4   5
HETATM    5  C4  UNL     1     -18.809  18.815  16.160  1.00  0.00     0.144 C 
BRANCH   5   6
HETATM    6  N1  UNL     1     -17.917  18.071  16.949  1.00  0.00    -0.303 N 
HETATM    7  C2  UNL     1     -18.034  16.836  17.568  1.00  0.00     0.221 C 
HETATM    8  C1  UNL     1     -19.207  15.971  17.546  1.00  0.00     0.117 C 
HETATM    9  O1  UNL     1     -17.028  16.387  18.230  1.00  0.00    -0.273 OA
HETATM   10  C3  UNL     1     -16.569  18.711  17.159  1.00  0.00     0.161 C 
ENDBRANCH   5   6
BRANCH   5  11
HETATM   11  O2  UNL     1     -18.461  18.850  14.901  1.00  0.00    -0.346 OA
ATOM     12  H2  UNL     1     -18.122  18.018  14.591  1.00  0.00     0.219 HD
ENDBRANCH   5  11
ENDBRANCH   4   5
ENDBRANCH   3   4
BRANCH   3  13
HETATM   13  C7  UNL     1     -22.383  18.687  16.202  1.00  0.00     0.021 C 
HETATM   14  C8  UNL     1     -22.569  18.962  17.672  1.00  0.00     0.009 C 
HETATM   15  C9  UNL     1     -22.538  17.620  18.469  1.00  0.00     0.001 C 
HETATM   16  C10 UNL     1     -23.689  16.753  18.103  1.00  0.00     0.000 C 
HETATM   17  C11 UNL     1     -23.796  16.776  16.603  1.00  0.00     0.001 C 
HETATM   18  C12 UNL     1     -22.437  17.244  15.990  1.00  0.00     0.009 C 
ENDBRANCH   3  13
BRANCH   2  19
HETATM   19  O3  UNL     1     -22.626  20.449  14.046  1.00  0.00    -0.360 OA
ATOM     20  H3  UNL     1     -22.288  20.076  13.241  1.00  0.00     0.217 HD
ENDBRANCH   2  19
ENDBRANCH   1   2
BRANCH   1  21
HETATM   21  N2  UNL     1     -21.532  22.785  16.383  1.00  0.00    -0.392 N 
ATOM     22  H2  UNL     1     -20.854  23.503  16.634  1.00  0.00     0.156 HD
BRANCH  21  23
HETATM   23  C15 UNL     1     -22.572  22.501  17.269  1.00  0.00     0.079 C 
HETATM   24  C16 UNL     1     -23.972  22.615  16.637  1.00  0.00     0.024 C 
HETATM   25  C17 UNL     1     -24.923  21.939  17.599  1.00  0.00     0.002 C 
HETATM   26  C18 UNL     1     -25.013  22.854  18.829  1.00  0.00     0.000 C 
HETATM   27  C19 UNL     1     -23.623  22.848  19.447  1.00  0.00     0.002 C 
HETATM   28  C20 UNL     1     -22.620  23.447  18.472  1.00  0.00     0.024 C 
ENDBRANCH  21  23
ENDBRANCH   1  21
BRANCH   1  29
HETATM   29  N3  UNL     1     -20.005  22.518  14.742  1.00  0.00    -0.288 N 
ATOM     30  H3  UNL     1     -19.404  23.061  15.363  1.00  0.00     0.175 HD
BRANCH  29  31
HETATM   31  S1  UNL     1     -19.470  22.061  13.251  1.00  0.00     0.263 S 
HETATM   32  O4  UNL     1     -20.454  21.473  12.283  1.00  0.00    -0.200 OA
HETATM   33  O5  UNL     1     -18.350  21.026  13.305  1.00  0.00    -0.200 OA
BRANCH  31  34
HETATM   34  C21 UNL     1     -18.732  23.420  12.413  1.00  0.00     0.112 A 
HETATM   35  C22 UNL     1     -18.920  24.720  12.809  1.00  0.00     0.030 A 
HETATM   36  C23 UNL     1     -18.315  25.727  12.088  1.00  0.00     0.025 A 
HETATM   37  C24 UNL     1     -17.537  25.450  10.991  1.00  0.00     0.036 A 
HETATM   38 CL1  UNL     1     -16.780  26.768  10.094  1.00  0.00    -0.084 Cl
HETATM   39  C25 UNL     1     -17.338  24.159  10.582  1.00  0.00     0.061 A 
HETATM   40  C26 UNL     1     -17.945  23.128  11.304  1.00  0.00     0.090 A 
BRANCH  40  41
HETATM   41  O6  UNL     1     -17.715  21.839  10.850  1.00  0.00    -0.359 OA
ATOM     42  H6  UNL     1     -17.900  21.062  11.363  1.00  0.00     0.217 HD
ENDBRANCH  40  41
ENDBRANCH  31  34
ENDBRANCH  29  31
ENDBRANCH   1  29
TORSDOF 13
ENDMDL
MODEL 5
REMARK VINA RESULT: -8.480888293      2.743      4.188
REMARK  13 active torsions:
REMARK  status: ('A' for Active; 'I' for Inactive)
REMARK       I    between atoms: C2_2  and  N1_4 
REMARK    1  A    between atoms: N1_4  and  C4_6 
REMARK    2  A    between atoms: C4_6  and  O2_7 
REMARK    3  A    between atoms: C4_6  and  C5_9 
REMARK    4  A    between atoms: C5_9  and  C6_10 
REMARK    5  A    between atoms: C6_10  and  C7_11 
REMARK    6  A    between atoms: C13_17  and  O3_18 
REMARK    7  A    between atoms: C13_17  and  C14_20 
REMARK    8  A    between atoms: C14_20  and  N2_21 
REMARK    9  A    between atoms: C14_20  and  N3_29 
REMARK   10  A    between atoms: N2_21  and  C15_23 
REMARK   11  A    between atoms: N3_29  and  S1_31 
REMARK   12  A    between atoms: S1_31  and  C21_34 
REMARK   13  A    between atoms: C26_40  and  O6_41 
ROOT
HETATM    1  C14 UNL     1     -20.631  19.125  15.799  1.00  0.00     0.246 C 
ENDROOT
BRANCH   1   2
HETATM    2  C13 UNL     1     -19.808  17.947  15.974  1.00  0.00     0.092 C 
HETATM    3  C6  UNL     1     -20.056  16.532  16.120  1.00  0.00    -0.017 C 
BRANCH   3   4
HETATM    4  C5  UNL     1     -21.209  16.195  16.989  1.00  0.00     0.066 C 
BRANCH   4   5
HETATM    5  C4  UNL     1     -21.095  15.354  18.171  1.00  0.00     0.144 C 
BRANCH   5   6
HETATM    6  N1  UNL     1     -20.697  14.016  18.324  1.00  0.00    -0.303 N 
HETATM    7  C2  UNL     1     -19.464  13.439  18.589  1.00  0.00     0.221 C 
HETATM    8  C1  UNL     1     -18.204  14.148  18.770  1.00  0.00     0.117 C 
HETATM    9  O1  UNL     1     -19.399  12.159  18.691  1.00  0.00    -0.273 OA
HETATM   10  C3  UNL     1     -21.807  13.004  18.198  1.00  0.00     0.161 C 
ENDBRANCH   5   6
BRANCH   5  11
HETATM   11  O2  UNL     1     -21.408  15.921  19.306  1.00  0.00    -0.346 OA
ATOM     12  H2  UNL     1     -21.483  16.866  19.237  1.00  0.00     0.219 HD
ENDBRANCH   5  11
ENDBRANCH   4   5
ENDBRANCH   3   4
BRANCH   3  13
HETATM   13  C7  UNL     1     -19.798  15.586  14.993  1.00  0.00     0.021 C 
HETATM   14  C8  UNL     1     -21.084  14.935  14.553  1.00  0.00     0.009 C 
HETATM   15  C9  UNL     1     -20.926  13.382  14.576  1.00  0.00     0.001 C 
HETATM   16  C10 UNL     1     -19.918  12.933  13.578  1.00  0.00     0.000 C 
HETATM   17  C11 UNL     1     -18.733  13.847  13.709  1.00  0.00     0.001 C 
HETATM   18  C12 UNL     1     -18.771  14.556  15.101  1.00  0.00     0.009 C 
ENDBRANCH   3  13
BRANCH   2  19
HETATM   19  O3  UNL     1     -18.579  18.091  15.226  1.00  0.00    -0.360 OA
ATOM     20  H3  UNL     1     -18.416  19.022  15.130  1.00  0.00     0.217 HD
ENDBRANCH   2  19
ENDBRANCH   1   2
BRANCH   1  21
HETATM   21  N2  UNL     1     -21.307  19.851  16.767  1.00  0.00    -0.392 N 
ATOM     22  H2  UNL     1     -20.805  20.576  17.278  1.00  0.00     0.156 HD
BRANCH  21  23
HETATM   23  C15 UNL     1     -22.651  19.624  17.066  1.00  0.00     0.079 C 
HETATM   24  C16 UNL     1     -23.458  19.045  15.889  1.00  0.00     0.024 C 
HETATM   25  C17 UNL     1     -24.753  18.534  16.478  1.00  0.00     0.002 C 
HETATM   26  C18 UNL     1     -25.560  19.775  16.885  1.00  0.00     0.000 C 
HETATM   27  C19 UNL     1     -24.759  20.440  17.994  1.00  0.00     0.002 C 
HETATM   28  C20 UNL     1     -23.410  20.895  17.457  1.00  0.00     0.024 C 
ENDBRANCH  21  23
ENDBRANCH   1  21
BRANCH   1  29
HETATM   29  N3  UNL     1     -19.739  20.158  15.172  1.00  0.00    -0.288 N 
ATOM     30  H3  UNL     1     -18.771  19.935  14.941  1.00  0.00     0.175 HD
BRANCH  29  31
HETATM   31  S1  UNL     1     -20.347  21.659  14.865  1.00  0.00     0.263 S 
HETATM   32  O4  UNL     1     -20.607  22.580  16.020  1.00  0.00    -0.200 OA
HETATM   33  O5  UNL     1     -21.678  21.627  14.119  1.00  0.00    -0.200 OA
BRANCH  31  34
HETATM   34  C21 UNL     1     -19.288  22.547  13.777  1.00  0.00     0.112 A 
HETATM   35  C22 UNL     1     -18.808  23.797  14.072  1.00  0.00     0.030 A 
HETATM   36  C23 UNL     1     -17.993  24.428  13.157  1.00  0.00     0.025 A 
HETATM   37  C24 UNL     1     -17.660  23.830  11.966  1.00  0.00     0.036 A 
HETATM   38 CL1  UNL     1     -16.616  24.672  10.820  1.00  0.00    -0.084 Cl
HETATM   39  C25 UNL     1     -18.131  22.582  11.655  1.00  0.00     0.061 A 
HETATM   40  C26 UNL     1     -18.957  21.930  12.574  1.00  0.00     0.090 A 
BRANCH  40  41
HETATM   41  O6  UNL     1     -19.407  20.671  12.212  1.00  0.00    -0.359 OA
ATOM     42  H6  UNL     1     -19.583  20.415  11.314  1.00  0.00     0.217 HD
ENDBRANCH  40  41
ENDBRANCH  31  34
ENDBRANCH  29  31
ENDBRANCH   1  29
TORSDOF 13
ENDMDL
