MODEL 1
REMARK VINA RESULT: -8.197529815      0.000      0.000
REMARK  12 active torsions:
REMARK  status: ('A' for Active; 'I' for Inactive)
REMARK    1  A    between atoms: C2_2  and  N1_4 
REMARK    2  A    between atoms: C4_5  and  C5_6 
REMARK    3  A    between atoms: C14_17  and  S1_18 
REMARK    4  A    between atoms: S1_18  and  N3_21 
REMARK    5  A    between atoms: N3_21  and  C15_23 
REMARK    6  A    between atoms: C15_23  and  C16_24 
REMARK    7  A    between atoms: C19_27  and  N4_28 
REMARK    8  A    between atoms: N4_28  and  O3_29 
REMARK    9  A    between atoms: N4_28  and  C20_31 
REMARK   10  A    between atoms: C20_31  and  C21_32 
REMARK   11  A    between atoms: C21_32  and  O4_33 
REMARK   12  A    between atoms: C22_35  and  O5_36 
ROOT
HETATM    1  S1  UNL     1     -21.058  20.489  15.626  1.00  0.00     0.259 S 
HETATM    2  O1  UNL     1     -22.324  20.809  14.915  1.00  0.00    -0.201 OA
HETATM    3  O2  UNL     1     -20.712  21.657  16.512  1.00  0.00    -0.201 OA
ENDROOT
BRANCH   1   4
HETATM    4  C14 UNL     1     -21.167  18.999  16.469  1.00  0.00     0.092 A 
HETATM    5  C9  UNL     1     -22.107  18.775  17.436  1.00  0.00     0.017 A 
HETATM    6  C8  UNL     1     -23.082  19.786  17.771  1.00  0.00     0.080 A 
HETATM    7  C10 UNL     1     -22.123  17.540  18.095  1.00  0.00     0.015 A 
HETATM    8  N2  UNL     1     -22.900  21.038  18.194  1.00  0.00    -0.342 N 
HETATM    9  C24 UNL     1     -24.470  19.624  17.691  1.00  0.00     0.111 A 
HETATM   10  C4  UNL     1     -24.069  21.669  18.383  1.00  0.00     0.089 A 
ATOM     11  H2  UNL     1     -21.986  21.462  18.353  1.00  0.00     0.167 HD
HETATM   12  N1  UNL     1     -25.027  20.786  18.069  1.00  0.00    -0.324 N 
HETATM   13 BR1  UNL     1     -25.370  18.015  17.135  1.00  0.00    -0.029 Br
HETATM   14  C11 UNL     1     -21.230  16.533  17.811  1.00  0.00     0.001 A 
HETATM   15  C12 UNL     1     -20.296  16.789  16.832  1.00  0.00     0.002 A 
HETATM   16  C13 UNL     1     -20.252  17.983  16.169  1.00  0.00     0.026 A 
BRANCH  10  17
HETATM   17  C5  UNL     1     -24.191  23.073  18.837  1.00  0.00     0.054 A 
HETATM   18  C6  UNL     1     -23.576  24.125  17.921  1.00  0.00     0.013 A 
HETATM   19  C7  UNL     1     -22.962  23.828  19.239  1.00  0.00     0.013 A 
ENDBRANCH  10  17
BRANCH  12  20
HETATM   20  C2  UNL     1     -26.459  21.009  18.117  1.00  0.00     0.084 C 
HETATM   21  C1  UNL     1     -26.892  22.026  17.075  1.00  0.00     0.032 C 
HETATM   22  C3  UNL     1     -26.971  21.353  19.492  1.00  0.00     0.032 C 
ENDBRANCH  12  20
ENDBRANCH   1   4
BRANCH   1  23
HETATM   23  N3  UNL     1     -19.732  20.390  14.488  1.00  0.00    -0.315 N 
ATOM     24  H3  UNL     1     -18.903  19.810  14.616  1.00  0.00     0.172 HD
BRANCH  23  25
HETATM   25  C15 UNL     1     -19.964  21.230  13.355  1.00  0.00     0.137 C 
BRANCH  25  26
HETATM   26  C16 UNL     1     -18.797  22.112  13.038  1.00  0.00     0.006 C 
HETATM   27  C17 UNL     1     -18.316  21.863  11.648  1.00  0.00     0.008 C 
HETATM   28  C18 UNL     1     -17.197  22.831  11.260  1.00  0.00     0.025 C 
HETATM   29  C19 UNL     1     -17.831  24.210  11.348  1.00  0.00     0.114 C 
HETATM   30  C22 UNL     1     -18.086  24.504  12.800  1.00  0.00     0.138 C 
HETATM   31  C23 UNL     1     -19.179  23.557  13.275  1.00  0.00     0.039 C 
BRANCH  29  32
HETATM   32  N4  UNL     1     -17.099  25.220  10.654  1.00  0.00    -0.191 NA
BRANCH  32  33
HETATM   33  O3  UNL     1     -17.875  26.229  10.224  1.00  0.00    -0.313 OA
ATOM     34  H3  UNL     1     -17.385  27.022  10.039  1.00  0.00     0.237 HD
ENDBRANCH  32  33
BRANCH  32  35
HETATM   35  C20 UNL     1     -16.245  24.766   9.605  1.00  0.00     0.147 C 
BRANCH  35  36
HETATM   36  C21 UNL     1     -16.915  25.177   8.287  1.00  0.00     0.181 C 
BRANCH  36  37
HETATM   37  O4  UNL     1     -16.195  26.196   7.703  1.00  0.00    -0.400 OA
ATOM     38  H4  UNL     1     -15.506  25.827   7.163  1.00  0.00     0.209 HD
ENDBRANCH  36  37
ENDBRANCH  35  36
ENDBRANCH  32  35
ENDBRANCH  29  32
BRANCH  30  39
HETATM   39  O5  UNL     1     -18.633  25.792  12.916  1.00  0.00    -0.394 OA
ATOM     40  H5  UNL     1     -17.939  26.405  13.127  1.00  0.00     0.210 HD
ENDBRANCH  30  39
ENDBRANCH  25  26
ENDBRANCH  23  25
ENDBRANCH   1  23
TORSDOF 12
ENDMDL
MODEL 2
REMARK VINA RESULT: -8.150469402      0.948      1.332
REMARK  12 active torsions:
REMARK  status: ('A' for Active; 'I' for Inactive)
REMARK    1  A    between atoms: C2_2  and  N1_4 
REMARK    2  A    between atoms: C4_5  and  C5_6 
REMARK    3  A    between atoms: C14_17  and  S1_18 
REMARK    4  A    between atoms: S1_18  and  N3_21 
REMARK    5  A    between atoms: N3_21  and  C15_23 
REMARK    6  A    between atoms: C15_23  and  C16_24 
REMARK    7  A    between atoms: C19_27  and  N4_28 
REMARK    8  A    between atoms: N4_28  and  O3_29 
REMARK    9  A    between atoms: N4_28  and  C20_31 
REMARK   10  A    between atoms: C20_31  and  C21_32 
REMARK   11  A    between atoms: C21_32  and  O4_33 
REMARK   12  A    between atoms: C22_35  and  O5_36 
ROOT
HETATM    1  S1  UNL     1     -21.228  20.851  15.554  1.00  0.00     0.259 S 
HETATM    2  O1  UNL     1     -22.549  21.180  14.956  1.00  0.00    -0.201 OA
HETATM    3  O2  UNL     1     -20.834  21.984  16.465  1.00  0.00    -0.201 OA
ENDROOT
BRANCH   1   4
HETATM    4  C14 UNL     1     -21.251  19.323  16.334  1.00  0.00     0.092 A 
HETATM    5  C9  UNL     1     -22.154  19.017  17.312  1.00  0.00     0.017 A 
HETATM    6  C8  UNL     1     -23.162  19.968  17.715  1.00  0.00     0.080 A 
HETATM    7  C10 UNL     1     -22.100  17.755  17.916  1.00  0.00     0.015 A 
HETATM    8  N2  UNL     1     -23.023  21.208  18.189  1.00  0.00    -0.342 N 
HETATM    9  C24 UNL     1     -24.544  19.749  17.663  1.00  0.00     0.111 A 
HETATM   10  C4  UNL     1     -24.212  21.778  18.435  1.00  0.00     0.089 A 
ATOM     11  H2  UNL     1     -22.123  21.664  18.344  1.00  0.00     0.167 HD
HETATM   12  N1  UNL     1     -25.140  20.869  18.106  1.00  0.00    -0.324 N 
HETATM   13 BR1  UNL     1     -25.389  18.128  17.059  1.00  0.00    -0.029 Br
HETATM   14  C11 UNL     1     -21.173  16.801  17.566  1.00  0.00     0.001 A 
HETATM   15  C12 UNL     1     -20.278  17.139  16.577  1.00  0.00     0.002 A 
HETATM   16  C13 UNL     1     -20.302  18.361  15.967  1.00  0.00     0.026 A 
BRANCH  10  17
HETATM   17  C5  UNL     1     -24.382  23.154  18.953  1.00  0.00     0.054 A 
HETATM   18  C6  UNL     1     -23.539  24.230  18.277  1.00  0.00     0.013 A 
HETATM   19  C7  UNL     1     -23.248  23.817  19.672  1.00  0.00     0.013 A 
ENDBRANCH  10  17
BRANCH  12  20
HETATM   20  C2  UNL     1     -26.578  21.027  18.199  1.00  0.00     0.084 C 
HETATM   21  C1  UNL     1     -27.089  22.022  17.172  1.00  0.00     0.032 C 
HETATM   22  C3  UNL     1     -27.062  21.347  19.590  1.00  0.00     0.032 C 
ENDBRANCH  12  20
ENDBRANCH   1   4
BRANCH   1  23
HETATM   23  N3  UNL     1     -19.990  20.828  14.317  1.00  0.00    -0.315 N 
ATOM     24  H3  UNL     1     -19.900  20.105  13.604  1.00  0.00     0.172 HD
BRANCH  23  25
HETATM   25  C15 UNL     1     -19.123  21.957  14.439  1.00  0.00     0.137 C 
BRANCH  25  26
HETATM   26  C16 UNL     1     -19.065  22.781  13.190  1.00  0.00     0.006 C 
HETATM   27  C17 UNL     1     -18.656  24.181  13.505  1.00  0.00     0.008 C 
HETATM   28  C18 UNL     1     -18.479  25.013  12.235  1.00  0.00     0.025 C 
HETATM   29  C19 UNL     1     -17.369  24.312  11.466  1.00  0.00     0.114 C 
HETATM   30  C22 UNL     1     -17.913  22.999  10.974  1.00  0.00     0.138 C 
HETATM   31  C23 UNL     1     -18.144  22.113  12.191  1.00  0.00     0.039 C 
BRANCH  29  32
HETATM   32  N4  UNL     1     -16.772  25.126  10.456  1.00  0.00    -0.191 NA
BRANCH  32  33
HETATM   33  O3  UNL     1     -15.840  25.963  10.940  1.00  0.00    -0.313 OA
ATOM     34  H3  UNL     1     -14.960  25.743  10.655  1.00  0.00     0.237 HD
ENDBRANCH  32  33
BRANCH  32  35
HETATM   35  C20 UNL     1     -17.675  25.825   9.600  1.00  0.00     0.147 C 
BRANCH  35  36
HETATM   36  C21 UNL     1     -17.239  25.517   8.161  1.00  0.00     0.181 C 
BRANCH  36  37
HETATM   37  O4  UNL     1     -16.109  26.245   7.858  1.00  0.00    -0.400 OA
ATOM     38  H4  UNL     1     -16.028  26.326   6.915  1.00  0.00     0.209 HD
ENDBRANCH  36  37
ENDBRANCH  35  36
ENDBRANCH  32  35
ENDBRANCH  29  32
BRANCH  30  39
HETATM   39  O5  UNL     1     -16.922  22.347  10.222  1.00  0.00    -0.394 OA
ATOM     40  H5  UNL     1     -16.759  21.492  10.601  1.00  0.00     0.210 HD
ENDBRANCH  30  39
ENDBRANCH  25  26
ENDBRANCH  23  25
ENDBRANCH   1  23
TORSDOF 12
ENDMDL
MODEL 3
REMARK VINA RESULT: -8.103919255      1.353      1.784
REMARK  12 active torsions:
REMARK  status: ('A' for Active; 'I' for Inactive)
REMARK    1  A    between atoms: C2_2  and  N1_4 
REMARK    2  A    between atoms: C4_5  and  C5_6 
REMARK    3  A    between atoms: C14_17  and  S1_18 
REMARK    4  A    between atoms: S1_18  and  N3_21 
REMARK    5  A    between atoms: N3_21  and  C15_23 
REMARK    6  A    between atoms: C15_23  and  C16_24 
REMARK    7  A    between atoms: C19_27  and  N4_28 
REMARK    8  A    between atoms: N4_28  and  O3_29 
REMARK    9  A    between atoms: N4_28  and  C20_31 
REMARK   10  A    between atoms: C20_31  and  C21_32 
REMARK   11  A    between atoms: C21_32  and  O4_33 
REMARK   12  A    between atoms: C22_35  and  O5_36 
ROOT
HETATM    1  S1  UNL     1     -21.451  21.147  15.783  1.00  0.00     0.259 S 
HETATM    2  O1  UNL     1     -22.701  21.664  15.166  1.00  0.00    -0.201 OA
HETATM    3  O2  UNL     1     -20.934  22.193  16.736  1.00  0.00    -0.201 OA
ENDROOT
BRANCH   1   4
HETATM    4  C14 UNL     1     -21.696  19.615  16.516  1.00  0.00     0.092 A 
HETATM    5  C9  UNL     1     -22.628  19.416  17.495  1.00  0.00     0.017 A 
HETATM    6  C8  UNL     1     -23.480  20.493  17.939  1.00  0.00     0.080 A 
HETATM    7  C10 UNL     1     -22.758  18.142  18.060  1.00  0.00     0.015 A 
HETATM    8  N2  UNL     1     -23.154  21.683  18.448  1.00  0.00    -0.342 N 
HETATM    9  C24 UNL     1     -24.880  20.484  17.896  1.00  0.00     0.111 A 
HETATM   10  C4  UNL     1     -24.244  22.416  18.725  1.00  0.00     0.089 A 
ATOM     11  H2  UNL     1     -22.196  21.996  18.607  1.00  0.00     0.167 HD
HETATM   12  N1  UNL     1     -25.299  21.665  18.379  1.00  0.00    -0.324 N 
HETATM   13 BR1  UNL     1     -25.960  19.027  17.253  1.00  0.00    -0.029 Br
HETATM   14  C11 UNL     1     -21.986  17.072  17.671  1.00  0.00     0.001 A 
HETATM   15  C12 UNL     1     -21.057  17.304  16.682  1.00  0.00     0.002 A 
HETATM   16  C13 UNL     1     -20.904  18.535  16.109  1.00  0.00     0.026 A 
BRANCH  10  17
HETATM   17  C5  UNL     1     -24.203  23.785  19.287  1.00  0.00     0.054 A 
HETATM   18  C6  UNL     1     -23.499  23.932  20.631  1.00  0.00     0.013 A 
HETATM   19  C7  UNL     1     -24.971  24.094  20.534  1.00  0.00     0.013 A 
ENDBRANCH  10  17
BRANCH  12  20
HETATM   20  C2  UNL     1     -26.696  22.032  18.494  1.00  0.00     0.084 C 
HETATM   21  C1  UNL     1     -27.387  21.232  19.584  1.00  0.00     0.032 C 
HETATM   22  C3  UNL     1     -27.445  21.975  17.186  1.00  0.00     0.032 C 
ENDBRANCH  12  20
ENDBRANCH   1   4
BRANCH   1  23
HETATM   23  N3  UNL     1     -20.196  20.992  14.574  1.00  0.00    -0.315 N 
ATOM     24  H3  UNL     1     -20.100  20.200  13.939  1.00  0.00     0.172 HD
BRANCH  23  25
HETATM   25  C15 UNL     1     -19.322  22.123  14.594  1.00  0.00     0.137 C 
BRANCH  25  26
HETATM   26  C16 UNL     1     -19.163  22.757  13.247  1.00  0.00     0.006 C 
HETATM   27  C17 UNL     1     -18.635  24.146  13.381  1.00  0.00     0.008 C 
HETATM   28  C18 UNL     1     -18.356  24.774  12.015  1.00  0.00     0.025 C 
HETATM   29  C19 UNL     1     -17.299  23.879  11.387  1.00  0.00     0.114 C 
HETATM   30  C22 UNL     1     -17.949  22.563  11.062  1.00  0.00     0.138 C 
HETATM   31  C23 UNL     1     -18.286  21.879  12.380  1.00  0.00     0.039 C 
BRANCH  29  32
HETATM   32  N4  UNL     1     -16.608  24.489  10.297  1.00  0.00    -0.191 NA
BRANCH  32  33
HETATM   33  O3  UNL     1     -15.435  23.897  10.021  1.00  0.00    -0.313 OA
ATOM     34  H3  UNL     1     -15.138  23.321  10.716  1.00  0.00     0.237 HD
ENDBRANCH  32  33
BRANCH  32  35
HETATM   35  C20 UNL     1     -16.449  25.905  10.371  1.00  0.00     0.147 C 
BRANCH  35  36
HETATM   36  C21 UNL     1     -16.932  26.469   9.027  1.00  0.00     0.181 C 
BRANCH  36  37
HETATM   37  O4  UNL     1     -16.046  26.112   8.034  1.00  0.00    -0.400 OA
ATOM     38  H4  UNL     1     -15.718  25.237   8.202  1.00  0.00     0.209 HD
ENDBRANCH  36  37
ENDBRANCH  35  36
ENDBRANCH  32  35
ENDBRANCH  29  32
BRANCH  30  39
HETATM   39  O5  UNL     1     -17.007  21.728  10.439  1.00  0.00    -0.394 OA
ATOM     40  H5  UNL     1     -17.461  21.009  10.018  1.00  0.00     0.210 HD
ENDBRANCH  30  39
ENDBRANCH  25  26
ENDBRANCH  23  25
ENDBRANCH   1  23
TORSDOF 12
ENDMDL
MODEL 4
REMARK VINA RESULT: -7.970569776      2.444      5.233
REMARK  12 active torsions:
REMARK  status: ('A' for Active; 'I' for Inactive)
REMARK    1  A    between atoms: C2_2  and  N1_4 
REMARK    2  A    between atoms: C4_5  and  C5_6 
REMARK    3  A    between atoms: C14_17  and  S1_18 
REMARK    4  A    between atoms: S1_18  and  N3_21 
REMARK    5  A    between atoms: N3_21  and  C15_23 
REMARK    6  A    between atoms: C15_23  and  C16_24 
REMARK    7  A    between atoms: C19_27  and  N4_28 
REMARK    8  A    between atoms: N4_28  and  O3_29 
REMARK    9  A    between atoms: N4_28  and  C20_31 
REMARK   10  A    between atoms: C20_31  and  C21_32 
REMARK   11  A    between atoms: C21_32  and  O4_33 
REMARK   12  A    between atoms: C22_35  and  O5_36 
ROOT
HETATM    1  S1  UNL     1     -19.747  20.255  16.036  1.00  0.00     0.259 S 
HETATM    2  O1  UNL     1     -19.370  21.621  16.487  1.00  0.00    -0.201 OA
HETATM    3  O2  UNL     1     -18.957  19.261  16.847  1.00  0.00    -0.201 OA
ENDROOT
BRANCH   1   4
HETATM    4  C14 UNL     1     -21.444  20.010  16.118  1.00  0.00     0.092 A 
HETATM    5  C9  UNL     1     -21.995  18.769  16.271  1.00  0.00     0.017 A 
HETATM    6  C8  UNL     1     -21.161  17.598  16.404  1.00  0.00     0.080 A 
HETATM    7  C10 UNL     1     -23.389  18.644  16.311  1.00  0.00     0.015 A 
HETATM    8  N2  UNL     1     -20.230  17.117  15.578  1.00  0.00    -0.342 N 
HETATM    9  C24 UNL     1     -21.173  16.719  17.494  1.00  0.00     0.111 A 
HETATM   10  C4  UNL     1     -19.661  16.006  16.070  1.00  0.00     0.089 A 
ATOM     11  H2  UNL     1     -19.982  17.542  14.683  1.00  0.00     0.167 HD
HETATM   12  N1  UNL     1     -20.251  15.773  17.250  1.00  0.00    -0.324 N 
HETATM   13 BR1  UNL     1     -22.316  16.878  19.035  1.00  0.00    -0.029 Br
HETATM   14  C11 UNL     1     -24.235  19.723  16.204  1.00  0.00     0.001 A 
HETATM   15  C12 UNL     1     -23.650  20.960  16.053  1.00  0.00     0.002 A 
HETATM   16  C13 UNL     1     -22.294  21.117  16.009  1.00  0.00     0.026 A 
BRANCH  10  17
HETATM   17  C5  UNL     1     -18.586  15.252  15.387  1.00  0.00     0.054 A 
HETATM   18  C6  UNL     1     -18.884  14.814  13.958  1.00  0.00     0.013 A 
HETATM   19  C7  UNL     1     -18.798  13.809  15.046  1.00  0.00     0.013 A 
ENDBRANCH  10  17
BRANCH  12  20
HETATM   20  C2  UNL     1     -19.969  14.679  18.158  1.00  0.00     0.084 C 
HETATM   21  C1  UNL     1     -18.479  14.558  18.427  1.00  0.00     0.032 C 
HETATM   22  C3  UNL     1     -20.577  13.368  17.731  1.00  0.00     0.032 C 
ENDBRANCH  12  20
ENDBRANCH   1   4
BRANCH   1  23
HETATM   23  N3  UNL     1     -19.225  19.994  14.387  1.00  0.00    -0.315 N 
ATOM     24  H3  UNL     1     -18.672  19.196  14.075  1.00  0.00     0.172 HD
BRANCH  23  25
HETATM   25  C15 UNL     1     -19.677  21.047  13.533  1.00  0.00     0.137 C 
BRANCH  25  26
HETATM   26  C16 UNL     1     -18.573  21.968  13.114  1.00  0.00     0.006 C 
HETATM   27  C17 UNL     1     -18.191  21.716  11.695  1.00  0.00     0.008 C 
HETATM   28  C18 UNL     1     -17.145  22.719  11.208  1.00  0.00     0.025 C 
HETATM   29  C19 UNL     1     -17.826  24.074  11.326  1.00  0.00     0.114 C 
HETATM   30  C22 UNL     1     -17.980  24.382  12.789  1.00  0.00     0.138 C 
HETATM   31  C23 UNL     1     -18.994  23.401  13.361  1.00  0.00     0.039 C 
BRANCH  29  32
HETATM   32  N4  UNL     1     -17.190  25.100  10.564  1.00  0.00    -0.191 NA
BRANCH  32  33
HETATM   33  O3  UNL     1     -18.035  26.074  10.187  1.00  0.00    -0.313 OA
ATOM     34  H3  UNL     1     -17.599  26.903  10.029  1.00  0.00     0.237 HD
ENDBRANCH  32  33
BRANCH  32  35
HETATM   35  C20 UNL     1     -16.406  24.662   9.454  1.00  0.00     0.147 C 
BRANCH  35  36
HETATM   36  C21 UNL     1     -17.034  25.289   8.202  1.00  0.00     0.181 C 
BRANCH  36  37
HETATM   37  O4  UNL     1     -16.186  26.251   7.696  1.00  0.00    -0.400 OA
ATOM     38  H4  UNL     1     -16.085  26.124   6.761  1.00  0.00     0.209 HD
ENDBRANCH  36  37
ENDBRANCH  35  36
ENDBRANCH  32  35
ENDBRANCH  29  32
BRANCH  30  39
HETATM   39  O5  UNL     1     -18.568  25.650  12.930  1.00  0.00    -0.394 OA
ATOM     40  H5  UNL     1     -17.983  26.208  13.430  1.00  0.00     0.210 HD
ENDBRANCH  30  39
ENDBRANCH  25  26
ENDBRANCH  23  25
ENDBRANCH   1  23
TORSDOF 12
ENDMDL
MODEL 5
REMARK VINA RESULT: -7.901038718      2.384      3.816
REMARK  12 active torsions:
REMARK  status: ('A' for Active; 'I' for Inactive)
REMARK    1  A    between atoms: C2_2  and  N1_4 
REMARK    2  A    between atoms: C4_5  and  C5_6 
REMARK    3  A    between atoms: C14_17  and  S1_18 
REMARK    4  A    between atoms: S1_18  and  N3_21 
REMARK    5  A    between atoms: N3_21  and  C15_23 
REMARK    6  A    between atoms: C15_23  and  C16_24 
REMARK    7  A    between atoms: C19_27  and  N4_28 
REMARK    8  A    between atoms: N4_28  and  O3_29 
REMARK    9  A    between atoms: N4_28  and  C20_31 
REMARK   10  A    between atoms: C20_31  and  C21_32 
REMARK   11  A    between atoms: C21_32  and  O4_33 
REMARK   12  A    between atoms: C22_35  and  O5_36 
ROOT
HETATM    1  S1  UNL     1     -19.546  20.902  15.664  1.00  0.00     0.259 S 
HETATM    2  O1  UNL     1     -20.496  20.324  14.676  1.00  0.00    -0.201 OA
HETATM    3  O2  UNL     1     -20.347  21.644  16.702  1.00  0.00    -0.201 OA
ENDROOT
BRANCH   1   4
HETATM    4  C14 UNL     1     -18.515  19.701  16.326  1.00  0.00     0.092 A 
HETATM    5  C9  UNL     1     -18.996  18.530  16.841  1.00  0.00     0.017 A 
HETATM    6  C8  UNL     1     -20.409  18.237  16.823  1.00  0.00     0.080 A 
HETATM    7  C10 UNL     1     -18.095  17.605  17.381  1.00  0.00     0.015 A 
HETATM    8  N2  UNL     1     -21.428  18.922  17.344  1.00  0.00    -0.342 N 
HETATM    9  C24 UNL     1     -20.993  17.124  16.205  1.00  0.00     0.111 A 
HETATM   10  C4  UNL     1     -22.603  18.321  17.098  1.00  0.00     0.089 A 
ATOM     11  H2  UNL     1     -21.327  19.793  17.866  1.00  0.00     0.167 HD
HETATM   12  N1  UNL     1     -22.320  17.216  16.395  1.00  0.00    -0.324 N 
HETATM   13 BR1  UNL     1     -20.033  15.745  15.266  1.00  0.00    -0.029 Br
HETATM   14  C11 UNL     1     -16.737  17.821  17.416  1.00  0.00     0.001 A 
HETATM   15  C12 UNL     1     -16.283  19.008  16.887  1.00  0.00     0.002 A 
HETATM   16  C13 UNL     1     -17.135  19.933  16.353  1.00  0.00     0.026 A 
BRANCH  10  17
HETATM   17  C5  UNL     1     -23.914  18.849  17.538  1.00  0.00     0.054 A 
HETATM   18  C6  UNL     1     -24.698  19.639  16.496  1.00  0.00     0.013 A 
HETATM   19  C7  UNL     1     -24.108  20.328  17.670  1.00  0.00     0.013 A 
ENDBRANCH  10  17
BRANCH  12  20
HETATM   20  C2  UNL     1     -23.268  16.240  15.897  1.00  0.00     0.084 C 
HETATM   21  C1  UNL     1     -23.108  14.906  16.605  1.00  0.00     0.032 C 
HETATM   22  C3  UNL     1     -23.251  16.093  14.397  1.00  0.00     0.032 C 
ENDBRANCH  12  20
ENDBRANCH   1   4
BRANCH   1  23
HETATM   23  N3  UNL     1     -18.557  22.131  14.907  1.00  0.00    -0.315 N 
ATOM     24  H3  UNL     1     -17.543  22.078  14.811  1.00  0.00     0.172 HD
BRANCH  23  25
HETATM   25  C15 UNL     1     -19.358  23.220  14.442  1.00  0.00     0.137 C 
BRANCH  25  26
HETATM   26  C16 UNL     1     -19.076  23.579  13.017  1.00  0.00     0.006 C 
HETATM   27  C17 UNL     1     -18.582  24.983  12.919  1.00  0.00     0.008 C 
HETATM   28  C18 UNL     1     -18.179  25.338  11.487  1.00  0.00     0.025 C 
HETATM   29  C19 UNL     1     -17.055  24.370  11.151  1.00  0.00     0.114 C 
HETATM   30  C22 UNL     1     -17.653  22.996  11.037  1.00  0.00     0.138 C 
HETATM   31  C23 UNL     1     -18.108  22.576  12.428  1.00  0.00     0.039 C 
BRANCH  29  32
HETATM   32  N4  UNL     1     -16.270  24.774  10.030  1.00  0.00    -0.191 NA
BRANCH  32  33
HETATM   33  O3  UNL     1     -15.983  26.087  10.035  1.00  0.00    -0.313 OA
ATOM     34  H3  UNL     1     -15.075  26.269   9.824  1.00  0.00     0.237 HD
ENDBRANCH  32  33
BRANCH  32  35
HETATM   35  C20 UNL     1     -16.755  24.374   8.748  1.00  0.00     0.147 C 
BRANCH  35  36
HETATM   36  C21 UNL     1     -17.197  25.656   8.029  1.00  0.00     0.181 C 
BRANCH  36  37
HETATM   37  O4  UNL     1     -16.153  26.139   7.270  1.00  0.00    -0.400 OA
ATOM     38  H4  UNL     1     -16.189  25.757   6.402  1.00  0.00     0.209 HD
ENDBRANCH  36  37
ENDBRANCH  35  36
ENDBRANCH  32  35
ENDBRANCH  29  32
BRANCH  30  39
HETATM   39  O5  UNL     1     -16.644  22.086  10.684  1.00  0.00    -0.394 OA
ATOM     40  H5  UNL     1     -16.686  21.925   9.749  1.00  0.00     0.210 HD
ENDBRANCH  30  39
ENDBRANCH  25  26
ENDBRANCH  23  25
ENDBRANCH   1  23
TORSDOF 12
ENDMDL
