MODEL 1
REMARK VINA RESULT: -8.393933417      0.000      0.000
REMARK  11 active torsions:
REMARK  status: ('A' for Active; 'I' for Inactive)
REMARK    1  A    between atoms: C2_2  and  C3_3 
REMARK    2  A    between atoms: C3_3  and  S1_4 
REMARK    3  A    between atoms: S1_4  and  C4_5 
REMARK    4  A    between atoms: C6_8  and  C7_9 
REMARK    5  A    between atoms: C7_9  and  C8_10 
REMARK    6  A    between atoms: C8_10  and  O2_11 
REMARK    7  A    between atoms: C8_10  and  C9_13 
REMARK    8  A    between atoms: C9_13  and  N1_14 
REMARK       I    between atoms: N1_14  and  C10_16 
REMARK       I    between atoms: C10_16  and  N2_18 
REMARK    9  A    between atoms: N2_18  and  C11_20 
REMARK   10  A    between atoms: C17_26  and  N3_27 
REMARK       I    between atoms: N3_27  and  C18_29 
REMARK   11  A    between atoms: C18_29  and  C19_31 
ROOT
HETATM    1  C4  UNL     1     -23.403  15.851  16.829  1.00  0.00     0.096 C 
HETATM    2  C5  UNL     1     -23.090  16.326  18.231  1.00  0.00     0.185 C 
HETATM    3  O1  UNL     1     -22.220  17.403  18.092  1.00  0.00    -0.382 OA
HETATM    4  C6  UNL     1     -22.130  17.729  16.765  1.00  0.00     0.147 C 
HETATM    5  C17 UNL     1     -22.248  16.378  16.066  1.00  0.00     0.129 C 
ENDROOT
BRANCH   4   6
HETATM    6  C7  UNL     1     -20.966  18.512  16.363  1.00  0.00     0.067 C 
BRANCH   6   7
HETATM    7  C8  UNL     1     -21.394  19.974  16.138  1.00  0.00     0.138 C 
BRANCH   7   8
HETATM    8  O2  UNL     1     -22.137  20.422  17.209  1.00  0.00    -0.394 OA
ATOM      9  H2  UNL     1     -21.934  19.912  17.985  1.00  0.00     0.210 HD
ENDBRANCH   7   8
BRANCH   7  10
HETATM   10  C9  UNL     1     -20.283  20.842  15.681  1.00  0.00     0.156 C 
BRANCH  10  11
HETATM   11  N1  UNL     1     -19.840  20.726  14.342  1.00  0.00    -0.340 N 
HETATM   12  C10 UNL     1     -19.051  21.651  13.587  1.00  0.00     0.320 C 
HETATM   13  O3  UNL     1     -18.711  22.692  14.151  1.00  0.00    -0.247 OA
HETATM   14  N2  UNL     1     -18.683  21.377  12.262  1.00  0.00    -0.309 N 
ATOM     15  H2  UNL     1     -18.990  20.488  11.867  1.00  0.00     0.170 HD
ATOM     16  H1  UNL     1     -20.118  19.876  13.852  1.00  0.00     0.164 HD
BRANCH  14  17
HETATM   17  C11 UNL     1     -17.934  22.214  11.440  1.00  0.00     0.036 A 
HETATM   18  C12 UNL     1     -18.482  23.417  10.953  1.00  0.00     0.029 A 
HETATM   19  C13 UNL     1     -17.786  24.288  10.162  1.00  0.00     0.002 A 
HETATM   20  C14 UNL     1     -16.486  24.018   9.800  1.00  0.00     0.000 A 
HETATM   21  C15 UNL     1     -15.918  22.853  10.256  1.00  0.00     0.002 A 
HETATM   22  C16 UNL     1     -16.642  21.971  11.065  1.00  0.00     0.029 A 
ENDBRANCH  14  17
ENDBRANCH  10  11
ENDBRANCH   7  10
ENDBRANCH   6   7
ENDBRANCH   4   6
BRANCH   5  23
HETATM   23  N3  UNL     1     -21.058  15.626  16.065  1.00  0.00    -0.351 N 
HETATM   24  C18 UNL     1     -20.495  14.916  14.983  1.00  0.00     0.248 C 
HETATM   25  O4  UNL     1     -21.123  14.961  13.898  1.00  0.00    -0.271 OA
ATOM     26  H3  UNL     1     -20.545  15.589  16.946  1.00  0.00     0.163 HD
BRANCH  24  27
HETATM   27  C19 UNL     1     -19.266  14.146  15.009  1.00  0.00     0.137 C 
HETATM   28  C20 UNL     1     -18.826  13.953  13.563  1.00  0.00     0.051 C 
HETATM   29  C21 UNL     1     -18.137  14.865  15.772  1.00  0.00     0.188 C 
HETATM   30 CL1  UNL     1     -18.461  14.893  17.493  1.00  0.00    -0.110 Cl
HETATM   31  S2  UNL     1     -16.864  13.557  15.498  1.00  0.00    -0.077 SA
HETATM   32  C22 UNL     1     -18.066  12.198  15.468  1.00  0.00     0.139 C 
HETATM   33  S3  UNL     1     -17.682  10.643  15.330  1.00  0.00    -0.053 SA
HETATM   34  N4  UNL     1     -19.332  12.842  15.591  1.00  0.00    -0.351 N 
HETATM   35  C23 UNL     1     -20.480  12.178  16.227  1.00  0.00     0.152 C 
ENDBRANCH  24  27
ENDBRANCH   5  23
BRANCH   1  36
HETATM   36  S1  UNL     1     -23.727  14.117  16.691  1.00  0.00    -0.156 SA
BRANCH  36  37
HETATM   37  C3  UNL     1     -24.324  13.711  15.046  1.00  0.00     0.100 C 
BRANCH  37  38
HETATM   38  C2  UNL     1     -25.624  13.001  15.110  1.00  0.00    -0.027 C 
HETATM   39  C1  UNL     1     -25.820  11.955  15.903  1.00  0.00     0.007 C 
ENDBRANCH  37  38
ENDBRANCH  36  37
ENDBRANCH   1  36
TORSDOF 11
ENDMDL
MODEL 2
REMARK VINA RESULT: -8.366698998      2.493      4.115
REMARK  11 active torsions:
REMARK  status: ('A' for Active; 'I' for Inactive)
REMARK    1  A    between atoms: C2_2  and  C3_3 
REMARK    2  A    between atoms: C3_3  and  S1_4 
REMARK    3  A    between atoms: S1_4  and  C4_5 
REMARK    4  A    between atoms: C6_8  and  C7_9 
REMARK    5  A    between atoms: C7_9  and  C8_10 
REMARK    6  A    between atoms: C8_10  and  O2_11 
REMARK    7  A    between atoms: C8_10  and  C9_13 
REMARK    8  A    between atoms: C9_13  and  N1_14 
REMARK       I    between atoms: N1_14  and  C10_16 
REMARK       I    between atoms: C10_16  and  N2_18 
REMARK    9  A    between atoms: N2_18  and  C11_20 
REMARK   10  A    between atoms: C17_26  and  N3_27 
REMARK       I    between atoms: N3_27  and  C18_29 
REMARK   11  A    between atoms: C18_29  and  C19_31 
ROOT
HETATM    1  C4  UNL     1     -18.080  18.923  16.945  1.00  0.00     0.096 C 
HETATM    2  C5  UNL     1     -18.033  19.816  15.724  1.00  0.00     0.185 C 
HETATM    3  O1  UNL     1     -19.345  19.937  15.279  1.00  0.00    -0.382 OA
HETATM    4  C6  UNL     1     -20.180  19.367  16.204  1.00  0.00     0.147 C 
HETATM    5  C17 UNL     1     -19.357  18.200  16.742  1.00  0.00     0.129 C 
ENDROOT
BRANCH   4   6
HETATM    6  C7  UNL     1     -21.513  18.997  15.741  1.00  0.00     0.067 C 
BRANCH   6   7
HETATM    7  C8  UNL     1     -22.438  20.224  15.836  1.00  0.00     0.138 C 
BRANCH   7   8
HETATM    8  O2  UNL     1     -22.211  20.901  17.015  1.00  0.00    -0.394 OA
ATOM      9  H2  UNL     1     -22.895  21.544  17.161  1.00  0.00     0.210 HD
ENDBRANCH   7   8
BRANCH   7  10
HETATM   10  C9  UNL     1     -22.464  21.031  14.593  1.00  0.00     0.156 C 
BRANCH  10  11
HETATM   11  N1  UNL     1     -21.431  21.974  14.375  1.00  0.00    -0.340 N 
HETATM   12  C10 UNL     1     -20.550  22.078  13.252  1.00  0.00     0.320 C 
HETATM   13  O3  UNL     1     -20.683  21.246  12.354  1.00  0.00    -0.247 OA
HETATM   14  N2  UNL     1     -19.580  23.087  13.184  1.00  0.00    -0.309 N 
ATOM     15  H2  UNL     1     -19.539  23.748  13.960  1.00  0.00     0.170 HD
ATOM     16  H1  UNL     1     -21.298  22.667  15.111  1.00  0.00     0.164 HD
BRANCH  14  17
HETATM   17  C11 UNL     1     -18.667  23.266  12.148  1.00  0.00     0.036 A 
HETATM   18  C12 UNL     1     -18.584  24.498  11.472  1.00  0.00     0.029 A 
HETATM   19  C13 UNL     1     -17.691  24.738  10.464  1.00  0.00     0.002 A 
HETATM   20  C14 UNL     1     -16.814  23.758  10.059  1.00  0.00     0.000 A 
HETATM   21  C15 UNL     1     -16.866  22.542  10.697  1.00  0.00     0.002 A 
HETATM   22  C16 UNL     1     -17.783  22.311  11.727  1.00  0.00     0.029 A 
ENDBRANCH  14  17
ENDBRANCH  10  11
ENDBRANCH   7  10
ENDBRANCH   6   7
ENDBRANCH   4   6
BRANCH   5  23
HETATM   23  N3  UNL     1     -19.349  17.069  15.904  1.00  0.00    -0.351 N 
HETATM   24  C18 UNL     1     -19.950  15.816  16.152  1.00  0.00     0.248 C 
HETATM   25  O4  UNL     1     -20.562  15.696  17.241  1.00  0.00    -0.271 OA
ATOM     26  H3  UNL     1     -18.853  17.166  15.018  1.00  0.00     0.163 HD
BRANCH  24  27
HETATM   27  C19 UNL     1     -19.927  14.664  15.271  1.00  0.00     0.137 C 
HETATM   28  C20 UNL     1     -18.605  14.704  14.514  1.00  0.00     0.051 C 
HETATM   29  C21 UNL     1     -20.010  13.333  16.042  1.00  0.00     0.188 C 
HETATM   30 CL1  UNL     1     -21.605  13.101  16.727  1.00  0.00    -0.110 Cl
HETATM   31  S2  UNL     1     -19.916  12.248  14.550  1.00  0.00    -0.077 SA
HETATM   32  C22 UNL     1     -20.745  13.440  13.461  1.00  0.00     0.139 C 
HETATM   33  S3  UNL     1     -21.113  13.164  11.921  1.00  0.00    -0.053 SA
HETATM   34  N4  UNL     1     -20.958  14.584  14.284  1.00  0.00    -0.351 N 
HETATM   35  C23 UNL     1     -22.092  15.495  14.066  1.00  0.00     0.152 C 
ENDBRANCH  24  27
ENDBRANCH   5  23
BRANCH   1  36
HETATM   36  S1  UNL     1     -16.634  17.935  17.194  1.00  0.00    -0.156 SA
BRANCH  36  37
HETATM   37  C3  UNL     1     -16.871  16.798  18.565  1.00  0.00     0.100 C 
BRANCH  37  38
HETATM   38  C2  UNL     1     -16.955  15.397  18.088  1.00  0.00    -0.027 C 
HETATM   39  C1  UNL     1     -17.737  14.496  18.670  1.00  0.00     0.007 C 
ENDBRANCH  37  38
ENDBRANCH  36  37
ENDBRANCH   1  36
TORSDOF 11
ENDMDL
MODEL 3
REMARK VINA RESULT: -8.330980817      1.246      1.457
REMARK  11 active torsions:
REMARK  status: ('A' for Active; 'I' for Inactive)
REMARK    1  A    between atoms: C2_2  and  C3_3 
REMARK    2  A    between atoms: C3_3  and  S1_4 
REMARK    3  A    between atoms: S1_4  and  C4_5 
REMARK    4  A    between atoms: C6_8  and  C7_9 
REMARK    5  A    between atoms: C7_9  and  C8_10 
REMARK    6  A    between atoms: C8_10  and  O2_11 
REMARK    7  A    between atoms: C8_10  and  C9_13 
REMARK    8  A    between atoms: C9_13  and  N1_14 
REMARK       I    between atoms: N1_14  and  C10_16 
REMARK       I    between atoms: C10_16  and  N2_18 
REMARK    9  A    between atoms: N2_18  and  C11_20 
REMARK   10  A    between atoms: C17_26  and  N3_27 
REMARK       I    between atoms: N3_27  and  C18_29 
REMARK   11  A    between atoms: C18_29  and  C19_31 
ROOT
HETATM    1  C4  UNL     1     -22.888  16.823  16.891  1.00  0.00     0.096 C 
HETATM    2  C5  UNL     1     -22.394  17.492  18.155  1.00  0.00     0.185 C 
HETATM    3  O1  UNL     1     -21.461  18.443  17.754  1.00  0.00    -0.382 OA
HETATM    4  C6  UNL     1     -21.484  18.534  16.387  1.00  0.00     0.147 C 
HETATM    5  C17 UNL     1     -21.782  17.104  15.948  1.00  0.00     0.129 C 
ENDROOT
BRANCH   4   6
HETATM    6  C7  UNL     1     -20.310  19.124  15.753  1.00  0.00     0.067 C 
BRANCH   6   7
HETATM    7  C8  UNL     1     -20.475  20.655  15.712  1.00  0.00     0.138 C 
BRANCH   7   8
HETATM    8  O2  UNL     1     -19.641  21.248  16.634  1.00  0.00    -0.394 OA
ATOM      9  H2  UNL     1     -18.734  21.148  16.368  1.00  0.00     0.210 HD
ENDBRANCH   7   8
BRANCH   7  10
HETATM   10  C9  UNL     1     -20.456  21.206  14.336  1.00  0.00     0.156 C 
BRANCH  10  11
HETATM   11  N1  UNL     1     -19.317  21.932  13.913  1.00  0.00    -0.340 N 
HETATM   12  C10 UNL     1     -19.195  22.815  12.794  1.00  0.00     0.320 C 
HETATM   13  O3  UNL     1     -20.194  22.971  12.089  1.00  0.00    -0.247 OA
HETATM   14  N2  UNL     1     -17.988  23.472  12.517  1.00  0.00    -0.309 N 
ATOM     15  H2  UNL     1     -17.209  23.303  13.153  1.00  0.00     0.170 HD
ATOM     16  H1  UNL     1     -18.476  21.810  14.477  1.00  0.00     0.164 HD
BRANCH  14  17
HETATM   17  C11 UNL     1     -17.762  24.335  11.449  1.00  0.00     0.036 A 
HETATM   18  C12 UNL     1     -17.893  25.728  11.614  1.00  0.00     0.029 A 
HETATM   19  C13 UNL     1     -17.660  26.624  10.607  1.00  0.00     0.002 A 
HETATM   20  C14 UNL     1     -17.276  26.189   9.359  1.00  0.00     0.000 A 
HETATM   21  C15 UNL     1     -17.139  24.836   9.161  1.00  0.00     0.002 A 
HETATM   22  C16 UNL     1     -17.380  23.932  10.199  1.00  0.00     0.029 A 
ENDBRANCH  14  17
ENDBRANCH  10  11
ENDBRANCH   7  10
ENDBRANCH   6   7
ENDBRANCH   4   6
BRANCH   5  23
HETATM   23  N3  UNL     1     -20.661  16.251  15.972  1.00  0.00    -0.351 N 
HETATM   24  C18 UNL     1     -20.300  15.284  15.008  1.00  0.00     0.248 C 
HETATM   25  O4  UNL     1     -21.062  15.171  14.018  1.00  0.00    -0.271 OA
ATOM     26  H3  UNL     1     -20.040  16.343  16.776  1.00  0.00     0.163 HD
BRANCH  24  27
HETATM   27  C19 UNL     1     -19.139  14.416  15.057  1.00  0.00     0.137 C 
HETATM   28  C20 UNL     1     -18.741  14.117  13.617  1.00  0.00     0.051 C 
HETATM   29  C21 UNL     1     -17.943  15.075  15.769  1.00  0.00     0.188 C 
HETATM   30 CL1  UNL     1     -18.234  15.213  17.491  1.00  0.00    -0.110 Cl
HETATM   31  S2  UNL     1     -16.787  13.653  15.544  1.00  0.00    -0.077 SA
HETATM   32  C22 UNL     1     -18.099  12.399  15.598  1.00  0.00     0.139 C 
HETATM   33  S3  UNL     1     -17.847  10.813  15.533  1.00  0.00    -0.053 SA
HETATM   34  N4  UNL     1     -19.304  13.152  15.705  1.00  0.00    -0.351 N 
HETATM   35  C23 UNL     1     -20.492  12.619  16.388  1.00  0.00     0.152 C 
ENDBRANCH  24  27
ENDBRANCH   5  23
BRANCH   1  36
HETATM   36  S1  UNL     1     -23.360  15.130  17.087  1.00  0.00    -0.156 SA
BRANCH  36  37
HETATM   37  C3  UNL     1     -23.949  14.450  15.531  1.00  0.00     0.100 C 
BRANCH  37  38
HETATM   38  C2  UNL     1     -24.610  13.139  15.737  1.00  0.00    -0.027 C 
HETATM   39  C1  UNL     1     -25.798  12.855  15.218  1.00  0.00     0.007 C 
ENDBRANCH  37  38
ENDBRANCH  36  37
ENDBRANCH   1  36
TORSDOF 11
ENDMDL
MODEL 4
REMARK VINA RESULT: -8.231035256      2.589      4.678
REMARK  11 active torsions:
REMARK  status: ('A' for Active; 'I' for Inactive)
REMARK    1  A    between atoms: C2_2  and  C3_3 
REMARK    2  A    between atoms: C3_3  and  S1_4 
REMARK    3  A    between atoms: S1_4  and  C4_5 
REMARK    4  A    between atoms: C6_8  and  C7_9 
REMARK    5  A    between atoms: C7_9  and  C8_10 
REMARK    6  A    between atoms: C8_10  and  O2_11 
REMARK    7  A    between atoms: C8_10  and  C9_13 
REMARK    8  A    between atoms: C9_13  and  N1_14 
REMARK       I    between atoms: N1_14  and  C10_16 
REMARK       I    between atoms: C10_16  and  N2_18 
REMARK    9  A    between atoms: N2_18  and  C11_20 
REMARK   10  A    between atoms: C17_26  and  N3_27 
REMARK       I    between atoms: N3_27  and  C18_29 
REMARK   11  A    between atoms: C18_29  and  C19_31 
ROOT
HETATM    1  C4  UNL     1     -18.149  18.564  16.786  1.00  0.00     0.096 C 
HETATM    2  C5  UNL     1     -17.706  18.833  15.364  1.00  0.00     0.185 C 
HETATM    3  O1  UNL     1     -18.682  19.648  14.799  1.00  0.00    -0.382 OA
HETATM    4  C6  UNL     1     -19.555  20.037  15.780  1.00  0.00     0.147 C 
HETATM    5  C17 UNL     1     -19.605  18.823  16.703  1.00  0.00     0.129 C 
ENDROOT
BRANCH   4   6
HETATM    6  C7  UNL     1     -20.863  20.511  15.340  1.00  0.00     0.067 C 
BRANCH   6   7
HETATM    7  C8  UNL     1     -20.670  21.616  14.286  1.00  0.00     0.138 C 
BRANCH   7   8
HETATM    8  O2  UNL     1     -21.840  21.813  13.584  1.00  0.00    -0.394 OA
ATOM      9  H2  UNL     1     -21.698  22.433  12.878  1.00  0.00     0.210 HD
ENDBRANCH   7   8
BRANCH   7  10
HETATM   10  C9  UNL     1     -19.998  22.823  14.824  1.00  0.00     0.156 C 
BRANCH  10  11
HETATM   11  N1  UNL     1     -18.855  23.318  14.152  1.00  0.00    -0.340 N 
HETATM   12  C10 UNL     1     -18.771  23.870  12.835  1.00  0.00     0.320 C 
HETATM   13  O3  UNL     1     -19.813  23.921  12.179  1.00  0.00    -0.247 OA
HETATM   14  N2  UNL     1     -17.553  24.331  12.318  1.00  0.00    -0.309 N 
ATOM     15  H2  UNL     1     -16.735  24.267  12.925  1.00  0.00     0.170 HD
ATOM     16  H1  UNL     1     -17.979  23.276  14.673  1.00  0.00     0.164 HD
BRANCH  14  17
HETATM   17  C11 UNL     1     -17.362  24.867  11.048  1.00  0.00     0.036 A 
HETATM   18  C12 UNL     1     -17.408  26.260  10.845  1.00  0.00     0.029 A 
HETATM   19  C13 UNL     1     -17.204  26.845   9.625  1.00  0.00     0.002 A 
HETATM   20  C14 UNL     1     -16.938  26.073   8.517  1.00  0.00     0.000 A 
HETATM   21  C15 UNL     1     -16.886  24.710   8.677  1.00  0.00     0.002 A 
HETATM   22  C16 UNL     1     -17.095  24.126   9.930  1.00  0.00     0.029 A 
ENDBRANCH  14  17
ENDBRANCH  10  11
ENDBRANCH   7  10
ENDBRANCH   6   7
ENDBRANCH   4   6
BRANCH   5  23
HETATM   23  N3  UNL     1     -20.434  17.783  16.238  1.00  0.00    -0.351 N 
HETATM   24  C18 UNL     1     -21.441  17.104  16.958  1.00  0.00     0.248 C 
HETATM   25  O4  UNL     1     -21.619  17.467  18.146  1.00  0.00    -0.271 OA
ATOM     26  H3  UNL     1     -20.292  17.488  15.272  1.00  0.00     0.163 HD
BRANCH  24  27
HETATM   27  C19 UNL     1     -22.282  16.035  16.456  1.00  0.00     0.137 C 
HETATM   28  C20 UNL     1     -23.720  16.385  16.819  1.00  0.00     0.051 C 
HETATM   29  C21 UNL     1     -22.187  15.881  14.926  1.00  0.00     0.188 C 
HETATM   30 CL1  UNL     1     -20.631  15.229  14.455  1.00  0.00    -0.110 Cl
HETATM   31  S2  UNL     1     -23.398  14.493  14.803  1.00  0.00    -0.077 SA
HETATM   32  C22 UNL     1     -22.995  13.814  16.437  1.00  0.00     0.139 C 
HETATM   33  S3  UNL     1     -23.633  12.471  17.048  1.00  0.00    -0.053 SA
HETATM   34  N4  UNL     1     -22.040  14.724  16.974  1.00  0.00    -0.351 N 
HETATM   35  C23 UNL     1     -21.004  14.290  17.924  1.00  0.00     0.152 C 
ENDBRANCH  24  27
ENDBRANCH   5  23
BRANCH   1  36
HETATM   36  S1  UNL     1     -17.652  16.994  17.431  1.00  0.00    -0.156 SA
BRANCH  36  37
HETATM   37  C3  UNL     1     -17.729  15.731  16.155  1.00  0.00     0.100 C 
BRANCH  37  38
HETATM   38  C2  UNL     1     -16.826  14.598  16.471  1.00  0.00    -0.027 C 
HETATM   39  C1  UNL     1     -16.442  13.721  15.552  1.00  0.00     0.007 C 
ENDBRANCH  37  38
ENDBRANCH  36  37
ENDBRANCH   1  36
TORSDOF 11
ENDMDL
MODEL 5
REMARK VINA RESULT: -8.172123869      2.464      4.378
REMARK  11 active torsions:
REMARK  status: ('A' for Active; 'I' for Inactive)
REMARK    1  A    between atoms: C2_2  and  C3_3 
REMARK    2  A    between atoms: C3_3  and  S1_4 
REMARK    3  A    between atoms: S1_4  and  C4_5 
REMARK    4  A    between atoms: C6_8  and  C7_9 
REMARK    5  A    between atoms: C7_9  and  C8_10 
REMARK    6  A    between atoms: C8_10  and  O2_11 
REMARK    7  A    between atoms: C8_10  and  C9_13 
REMARK    8  A    between atoms: C9_13  and  N1_14 
REMARK       I    between atoms: N1_14  and  C10_16 
REMARK       I    between atoms: C10_16  and  N2_18 
REMARK    9  A    between atoms: N2_18  and  C11_20 
REMARK   10  A    between atoms: C17_26  and  N3_27 
REMARK       I    between atoms: N3_27  and  C18_29 
REMARK   11  A    between atoms: C18_29  and  C19_31 
ROOT
HETATM    1  C4  UNL     1     -17.722  18.740  16.842  1.00  0.00     0.096 C 
HETATM    2  C5  UNL     1     -17.622  19.390  15.479  1.00  0.00     0.185 C 
HETATM    3  O1  UNL     1     -18.889  19.889  15.191  1.00  0.00    -0.382 OA
HETATM    4  C6  UNL     1     -19.675  19.766  16.306  1.00  0.00     0.147 C 
HETATM    5  C17 UNL     1     -19.175  18.473  16.944  1.00  0.00     0.129 C 
ENDROOT
BRANCH   4   6
HETATM    6  C7  UNL     1     -21.118  19.811  16.095  1.00  0.00     0.067 C 
BRANCH   6   7
HETATM    7  C8  UNL     1     -21.541  21.264  15.813  1.00  0.00     0.138 C 
BRANCH   7   8
HETATM    8  O2  UNL     1     -21.082  22.096  16.812  1.00  0.00    -0.394 OA
ATOM      9  H2  UNL     1     -20.751  22.905  16.439  1.00  0.00     0.210 HD
ENDBRANCH   7   8
BRANCH   7  10
HETATM   10  C9  UNL     1     -21.282  21.686  14.416  1.00  0.00     0.156 C 
BRANCH  10  11
HETATM   11  N1  UNL     1     -20.097  22.408  14.135  1.00  0.00    -0.340 N 
HETATM   12  C10 UNL     1     -19.716  23.043  12.911  1.00  0.00     0.320 C 
HETATM   13  O3  UNL     1     -20.499  22.953  11.963  1.00  0.00    -0.247 OA
HETATM   14  N2  UNL     1     -18.503  23.736  12.800  1.00  0.00    -0.309 N 
ATOM     15  H2  UNL     1     -17.913  23.778  13.632  1.00  0.00     0.170 HD
ATOM     16  H1  UNL     1     -19.431  22.487  14.903  1.00  0.00     0.164 HD
BRANCH  14  17
HETATM   17  C11 UNL     1     -18.034  24.371  11.654  1.00  0.00     0.036 A 
HETATM   18  C12 UNL     1     -18.195  25.760  11.489  1.00  0.00     0.029 A 
HETATM   19  C13 UNL     1     -17.733  26.441  10.396  1.00  0.00     0.002 A 
HETATM   20  C14 UNL     1     -17.074  25.777   9.386  1.00  0.00     0.000 A 
HETATM   21  C15 UNL     1     -16.898  24.420   9.514  1.00  0.00     0.002 A 
HETATM   22  C16 UNL     1     -17.375  23.738  10.637  1.00  0.00     0.029 A 
ENDBRANCH  14  17
ENDBRANCH  10  11
ENDBRANCH   7  10
ENDBRANCH   6   7
ENDBRANCH   4   6
BRANCH   5  23
HETATM   23  N3  UNL     1     -19.675  17.304  16.339  1.00  0.00    -0.351 N 
HETATM   24  C18 UNL     1     -20.348  16.235  16.969  1.00  0.00     0.248 C 
HETATM   25  O4  UNL     1     -20.522  16.337  18.208  1.00  0.00    -0.271 OA
ATOM     26  H3  UNL     1     -19.536  17.220  15.332  1.00  0.00     0.163 HD
BRANCH  24  27
HETATM   27  C19 UNL     1     -20.853  15.039  16.323  1.00  0.00     0.137 C 
HETATM   28  C20 UNL     1     -20.730  13.899  17.327  1.00  0.00     0.051 C 
HETATM   29  C21 UNL     1     -22.332  15.173  15.913  1.00  0.00     0.188 C 
HETATM   30 CL1  UNL     1     -22.515  16.286  14.574  1.00  0.00    -0.110 Cl
HETATM   31  S2  UNL     1     -22.484  13.473  15.207  1.00  0.00    -0.077 SA
HETATM   32  C22 UNL     1     -20.750  13.389  14.676  1.00  0.00     0.139 C 
HETATM   33  S3  UNL     1     -20.103  12.160  13.867  1.00  0.00    -0.053 SA
HETATM   34  N4  UNL     1     -20.179  14.611  15.137  1.00  0.00    -0.351 N 
HETATM   35  C23 UNL     1     -19.056  15.254  14.437  1.00  0.00     0.152 C 
ENDBRANCH  24  27
ENDBRANCH   5  23
BRANCH   1  36
HETATM   36  S1  UNL     1     -16.638  17.364  17.085  1.00  0.00    -0.156 SA
BRANCH  36  37
HETATM   37  C3  UNL     1     -16.968  16.567  18.661  1.00  0.00     0.100 C 
BRANCH  37  38
HETATM   38  C2  UNL     1     -17.274  15.128  18.478  1.00  0.00    -0.027 C 
HETATM   39  C1  UNL     1     -17.100  14.510  17.316  1.00  0.00     0.007 C 
ENDBRANCH  37  38
ENDBRANCH  36  37
ENDBRANCH   1  36
TORSDOF 11
ENDMDL
