MODEL 1
REMARK VINA RESULT: -8.075222157      0.000      0.000
REMARK  12 active torsions:
REMARK  status: ('A' for Active; 'I' for Inactive)
REMARK    1  A    between atoms: C2_2  and  N1_4 
REMARK    2  A    between atoms: C5_6  and  C6_7 
REMARK    3  A    between atoms: C6_7  and  S1_8 
REMARK    4  A    between atoms: C6_7  and  C13_18 
REMARK    5  A    between atoms: S1_8  and  C7_9 
REMARK    6  A    between atoms: C7_9  and  C8_10 
REMARK       I    between atoms: C13_18  and  N3_20 
REMARK    7  A    between atoms: N3_20  and  C14_22 
REMARK    8  A    between atoms: C14_22  and  C15_23 
REMARK    9  A    between atoms: C14_22  and  C19_31 
REMARK   10  A    between atoms: C15_23  and  C16_24 
REMARK       I    between atoms: C19_31  and  N6_33 
REMARK   11  A    between atoms: N6_33  and  C20_35 
REMARK   12  A    between atoms: C24_41  and  C25_42 
ROOT
HETATM    1  C6  UNL     1     -22.696  18.268  15.727  1.00  0.00     0.190 C 
ENDROOT
BRANCH   1   2
HETATM    2  C5  UNL     1     -22.512  16.793  15.592  1.00  0.00     0.049 A 
HETATM    3  C4  UNL     1     -23.401  15.807  15.938  1.00  0.00     0.119 A 
HETATM    4  N1  UNL     1     -22.791  14.629  15.634  1.00  0.00    -0.340 N 
HETATM    5  C24 UNL     1     -21.574  14.843  15.121  1.00  0.00     0.091 A 
HETATM    6  N7  UNL     1     -21.424  16.179  15.103  1.00  0.00    -0.346 N 
ATOM      7  H7  UNL     1     -20.592  16.662  14.763  1.00  0.00     0.167 HD
BRANCH   4   8
HETATM    8  C2  UNL     1     -23.422  13.375  15.847  1.00  0.00     0.082 C 
HETATM    9  C1  UNL     1     -23.840  13.325  17.311  1.00  0.00     0.032 C 
HETATM   10  C3  UNL     1     -24.758  13.441  15.076  1.00  0.00     0.032 C 
ENDBRANCH   4   8
BRANCH   5  11
HETATM   11  C25 UNL     1     -20.594  13.862  14.674  1.00  0.00     0.008 C 
HETATM   12  C26 UNL     1     -20.385  12.666  15.500  1.00  0.00     0.022 C 
HETATM   13  C27 UNL     1     -21.005  13.383  13.291  1.00  0.00     0.022 C 
HETATM   14  C28 UNL     1     -19.208  14.492  14.453  1.00  0.00     0.022 C 
ENDBRANCH   5  11
ENDBRANCH   1   2
BRANCH   1  15
HETATM   15  S1  UNL     1     -23.966  18.643  16.961  1.00  0.00    -0.148 SA
BRANCH  15  16
HETATM   16  C7  UNL     1     -24.630  20.311  16.799  1.00  0.00     0.079 C 
BRANCH  16  17
HETATM   17  C8  UNL     1     -23.798  21.305  17.571  1.00  0.00    -0.002 C 
HETATM   18  C9  UNL     1     -23.225  22.335  16.620  1.00  0.00     0.032 C 
HETATM   19  C10 UNL     1     -22.544  23.446  17.416  1.00  0.00     0.232 C 
HETATM   20  N2  UNL     1     -22.407  23.057  18.793  1.00  0.00    -0.075 N 
HETATM   21  C11 UNL     1     -23.661  22.869  19.470  1.00  0.00     0.232 C 
ATOM     22  H22 UNL     1     -21.826  22.222  18.874  1.00  0.00     0.277 HD
ATOM     23  H21 UNL     1     -21.821  23.722  19.298  1.00  0.00     0.277 HD
HETATM   24  C12 UNL     1     -24.607  22.013  18.619  1.00  0.00     0.032 C 
ENDBRANCH  16  17
ENDBRANCH  15  16
ENDBRANCH   1  15
BRANCH   1  25
HETATM   25  C13 UNL     1     -21.412  18.929  16.104  1.00  0.00     0.238 C 
HETATM   26  O1  UNL     1     -20.909  18.673  17.210  1.00  0.00    -0.272 OA
HETATM   27  N3  UNL     1     -20.745  19.829  15.239  1.00  0.00    -0.346 N 
ATOM     28  H3  UNL     1     -21.178  20.017  14.334  1.00  0.00     0.163 HD
BRANCH  27  29
HETATM   29  C14 UNL     1     -19.505  20.502  15.532  1.00  0.00     0.182 C 
BRANCH  29  30
HETATM   30  C15 UNL     1     -18.316  19.667  15.039  1.00  0.00     0.093 C 
BRANCH  30  31
HETATM   31  C16 UNL     1     -17.763  18.823  16.119  1.00  0.00     0.028 A 
HETATM   32  C17 UNL     1     -16.856  19.219  17.087  1.00  0.00     0.114 A 
HETATM   33  N4  UNL     1     -16.636  18.125  17.874  1.00  0.00    -0.360 N 
HETATM   34  C18 UNL     1     -17.372  17.111  17.409  1.00  0.00     0.180 A 
ATOM     35  H4  UNL     1     -16.014  18.088  18.682  1.00  0.00     0.166 HD
HETATM   36  N5  UNL     1     -18.054  17.539  16.343  1.00  0.00    -0.354 N 
ATOM     37  H5  UNL     1     -18.696  16.974  15.787  1.00  0.00     0.166 HD
ENDBRANCH  30  31
ENDBRANCH  29  30
BRANCH  29  38
HETATM   38  C19 UNL     1     -19.428  21.778  14.782  1.00  0.00     0.241 C 
HETATM   39  O2  UNL     1     -19.946  22.843  15.244  1.00  0.00    -0.271 OA
HETATM   40  N6  UNL     1     -18.763  21.789  13.529  1.00  0.00    -0.351 N 
ATOM     41  H6  UNL     1     -18.358  20.910  13.207  1.00  0.00     0.163 HD
BRANCH  40  42
HETATM   42  C20 UNL     1     -18.612  22.938  12.674  1.00  0.00     0.022 C 
HETATM   43  C21 UNL     1     -18.201  24.187  13.376  1.00  0.00     0.037 C 
HETATM   44  C22 UNL     1     -19.938  23.229  11.966  1.00  0.00     0.037 C 
HETATM   45  C23 UNL     1     -17.595  22.667  11.578  1.00  0.00     0.037 C 
ENDBRANCH  40  42
ENDBRANCH  29  38
ENDBRANCH  27  29
ENDBRANCH   1  25
TORSDOF 12
ENDMDL
MODEL 2
REMARK VINA RESULT: -7.901585244      2.043      5.538
REMARK  12 active torsions:
REMARK  status: ('A' for Active; 'I' for Inactive)
REMARK    1  A    between atoms: C2_2  and  N1_4 
REMARK    2  A    between atoms: C5_6  and  C6_7 
REMARK    3  A    between atoms: C6_7  and  S1_8 
REMARK    4  A    between atoms: C6_7  and  C13_18 
REMARK    5  A    between atoms: S1_8  and  C7_9 
REMARK    6  A    between atoms: C7_9  and  C8_10 
REMARK       I    between atoms: C13_18  and  N3_20 
REMARK    7  A    between atoms: N3_20  and  C14_22 
REMARK    8  A    between atoms: C14_22  and  C15_23 
REMARK    9  A    between atoms: C14_22  and  C19_31 
REMARK   10  A    between atoms: C15_23  and  C16_24 
REMARK       I    between atoms: C19_31  and  N6_33 
REMARK   11  A    between atoms: N6_33  and  C20_35 
REMARK   12  A    between atoms: C24_41  and  C25_42 
ROOT
HETATM    1  C6  UNL     1     -19.960  17.596  16.659  1.00  0.00     0.190 C 
ENDROOT
BRANCH   1   2
HETATM    2  C5  UNL     1     -20.432  16.395  15.909  1.00  0.00     0.049 A 
HETATM    3  C4  UNL     1     -21.555  15.646  16.157  1.00  0.00     0.119 A 
HETATM    4  N1  UNL     1     -21.562  14.660  15.218  1.00  0.00    -0.340 N 
HETATM    5  C24 UNL     1     -20.502  14.767  14.410  1.00  0.00     0.091 A 
HETATM    6  N7  UNL     1     -19.822  15.839  14.851  1.00  0.00    -0.346 N 
ATOM      7  H7  UNL     1     -18.957  16.185  14.437  1.00  0.00     0.167 HD
BRANCH   4   8
HETATM    8  C2  UNL     1     -22.594  13.686  15.154  1.00  0.00     0.082 C 
HETATM    9  C1  UNL     1     -22.580  12.929  16.475  1.00  0.00     0.032 C 
HETATM   10  C3  UNL     1     -23.919  14.477  15.186  1.00  0.00     0.032 C 
ENDBRANCH   4   8
BRANCH   5  11
HETATM   11  C25 UNL     1     -20.129  13.916  13.287  1.00  0.00     0.008 C 
HETATM   12  C26 UNL     1     -20.980  13.936  12.090  1.00  0.00     0.022 C 
HETATM   13  C27 UNL     1     -18.729  14.308  12.844  1.00  0.00     0.022 C 
HETATM   14  C28 UNL     1     -19.989  12.441  13.702  1.00  0.00     0.022 C 
ENDBRANCH   5  11
ENDBRANCH   1   2
BRANCH   1  15
HETATM   15  S1  UNL     1     -18.212  17.916  16.317  1.00  0.00    -0.148 SA
BRANCH  15  16
HETATM   16  C7  UNL     1     -17.117  16.691  17.059  1.00  0.00     0.079 C 
BRANCH  16  17
HETATM   17  C8  UNL     1     -17.763  15.328  17.084  1.00  0.00    -0.002 C 
HETATM   18  C9  UNL     1     -16.994  14.385  16.183  1.00  0.00     0.032 C 
HETATM   19  C10 UNL     1     -17.527  12.965  16.352  1.00  0.00     0.232 C 
HETATM   20  N2  UNL     1     -18.758  12.982  17.093  1.00  0.00    -0.075 N 
HETATM   21  C11 UNL     1     -18.616  13.458  18.442  1.00  0.00     0.232 C 
ATOM     22  H22 UNL     1     -19.469  13.518  16.596  1.00  0.00     0.277 HD
ATOM     23  H21 UNL     1     -19.199  12.062  17.081  1.00  0.00     0.277 HD
HETATM   24  C12 UNL     1     -17.795  14.753  18.470  1.00  0.00     0.032 C 
ENDBRANCH  16  17
ENDBRANCH  15  16
ENDBRANCH   1  15
BRANCH   1  25
HETATM   25  C13 UNL     1     -20.775  18.795  16.302  1.00  0.00     0.238 C 
HETATM   26  O1  UNL     1     -21.946  18.865  16.710  1.00  0.00    -0.272 OA
HETATM   27  N3  UNL     1     -20.255  19.855  15.523  1.00  0.00    -0.346 N 
ATOM     28  H3  UNL     1     -19.289  19.773  15.206  1.00  0.00     0.163 HD
BRANCH  27  29
HETATM   29  C14 UNL     1     -20.979  21.041  15.141  1.00  0.00     0.182 C 
BRANCH  29  30
HETATM   30  C15 UNL     1     -20.748  22.160  16.165  1.00  0.00     0.093 C 
BRANCH  30  31
HETATM   31  C16 UNL     1     -22.019  22.800  16.564  1.00  0.00     0.028 A 
HETATM   32  C17 UNL     1     -23.292  22.310  16.333  1.00  0.00     0.114 A 
HETATM   33  N4  UNL     1     -24.156  23.217  16.878  1.00  0.00    -0.360 N 
HETATM   34  C18 UNL     1     -23.443  24.213  17.413  1.00  0.00     0.180 A 
ATOM     35  H4  UNL     1     -25.173  23.147  16.876  1.00  0.00     0.166 HD
HETATM   36  N5  UNL     1     -22.147  23.957  17.220  1.00  0.00    -0.354 N 
ATOM     37  H5  UNL     1     -21.375  24.550  17.525  1.00  0.00     0.166 HD
ENDBRANCH  30  31
ENDBRANCH  29  30
BRANCH  29  38
HETATM   38  C19 UNL     1     -20.456  21.567  13.859  1.00  0.00     0.241 C 
HETATM   39  O2  UNL     1     -20.883  21.126  12.745  1.00  0.00    -0.271 OA
HETATM   40  N6  UNL     1     -19.461  22.578  13.895  1.00  0.00    -0.351 N 
ATOM     41  H6  UNL     1     -19.158  22.903  14.813  1.00  0.00     0.163 HD
BRANCH  40  42
HETATM   42  C20 UNL     1     -18.842  23.183  12.743  1.00  0.00     0.022 C 
HETATM   43  C21 UNL     1     -19.795  23.628  11.687  1.00  0.00     0.037 C 
HETATM   44  C22 UNL     1     -17.877  22.186  12.096  1.00  0.00     0.037 C 
HETATM   45  C23 UNL     1     -18.005  24.385  13.148  1.00  0.00     0.037 C 
ENDBRANCH  40  42
ENDBRANCH  29  38
ENDBRANCH  27  29
ENDBRANCH   1  25
TORSDOF 12
ENDMDL
MODEL 3
REMARK VINA RESULT: -7.862388877      1.265      1.547
REMARK  12 active torsions:
REMARK  status: ('A' for Active; 'I' for Inactive)
REMARK    1  A    between atoms: C2_2  and  N1_4 
REMARK    2  A    between atoms: C5_6  and  C6_7 
REMARK    3  A    between atoms: C6_7  and  S1_8 
REMARK    4  A    between atoms: C6_7  and  C13_18 
REMARK    5  A    between atoms: S1_8  and  C7_9 
REMARK    6  A    between atoms: C7_9  and  C8_10 
REMARK       I    between atoms: C13_18  and  N3_20 
REMARK    7  A    between atoms: N3_20  and  C14_22 
REMARK    8  A    between atoms: C14_22  and  C15_23 
REMARK    9  A    between atoms: C14_22  and  C19_31 
REMARK   10  A    between atoms: C15_23  and  C16_24 
REMARK       I    between atoms: C19_31  and  N6_33 
REMARK   11  A    between atoms: N6_33  and  C20_35 
REMARK   12  A    between atoms: C24_41  and  C25_42 
ROOT
HETATM    1  C6  UNL     1     -22.205  17.343  15.867  1.00  0.00     0.190 C 
ENDROOT
BRANCH   1   2
HETATM    2  C5  UNL     1     -21.770  15.929  15.671  1.00  0.00     0.049 A 
HETATM    3  C4  UNL     1     -22.021  14.858  16.491  1.00  0.00     0.119 A 
HETATM    4  N1  UNL     1     -21.423  13.786  15.902  1.00  0.00    -0.340 N 
HETATM    5  C24 UNL     1     -20.818  14.146  14.764  1.00  0.00     0.091 A 
HETATM    6  N7  UNL     1     -21.045  15.465  14.641  1.00  0.00    -0.346 N 
ATOM      7  H7  UNL     1     -20.710  16.038  13.867  1.00  0.00     0.167 HD
BRANCH   4   8
HETATM    8  C2  UNL     1     -21.481  12.484  16.467  1.00  0.00     0.082 C 
HETATM    9  C1  UNL     1     -20.634  12.506  17.733  1.00  0.00     0.032 C 
HETATM   10  C3  UNL     1     -22.926  12.315  16.983  1.00  0.00     0.032 C 
ENDBRANCH   4   8
BRANCH   5  11
HETATM   11  C25 UNL     1     -20.062  13.314  13.838  1.00  0.00     0.008 C 
HETATM   12  C26 UNL     1     -19.715  11.949  14.257  1.00  0.00     0.022 C 
HETATM   13  C27 UNL     1     -20.864  13.194  12.552  1.00  0.00     0.022 C 
HETATM   14  C28 UNL     1     -18.750  13.985  13.398  1.00  0.00     0.022 C 
ENDBRANCH   5  11
ENDBRANCH   1   2
BRANCH   1  15
HETATM   15  S1  UNL     1     -23.560  17.434  17.063  1.00  0.00    -0.148 SA
BRANCH  15  16
HETATM   16  C7  UNL     1     -24.745  18.739  16.682  1.00  0.00     0.079 C 
BRANCH  16  17
HETATM   17  C8  UNL     1     -24.052  20.066  16.502  1.00  0.00    -0.002 C 
HETATM   18  C9  UNL     1     -23.691  20.257  15.044  1.00  0.00     0.032 C 
HETATM   19  C10 UNL     1     -23.165  21.674  14.826  1.00  0.00     0.232 C 
HETATM   20  N2  UNL     1     -22.910  22.308  16.091  1.00  0.00    -0.075 N 
HETATM   21  C11 UNL     1     -24.089  22.499  16.891  1.00  0.00     0.232 C 
ATOM     22  H22 UNL     1     -22.201  21.795  16.614  1.00  0.00     0.277 HD
ATOM     23  H21 UNL     1     -22.419  23.192  15.958  1.00  0.00     0.277 HD
HETATM   24  C12 UNL     1     -24.920  21.210  16.939  1.00  0.00     0.032 C 
ENDBRANCH  16  17
ENDBRANCH  15  16
ENDBRANCH   1  15
BRANCH   1  25
HETATM   25  C13 UNL     1     -21.064  18.188  16.326  1.00  0.00     0.238 C 
HETATM   26  O1  UNL     1     -20.647  18.051  17.488  1.00  0.00    -0.272 OA
HETATM   27  N3  UNL     1     -20.438  19.133  15.480  1.00  0.00    -0.346 N 
ATOM     28  H3  UNL     1     -20.797  19.222  14.529  1.00  0.00     0.163 HD
BRANCH  27  29
HETATM   29  C14 UNL     1     -19.333  19.982  15.852  1.00  0.00     0.182 C 
BRANCH  29  30
HETATM   30  C15 UNL     1     -18.005  19.347  15.422  1.00  0.00     0.093 C 
BRANCH  30  31
HETATM   31  C16 UNL     1     -17.534  18.355  16.411  1.00  0.00     0.028 A 
HETATM   32  C17 UNL     1     -16.753  18.613  17.524  1.00  0.00     0.114 A 
HETATM   33  N4  UNL     1     -16.571  17.413  18.150  1.00  0.00    -0.360 N 
HETATM   34  C18 UNL     1     -17.209  16.468  17.451  1.00  0.00     0.180 A 
ATOM     35  H4  UNL     1     -16.038  17.263  19.006  1.00  0.00     0.166 HD
HETATM   36  N5  UNL     1     -17.791  17.044  16.396  1.00  0.00    -0.354 N 
ATOM     37  H5  UNL     1     -18.345  16.559  15.690  1.00  0.00     0.166 HD
ENDBRANCH  30  31
ENDBRANCH  29  30
BRANCH  29  38
HETATM   38  C19 UNL     1     -19.410  21.268  15.120  1.00  0.00     0.241 C 
HETATM   39  O2  UNL     1     -19.938  22.295  15.652  1.00  0.00    -0.271 OA
HETATM   40  N6  UNL     1     -18.881  21.333  13.805  1.00  0.00    -0.351 N 
ATOM     41  H6  UNL     1     -18.461  20.484  13.428  1.00  0.00     0.163 HD
BRANCH  40  42
HETATM   42  C20 UNL     1     -18.889  22.499  12.959  1.00  0.00     0.022 C 
HETATM   43  C21 UNL     1     -18.502  23.766  13.641  1.00  0.00     0.037 C 
HETATM   44  C22 UNL     1     -20.291  22.704  12.379  1.00  0.00     0.037 C 
HETATM   45  C23 UNL     1     -17.960  22.311  11.771  1.00  0.00     0.037 C 
ENDBRANCH  40  42
ENDBRANCH  29  38
ENDBRANCH  27  29
ENDBRANCH   1  25
TORSDOF 12
ENDMDL
MODEL 4
REMARK VINA RESULT: -7.835176302      2.001      3.340
REMARK  12 active torsions:
REMARK  status: ('A' for Active; 'I' for Inactive)
REMARK    1  A    between atoms: C2_2  and  N1_4 
REMARK    2  A    between atoms: C5_6  and  C6_7 
REMARK    3  A    between atoms: C6_7  and  S1_8 
REMARK    4  A    between atoms: C6_7  and  C13_18 
REMARK    5  A    between atoms: S1_8  and  C7_9 
REMARK    6  A    between atoms: C7_9  and  C8_10 
REMARK       I    between atoms: C13_18  and  N3_20 
REMARK    7  A    between atoms: N3_20  and  C14_22 
REMARK    8  A    between atoms: C14_22  and  C15_23 
REMARK    9  A    between atoms: C14_22  and  C19_31 
REMARK   10  A    between atoms: C15_23  and  C16_24 
REMARK       I    between atoms: C19_31  and  N6_33 
REMARK   11  A    between atoms: N6_33  and  C20_35 
REMARK   12  A    between atoms: C24_41  and  C25_42 
ROOT
HETATM    1  C6  UNL     1     -21.172  15.947  15.388  1.00  0.00     0.190 C 
ENDROOT
BRANCH   1   2
HETATM    2  C5  UNL     1     -20.709  14.593  15.810  1.00  0.00     0.049 A 
HETATM    3  C4  UNL     1     -19.718  13.835  15.238  1.00  0.00     0.119 A 
HETATM    4  N1  UNL     1     -19.662  12.684  15.964  1.00  0.00    -0.340 N 
HETATM    5  C24 UNL     1     -20.567  12.699  16.948  1.00  0.00     0.091 A 
HETATM    6  N7  UNL     1     -21.198  13.880  16.836  1.00  0.00    -0.346 N 
ATOM      7  H7  UNL     1     -21.950  14.193  17.451  1.00  0.00     0.167 HD
BRANCH   4   8
HETATM    8  C2  UNL     1     -18.733  11.651  15.668  1.00  0.00     0.082 C 
HETATM    9  C1  UNL     1     -19.070  11.129  14.277  1.00  0.00     0.032 C 
HETATM   10  C3  UNL     1     -17.370  12.351  15.488  1.00  0.00     0.032 C 
ENDBRANCH   4   8
BRANCH   5  11
HETATM   11  C25 UNL     1     -20.841  11.669  17.942  1.00  0.00     0.008 C 
HETATM   12  C26 UNL     1     -20.727  10.263  17.532  1.00  0.00     0.022 C 
HETATM   13  C27 UNL     1     -19.885  11.872  19.106  1.00  0.00     0.022 C 
HETATM   14  C28 UNL     1     -22.235  11.831  18.572  1.00  0.00     0.022 C 
ENDBRANCH   5  11
ENDBRANCH   1   2
BRANCH   1  15
HETATM   15  S1  UNL     1     -22.973  16.077  15.518  1.00  0.00    -0.148 SA
BRANCH  15  16
HETATM   16  C7  UNL     1     -23.612  17.636  14.879  1.00  0.00     0.079 C 
BRANCH  16  17
HETATM   17  C8  UNL     1     -23.174  18.796  15.739  1.00  0.00    -0.002 C 
HETATM   18  C9  UNL     1     -23.240  20.078  14.935  1.00  0.00     0.032 C 
HETATM   19  C10 UNL     1     -22.983  21.272  15.851  1.00  0.00     0.232 C 
HETATM   20  N2  UNL     1     -22.490  20.823  17.124  1.00  0.00    -0.075 N 
HETATM   21  C11 UNL     1     -23.431  20.023  17.860  1.00  0.00     0.232 C 
ATOM     22  H22 UNL     1     -21.606  20.327  17.013  1.00  0.00     0.277 HD
ATOM     23  H21 UNL     1     -22.174  21.613  17.686  1.00  0.00     0.277 HD
HETATM   24  C12 UNL     1     -24.040  18.944  16.956  1.00  0.00     0.032 C 
ENDBRANCH  16  17
ENDBRANCH  15  16
ENDBRANCH   1  15
BRANCH   1  25
HETATM   25  C13 UNL     1     -20.526  17.008  16.216  1.00  0.00     0.238 C 
HETATM   26  O1  UNL     1     -20.711  17.005  17.444  1.00  0.00    -0.272 OA
HETATM   27  N3  UNL     1     -19.704  18.011  15.649  1.00  0.00    -0.346 N 
ATOM     28  H3  UNL     1     -19.565  17.987  14.638  1.00  0.00     0.163 HD
BRANCH  27  29
HETATM   29  C14 UNL     1     -19.047  19.063  16.382  1.00  0.00     0.182 C 
BRANCH  29  30
HETATM   30  C15 UNL     1     -17.536  18.809  16.442  1.00  0.00     0.093 C 
BRANCH  30  31
HETATM   31  C16 UNL     1     -17.229  17.523  17.103  1.00  0.00     0.028 A 
HETATM   32  C17 UNL     1     -17.182  16.280  16.497  1.00  0.00     0.114 A 
HETATM   33  N4  UNL     1     -16.855  15.388  17.479  1.00  0.00    -0.360 N 
HETATM   34  C18 UNL     1     -16.711  16.055  18.628  1.00  0.00     0.180 A 
ATOM     35  H4  UNL     1     -16.739  14.382  17.355  1.00  0.00     0.166 HD
HETATM   36  N5  UNL     1     -16.940  17.350  18.396  1.00  0.00    -0.354 N 
ATOM     37  H5  UNL     1     -16.901  18.091  19.096  1.00  0.00     0.166 HD
ENDBRANCH  30  31
ENDBRANCH  29  30
BRANCH  29  38
HETATM   38  C19 UNL     1     -19.201  20.354  15.671  1.00  0.00     0.241 C 
HETATM   39  O2  UNL     1     -19.470  21.424  16.302  1.00  0.00    -0.271 OA
HETATM   40  N6  UNL     1     -19.046  20.373  14.260  1.00  0.00    -0.351 N 
ATOM     41  H6  UNL     1     -18.824  19.489  13.802  1.00  0.00     0.163 HD
BRANCH  40  42
HETATM   42  C20 UNL     1     -19.176  21.537  13.422  1.00  0.00     0.022 C 
HETATM   43  C21 UNL     1     -18.809  22.823  14.080  1.00  0.00     0.037 C 
HETATM   44  C22 UNL     1     -20.625  21.668  12.945  1.00  0.00     0.037 C 
HETATM   45  C23 UNL     1     -18.327  21.399  12.170  1.00  0.00     0.037 C 
ENDBRANCH  40  42
ENDBRANCH  29  38
ENDBRANCH  27  29
ENDBRANCH   1  25
TORSDOF 12
ENDMDL
MODEL 5
REMARK VINA RESULT: -7.822472552      1.475      1.904
REMARK  12 active torsions:
REMARK  status: ('A' for Active; 'I' for Inactive)
REMARK    1  A    between atoms: C2_2  and  N1_4 
REMARK    2  A    between atoms: C5_6  and  C6_7 
REMARK    3  A    between atoms: C6_7  and  S1_8 
REMARK    4  A    between atoms: C6_7  and  C13_18 
REMARK    5  A    between atoms: S1_8  and  C7_9 
REMARK    6  A    between atoms: C7_9  and  C8_10 
REMARK       I    between atoms: C13_18  and  N3_20 
REMARK    7  A    between atoms: N3_20  and  C14_22 
REMARK    8  A    between atoms: C14_22  and  C15_23 
REMARK    9  A    between atoms: C14_22  and  C19_31 
REMARK   10  A    between atoms: C15_23  and  C16_24 
REMARK       I    between atoms: C19_31  and  N6_33 
REMARK   11  A    between atoms: N6_33  and  C20_35 
REMARK   12  A    between atoms: C24_41  and  C25_42 
ROOT
HETATM    1  C6  UNL     1     -22.749  18.175  15.729  1.00  0.00     0.190 C 
ENDROOT
BRANCH   1   2
HETATM    2  C5  UNL     1     -22.534  16.709  15.554  1.00  0.00     0.049 A 
HETATM    3  C4  UNL     1     -23.403  15.695  15.872  1.00  0.00     0.119 A 
HETATM    4  N1  UNL     1     -22.767  14.539  15.537  1.00  0.00    -0.340 N 
HETATM    5  C24 UNL     1     -21.555  14.792  15.032  1.00  0.00     0.091 A 
HETATM    6  N7  UNL     1     -21.433  16.131  15.051  1.00  0.00    -0.346 N 
ATOM      7  H7  UNL     1     -20.611  16.639  14.725  1.00  0.00     0.167 HD
BRANCH   4   8
HETATM    8  C2  UNL     1     -23.373  13.266  15.715  1.00  0.00     0.082 C 
HETATM    9  C1  UNL     1     -23.612  13.087  17.209  1.00  0.00     0.032 C 
HETATM   10  C3  UNL     1     -24.791  13.389  15.118  1.00  0.00     0.032 C 
ENDBRANCH   4   8
BRANCH   5  11
HETATM   11  C25 UNL     1     -20.554  13.844  14.560  1.00  0.00     0.008 C 
HETATM   12  C26 UNL     1     -20.284  12.656  15.380  1.00  0.00     0.022 C 
HETATM   13  C27 UNL     1     -20.984  13.350  13.188  1.00  0.00     0.022 C 
HETATM   14  C28 UNL     1     -19.196  14.519  14.304  1.00  0.00     0.022 C 
ENDBRANCH   5  11
ENDBRANCH   1   2
BRANCH   1  15
HETATM   15  S1  UNL     1     -24.030  18.490  16.968  1.00  0.00    -0.148 SA
BRANCH  15  16
HETATM   16  C7  UNL     1     -24.448  20.237  17.116  1.00  0.00     0.079 C 
BRANCH  16  17
HETATM   17  C8  UNL     1     -25.933  20.428  17.294  1.00  0.00    -0.002 C 
HETATM   18  C9  UNL     1     -26.379  19.769  18.583  1.00  0.00     0.032 C 
HETATM   19  C10 UNL     1     -27.838  20.121  18.861  1.00  0.00     0.232 C 
HETATM   20  N2  UNL     1     -28.430  20.734  17.704  1.00  0.00    -0.075 N 
HETATM   21  C11 UNL     1     -27.835  21.993  17.347  1.00  0.00     0.232 C 
ATOM     22  H22 UNL     1     -28.416  20.093  16.911  1.00  0.00     0.277 HD
ATOM     23  H21 UNL     1     -29.438  20.834  17.826  1.00  0.00     0.277 HD
HETATM   24  C12 UNL     1     -26.306  21.882  17.342  1.00  0.00     0.032 C 
ENDBRANCH  16  17
ENDBRANCH  15  16
ENDBRANCH   1  15
BRANCH   1  25
HETATM   25  C13 UNL     1     -21.480  18.851  16.127  1.00  0.00     0.238 C 
HETATM   26  O1  UNL     1     -21.007  18.622  17.252  1.00  0.00    -0.272 OA
HETATM   27  N3  UNL     1     -20.794  19.738  15.263  1.00  0.00    -0.346 N 
ATOM     28  H3  UNL     1     -21.202  19.904  14.343  1.00  0.00     0.163 HD
BRANCH  27  29
HETATM   29  C14 UNL     1     -19.567  20.424  15.577  1.00  0.00     0.182 C 
BRANCH  29  30
HETATM   30  C15 UNL     1     -18.361  19.617  15.080  1.00  0.00     0.093 C 
BRANCH  30  31
HETATM   31  C16 UNL     1     -17.794  18.775  16.154  1.00  0.00     0.028 A 
HETATM   32  C17 UNL     1     -16.838  19.159  17.079  1.00  0.00     0.114 A 
HETATM   33  N4  UNL     1     -16.622  18.072  17.878  1.00  0.00    -0.360 N 
HETATM   34  C18 UNL     1     -17.407  17.074  17.460  1.00  0.00     0.180 A 
ATOM     35  H4  UNL     1     -15.972  18.030  18.663  1.00  0.00     0.166 HD
HETATM   36  N5  UNL     1     -18.116  17.505  16.413  1.00  0.00    -0.354 N 
ATOM     37  H5  UNL     1     -18.796  16.951  15.893  1.00  0.00     0.166 HD
ENDBRANCH  30  31
ENDBRANCH  29  30
BRANCH  29  38
HETATM   38  C19 UNL     1     -19.503  21.714  14.850  1.00  0.00     0.241 C 
HETATM   39  O2  UNL     1     -20.067  22.756  15.310  1.00  0.00    -0.271 OA
HETATM   40  N6  UNL     1     -18.800  21.764  13.618  1.00  0.00    -0.351 N 
ATOM     41  H6  UNL     1     -18.359  20.903  13.296  1.00  0.00     0.163 HD
BRANCH  40  42
HETATM   42  C20 UNL     1     -18.657  22.931  12.785  1.00  0.00     0.022 C 
HETATM   43  C21 UNL     1     -18.272  24.172  13.515  1.00  0.00     0.037 C 
HETATM   44  C22 UNL     1     -19.978  23.215  12.067  1.00  0.00     0.037 C 
HETATM   45  C23 UNL     1     -17.623  22.695  11.697  1.00  0.00     0.037 C 
ENDBRANCH  40  42
ENDBRANCH  29  38
ENDBRANCH  27  29
ENDBRANCH   1  25
TORSDOF 12
ENDMDL
