MODEL 1
REMARK VINA RESULT: -8.342873737      0.000      0.000
REMARK  16 active torsions:
REMARK  status: ('A' for Active; 'I' for Inactive)
REMARK    1  A    between atoms: O1_2  and  C2_3 
REMARK    2  A    between atoms: C2_3  and  C5_6 
REMARK    3  A    between atoms: C5_6  and  C6_7 
REMARK    4  A    between atoms: C5_6  and  N2_14 
REMARK    5  A    between atoms: C6_7  and  O2_8 
REMARK    6  A    between atoms: N1_10  and  O3_12 
REMARK    7  A    between atoms: N2_14  and  N3_15 
REMARK    8  A    between atoms: N2_14  and  S2_28 
REMARK    9  A    between atoms: N3_15  and  C7_17 
REMARK   10  A    between atoms: C7_17  and  N4_19 
REMARK   11  A    between atoms: N4_19  and  C8_21 
REMARK   12  A    between atoms: S2_28  and  C15_31 
REMARK   13  A    between atoms: C15_31  and  C16_32 
REMARK   14  A    between atoms: C16_32  and  S3_33 
REMARK   15  A    between atoms: S3_33  and  C17_35 
REMARK   16  A    between atoms: S3_33  and  C19_38 
ROOT
HETATM    1  N2  UNL     1     -20.651  20.422  15.279  1.00  0.00    -0.200 N 
ENDROOT
BRANCH   1   2
HETATM    2  C5  UNL     1     -21.693  20.678  16.159  1.00  0.00     0.230 C 
BRANCH   2   3
HETATM    3  C2  UNL     1     -22.706  19.641  16.444  1.00  0.00     0.084 C 
HETATM    4  C3  UNL     1     -22.869  18.686  15.248  1.00  0.00     0.048 C 
HETATM    5  C4  UNL     1     -22.438  18.770  17.652  1.00  0.00     0.048 C 
BRANCH   3   6
HETATM    6  O1  UNL     1     -23.985  20.141  16.656  1.00  0.00    -0.383 OA
HETATM    7  C1  UNL     1     -24.975  19.222  16.568  1.00  0.00     0.202 C 
ENDBRANCH   3   6
ENDBRANCH   2   3
BRANCH   2   8
HETATM    8  C6  UNL     1     -22.400  21.998  15.833  1.00  0.00     0.164 C 
HETATM    9  N1  UNL     1     -22.295  23.041  16.580  1.00  0.00    -0.249 N 
ATOM     10  H1  UNL     1     -22.806  23.869  16.274  1.00  0.00     0.196 HD
BRANCH   8  11
HETATM   11  O2  UNL     1     -23.196  22.156  14.720  1.00  0.00    -0.346 OA
ATOM     12  H2  UNL     1     -23.674  22.958  14.544  1.00  0.00     0.219 HD
ENDBRANCH   8  11
BRANCH   9  13
HETATM   13  O3  UNL     1     -21.586  23.163  17.722  1.00  0.00    -0.288 OA
ATOM     14  H3  UNL     1     -20.657  23.008  17.843  1.00  0.00     0.244 HD
ENDBRANCH   9  13
ENDBRANCH   2   8
ENDBRANCH   1   2
BRANCH   1  15
HETATM   15  N3  UNL     1     -20.707  20.988  14.019  1.00  0.00    -0.264 N 
ATOM     16  H3  UNL     1     -21.510  20.783  13.425  1.00  0.00     0.190 HD
BRANCH  15  17
HETATM   17  C7  UNL     1     -19.694  21.837  13.525  1.00  0.00     0.191 C 
HETATM   18  S1  UNL     1     -19.247  23.160  14.350  1.00  0.00    -0.039 SA
BRANCH  17  19
HETATM   19  N4  UNL     1     -19.045  21.510  12.323  1.00  0.00    -0.332 N 
ATOM     20  H4  UNL     1     -19.269  20.598  11.927  1.00  0.00     0.168 HD
BRANCH  19  21
HETATM   21  C8  UNL     1     -18.117  22.293  11.594  1.00  0.00     0.034 A 
HETATM   22  C9  UNL     1     -16.930  21.858  11.062  1.00  0.00     0.029 A 
HETATM   23  C10 UNL     1     -16.084  22.679  10.326  1.00  0.00     0.003 A 
HETATM   24  C11 UNL     1     -16.413  23.990  10.101  1.00  0.00     0.007 A 
HETATM   25  C12 UNL     1     -17.597  24.469  10.619  1.00  0.00    -0.060 A 
HETATM   26  C13 UNL     1     -17.948  25.896  10.371  1.00  0.00     0.048 C 
HETATM   27  C14 UNL     1     -18.413  23.644  11.338  1.00  0.00     0.036 A 
ENDBRANCH  19  21
ENDBRANCH  17  19
ENDBRANCH  15  17
ENDBRANCH   1  15
BRANCH   1  28
HETATM   28  S2  UNL     1     -19.200  19.805  15.740  1.00  0.00     0.247 S 
HETATM   29  O4  UNL     1     -18.492  20.808  16.689  1.00  0.00    -0.204 OA
HETATM   30  O5  UNL     1     -18.178  19.795  14.568  1.00  0.00    -0.204 OA
BRANCH  28  31
HETATM   31  C15 UNL     1     -19.156  18.279  16.568  1.00  0.00     0.177 C 
BRANCH  31  32
HETATM   32  C16 UNL     1     -18.073  17.345  16.183  1.00  0.00     0.117 C 
BRANCH  32  33
HETATM   33  S3  UNL     1     -18.664  15.689  15.948  1.00  0.00    -0.029 S 
HETATM   34  O6  UNL     1     -18.376  15.301  14.500  1.00  0.00    -0.266 OA
BRANCH  33  35
HETATM   35  C17 UNL     1     -20.364  15.543  16.294  1.00  0.00     0.078 C 
HETATM   36  C18 UNL     1     -21.238  15.242  15.324  1.00  0.00     0.093 C 
HETATM   37 CL1  UNL     1     -22.953  15.091  15.654  1.00  0.00    -0.096 Cl
ENDBRANCH  33  35
BRANCH  33  38
HETATM   38  C19 UNL     1     -17.761  14.651  16.692  1.00  0.00     0.063 C 
HETATM   39  C20 UNL     1     -17.880  14.495  18.121  1.00  0.00     0.022 C 
HETATM   40  C21 UNL     1     -16.791  13.935  15.886  1.00  0.00     0.022 C 
ENDBRANCH  33  38
ENDBRANCH  32  33
ENDBRANCH  31  32
ENDBRANCH  28  31
ENDBRANCH   1  28
TORSDOF 16
ENDMDL
MODEL 2
REMARK VINA RESULT: -8.232574898      1.040      1.093
REMARK  16 active torsions:
REMARK  status: ('A' for Active; 'I' for Inactive)
REMARK    1  A    between atoms: O1_2  and  C2_3 
REMARK    2  A    between atoms: C2_3  and  C5_6 
REMARK    3  A    between atoms: C5_6  and  C6_7 
REMARK    4  A    between atoms: C5_6  and  N2_14 
REMARK    5  A    between atoms: C6_7  and  O2_8 
REMARK    6  A    between atoms: N1_10  and  O3_12 
REMARK    7  A    between atoms: N2_14  and  N3_15 
REMARK    8  A    between atoms: N2_14  and  S2_28 
REMARK    9  A    between atoms: N3_15  and  C7_17 
REMARK   10  A    between atoms: C7_17  and  N4_19 
REMARK   11  A    between atoms: N4_19  and  C8_21 
REMARK   12  A    between atoms: S2_28  and  C15_31 
REMARK   13  A    between atoms: C15_31  and  C16_32 
REMARK   14  A    between atoms: C16_32  and  S3_33 
REMARK   15  A    between atoms: S3_33  and  C17_35 
REMARK   16  A    between atoms: S3_33  and  C19_38 
ROOT
HETATM    1  N2  UNL     1     -20.566  20.228  15.232  1.00  0.00    -0.200 N 
ENDROOT
BRANCH   1   2
HETATM    2  C5  UNL     1     -21.588  20.534  16.121  1.00  0.00     0.230 C 
BRANCH   2   3
HETATM    3  C2  UNL     1     -22.618  19.530  16.456  1.00  0.00     0.084 C 
HETATM    4  C3  UNL     1     -22.831  18.549  15.289  1.00  0.00     0.048 C 
HETATM    5  C4  UNL     1     -22.342  18.684  17.679  1.00  0.00     0.048 C 
BRANCH   3   6
HETATM    6  O1  UNL     1     -23.879  20.066  16.684  1.00  0.00    -0.383 OA
HETATM    7  C1  UNL     1     -24.906  19.207  16.478  1.00  0.00     0.202 C 
ENDBRANCH   3   6
ENDBRANCH   2   3
BRANCH   2   8
HETATM    8  C6  UNL     1     -22.272  21.858  15.764  1.00  0.00     0.164 C 
HETATM    9  N1  UNL     1     -22.176  22.907  16.505  1.00  0.00    -0.249 N 
ATOM     10  H1  UNL     1     -22.669  23.738  16.178  1.00  0.00     0.196 HD
BRANCH   8  11
HETATM   11  O2  UNL     1     -23.035  22.014  14.628  1.00  0.00    -0.346 OA
ATOM     12  H2  UNL     1     -22.803  22.624  13.937  1.00  0.00     0.219 HD
ENDBRANCH   8  11
BRANCH   9  13
HETATM   13  O3  UNL     1     -21.497  23.032  17.665  1.00  0.00    -0.288 OA
ATOM     14  H3  UNL     1     -21.858  23.164  18.533  1.00  0.00     0.244 HD
ENDBRANCH   9  13
ENDBRANCH   2   8
ENDBRANCH   1   2
BRANCH   1  15
HETATM   15  N3  UNL     1     -20.562  20.855  14.001  1.00  0.00    -0.264 N 
ATOM     16  H3  UNL     1     -21.352  20.708  13.373  1.00  0.00     0.190 HD
BRANCH  15  17
HETATM   17  C7  UNL     1     -19.506  21.692  13.581  1.00  0.00     0.191 C 
HETATM   18  S1  UNL     1     -19.068  22.979  14.466  1.00  0.00    -0.039 SA
BRANCH  17  19
HETATM   19  N4  UNL     1     -18.807  21.383  12.403  1.00  0.00    -0.332 N 
ATOM     20  H4  UNL     1     -18.908  20.428  12.060  1.00  0.00     0.168 HD
BRANCH  19  21
HETATM   21  C8  UNL     1     -17.979  22.235  11.633  1.00  0.00     0.034 A 
HETATM   22  C9  UNL     1     -16.829  21.874  10.978  1.00  0.00     0.029 A 
HETATM   23  C10 UNL     1     -16.085  22.761  10.210  1.00  0.00     0.003 A 
HETATM   24  C11 UNL     1     -16.482  24.066  10.077  1.00  0.00     0.007 A 
HETATM   25  C12 UNL     1     -17.632  24.471  10.720  1.00  0.00    -0.060 A 
HETATM   26  C13 UNL     1     -18.058  25.892  10.572  1.00  0.00     0.048 C 
HETATM   27  C14 UNL     1     -18.348  23.583  11.469  1.00  0.00     0.036 A 
ENDBRANCH  19  21
ENDBRANCH  17  19
ENDBRANCH  15  17
ENDBRANCH   1  15
BRANCH   1  28
HETATM   28  S2  UNL     1     -19.181  19.460  15.667  1.00  0.00     0.247 S 
HETATM   29  O4  UNL     1     -18.510  20.230  16.835  1.00  0.00    -0.204 OA
HETATM   30  O5  UNL     1     -18.072  19.614  14.587  1.00  0.00    -0.204 OA
BRANCH  28  31
HETATM   31  C15 UNL     1     -19.260  17.807  16.192  1.00  0.00     0.177 C 
BRANCH  31  32
HETATM   32  C16 UNL     1     -17.975  17.077  16.285  1.00  0.00     0.117 C 
BRANCH  32  33
HETATM   33  S3  UNL     1     -18.166  15.337  15.997  1.00  0.00    -0.029 S 
HETATM   34  O6  UNL     1     -16.833  14.813  15.468  1.00  0.00    -0.266 OA
BRANCH  33  35
HETATM   35  C17 UNL     1     -19.449  14.995  14.871  1.00  0.00     0.078 C 
HETATM   36  C18 UNL     1     -19.189  14.416  13.690  1.00  0.00     0.093 C 
HETATM   37 CL1  UNL     1     -20.468  14.065  12.545  1.00  0.00    -0.096 Cl
ENDBRANCH  33  35
BRANCH  33  38
HETATM   38  C19 UNL     1     -18.255  14.543  17.342  1.00  0.00     0.063 C 
HETATM   39  C20 UNL     1     -17.565  15.034  18.508  1.00  0.00     0.022 C 
HETATM   40  C21 UNL     1     -18.997  13.297  17.315  1.00  0.00     0.022 C 
ENDBRANCH  33  38
ENDBRANCH  32  33
ENDBRANCH  31  32
ENDBRANCH  28  31
ENDBRANCH   1  28
TORSDOF 16
ENDMDL
MODEL 3
REMARK VINA RESULT: -8.085477912      2.336      3.650
REMARK  16 active torsions:
REMARK  status: ('A' for Active; 'I' for Inactive)
REMARK    1  A    between atoms: O1_2  and  C2_3 
REMARK    2  A    between atoms: C2_3  and  C5_6 
REMARK    3  A    between atoms: C5_6  and  C6_7 
REMARK    4  A    between atoms: C5_6  and  N2_14 
REMARK    5  A    between atoms: C6_7  and  O2_8 
REMARK    6  A    between atoms: N1_10  and  O3_12 
REMARK    7  A    between atoms: N2_14  and  N3_15 
REMARK    8  A    between atoms: N2_14  and  S2_28 
REMARK    9  A    between atoms: N3_15  and  C7_17 
REMARK   10  A    between atoms: C7_17  and  N4_19 
REMARK   11  A    between atoms: N4_19  and  C8_21 
REMARK   12  A    between atoms: S2_28  and  C15_31 
REMARK   13  A    between atoms: C15_31  and  C16_32 
REMARK   14  A    between atoms: C16_32  and  S3_33 
REMARK   15  A    between atoms: S3_33  and  C17_35 
REMARK   16  A    between atoms: S3_33  and  C19_38 
ROOT
HETATM    1  N2  UNL     1     -21.088  18.372  16.529  1.00  0.00    -0.200 N 
ENDROOT
BRANCH   1   2
HETATM    2  C5  UNL     1     -22.408  18.780  16.663  1.00  0.00     0.230 C 
BRANCH   2   3
HETATM    3  C2  UNL     1     -22.849  20.085  16.131  1.00  0.00     0.084 C 
HETATM    4  C3  UNL     1     -22.747  20.117  14.596  1.00  0.00     0.048 C 
HETATM    5  C4  UNL     1     -24.265  20.494  16.474  1.00  0.00     0.048 C 
BRANCH   3   6
HETATM    6  O1  UNL     1     -22.070  21.158  16.546  1.00  0.00    -0.383 OA
HETATM    7  C1  UNL     1     -22.738  22.330  16.670  1.00  0.00     0.202 C 
ENDBRANCH   3   6
ENDBRANCH   2   3
BRANCH   2   8
HETATM    8  C6  UNL     1     -22.904  18.629  18.105  1.00  0.00     0.164 C 
HETATM    9  N1  UNL     1     -23.505  17.569  18.522  1.00  0.00    -0.249 N 
ATOM     10  H1  UNL     1     -23.795  17.569  19.500  1.00  0.00     0.196 HD
BRANCH   8  11
HETATM   11  O2  UNL     1     -22.742  19.617  19.051  1.00  0.00    -0.346 OA
ATOM     12  H2  UNL     1     -23.476  20.024  19.495  1.00  0.00     0.219 HD
ENDBRANCH   8  11
BRANCH   9  13
HETATM   13  O3  UNL     1     -23.794  16.458  17.812  1.00  0.00    -0.288 OA
ATOM     14  H3  UNL     1     -24.298  15.706  18.098  1.00  0.00     0.244 HD
ENDBRANCH   9  13
ENDBRANCH   2   8
ENDBRANCH   1   2
BRANCH   1  15
HETATM   15  N3  UNL     1     -20.093  19.234  16.950  1.00  0.00    -0.264 N 
ATOM     16  H3  UNL     1     -20.087  19.538  17.924  1.00  0.00     0.190 HD
BRANCH  15  17
HETATM   17  C7  UNL     1     -19.086  19.709  16.083  1.00  0.00     0.191 C 
HETATM   18  S1  UNL     1     -17.535  19.742  16.557  1.00  0.00    -0.039 SA
BRANCH  17  19
HETATM   19  N4  UNL     1     -19.430  20.122  14.785  1.00  0.00    -0.332 N 
ATOM     20  H4  UNL     1     -19.992  19.468  14.242  1.00  0.00     0.168 HD
BRANCH  19  21
HETATM   21  C8  UNL     1     -19.091  21.335  14.139  1.00  0.00     0.034 A 
HETATM   22  C9  UNL     1     -19.274  22.600  14.639  1.00  0.00     0.029 A 
HETATM   23  C10 UNL     1     -18.884  23.746  13.959  1.00  0.00     0.003 A 
HETATM   24  C11 UNL     1     -18.285  23.654  12.730  1.00  0.00     0.007 A 
HETATM   25  C12 UNL     1     -18.082  22.402  12.190  1.00  0.00    -0.060 A 
HETATM   26  C13 UNL     1     -17.431  22.310  10.852  1.00  0.00     0.048 C 
HETATM   27  C14 UNL     1     -18.474  21.289  12.876  1.00  0.00     0.036 A 
ENDBRANCH  19  21
ENDBRANCH  17  19
ENDBRANCH  15  17
ENDBRANCH   1  15
BRANCH   1  28
HETATM   28  S2  UNL     1     -20.639  16.818  16.248  1.00  0.00     0.247 S 
HETATM   29  O4  UNL     1     -21.715  16.120  15.374  1.00  0.00    -0.204 OA
HETATM   30  O5  UNL     1     -20.746  15.944  17.531  1.00  0.00    -0.204 OA
BRANCH  28  31
HETATM   31  C15 UNL     1     -19.128  16.505  15.452  1.00  0.00     0.177 C 
BRANCH  31  32
HETATM   32  C16 UNL     1     -18.217  15.541  16.110  1.00  0.00     0.117 C 
BRANCH  32  33
HETATM   33  S3  UNL     1     -17.979  14.071  15.146  1.00  0.00    -0.029 S 
HETATM   34  O6  UNL     1     -16.494  13.984  14.804  1.00  0.00    -0.266 OA
BRANCH  33  35
HETATM   35  C17 UNL     1     -18.943  14.075  13.695  1.00  0.00     0.078 C 
HETATM   36  C18 UNL     1     -19.947  13.201  13.537  1.00  0.00     0.093 C 
HETATM   37 CL1  UNL     1     -20.927  13.191  12.084  1.00  0.00    -0.096 Cl
ENDBRANCH  33  35
BRANCH  33  38
HETATM   38  C19 UNL     1     -18.133  12.784  16.021  1.00  0.00     0.063 C 
HETATM   39  C20 UNL     1     -17.567  11.538  15.564  1.00  0.00     0.022 C 
HETATM   40  C21 UNL     1     -18.907  12.914  17.240  1.00  0.00     0.022 C 
ENDBRANCH  33  38
ENDBRANCH  32  33
ENDBRANCH  31  32
ENDBRANCH  28  31
ENDBRANCH   1  28
TORSDOF 16
ENDMDL
MODEL 4
REMARK VINA RESULT: -8.069471488      2.591      7.191
REMARK  16 active torsions:
REMARK  status: ('A' for Active; 'I' for Inactive)
REMARK    1  A    between atoms: O1_2  and  C2_3 
REMARK    2  A    between atoms: C2_3  and  C5_6 
REMARK    3  A    between atoms: C5_6  and  C6_7 
REMARK    4  A    between atoms: C5_6  and  N2_14 
REMARK    5  A    between atoms: C6_7  and  O2_8 
REMARK    6  A    between atoms: N1_10  and  O3_12 
REMARK    7  A    between atoms: N2_14  and  N3_15 
REMARK    8  A    between atoms: N2_14  and  S2_28 
REMARK    9  A    between atoms: N3_15  and  C7_17 
REMARK   10  A    between atoms: C7_17  and  N4_19 
REMARK   11  A    between atoms: N4_19  and  C8_21 
REMARK   12  A    between atoms: S2_28  and  C15_31 
REMARK   13  A    between atoms: C15_31  and  C16_32 
REMARK   14  A    between atoms: C16_32  and  S3_33 
REMARK   15  A    between atoms: S3_33  and  C17_35 
REMARK   16  A    between atoms: S3_33  and  C19_38 
ROOT
HETATM    1  N2  UNL     1     -20.946  21.029  16.101  1.00  0.00    -0.200 N 
ENDROOT
BRANCH   1   2
HETATM    2  C5  UNL     1     -22.204  21.517  15.777  1.00  0.00     0.230 C 
BRANCH   2   3
HETATM    3  C2  UNL     1     -23.080  22.087  16.821  1.00  0.00     0.084 C 
HETATM    4  C3  UNL     1     -22.368  23.223  17.577  1.00  0.00     0.048 C 
HETATM    5  C4  UNL     1     -24.398  22.654  16.341  1.00  0.00     0.048 C 
BRANCH   3   6
HETATM    6  O1  UNL     1     -23.434  21.186  17.818  1.00  0.00    -0.383 OA
HETATM    7  C1  UNL     1     -23.947  21.751  18.937  1.00  0.00     0.202 C 
ENDBRANCH   3   6
ENDBRANCH   2   3
BRANCH   2   8
HETATM    8  C6  UNL     1     -23.004  20.511  14.942  1.00  0.00     0.164 C 
HETATM    9  N1  UNL     1     -22.825  20.369  13.675  1.00  0.00    -0.249 N 
ATOM     10  H1  UNL     1     -23.409  19.672  13.211  1.00  0.00     0.196 HD
BRANCH   8  11
HETATM   11  O2  UNL     1     -23.968  19.695  15.490  1.00  0.00    -0.346 OA
ATOM     12  H2  UNL     1     -24.897  19.835  15.347  1.00  0.00     0.219 HD
ENDBRANCH   8  11
BRANCH   9  13
HETATM   13  O3  UNL     1     -21.952  21.036  12.890  1.00  0.00    -0.288 OA
ATOM     14  H3  UNL     1     -21.081  20.759  12.633  1.00  0.00     0.244 HD
ENDBRANCH   9  13
ENDBRANCH   2   8
ENDBRANCH   1   2
BRANCH   1  15
HETATM   15  N3  UNL     1     -20.867  19.904  16.899  1.00  0.00    -0.264 N 
ATOM     16  H3  UNL     1     -20.984  20.009  17.907  1.00  0.00     0.190 HD
BRANCH  15  17
HETATM   17  C7  UNL     1     -20.630  18.617  16.373  1.00  0.00     0.191 C 
HETATM   18  S1  UNL     1     -21.819  17.515  16.315  1.00  0.00    -0.039 SA
BRANCH  17  19
HETATM   19  N4  UNL     1     -19.360  18.302  15.862  1.00  0.00    -0.332 N 
ATOM     20  H4  UNL     1     -19.034  18.878  15.086  1.00  0.00     0.168 HD
BRANCH  19  21
HETATM   21  C8  UNL     1     -18.476  17.282  16.292  1.00  0.00     0.034 A 
HETATM   22  C9  UNL     1     -17.658  17.329  17.392  1.00  0.00     0.029 A 
HETATM   23  C10 UNL     1     -16.840  16.272  17.772  1.00  0.00     0.003 A 
HETATM   24  C11 UNL     1     -16.821  15.113  17.042  1.00  0.00     0.007 A 
HETATM   25  C12 UNL     1     -17.628  15.024  15.928  1.00  0.00    -0.060 A 
HETATM   26  C13 UNL     1     -17.600  13.760  15.138  1.00  0.00     0.048 C 
HETATM   27  C14 UNL     1     -18.423  16.074  15.573  1.00  0.00     0.036 A 
ENDBRANCH  19  21
ENDBRANCH  17  19
ENDBRANCH  15  17
ENDBRANCH   1  15
BRANCH   1  28
HETATM   28  S2  UNL     1     -19.570  21.469  15.318  1.00  0.00     0.247 S 
HETATM   29  O4  UNL     1     -19.295  20.473  14.160  1.00  0.00    -0.204 OA
HETATM   30  O5  UNL     1     -18.304  21.211  16.184  1.00  0.00    -0.204 OA
BRANCH  28  31
HETATM   31  C15 UNL     1     -19.475  23.046  14.599  1.00  0.00     0.177 C 
BRANCH  31  32
HETATM   32  C16 UNL     1     -18.207  23.389  13.914  1.00  0.00     0.117 C 
BRANCH  32  33
HETATM   33  S3  UNL     1     -18.351  23.304  12.147  1.00  0.00    -0.029 S 
HETATM   34  O6  UNL     1     -19.793  22.922  11.825  1.00  0.00    -0.266 OA
BRANCH  33  35
HETATM   35  C17 UNL     1     -17.243  22.155  11.453  1.00  0.00     0.078 C 
HETATM   36  C18 UNL     1     -17.567  20.857  11.364  1.00  0.00     0.093 C 
HETATM   37 CL1  UNL     1     -16.464  19.687  10.668  1.00  0.00    -0.096 Cl
ENDBRANCH  33  35
BRANCH  33  38
HETATM   38  C19 UNL     1     -18.296  24.728  11.502  1.00  0.00     0.063 C 
HETATM   39  C20 UNL     1     -18.929  25.839  12.169  1.00  0.00     0.022 C 
HETATM   40  C21 UNL     1     -17.648  24.833  10.209  1.00  0.00     0.022 C 
ENDBRANCH  33  38
ENDBRANCH  32  33
ENDBRANCH  31  32
ENDBRANCH  28  31
ENDBRANCH   1  28
TORSDOF 16
ENDMDL
MODEL 5
REMARK VINA RESULT: -8.065730192      1.349      1.936
REMARK  16 active torsions:
REMARK  status: ('A' for Active; 'I' for Inactive)
REMARK    1  A    between atoms: O1_2  and  C2_3 
REMARK    2  A    between atoms: C2_3  and  C5_6 
REMARK    3  A    between atoms: C5_6  and  C6_7 
REMARK    4  A    between atoms: C5_6  and  N2_14 
REMARK    5  A    between atoms: C6_7  and  O2_8 
REMARK    6  A    between atoms: N1_10  and  O3_12 
REMARK    7  A    between atoms: N2_14  and  N3_15 
REMARK    8  A    between atoms: N2_14  and  S2_28 
REMARK    9  A    between atoms: N3_15  and  C7_17 
REMARK   10  A    between atoms: C7_17  and  N4_19 
REMARK   11  A    between atoms: N4_19  and  C8_21 
REMARK   12  A    between atoms: S2_28  and  C15_31 
REMARK   13  A    between atoms: C15_31  and  C16_32 
REMARK   14  A    between atoms: C16_32  and  S3_33 
REMARK   15  A    between atoms: S3_33  and  C17_35 
REMARK   16  A    between atoms: S3_33  and  C19_38 
ROOT
HETATM    1  N2  UNL     1     -20.613  20.399  15.305  1.00  0.00    -0.200 N 
ENDROOT
BRANCH   1   2
HETATM    2  C5  UNL     1     -21.650  20.663  16.189  1.00  0.00     0.230 C 
BRANCH   2   3
HETATM    3  C2  UNL     1     -22.655  19.626  16.498  1.00  0.00     0.084 C 
HETATM    4  C3  UNL     1     -22.802  18.635  15.329  1.00  0.00     0.048 C 
HETATM    5  C4  UNL     1     -22.386  18.793  17.732  1.00  0.00     0.048 C 
BRANCH   3   6
HETATM    6  O1  UNL     1     -23.940  20.120  16.688  1.00  0.00    -0.383 OA
HETATM    7  C1  UNL     1     -24.929  19.214  16.501  1.00  0.00     0.202 C 
ENDBRANCH   3   6
ENDBRANCH   2   3
BRANCH   2   8
HETATM    8  C6  UNL     1     -22.367  21.973  15.846  1.00  0.00     0.164 C 
HETATM    9  N1  UNL     1     -22.282  23.023  16.588  1.00  0.00    -0.249 N 
ATOM     10  H1  UNL     1     -22.797  23.843  16.271  1.00  0.00     0.196 HD
BRANCH   8  11
HETATM   11  O2  UNL     1     -23.152  22.116  14.723  1.00  0.00    -0.346 OA
ATOM     12  H2  UNL     1     -23.481  22.959  14.434  1.00  0.00     0.219 HD
ENDBRANCH   8  11
BRANCH   9  13
HETATM   13  O3  UNL     1     -21.587  23.159  17.737  1.00  0.00    -0.288 OA
ATOM     14  H3  UNL     1     -21.892  22.981  18.619  1.00  0.00     0.244 HD
ENDBRANCH   9  13
ENDBRANCH   2   8
ENDBRANCH   1   2
BRANCH   1  15
HETATM   15  N3  UNL     1     -20.677  20.951  14.040  1.00  0.00    -0.264 N 
ATOM     16  H3  UNL     1     -21.475  20.726  13.446  1.00  0.00     0.190 HD
BRANCH  15  17
HETATM   17  C7  UNL     1     -19.679  21.813  13.538  1.00  0.00     0.191 C 
HETATM   18  S1  UNL     1     -19.239  23.138  14.364  1.00  0.00    -0.039 SA
BRANCH  17  19
HETATM   19  N4  UNL     1     -19.038  21.499  12.328  1.00  0.00    -0.332 N 
ATOM     20  H4  UNL     1     -19.273  20.594  11.920  1.00  0.00     0.168 HD
BRANCH  19  21
HETATM   21  C8  UNL     1     -18.108  22.284  11.606  1.00  0.00     0.034 A 
HETATM   22  C9  UNL     1     -16.917  21.852  11.080  1.00  0.00     0.029 A 
HETATM   23  C10 UNL     1     -16.069  22.676  10.351  1.00  0.00     0.003 A 
HETATM   24  C11 UNL     1     -16.398  23.987  10.126  1.00  0.00     0.007 A 
HETATM   25  C12 UNL     1     -17.586  24.463  10.639  1.00  0.00    -0.060 A 
HETATM   26  C13 UNL     1     -17.937  25.890  10.391  1.00  0.00     0.048 C 
HETATM   27  C14 UNL     1     -18.405  23.636  11.352  1.00  0.00     0.036 A 
ENDBRANCH  19  21
ENDBRANCH  17  19
ENDBRANCH  15  17
ENDBRANCH   1  15
BRANCH   1  28
HETATM   28  S2  UNL     1     -19.159  19.788  15.764  1.00  0.00     0.247 S 
HETATM   29  O4  UNL     1     -18.441  20.806  16.689  1.00  0.00    -0.204 OA
HETATM   30  O5  UNL     1     -18.147  19.756  14.583  1.00  0.00    -0.204 OA
BRANCH  28  31
HETATM   31  C15 UNL     1     -19.109  18.277  16.619  1.00  0.00     0.177 C 
BRANCH  31  32
HETATM   32  C16 UNL     1     -18.549  17.118  15.886  1.00  0.00     0.117 C 
BRANCH  32  33
HETATM   33  S3  UNL     1     -19.042  15.569  16.598  1.00  0.00    -0.029 S 
HETATM   34  O6  UNL     1     -18.949  15.714  18.115  1.00  0.00    -0.266 OA
BRANCH  33  35
HETATM   35  C17 UNL     1     -18.052  14.248  16.046  1.00  0.00     0.078 C 
HETATM   36  C18 UNL     1     -18.479  12.981  16.151  1.00  0.00     0.093 C 
HETATM   37 CL1  UNL     1     -17.496  11.639  15.601  1.00  0.00    -0.096 Cl
ENDBRANCH  33  35
BRANCH  33  38
HETATM   38  C19 UNL     1     -20.581  15.335  16.442  1.00  0.00     0.063 C 
HETATM   39  C20 UNL     1     -21.174  15.339  15.127  1.00  0.00     0.022 C 
HETATM   40  C21 UNL     1     -21.345  15.184  17.665  1.00  0.00     0.022 C 
ENDBRANCH  33  38
ENDBRANCH  32  33
ENDBRANCH  31  32
ENDBRANCH  28  31
ENDBRANCH   1  28
TORSDOF 16
ENDMDL
