MODEL 1
REMARK VINA RESULT: -9.541195493      0.000      0.000
REMARK  12 active torsions:
REMARK  status: ('A' for Active; 'I' for Inactive)
REMARK    1  A    between atoms: C3_3  and  S1_4 
REMARK    2  A    between atoms: S1_4  and  N1_7 
REMARK    3  A    between atoms: N1_7  and  C4_9 
REMARK    4  A    between atoms: C4_9  and  C5_10 
REMARK    5  A    between atoms: C4_9  and  C12_17 
REMARK    6  A    between atoms: C5_10  and  C6_11 
REMARK    7  A    between atoms: C12_17  and  O3_18 
REMARK    8  A    between atoms: N2_20  and  O4_22 
REMARK    9  A    between atoms: C15_26  and  N3_27 
REMARK       I    between atoms: N3_27  and  C16_29 
REMARK   10  A    between atoms: C16_29  and  C17_31 
REMARK   11  A    between atoms: C17_31  and  C18_32 
REMARK   12  A    between atoms: C18_32  and  C19_33 
REMARK       I    between atoms: C19_33  and  N4_35 
ROOT
HETATM    1  C1  UNL     1     -18.921  16.984  17.025  1.00  0.00     0.052 C 
HETATM    2  C2  UNL     1     -19.831  18.138  16.673  1.00  0.00    -0.015 A 
HETATM    3  C3  UNL     1     -21.189  18.032  16.923  1.00  0.00     0.087 A 
HETATM    4  C13 UNL     1     -21.962  19.091  16.587  1.00  0.00     0.028 A 
HETATM    5  C14 UNL     1     -21.404  20.245  16.008  1.00  0.00     0.033 A 
HETATM    6  C15 UNL     1     -20.068  20.370  15.751  1.00  0.00     0.057 A 
HETATM    7  C24 UNL     1     -19.290  19.262  16.109  1.00  0.00     0.068 A 
HETATM    8 CL1  UNL     1     -17.551  19.335  15.814  1.00  0.00    -0.081 Cl
ENDROOT
BRANCH   3   9
HETATM    9  S1  UNL     1     -21.818  16.617  17.674  1.00  0.00     0.260 S 
HETATM   10  O1  UNL     1     -23.333  16.596  17.380  1.00  0.00    -0.200 OA
HETATM   11  O2  UNL     1     -21.661  16.849  19.187  1.00  0.00    -0.200 OA
BRANCH   9  12
HETATM   12  N1  UNL     1     -21.231  15.120  17.227  1.00  0.00    -0.303 N 
ATOM     13  H1  UNL     1     -20.441  14.706  17.723  1.00  0.00     0.173 HD
BRANCH  12  14
HETATM   14  C4  UNL     1     -21.843  14.427  16.150  1.00  0.00     0.169 C 
BRANCH  14  15
HETATM   15  C5  UNL     1     -21.404  13.050  15.911  1.00  0.00     0.038 C 
BRANCH  15  16
HETATM   16  C6  UNL     1     -19.963  12.713  16.025  1.00  0.00    -0.012 C 
HETATM   17  C7  UNL     1     -19.891  11.250  16.547  1.00  0.00     0.005 C 
HETATM   18  C8  UNL     1     -18.567  10.628  16.193  1.00  0.00     0.000 C 
HETATM   19  C9  UNL     1     -18.467  10.320  14.712  1.00  0.00     0.000 C 
HETATM   20  C10 UNL     1     -19.232  11.425  14.004  1.00  0.00     0.000 C 
HETATM   21  C11 UNL     1     -19.139  12.718  14.793  1.00  0.00     0.005 C 
ENDBRANCH  15  16
ENDBRANCH  14  15
BRANCH  14  22
HETATM   22  C12 UNL     1     -21.899  15.290  14.911  1.00  0.00     0.159 C 
HETATM   23  N2  UNL     1     -23.016  15.714  14.434  1.00  0.00    -0.249 N 
ATOM     24  H2  UNL     1     -23.877  15.452  14.914  1.00  0.00     0.196 HD
BRANCH  22  25
HETATM   25  O3  UNL     1     -20.734  15.643  14.257  1.00  0.00    -0.347 OA
ATOM     26  H3  UNL     1     -20.757  15.890  13.340  1.00  0.00     0.219 HD
ENDBRANCH  22  25
BRANCH  23  27
HETATM   27  O4  UNL     1     -23.109  16.488  13.328  1.00  0.00    -0.288 OA
ATOM     28  H4  UNL     1     -23.920  16.883  13.032  1.00  0.00     0.244 HD
ENDBRANCH  23  27
ENDBRANCH  14  22
ENDBRANCH  12  14
ENDBRANCH   9  12
ENDBRANCH   3   9
BRANCH   6  29
HETATM   29  N3  UNL     1     -19.431  21.498  15.170  1.00  0.00    -0.326 N 
HETATM   30  C16 UNL     1     -19.422  21.890  13.831  1.00  0.00     0.222 C 
HETATM   31  O5  UNL     1     -19.996  21.275  12.930  1.00  0.00    -0.273 OA
ATOM     32  H3  UNL     1     -18.916  22.099  15.813  1.00  0.00     0.169 HD
BRANCH  30  33
HETATM   33  C17 UNL     1     -18.682  23.122  13.436  1.00  0.00     0.112 C 
BRANCH  33  34
HETATM   34  C18 UNL     1     -19.114  23.623  12.089  1.00  0.00     0.112 C 
BRANCH  34  35
HETATM   35  C19 UNL     1     -18.076  23.454  11.059  1.00  0.00     0.220 C 
HETATM   36  O6  UNL     1     -17.591  22.317  10.792  1.00  0.00    -0.273 OA
HETATM   37  N4  UNL     1     -17.602  24.570  10.346  1.00  0.00    -0.348 N 
HETATM   38  C20 UNL     1     -16.570  24.439   9.313  1.00  0.00     0.152 C 
HETATM   39  C23 UNL     1     -18.088  25.912  10.573  1.00  0.00     0.152 C 
HETATM   40  C21 UNL     1     -16.954  25.459   8.241  1.00  0.00     0.187 C 
HETATM   41  O7  UNL     1     -16.785  26.746   8.717  1.00  0.00    -0.388 OA
HETATM   42  C22 UNL     1     -17.040  26.892  10.063  1.00  0.00     0.187 C 
ENDBRANCH  34  35
ENDBRANCH  33  34
ENDBRANCH  30  33
ENDBRANCH   6  29
TORSDOF 12
ENDMDL
MODEL 2
REMARK VINA RESULT: -9.421540215      1.273      1.823
REMARK  12 active torsions:
REMARK  status: ('A' for Active; 'I' for Inactive)
REMARK    1  A    between atoms: C3_3  and  S1_4 
REMARK    2  A    between atoms: S1_4  and  N1_7 
REMARK    3  A    between atoms: N1_7  and  C4_9 
REMARK    4  A    between atoms: C4_9  and  C5_10 
REMARK    5  A    between atoms: C4_9  and  C12_17 
REMARK    6  A    between atoms: C5_10  and  C6_11 
REMARK    7  A    between atoms: C12_17  and  O3_18 
REMARK    8  A    between atoms: N2_20  and  O4_22 
REMARK    9  A    between atoms: C15_26  and  N3_27 
REMARK       I    between atoms: N3_27  and  C16_29 
REMARK   10  A    between atoms: C16_29  and  C17_31 
REMARK   11  A    between atoms: C17_31  and  C18_32 
REMARK   12  A    between atoms: C18_32  and  C19_33 
REMARK       I    between atoms: C19_33  and  N4_35 
ROOT
HETATM    1  C1  UNL     1     -22.040  18.365  17.104  1.00  0.00     0.052 C 
HETATM    2  C2  UNL     1     -20.639  18.562  16.570  1.00  0.00    -0.015 A 
HETATM    3  C3  UNL     1     -19.725  17.528  16.668  1.00  0.00     0.087 A 
HETATM    4  C13 UNL     1     -18.483  17.755  16.179  1.00  0.00     0.028 A 
HETATM    5  C14 UNL     1     -18.144  18.990  15.598  1.00  0.00     0.033 A 
HETATM    6  C15 UNL     1     -19.031  20.024  15.492  1.00  0.00     0.057 A 
HETATM    7  C24 UNL     1     -20.307  19.764  16.004  1.00  0.00     0.068 A 
HETATM    8 CL1  UNL     1     -21.520  21.043  15.910  1.00  0.00    -0.081 Cl
ENDROOT
BRANCH   3   9
HETATM    9  S1  UNL     1     -20.199  16.020  17.348  1.00  0.00     0.260 S 
HETATM   10  O1  UNL     1     -20.908  16.337  18.681  1.00  0.00    -0.200 OA
HETATM   11  O2  UNL     1     -18.887  15.297  17.702  1.00  0.00    -0.200 OA
BRANCH   9  12
HETATM   12  N1  UNL     1     -21.229  15.021  16.494  1.00  0.00    -0.303 N 
ATOM     13  H1  UNL     1     -22.155  14.800  16.861  1.00  0.00     0.173 HD
BRANCH  12  14
HETATM   14  C4  UNL     1     -20.802  14.482  15.253  1.00  0.00     0.169 C 
BRANCH  14  15
HETATM   15  C5  UNL     1     -19.356  14.390  15.031  1.00  0.00     0.038 C 
BRANCH  15  16
HETATM   16  C6  UNL     1     -18.766  13.104  14.584  1.00  0.00    -0.012 C 
HETATM   17  C7  UNL     1     -17.606  12.785  15.569  1.00  0.00     0.005 C 
HETATM   18  C8  UNL     1     -17.302  11.310  15.566  1.00  0.00     0.000 C 
HETATM   19  C9  UNL     1     -18.385  10.510  16.261  1.00  0.00     0.000 C 
HETATM   20  C10 UNL     1     -19.692  11.225  15.958  1.00  0.00     0.000 C 
HETATM   21  C11 UNL     1     -19.621  11.894  14.598  1.00  0.00     0.005 C 
ENDBRANCH  15  16
ENDBRANCH  14  15
BRANCH  14  22
HETATM   22  C12 UNL     1     -21.575  15.084  14.104  1.00  0.00     0.159 C 
HETATM   23  N2  UNL     1     -22.452  16.006  14.291  1.00  0.00    -0.249 N 
ATOM     24  H2  UNL     1     -22.619  16.329  15.244  1.00  0.00     0.196 HD
BRANCH  22  25
HETATM   25  O3  UNL     1     -21.353  14.648  12.812  1.00  0.00    -0.347 OA
ATOM     26  H3  UNL     1     -21.892  14.970  12.099  1.00  0.00     0.219 HD
ENDBRANCH  22  25
BRANCH  23  27
HETATM   27  O4  UNL     1     -23.165  16.572  13.289  1.00  0.00    -0.288 OA
ATOM     28  H4  UNL     1     -24.029  16.274  13.028  1.00  0.00     0.244 HD
ENDBRANCH  23  27
ENDBRANCH  14  22
ENDBRANCH  12  14
ENDBRANCH   9  12
ENDBRANCH   3   9
BRANCH   6  29
HETATM   29  N3  UNL     1     -18.765  21.297  14.921  1.00  0.00    -0.326 N 
HETATM   30  C16 UNL     1     -19.101  21.760  13.650  1.00  0.00     0.222 C 
HETATM   31  O5  UNL     1     -19.707  21.089  12.811  1.00  0.00    -0.273 OA
ATOM     32  H3  UNL     1     -18.264  21.956  15.517  1.00  0.00     0.169 HD
BRANCH  30  33
HETATM   33  C17 UNL     1     -18.720  23.145  13.253  1.00  0.00     0.112 C 
BRANCH  33  34
HETATM   34  C18 UNL     1     -19.097  23.440  11.830  1.00  0.00     0.112 C 
BRANCH  34  35
HETATM   35  C19 UNL     1     -17.948  23.380  10.913  1.00  0.00     0.220 C 
HETATM   36  O6  UNL     1     -17.352  22.291  10.671  1.00  0.00    -0.273 OA
HETATM   37  N4  UNL     1     -17.489  24.551  10.281  1.00  0.00    -0.348 N 
HETATM   38  C20 UNL     1     -16.348  24.530   9.361  1.00  0.00     0.152 C 
HETATM   39  C23 UNL     1     -18.098  25.845  10.488  1.00  0.00     0.152 C 
HETATM   40  C21 UNL     1     -16.695  25.552   8.279  1.00  0.00     0.187 C 
HETATM   41  O7  UNL     1     -16.676  26.832   8.801  1.00  0.00    -0.388 OA
HETATM   42  C22 UNL     1     -17.081  26.916  10.116  1.00  0.00     0.187 C 
ENDBRANCH  34  35
ENDBRANCH  33  34
ENDBRANCH  30  33
ENDBRANCH   6  29
TORSDOF 12
ENDMDL
MODEL 3
REMARK VINA RESULT: -9.415864490      2.373      3.188
REMARK  12 active torsions:
REMARK  status: ('A' for Active; 'I' for Inactive)
REMARK    1  A    between atoms: C3_3  and  S1_4 
REMARK    2  A    between atoms: S1_4  and  N1_7 
REMARK    3  A    between atoms: N1_7  and  C4_9 
REMARK    4  A    between atoms: C4_9  and  C5_10 
REMARK    5  A    between atoms: C4_9  and  C12_17 
REMARK    6  A    between atoms: C5_10  and  C6_11 
REMARK    7  A    between atoms: C12_17  and  O3_18 
REMARK    8  A    between atoms: N2_20  and  O4_22 
REMARK    9  A    between atoms: C15_26  and  N3_27 
REMARK       I    between atoms: N3_27  and  C16_29 
REMARK   10  A    between atoms: C16_29  and  C17_31 
REMARK   11  A    between atoms: C17_31  and  C18_32 
REMARK   12  A    between atoms: C18_32  and  C19_33 
REMARK       I    between atoms: C19_33  and  N4_35 
ROOT
HETATM    1  C1  UNL     1     -20.481  17.033  17.004  1.00  0.00     0.052 C 
HETATM    2  C2  UNL     1     -19.301  17.947  16.766  1.00  0.00    -0.015 A 
HETATM    3  C3  UNL     1     -18.037  17.539  17.156  1.00  0.00     0.087 A 
HETATM    4  C13 UNL     1     -17.014  18.394  16.925  1.00  0.00     0.028 A 
HETATM    5  C14 UNL     1     -17.233  19.642  16.313  1.00  0.00     0.033 A 
HETATM    6  C15 UNL     1     -18.471  20.065  15.921  1.00  0.00     0.057 A 
HETATM    7  C24 UNL     1     -19.511  19.162  16.171  1.00  0.00     0.068 A 
HETATM    8 CL1  UNL     1     -21.148  19.624  15.696  1.00  0.00    -0.081 Cl
ENDROOT
BRANCH   3   9
HETATM    9  S1  UNL     1     -17.813  15.985  17.861  1.00  0.00     0.260 S 
HETATM   10  O1  UNL     1     -19.186  15.544  18.410  1.00  0.00    -0.200 OA
HETATM   11  O2  UNL     1     -16.900  16.213  19.078  1.00  0.00    -0.200 OA
BRANCH   9  12
HETATM   12  N1  UNL     1     -17.259  14.726  16.915  1.00  0.00    -0.303 N 
ATOM     13  H1  UNL     1     -16.264  14.500  16.888  1.00  0.00     0.173 HD
BRANCH  12  14
HETATM   14  C4  UNL     1     -18.186  13.972  16.149  1.00  0.00     0.169 C 
BRANCH  14  15
HETATM   15  C5  UNL     1     -18.179  12.519  16.340  1.00  0.00     0.038 C 
BRANCH  15  16
HETATM   16  C6  UNL     1     -19.448  11.819  16.657  1.00  0.00    -0.012 C 
HETATM   17  C7  UNL     1     -19.058  10.394  17.141  1.00  0.00     0.005 C 
HETATM   18  C8  UNL     1     -20.157   9.801  17.981  1.00  0.00     0.000 C 
HETATM   19  C9  UNL     1     -20.245  10.462  19.343  1.00  0.00     0.000 C 
HETATM   20  C10 UNL     1     -19.879  11.920  19.123  1.00  0.00     0.000 C 
HETATM   21  C11 UNL     1     -20.304  12.366  17.736  1.00  0.00     0.005 C 
ENDBRANCH  15  16
ENDBRANCH  14  15
BRANCH  14  22
HETATM   22  C12 UNL     1     -18.183  14.414  14.705  1.00  0.00     0.159 C 
HETATM   23  N2  UNL     1     -17.751  13.649  13.766  1.00  0.00    -0.249 N 
ATOM     24  H2  UNL     1     -17.404  12.723  14.018  1.00  0.00     0.196 HD
BRANCH  22  25
HETATM   25  O3  UNL     1     -18.649  15.669  14.361  1.00  0.00    -0.347 OA
ATOM     26  H3  UNL     1     -19.445  15.760  13.850  1.00  0.00     0.219 HD
ENDBRANCH  22  25
BRANCH  23  27
HETATM   27  O4  UNL     1     -17.733  14.007  12.461  1.00  0.00    -0.288 OA
ATOM     28  H4  UNL     1     -18.493  13.959  11.894  1.00  0.00     0.244 HD
ENDBRANCH  23  27
ENDBRANCH  14  22
ENDBRANCH  12  14
ENDBRANCH   9  12
ENDBRANCH   3   9
BRANCH   6  29
HETATM   29  N3  UNL     1     -18.772  21.306  15.301  1.00  0.00    -0.326 N 
HETATM   30  C16 UNL     1     -18.727  21.626  13.944  1.00  0.00     0.222 C 
HETATM   31  O5  UNL     1     -18.404  20.830  13.059  1.00  0.00    -0.273 OA
ATOM     32  H3  UNL     1     -19.057  22.060  15.926  1.00  0.00     0.169 HD
BRANCH  30  33
HETATM   33  C17 UNL     1     -19.087  23.005  13.507  1.00  0.00     0.112 C 
BRANCH  33  34
HETATM   34  C18 UNL     1     -18.481  23.343  12.176  1.00  0.00     0.112 C 
BRANCH  34  35
HETATM   35  C19 UNL     1     -18.409  24.793  11.935  1.00  0.00     0.220 C 
HETATM   36  O6  UNL     1     -18.848  25.625  12.780  1.00  0.00    -0.273 OA
HETATM   37  N4  UNL     1     -17.844  25.282  10.742  1.00  0.00    -0.348 N 
HETATM   38  C20 UNL     1     -17.755  26.719  10.468  1.00  0.00     0.152 C 
HETATM   39  C23 UNL     1     -17.314  24.418   9.712  1.00  0.00     0.152 C 
HETATM   40  C21 UNL     1     -16.431  26.898   9.726  1.00  0.00     0.187 C 
HETATM   41  O7  UNL     1     -16.500  26.325   8.470  1.00  0.00    -0.388 OA
HETATM   42  C22 UNL     1     -17.289  25.197   8.404  1.00  0.00     0.187 C 
ENDBRANCH  34  35
ENDBRANCH  33  34
ENDBRANCH  30  33
ENDBRANCH   6  29
TORSDOF 12
ENDMDL
MODEL 4
REMARK VINA RESULT: -9.341842230      1.303      1.526
REMARK  12 active torsions:
REMARK  status: ('A' for Active; 'I' for Inactive)
REMARK    1  A    between atoms: C3_3  and  S1_4 
REMARK    2  A    between atoms: S1_4  and  N1_7 
REMARK    3  A    between atoms: N1_7  and  C4_9 
REMARK    4  A    between atoms: C4_9  and  C5_10 
REMARK    5  A    between atoms: C4_9  and  C12_17 
REMARK    6  A    between atoms: C5_10  and  C6_11 
REMARK    7  A    between atoms: C12_17  and  O3_18 
REMARK    8  A    between atoms: N2_20  and  O4_22 
REMARK    9  A    between atoms: C15_26  and  N3_27 
REMARK       I    between atoms: N3_27  and  C16_29 
REMARK   10  A    between atoms: C16_29  and  C17_31 
REMARK   11  A    between atoms: C17_31  and  C18_32 
REMARK   12  A    between atoms: C18_32  and  C19_33 
REMARK       I    between atoms: C19_33  and  N4_35 
ROOT
HETATM    1  C1  UNL     1     -18.956  17.041  15.941  1.00  0.00     0.052 C 
HETATM    2  C2  UNL     1     -19.772  18.312  15.992  1.00  0.00    -0.015 A 
HETATM    3  C3  UNL     1     -21.100  18.250  16.379  1.00  0.00     0.087 A 
HETATM    4  C13 UNL     1     -21.789  19.415  16.404  1.00  0.00     0.028 A 
HETATM    5  C14 UNL     1     -21.177  20.631  16.052  1.00  0.00     0.033 A 
HETATM    6  C15 UNL     1     -19.869  20.715  15.666  1.00  0.00     0.057 A 
HETATM    7  C24 UNL     1     -19.178  19.497  15.649  1.00  0.00     0.068 A 
HETATM    8 CL1  UNL     1     -17.481  19.509  15.164  1.00  0.00    -0.081 Cl
ENDROOT
BRANCH   3   9
HETATM    9  S1  UNL     1     -21.793  16.744  16.843  1.00  0.00     0.260 S 
HETATM   10  O1  UNL     1     -23.209  17.052  17.371  1.00  0.00    -0.200 OA
HETATM   11  O2  UNL     1     -20.963  16.264  18.047  1.00  0.00    -0.200 OA
BRANCH   9  12
HETATM   12  N1  UNL     1     -21.967  15.535  15.706  1.00  0.00    -0.303 N 
ATOM     13  H1  UNL     1     -21.705  15.699  14.733  1.00  0.00     0.173 HD
BRANCH  12  14
HETATM   14  C4  UNL     1     -22.482  14.275  16.106  1.00  0.00     0.169 C 
BRANCH  14  15
HETATM   15  C5  UNL     1     -21.682  13.093  15.772  1.00  0.00     0.038 C 
BRANCH  15  16
HETATM   16  C6  UNL     1     -20.320  13.270  15.208  1.00  0.00    -0.012 C 
HETATM   17  C7  UNL     1     -19.337  13.239  16.412  1.00  0.00     0.005 C 
HETATM   18  C8  UNL     1     -17.952  12.866  15.954  1.00  0.00     0.000 C 
HETATM   19  C9  UNL     1     -17.859  11.400  15.577  1.00  0.00     0.000 C 
HETATM   20  C10 UNL     1     -19.205  11.039  14.971  1.00  0.00     0.000 C 
HETATM   21  C11 UNL     1     -19.807  12.244  14.271  1.00  0.00     0.005 C 
ENDBRANCH  15  16
ENDBRANCH  14  15
BRANCH  14  22
HETATM   22  C12 UNL     1     -23.949  14.155  15.766  1.00  0.00     0.159 C 
HETATM   23  N2  UNL     1     -24.349  13.522  14.719  1.00  0.00    -0.249 N 
ATOM     24  H2  UNL     1     -23.647  13.096  14.114  1.00  0.00     0.196 HD
BRANCH  22  25
HETATM   25  O3  UNL     1     -24.901  14.733  16.582  1.00  0.00    -0.347 OA
ATOM     26  H3  UNL     1     -25.154  14.312  17.395  1.00  0.00     0.219 HD
ENDBRANCH  22  25
BRANCH  23  27
HETATM   27  O4  UNL     1     -25.653  13.391  14.380  1.00  0.00    -0.288 OA
ATOM     28  H4  UNL     1     -25.951  13.263  13.487  1.00  0.00     0.244 HD
ENDBRANCH  23  27
ENDBRANCH  14  22
ENDBRANCH  12  14
ENDBRANCH   9  12
ENDBRANCH   3   9
BRANCH   6  29
HETATM   29  N3  UNL     1     -19.182  21.901  15.296  1.00  0.00    -0.326 N 
HETATM   30  C16 UNL     1     -19.320  22.650  14.128  1.00  0.00     0.222 C 
HETATM   31  O5  UNL     1     -20.100  22.364  13.216  1.00  0.00    -0.273 OA
ATOM     32  H3  UNL     1     -18.500  22.250  15.970  1.00  0.00     0.169 HD
BRANCH  30  33
HETATM   33  C17 UNL     1     -18.491  23.873  13.942  1.00  0.00     0.112 C 
BRANCH  33  34
HETATM   34  C18 UNL     1     -18.704  24.492  12.592  1.00  0.00     0.112 C 
BRANCH  34  35
HETATM   35  C19 UNL     1     -17.711  24.051  11.600  1.00  0.00     0.220 C 
HETATM   36  O6  UNL     1     -17.238  22.878  11.615  1.00  0.00    -0.273 OA
HETATM   37  N4  UNL     1     -17.265  24.940  10.604  1.00  0.00    -0.348 N 
HETATM   38  C20 UNL     1     -16.277  24.536   9.600  1.00  0.00     0.152 C 
HETATM   39  C23 UNL     1     -17.741  26.301  10.497  1.00  0.00     0.152 C 
HETATM   40  C21 UNL     1     -16.704  25.250   8.317  1.00  0.00     0.187 C 
HETATM   41  O7  UNL     1     -16.515  26.614   8.438  1.00  0.00    -0.388 OA
HETATM   42  C22 UNL     1     -16.714  27.104   9.710  1.00  0.00     0.187 C 
ENDBRANCH  34  35
ENDBRANCH  33  34
ENDBRANCH  30  33
ENDBRANCH   6  29
TORSDOF 12
ENDMDL
MODEL 5
REMARK VINA RESULT: -9.299691636      1.228      1.452
REMARK  12 active torsions:
REMARK  status: ('A' for Active; 'I' for Inactive)
REMARK    1  A    between atoms: C3_3  and  S1_4 
REMARK    2  A    between atoms: S1_4  and  N1_7 
REMARK    3  A    between atoms: N1_7  and  C4_9 
REMARK    4  A    between atoms: C4_9  and  C5_10 
REMARK    5  A    between atoms: C4_9  and  C12_17 
REMARK    6  A    between atoms: C5_10  and  C6_11 
REMARK    7  A    between atoms: C12_17  and  O3_18 
REMARK    8  A    between atoms: N2_20  and  O4_22 
REMARK    9  A    between atoms: C15_26  and  N3_27 
REMARK       I    between atoms: N3_27  and  C16_29 
REMARK   10  A    between atoms: C16_29  and  C17_31 
REMARK   11  A    between atoms: C17_31  and  C18_32 
REMARK   12  A    between atoms: C18_32  and  C19_33 
REMARK       I    between atoms: C19_33  and  N4_35 
ROOT
HETATM    1  C1  UNL     1     -18.486  16.922  16.667  1.00  0.00     0.052 C 
HETATM    2  C2  UNL     1     -19.504  18.007  16.397  1.00  0.00    -0.015 A 
HETATM    3  C3  UNL     1     -20.848  17.738  16.588  1.00  0.00     0.087 A 
HETATM    4  C13 UNL     1     -21.720  18.741  16.330  1.00  0.00     0.028 A 
HETATM    5  C14 UNL     1     -21.272  19.998  15.886  1.00  0.00     0.033 A 
HETATM    6  C15 UNL     1     -19.951  20.284  15.691  1.00  0.00     0.057 A 
HETATM    7  C24 UNL     1     -19.070  19.232  15.966  1.00  0.00     0.068 A 
HETATM    8 CL1  UNL     1     -17.341  19.511  15.741  1.00  0.00    -0.081 Cl
ENDROOT
BRANCH   3   9
HETATM    9  S1  UNL     1     -21.344  16.197  17.174  1.00  0.00     0.260 S 
HETATM   10  O1  UNL     1     -22.883  16.161  17.080  1.00  0.00    -0.200 OA
HETATM   11  O2  UNL     1     -20.988  16.192  18.671  1.00  0.00    -0.200 OA
BRANCH   9  12
HETATM   12  N1  UNL     1     -20.794  14.815  16.416  1.00  0.00    -0.303 N 
ATOM     13  H1  UNL     1     -19.867  14.793  15.992  1.00  0.00     0.173 HD
BRANCH  12  14
HETATM   14  C4  UNL     1     -21.631  13.669  16.369  1.00  0.00     0.169 C 
BRANCH  14  15
HETATM   15  C5  UNL     1     -20.978  12.364  16.504  1.00  0.00     0.038 C 
BRANCH  15  16
HETATM   16  C6  UNL     1     -19.523  12.246  16.235  1.00  0.00    -0.012 C 
HETATM   17  C7  UNL     1     -19.139  10.768  16.527  1.00  0.00     0.005 C 
HETATM   18  C8  UNL     1     -17.877  10.395  15.798  1.00  0.00     0.000 C 
HETATM   19  C9  UNL     1     -18.108  10.255  14.306  1.00  0.00     0.000 C 
HETATM   20  C10 UNL     1     -19.158  11.292  13.947  1.00  0.00     0.000 C 
HETATM   21  C11 UNL     1     -19.037  12.499  14.859  1.00  0.00     0.005 C 
ENDBRANCH  15  16
ENDBRANCH  14  15
BRANCH  14  22
HETATM   22  C12 UNL     1     -22.616  13.763  15.229  1.00  0.00     0.159 C 
HETATM   23  N2  UNL     1     -23.886  13.793  15.434  1.00  0.00    -0.249 N 
ATOM     24  H2  UNL     1     -24.221  13.752  16.397  1.00  0.00     0.196 HD
BRANCH  22  25
HETATM   25  O3  UNL     1     -22.166  13.815  13.924  1.00  0.00    -0.347 OA
ATOM     26  H3  UNL     1     -22.711  13.491  13.216  1.00  0.00     0.219 HD
ENDBRANCH  22  25
BRANCH  23  27
HETATM   27  O4  UNL     1     -24.801  13.877  14.441  1.00  0.00    -0.288 OA
ATOM     28  H4  UNL     1     -25.719  14.071  14.589  1.00  0.00     0.244 HD
ENDBRANCH  23  27
ENDBRANCH  14  22
ENDBRANCH  12  14
ENDBRANCH   9  12
ENDBRANCH   3   9
BRANCH   6  29
HETATM   29  N3  UNL     1     -19.422  21.525  15.246  1.00  0.00    -0.326 N 
HETATM   30  C16 UNL     1     -19.227  21.960  13.935  1.00  0.00     0.222 C 
HETATM   31  O5  UNL     1     -19.503  21.288  12.938  1.00  0.00    -0.273 OA
ATOM     32  H3  UNL     1     -19.151  22.182  15.977  1.00  0.00     0.169 HD
BRANCH  30  33
HETATM   33  C17 UNL     1     -18.652  23.313  13.693  1.00  0.00     0.112 C 
BRANCH  33  34
HETATM   34  C18 UNL     1     -18.335  23.532  12.243  1.00  0.00     0.112 C 
BRANCH  34  35
HETATM   35  C19 UNL     1     -18.355  24.954  11.864  1.00  0.00     0.220 C 
HETATM   36  O6  UNL     1     -18.912  25.824  12.593  1.00  0.00    -0.273 OA
HETATM   37  N4  UNL     1     -17.745  25.374  10.667  1.00  0.00    -0.348 N 
HETATM   38  C20 UNL     1     -17.745  26.781  10.257  1.00  0.00     0.152 C 
HETATM   39  C23 UNL     1     -17.081  24.462   9.762  1.00  0.00     0.152 C 
HETATM   40  C21 UNL     1     -16.389  26.996   9.586  1.00  0.00     0.187 C 
HETATM   41  O7  UNL     1     -16.326  26.304   8.391  1.00  0.00    -0.388 OA
HETATM   42  C22 UNL     1     -17.022  25.114   8.387  1.00  0.00     0.187 C 
ENDBRANCH  34  35
ENDBRANCH  33  34
ENDBRANCH  30  33
ENDBRANCH   6  29
TORSDOF 12
ENDMDL
