MODEL 1
REMARK VINA RESULT: -6.632977448      0.000      0.000
REMARK  9 active torsions:
REMARK  status: ('A' for Active; 'I' for Inactive)
REMARK    1  A    between atoms: C2_2  and  O1_3 
REMARK    2  A    between atoms: O1_3  and  C3_4 
REMARK    3  A    between atoms: C3_4  and  C4_5 
REMARK    4  A    between atoms: C4_5  and  S1_6 
REMARK    5  A    between atoms: S1_6  and  C5_7 
REMARK    6  A    between atoms: N2_12  and  C8_13 
REMARK    7  A    between atoms: C8_13  and  O2_15 
REMARK    8  A    between atoms: O2_15  and  N3_16 
REMARK       I    between atoms: C9_18  and  N4_19 
REMARK       I    between atoms: C9_18  and  N5_23 
REMARK    9  A    between atoms: N4_19  and  O3_21 
ROOT
HETATM    1  C8  UNL     1      26.252  61.189  20.422  1.00  0.00     0.244 C 
HETATM    2  S2  UNL     1      25.257  60.855  19.176  1.00  0.00    -0.030 SA
ENDROOT
BRANCH   1   3
HETATM    3  N2  UNL     1      26.951  60.141  21.054  1.00  0.00    -0.296 N 
HETATM    4  C5  UNL     1      26.660  59.596  22.326  1.00  0.00     0.145 A 
HETATM    5  N1  UNL     1      27.493  58.657  22.614  1.00  0.00    -0.369 N 
HETATM    6  C6  UNL     1      28.451  58.456  21.566  1.00  0.00     0.142 A 
ATOM      7  H1  UNL     1      27.474  58.121  23.482  1.00  0.00     0.161 HD
HETATM    8  C7  UNL     1      28.086  59.448  20.505  1.00  0.00     0.153 A 
BRANCH   4   9
HETATM    9  S1  UNL     1      25.321  60.142  23.374  1.00  0.00    -0.092 SA
BRANCH   9  10
HETATM   10  C4  UNL     1      23.711  59.840  22.570  1.00  0.00     0.108 C 
BRANCH  10  11
HETATM   11  C3  UNL     1      22.630  59.895  23.603  1.00  0.00     0.178 C 
BRANCH  11  12
HETATM   12  O1  UNL     1      22.826  59.072  24.693  1.00  0.00    -0.391 OA
BRANCH  12  13
HETATM   13  C2  UNL     1      21.809  59.108  25.607  1.00  0.00     0.163 C 
HETATM   14  C1  UNL     1      20.640  59.869  24.963  1.00  0.00     0.033 C 
ENDBRANCH  12  13
ENDBRANCH  11  12
ENDBRANCH  10  11
ENDBRANCH   9  10
ENDBRANCH   4   9
ENDBRANCH   1   3
BRANCH   1  15
HETATM   15  O2  UNL     1      26.371  62.519  20.813  1.00  0.00    -0.192 OA
BRANCH  15  16
HETATM   16  N3  UNL     1      26.545  63.424  19.795  1.00  0.00    -0.087 N 
HETATM   17  C9  UNL     1      25.901  64.550  19.706  1.00  0.00     0.720 C 
HETATM   18  N4  UNL     1      26.237  65.347  18.562  1.00  0.00    -0.097 N 
HETATM   19  N5  UNL     1      24.944  64.953  20.661  1.00  0.00    -0.214 N 
ATOM     20  H4  UNL     1      25.520  65.915  18.111  1.00  0.00     0.213 HD
HETATM   21  C10 UNL     1      23.723  64.240  20.786  1.00  0.00     0.141 C 
HETATM   22  C14 UNL     1      25.181  66.068  21.507  1.00  0.00     0.141 C 
HETATM   23  C11 UNL     1      22.636  64.925  21.520  1.00  0.00     0.020 C 
HETATM   24  C12 UNL     1      22.686  66.401  21.600  1.00  0.00     0.003 C 
HETATM   25  C13 UNL     1      24.031  67.039  21.563  1.00  0.00     0.020 C 
ATOM     26  H3  UNL     1      27.219  63.198  19.064  1.00  0.00     0.214 HD
BRANCH  18  27
HETATM   27  O3  UNL     1      27.396  65.346  18.120  1.00  0.00    -0.276 OA
ATOM     28  H3  UNL     1      27.840  64.526  17.944  1.00  0.00     0.245 HD
ENDBRANCH  18  27
ENDBRANCH  15  16
ENDBRANCH   1  15
TORSDOF 9
ENDMDL
MODEL 2
REMARK VINA RESULT: -6.605916752      1.699      1.795
REMARK  9 active torsions:
REMARK  status: ('A' for Active; 'I' for Inactive)
REMARK    1  A    between atoms: C2_2  and  O1_3 
REMARK    2  A    between atoms: O1_3  and  C3_4 
REMARK    3  A    between atoms: C3_4  and  C4_5 
REMARK    4  A    between atoms: C4_5  and  S1_6 
REMARK    5  A    between atoms: S1_6  and  C5_7 
REMARK    6  A    between atoms: N2_12  and  C8_13 
REMARK    7  A    between atoms: C8_13  and  O2_15 
REMARK    8  A    between atoms: O2_15  and  N3_16 
REMARK       I    between atoms: C9_18  and  N4_19 
REMARK       I    between atoms: C9_18  and  N5_23 
REMARK    9  A    between atoms: N4_19  and  O3_21 
ROOT
HETATM    1  C8  UNL     1      26.192  61.159  19.893  1.00  0.00     0.244 C 
HETATM    2  S2  UNL     1      25.409  60.592  18.582  1.00  0.00    -0.030 SA
ENDROOT
BRANCH   1   3
HETATM    3  N2  UNL     1      26.687  60.253  20.853  1.00  0.00    -0.296 N 
HETATM    4  C5  UNL     1      26.043  59.879  22.054  1.00  0.00     0.145 A 
HETATM    5  N1  UNL     1      26.766  59.039  22.711  1.00  0.00    -0.369 N 
HETATM    6  C6  UNL     1      27.992  58.746  22.027  1.00  0.00     0.142 A 
ATOM      7  H1  UNL     1      26.500  58.633  23.608  1.00  0.00     0.161 HD
HETATM    8  C7  UNL     1      27.942  59.553  20.767  1.00  0.00     0.153 A 
BRANCH   4   9
HETATM    9  S1  UNL     1      24.449  60.493  22.576  1.00  0.00    -0.092 SA
BRANCH   9  10
HETATM   10  C4  UNL     1      23.800  59.501  23.963  1.00  0.00     0.108 C 
BRANCH  10  11
HETATM   11  C3  UNL     1      22.308  59.612  23.991  1.00  0.00     0.178 C 
BRANCH  11  12
HETATM   12  O1  UNL     1      21.748  59.573  25.252  1.00  0.00    -0.391 OA
BRANCH  12  13
HETATM   13  C2  UNL     1      20.405  59.837  25.271  1.00  0.00     0.163 C 
HETATM   14  C1  UNL     1      19.978  60.146  23.828  1.00  0.00     0.033 C 
ENDBRANCH  12  13
ENDBRANCH  11  12
ENDBRANCH  10  11
ENDBRANCH   9  10
ENDBRANCH   4   9
ENDBRANCH   1   3
BRANCH   1  15
HETATM   15  O2  UNL     1      26.341  62.538  20.010  1.00  0.00    -0.192 OA
BRANCH  15  16
HETATM   16  N3  UNL     1      27.229  63.113  19.136  1.00  0.00    -0.087 N 
HETATM   17  C9  UNL     1      27.044  64.268  18.567  1.00  0.00     0.720 C 
HETATM   18  N4  UNL     1      28.099  64.684  17.690  1.00  0.00    -0.097 N 
HETATM   19  N5  UNL     1      25.891  65.048  18.794  1.00  0.00    -0.214 N 
ATOM     20  H4  UNL     1      27.882  65.226  16.854  1.00  0.00     0.213 HD
HETATM   21  C10 UNL     1      24.626  64.595  18.336  1.00  0.00     0.141 C 
HETATM   22  C14 UNL     1      25.971  66.289  19.479  1.00  0.00     0.141 C 
HETATM   23  C11 UNL     1      23.550  65.609  18.273  1.00  0.00     0.020 C 
HETATM   24  C12 UNL     1      23.951  67.029  18.172  1.00  0.00     0.003 C 
HETATM   25  C13 UNL     1      25.254  67.413  18.780  1.00  0.00     0.020 C 
ATOM     26  H3  UNL     1      28.086  62.605  18.920  1.00  0.00     0.214 HD
BRANCH  18  27
HETATM   27  O3  UNL     1      29.276  64.386  17.945  1.00  0.00    -0.276 OA
ATOM     28  H3  UNL     1      29.801  63.920  17.305  1.00  0.00     0.245 HD
ENDBRANCH  18  27
ENDBRANCH  15  16
ENDBRANCH   1  15
TORSDOF 9
ENDMDL
MODEL 3
REMARK VINA RESULT: -6.556835184      0.987      1.125
REMARK  9 active torsions:
REMARK  status: ('A' for Active; 'I' for Inactive)
REMARK    1  A    between atoms: C2_2  and  O1_3 
REMARK    2  A    between atoms: O1_3  and  C3_4 
REMARK    3  A    between atoms: C3_4  and  C4_5 
REMARK    4  A    between atoms: C4_5  and  S1_6 
REMARK    5  A    between atoms: S1_6  and  C5_7 
REMARK    6  A    between atoms: N2_12  and  C8_13 
REMARK    7  A    between atoms: C8_13  and  O2_15 
REMARK    8  A    between atoms: O2_15  and  N3_16 
REMARK       I    between atoms: C9_18  and  N4_19 
REMARK       I    between atoms: C9_18  and  N5_23 
REMARK    9  A    between atoms: N4_19  and  O3_21 
ROOT
HETATM    1  C8  UNL     1      26.266  61.335  20.379  1.00  0.00     0.244 C 
HETATM    2  S2  UNL     1      25.757  61.033  18.860  1.00  0.00    -0.030 SA
ENDROOT
BRANCH   1   3
HETATM    3  N2  UNL     1      26.605  60.260  21.225  1.00  0.00    -0.296 N 
HETATM    4  C5  UNL     1      25.820  59.757  22.287  1.00  0.00     0.145 A 
HETATM    5  N1  UNL     1      26.421  58.776  22.867  1.00  0.00    -0.369 N 
HETATM    6  C6  UNL     1      27.691  58.499  22.261  1.00  0.00     0.142 A 
ATOM      7  H1  UNL     1      26.040  58.260  23.660  1.00  0.00     0.161 HD
HETATM    8  C7  UNL     1      27.819  59.490  21.145  1.00  0.00     0.153 A 
BRANCH   4   9
HETATM    9  S1  UNL     1      24.220  60.402  22.750  1.00  0.00    -0.092 SA
BRANCH   9  10
HETATM   10  C4  UNL     1      23.473  59.384  24.067  1.00  0.00     0.108 C 
BRANCH  10  11
HETATM   11  C3  UNL     1      22.186  60.012  24.503  1.00  0.00     0.178 C 
BRANCH  11  12
HETATM   12  O1  UNL     1      21.310  60.307  23.479  1.00  0.00    -0.391 OA
BRANCH  12  13
HETATM   13  C2  UNL     1      19.995  60.093  23.795  1.00  0.00     0.163 C 
HETATM   14  C1  UNL     1      19.147  60.855  22.765  1.00  0.00     0.033 C 
ENDBRANCH  12  13
ENDBRANCH  11  12
ENDBRANCH  10  11
ENDBRANCH   9  10
ENDBRANCH   4   9
ENDBRANCH   1   3
BRANCH   1  15
HETATM   15  O2  UNL     1      26.344  62.665  20.781  1.00  0.00    -0.192 OA
BRANCH  15  16
HETATM   16  N3  UNL     1      26.500  63.581  19.770  1.00  0.00    -0.087 N 
HETATM   17  C9  UNL     1      25.837  64.697  19.692  1.00  0.00     0.720 C 
HETATM   18  N4  UNL     1      26.156  65.509  18.555  1.00  0.00    -0.097 N 
HETATM   19  N5  UNL     1      24.875  65.075  20.652  1.00  0.00    -0.214 N 
ATOM     20  H4  UNL     1      25.429  66.069  18.110  1.00  0.00     0.213 HD
HETATM   21  C10 UNL     1      23.667  64.340  20.773  1.00  0.00     0.141 C 
HETATM   22  C14 UNL     1      25.094  66.186  21.508  1.00  0.00     0.141 C 
HETATM   23  C11 UNL     1      22.569  64.999  21.515  1.00  0.00     0.020 C 
HETATM   24  C12 UNL     1      22.594  66.475  21.608  1.00  0.00     0.003 C 
HETATM   25  C13 UNL     1      23.927  67.137  21.574  1.00  0.00     0.020 C 
ATOM     26  H3  UNL     1      27.177  63.374  19.036  1.00  0.00     0.214 HD
BRANCH  18  27
HETATM   27  O3  UNL     1      27.314  65.533  18.111  1.00  0.00    -0.276 OA
ATOM     28  H3  UNL     1      27.846  66.315  18.203  1.00  0.00     0.245 HD
ENDBRANCH  18  27
ENDBRANCH  15  16
ENDBRANCH   1  15
TORSDOF 9
ENDMDL
MODEL 4
REMARK VINA RESULT: -6.268721797      2.572      5.640
REMARK  9 active torsions:
REMARK  status: ('A' for Active; 'I' for Inactive)
REMARK    1  A    between atoms: C2_2  and  O1_3 
REMARK    2  A    between atoms: O1_3  and  C3_4 
REMARK    3  A    between atoms: C3_4  and  C4_5 
REMARK    4  A    between atoms: C4_5  and  S1_6 
REMARK    5  A    between atoms: S1_6  and  C5_7 
REMARK    6  A    between atoms: N2_12  and  C8_13 
REMARK    7  A    between atoms: C8_13  and  O2_15 
REMARK    8  A    between atoms: O2_15  and  N3_16 
REMARK       I    between atoms: C9_18  and  N4_19 
REMARK       I    between atoms: C9_18  and  N5_23 
REMARK    9  A    between atoms: N4_19  and  O3_21 
ROOT
HETATM    1  C8  UNL     1      22.961  64.959  21.077  1.00  0.00     0.244 C 
HETATM    2  S2  UNL     1      23.857  66.119  21.789  1.00  0.00    -0.030 SA
ENDROOT
BRANCH   1   3
HETATM    3  N2  UNL     1      21.560  64.973  21.227  1.00  0.00    -0.296 N 
HETATM    4  C5  UNL     1      20.779  63.973  21.851  1.00  0.00     0.145 A 
HETATM    5  N1  UNL     1      19.530  64.287  21.813  1.00  0.00    -0.369 N 
HETATM    6  C6  UNL     1      19.319  65.543  21.155  1.00  0.00     0.142 A 
ATOM      7  H1  UNL     1      18.784  63.712  22.204  1.00  0.00     0.161 HD
HETATM    8  C7  UNL     1      20.684  66.018  20.764  1.00  0.00     0.153 A 
BRANCH   4   9
HETATM    9  S1  UNL     1      21.446  62.488  22.586  1.00  0.00    -0.092 SA
BRANCH   9  10
HETATM   10  C4  UNL     1      20.102  61.405  23.178  1.00  0.00     0.108 C 
BRANCH  10  11
HETATM   11  C3  UNL     1      20.691  60.128  23.691  1.00  0.00     0.178 C 
BRANCH  11  12
HETATM   12  O1  UNL     1      21.067  60.156  25.018  1.00  0.00    -0.391 OA
BRANCH  12  13
HETATM   13  C2  UNL     1      22.031  59.240  25.341  1.00  0.00     0.163 C 
HETATM   14  C1  UNL     1      23.129  59.333  24.271  1.00  0.00     0.033 C 
ENDBRANCH  12  13
ENDBRANCH  11  12
ENDBRANCH  10  11
ENDBRANCH   9  10
ENDBRANCH   4   9
ENDBRANCH   1   3
BRANCH   1  15
HETATM   15  O2  UNL     1      23.631  63.989  20.337  1.00  0.00    -0.192 OA
BRANCH  15  16
HETATM   16  N3  UNL     1      24.834  64.378  19.802  1.00  0.00    -0.087 N 
HETATM   17  C9  UNL     1      25.885  63.613  19.745  1.00  0.00     0.720 C 
HETATM   18  N4  UNL     1      27.037  64.218  19.143  1.00  0.00    -0.097 N 
HETATM   19  N5  UNL     1      25.888  62.293  20.240  1.00  0.00    -0.214 N 
ATOM     20  H4  UNL     1      27.970  63.981  19.481  1.00  0.00     0.213 HD
HETATM   21  C10 UNL     1      25.766  62.058  21.635  1.00  0.00     0.141 C 
HETATM   22  C14 UNL     1      26.012  61.183  19.363  1.00  0.00     0.141 C 
HETATM   23  C11 UNL     1      26.149  60.709  22.109  1.00  0.00     0.020 C 
HETATM   24  C12 UNL     1      27.077  59.924  21.266  1.00  0.00     0.003 C 
HETATM   25  C13 UNL     1      27.047  60.180  19.800  1.00  0.00     0.020 C 
ATOM     26  H3  UNL     1      24.908  65.323  19.426  1.00  0.00     0.214 HD
BRANCH  18  27
HETATM   27  O3  UNL     1      26.903  65.028  18.214  1.00  0.00    -0.276 OA
ATOM     28  H3  UNL     1      26.217  64.906  17.567  1.00  0.00     0.245 HD
ENDBRANCH  18  27
ENDBRANCH  15  16
ENDBRANCH   1  15
TORSDOF 9
ENDMDL
MODEL 5
REMARK VINA RESULT: -6.268538282      3.585      5.957
REMARK  9 active torsions:
REMARK  status: ('A' for Active; 'I' for Inactive)
REMARK    1  A    between atoms: C2_2  and  O1_3 
REMARK    2  A    between atoms: O1_3  and  C3_4 
REMARK    3  A    between atoms: C3_4  and  C4_5 
REMARK    4  A    between atoms: C4_5  and  S1_6 
REMARK    5  A    between atoms: S1_6  and  C5_7 
REMARK    6  A    between atoms: N2_12  and  C8_13 
REMARK    7  A    between atoms: C8_13  and  O2_15 
REMARK    8  A    between atoms: O2_15  and  N3_16 
REMARK       I    between atoms: C9_18  and  N4_19 
REMARK       I    between atoms: C9_18  and  N5_23 
REMARK    9  A    between atoms: N4_19  and  O3_21 
ROOT
HETATM    1  C8  UNL     1      22.401  61.699  22.376  1.00  0.00     0.244 C 
HETATM    2  S2  UNL     1      21.640  63.140  22.388  1.00  0.00    -0.030 SA
ENDROOT
BRANCH   1   3
HETATM    3  N2  UNL     1      22.089  60.740  23.361  1.00  0.00    -0.296 N 
HETATM    4  C5  UNL     1      20.791  60.309  23.721  1.00  0.00     0.145 A 
HETATM    5  N1  UNL     1      20.852  59.430  24.660  1.00  0.00    -0.369 N 
HETATM    6  C6  UNL     1      22.206  59.162  25.048  1.00  0.00     0.142 A 
ATOM      7  H1  UNL     1      20.037  58.980  25.077  1.00  0.00     0.161 HD
HETATM    8  C7  UNL     1      23.048  60.035  24.169  1.00  0.00     0.153 A 
BRANCH   4   9
HETATM    9  S1  UNL     1      19.286  60.909  22.968  1.00  0.00    -0.092 SA
BRANCH   9  10
HETATM   10  C4  UNL     1      18.053  61.330  24.245  1.00  0.00     0.108 C 
BRANCH  10  11
HETATM   11  C3  UNL     1      17.161  62.415  23.728  1.00  0.00     0.178 C 
BRANCH  11  12
HETATM   12  O1  UNL     1      17.789  63.351  22.932  1.00  0.00    -0.391 OA
BRANCH  12  13
HETATM   13  C2  UNL     1      17.125  64.544  22.848  1.00  0.00     0.163 C 
HETATM   14  C1  UNL     1      17.712  65.313  21.654  1.00  0.00     0.033 C 
ENDBRANCH  12  13
ENDBRANCH  11  12
ENDBRANCH  10  11
ENDBRANCH   9  10
ENDBRANCH   4   9
ENDBRANCH   1   3
BRANCH   1  15
HETATM   15  O2  UNL     1      23.342  61.474  21.376  1.00  0.00    -0.192 OA
BRANCH  15  16
HETATM   16  N3  UNL     1      24.282  62.461  21.213  1.00  0.00    -0.087 N 
HETATM   17  C9  UNL     1      25.557  62.237  21.085  1.00  0.00     0.720 C 
HETATM   18  N4  UNL     1      26.361  63.412  20.924  1.00  0.00    -0.097 N 
HETATM   19  N5  UNL     1      26.102  60.937  21.106  1.00  0.00    -0.214 N 
ATOM     20  H4  UNL     1      27.302  63.442  21.318  1.00  0.00     0.213 HD
HETATM   21  C10 UNL     1      26.066  60.171  22.301  1.00  0.00     0.141 C 
HETATM   22  C14 UNL     1      26.693  60.373  19.945  1.00  0.00     0.141 C 
HETATM   23  C11 UNL     1      26.969  59.000  22.357  1.00  0.00     0.020 C 
HETATM   24  C12 UNL     1      28.154  59.004  21.472  1.00  0.00     0.003 C 
HETATM   25  C13 UNL     1      28.045  59.756  20.192  1.00  0.00     0.020 C 
ATOM     26  H3  UNL     1      23.961  63.429  21.192  1.00  0.00     0.214 HD
BRANCH  18  27
HETATM   27  O3  UNL     1      25.917  64.394  20.309  1.00  0.00    -0.276 OA
ATOM     28  H3  UNL     1      26.431  65.191  20.245  1.00  0.00     0.245 HD
ENDBRANCH  18  27
ENDBRANCH  15  16
ENDBRANCH   1  15
TORSDOF 9
ENDMDL
