MODEL 1
REMARK VINA RESULT: -7.174228459      0.000      0.000
REMARK  5 active torsions:
REMARK  status: ('A' for Active; 'I' for Inactive)
REMARK    1  A    between atoms: S1_2  and  C2_3 
REMARK    2  A    between atoms: C2_3  and  C3_4 
REMARK    3  A    between atoms: N1_9  and  C8_10 
REMARK    4  A    between atoms: C9_13  and  N3_14 
REMARK    5  A    between atoms: C14_21  and  N5_22 
ROOT
HETATM    1  C8  UNL     1      23.359  62.576  21.108  1.00  0.00     0.709 A 
HETATM    2  N2  UNL     1      23.039  61.614  21.986  1.00  0.00    -0.021 N 
ATOM      3  H2  UNL     1      23.639  60.791  22.042  1.00  0.00     0.203 HD
HETATM    4  C9  UNL     1      21.968  61.679  22.796  1.00  0.00     0.709 A 
HETATM    5  N4  UNL     1      21.206  62.781  22.688  1.00  0.00    -0.021 N 
ATOM      6  H4  UNL     1      20.386  62.867  23.287  1.00  0.00     0.203 HD
HETATM    7  C14 UNL     1      21.482  63.784  21.818  1.00  0.00     0.709 A 
HETATM    8  N6  UNL     1      22.558  63.651  21.046  1.00  0.00    -0.021 N 
ATOM      9  H6  UNL     1      22.783  64.394  20.384  1.00  0.00     0.203 HD
ENDROOT
BRANCH   1  10
HETATM   10  N1  UNL     1      24.507  62.458  20.269  1.00  0.00    -0.211 N 
HETATM   11  C3  UNL     1      25.055  63.653  19.694  1.00  0.00     0.111 C 
HETATM   12  C4  UNL     1      25.567  63.477  18.302  1.00  0.00     0.027 C 
HETATM   13  C5  UNL     1      26.080  62.120  17.989  1.00  0.00     0.004 C 
HETATM   14  C6  UNL     1      25.287  60.994  18.557  1.00  0.00     0.020 C 
HETATM   15  C7  UNL     1      25.061  61.136  20.040  1.00  0.00     0.141 C 
BRANCH  11  16
HETATM   16  C2  UNL     1      26.144  64.255  20.580  1.00  0.00     0.099 C 
BRANCH  16  17
HETATM   17  S1  UNL     1      25.997  66.053  20.675  1.00  0.00    -0.172 SA
HETATM   18  C1  UNL     1      24.859  66.463  22.007  1.00  0.00     0.089 C 
ENDBRANCH  16  17
ENDBRANCH  11  16
ENDBRANCH   1  10
BRANCH   4  19
HETATM   19  N3  UNL     1      21.653  60.642  23.721  1.00  0.00    -0.217 N 
HETATM   20  C10 UNL     1      22.583  59.604  24.118  1.00  0.00     0.141 C 
HETATM   21  C11 UNL     1      22.138  59.282  25.515  1.00  0.00     0.022 C 
HETATM   22  C12 UNL     1      20.612  59.351  25.366  1.00  0.00     0.022 C 
HETATM   23  C13 UNL     1      20.397  60.465  24.389  1.00  0.00     0.141 C 
ENDBRANCH   4  19
BRANCH   7  24
HETATM   24  N5  UNL     1      20.660  64.932  21.727  1.00  0.00    -0.213 N 
HETATM   25  C15 UNL     1      19.320  64.914  22.254  1.00  0.00     0.167 C 
HETATM   26  C16 UNL     1      18.508  65.997  21.572  1.00  0.00     0.188 C 
HETATM   27  O1  UNL     1      18.877  66.184  20.261  1.00  0.00    -0.388 OA
HETATM   28  C17 UNL     1      20.177  66.580  20.057  1.00  0.00     0.188 C 
HETATM   29  C18 UNL     1      21.151  66.134  21.106  1.00  0.00     0.167 C 
ENDBRANCH   7  24
TORSDOF 5
ENDMDL
MODEL 2
REMARK VINA RESULT: -7.110657322      3.638      6.084
REMARK  5 active torsions:
REMARK  status: ('A' for Active; 'I' for Inactive)
REMARK    1  A    between atoms: S1_2  and  C2_3 
REMARK    2  A    between atoms: C2_3  and  C3_4 
REMARK    3  A    between atoms: N1_9  and  C8_10 
REMARK    4  A    between atoms: C9_13  and  N3_14 
REMARK    5  A    between atoms: C14_21  and  N5_22 
ROOT
HETATM    1  C8  UNL     1      25.131  62.081  20.902  1.00  0.00     0.709 A 
HETATM    2  N2  UNL     1      24.106  61.703  21.679  1.00  0.00    -0.021 N 
ATOM      3  H2  UNL     1      23.261  62.274  21.677  1.00  0.00     0.203 HD
HETATM    4  C9  UNL     1      24.134  60.608  22.459  1.00  0.00     0.709 A 
HETATM    5  N4  UNL     1      25.266  59.885  22.430  1.00  0.00    -0.021 N 
ATOM      6  H4  UNL     1      25.325  59.048  23.008  1.00  0.00     0.203 HD
HETATM    7  C14 UNL     1      26.334  60.222  21.664  1.00  0.00     0.709 A 
HETATM    8  N6  UNL     1      26.235  61.319  20.917  1.00  0.00    -0.021 N 
ATOM      9  H6  UNL     1      27.027  61.590  20.335  1.00  0.00     0.203 HD
ENDROOT
BRANCH   1  10
HETATM   10  N1  UNL     1      25.051  63.253  20.092  1.00  0.00    -0.211 N 
HETATM   11  C3  UNL     1      24.576  64.466  20.695  1.00  0.00     0.111 C 
HETATM   12  C4  UNL     1      23.726  65.300  19.793  1.00  0.00     0.027 C 
HETATM   13  C5  UNL     1      24.046  65.185  18.347  1.00  0.00     0.004 C 
HETATM   14  C6  UNL     1      24.373  63.810  17.875  1.00  0.00     0.020 C 
HETATM   15  C7  UNL     1      25.452  63.158  18.700  1.00  0.00     0.141 C 
BRANCH  11  16
HETATM   16  C2  UNL     1      25.726  65.303  21.253  1.00  0.00     0.099 C 
BRANCH  16  17
HETATM   17  S1  UNL     1      26.106  66.702  20.175  1.00  0.00    -0.172 SA
HETATM   18  C1  UNL     1      27.528  66.272  19.161  1.00  0.00     0.089 C 
ENDBRANCH  16  17
ENDBRANCH  11  16
ENDBRANCH   1  10
BRANCH   4  19
HETATM   19  N3  UNL     1      23.028  60.229  23.274  1.00  0.00    -0.217 N 
HETATM   20  C10 UNL     1      23.012  59.049  24.115  1.00  0.00     0.141 C 
HETATM   21  C11 UNL     1      22.100  59.458  25.236  1.00  0.00     0.022 C 
HETATM   22  C12 UNL     1      21.024  60.243  24.474  1.00  0.00     0.022 C 
HETATM   23  C13 UNL     1      21.787  60.937  23.389  1.00  0.00     0.141 C 
ENDBRANCH   4  19
BRANCH   7  24
HETATM   24  N5  UNL     1      27.514  59.441  21.655  1.00  0.00    -0.213 N 
HETATM   25  C15 UNL     1      28.395  59.465  20.517  1.00  0.00     0.167 C 
HETATM   26  C16 UNL     1      29.230  58.199  20.513  1.00  0.00     0.188 C 
HETATM   27  O1  UNL     1      28.542  57.114  21.002  1.00  0.00    -0.388 OA
HETATM   28  C17 UNL     1      28.115  57.214  22.304  1.00  0.00     0.188 C 
HETATM   29  C18 UNL     1      27.849  58.611  22.782  1.00  0.00     0.167 C 
ENDBRANCH   7  24
TORSDOF 5
ENDMDL
MODEL 3
REMARK VINA RESULT: -7.078210330      3.623      6.046
REMARK  5 active torsions:
REMARK  status: ('A' for Active; 'I' for Inactive)
REMARK    1  A    between atoms: S1_2  and  C2_3 
REMARK    2  A    between atoms: C2_3  and  C3_4 
REMARK    3  A    between atoms: N1_9  and  C8_10 
REMARK    4  A    between atoms: C9_13  and  N3_14 
REMARK    5  A    between atoms: C14_21  and  N5_22 
ROOT
HETATM    1  C8  UNL     1      25.098  62.002  20.845  1.00  0.00     0.709 A 
HETATM    2  N2  UNL     1      24.078  61.644  21.640  1.00  0.00    -0.021 N 
ATOM      3  H2  UNL     1      23.230  62.210  21.623  1.00  0.00     0.203 HD
HETATM    4  C9  UNL     1      24.118  60.578  22.457  1.00  0.00     0.709 A 
HETATM    5  N4  UNL     1      25.254  59.861  22.446  1.00  0.00    -0.021 N 
ATOM      6  H4  UNL     1      25.321  59.044  23.053  1.00  0.00     0.203 HD
HETATM    7  C14 UNL     1      26.315  60.176  21.664  1.00  0.00     0.709 A 
HETATM    8  N6  UNL     1      26.206  61.246  20.880  1.00  0.00    -0.021 N 
ATOM      9  H6  UNL     1      26.994  61.502  20.284  1.00  0.00     0.203 HD
ENDROOT
BRANCH   1  10
HETATM   10  N1  UNL     1      25.006  63.144  19.995  1.00  0.00    -0.211 N 
HETATM   11  C3  UNL     1      24.299  64.296  20.478  1.00  0.00     0.111 C 
HETATM   12  C4  UNL     1      23.508  65.006  19.428  1.00  0.00     0.027 C 
HETATM   13  C5  UNL     1      24.064  64.915  18.054  1.00  0.00     0.004 C 
HETATM   14  C6  UNL     1      24.626  63.585  17.683  1.00  0.00     0.020 C 
HETATM   15  C7  UNL     1      25.631  63.082  18.686  1.00  0.00     0.141 C 
BRANCH  11  16
HETATM   16  C2  UNL     1      25.236  65.277  21.181  1.00  0.00     0.099 C 
BRANCH  16  17
HETATM   17  S1  UNL     1      24.777  66.989  20.836  1.00  0.00    -0.172 SA
HETATM   18  C1  UNL     1      23.464  67.468  21.969  1.00  0.00     0.089 C 
ENDBRANCH  16  17
ENDBRANCH  11  16
ENDBRANCH   1  10
BRANCH   4  19
HETATM   19  N3  UNL     1      23.018  60.221  23.291  1.00  0.00    -0.217 N 
HETATM   20  C10 UNL     1      23.000  59.050  24.146  1.00  0.00     0.141 C 
HETATM   21  C11 UNL     1      22.108  59.482  25.274  1.00  0.00     0.022 C 
HETATM   22  C12 UNL     1      21.031  60.271  24.517  1.00  0.00     0.022 C 
HETATM   23  C13 UNL     1      21.787  60.944  23.414  1.00  0.00     0.141 C 
ENDBRANCH   4  19
BRANCH   7  24
HETATM   24  N5  UNL     1      27.500  59.402  21.675  1.00  0.00    -0.213 N 
HETATM   25  C15 UNL     1      28.398  59.428  20.550  1.00  0.00     0.167 C 
HETATM   26  C16 UNL     1      29.241  58.167  20.563  1.00  0.00     0.188 C 
HETATM   27  O1  UNL     1      28.552  57.080  21.044  1.00  0.00    -0.388 OA
HETATM   28  C17 UNL     1      28.104  57.181  22.339  1.00  0.00     0.188 C 
HETATM   29  C18 UNL     1      27.823  58.577  22.809  1.00  0.00     0.167 C 
ENDBRANCH   7  24
TORSDOF 5
ENDMDL
MODEL 4
REMARK VINA RESULT: -7.007416188      3.083      6.436
REMARK  5 active torsions:
REMARK  status: ('A' for Active; 'I' for Inactive)
REMARK    1  A    between atoms: S1_2  and  C2_3 
REMARK    2  A    between atoms: C2_3  and  C3_4 
REMARK    3  A    between atoms: N1_9  and  C8_10 
REMARK    4  A    between atoms: C9_13  and  N3_14 
REMARK    5  A    between atoms: C14_21  and  N5_22 
ROOT
HETATM    1  C8  UNL     1      25.961  62.887  20.492  1.00  0.00     0.709 A 
HETATM    2  N2  UNL     1      26.825  63.529  19.694  1.00  0.00    -0.021 N 
ATOM      3  H2  UNL     1      27.599  63.000  19.292  1.00  0.00     0.203 HD
HETATM    4  C9  UNL     1      26.725  64.836  19.395  1.00  0.00     0.709 A 
HETATM    5  N4  UNL     1      25.691  65.495  19.946  1.00  0.00    -0.021 N 
ATOM      6  H4  UNL     1      25.581  66.488  19.742  1.00  0.00     0.203 HD
HETATM    7  C14 UNL     1      24.788  64.896  20.761  1.00  0.00     0.709 A 
HETATM    8  N6  UNL     1      24.950  63.599  21.013  1.00  0.00    -0.021 N 
ATOM      9  H6  UNL     1      24.281  63.129  21.624  1.00  0.00     0.203 HD
ENDROOT
BRANCH   1  10
HETATM   10  N1  UNL     1      26.112  61.497  20.778  1.00  0.00    -0.211 N 
HETATM   11  C3  UNL     1      25.583  60.995  22.014  1.00  0.00     0.111 C 
HETATM   12  C4  UNL     1      26.427  59.940  22.651  1.00  0.00     0.027 C 
HETATM   13  C5  UNL     1      27.205  59.102  21.704  1.00  0.00     0.004 C 
HETATM   14  C6  UNL     1      27.805  59.834  20.553  1.00  0.00     0.020 C 
HETATM   15  C7  UNL     1      26.794  60.663  19.805  1.00  0.00     0.141 C 
BRANCH  11  16
HETATM   16  C2  UNL     1      24.151  60.491  21.849  1.00  0.00     0.099 C 
BRANCH  16  17
HETATM   17  S1  UNL     1      23.441  59.991  23.433  1.00  0.00    -0.172 SA
HETATM   18  C1  UNL     1      21.947  60.951  23.718  1.00  0.00     0.089 C 
ENDBRANCH  16  17
ENDBRANCH  11  16
ENDBRANCH   1  10
BRANCH   4  19
HETATM   19  N3  UNL     1      27.658  65.494  18.543  1.00  0.00    -0.217 N 
HETATM   20  C10 UNL     1      27.599  66.905  18.216  1.00  0.00     0.141 C 
HETATM   21  C11 UNL     1      29.043  67.250  17.991  1.00  0.00     0.022 C 
HETATM   22  C12 UNL     1      29.537  66.000  17.250  1.00  0.00     0.022 C 
HETATM   23  C13 UNL     1      28.777  64.880  17.890  1.00  0.00     0.141 C 
ENDBRANCH   4  19
BRANCH   7  24
HETATM   24  N5  UNL     1      23.709  65.616  21.327  1.00  0.00    -0.213 N 
HETATM   25  C15 UNL     1      22.376  65.073  21.300  1.00  0.00     0.167 C 
HETATM   26  C16 UNL     1      21.379  66.207  21.446  1.00  0.00     0.188 C 
HETATM   27  O1  UNL     1      21.811  67.366  20.848  1.00  0.00    -0.388 OA
HETATM   28  C17 UNL     1      22.977  67.897  21.345  1.00  0.00     0.188 C 
HETATM   29  C18 UNL     1      23.929  66.901  21.937  1.00  0.00     0.167 C 
ENDBRANCH   7  24
TORSDOF 5
ENDMDL
MODEL 5
REMARK VINA RESULT: -7.004942573      2.843      5.619
REMARK  5 active torsions:
REMARK  status: ('A' for Active; 'I' for Inactive)
REMARK    1  A    between atoms: S1_2  and  C2_3 
REMARK    2  A    between atoms: C2_3  and  C3_4 
REMARK    3  A    between atoms: N1_9  and  C8_10 
REMARK    4  A    between atoms: C9_13  and  N3_14 
REMARK    5  A    between atoms: C14_21  and  N5_22 
ROOT
HETATM    1  C8  UNL     1      24.310  62.336  21.404  1.00  0.00     0.709 A 
HETATM    2  N2  UNL     1      25.456  61.653  21.271  1.00  0.00    -0.021 N 
ATOM      3  H2  UNL     1      26.216  62.081  20.743  1.00  0.00     0.203 HD
HETATM    4  C9  UNL     1      25.655  60.432  21.799  1.00  0.00     0.709 A 
HETATM    5  N4  UNL     1      24.627  59.907  22.487  1.00  0.00    -0.021 N 
ATOM      6  H4  UNL     1      24.740  58.982  22.902  1.00  0.00     0.203 HD
HETATM    7  C14 UNL     1      23.446  60.552  22.652  1.00  0.00     0.709 A 
HETATM    8  N6  UNL     1      23.320  61.758  22.102  1.00  0.00    -0.021 N 
ATOM      9  H6  UNL     1      22.440  62.260  22.214  1.00  0.00     0.203 HD
ENDROOT
BRANCH   1  10
HETATM   10  N1  UNL     1      24.149  63.630  20.824  1.00  0.00    -0.211 N 
HETATM   11  C3  UNL     1      25.180  64.116  19.951  1.00  0.00     0.111 C 
HETATM   12  C4  UNL     1      25.444  65.580  20.082  1.00  0.00     0.027 C 
HETATM   13  C5  UNL     1      24.270  66.397  20.482  1.00  0.00     0.004 C 
HETATM   14  C6  UNL     1      23.390  65.781  21.516  1.00  0.00     0.020 C 
HETATM   15  C7  UNL     1      22.954  64.387  21.147  1.00  0.00     0.141 C 
BRANCH  11  16
HETATM   16  C2  UNL     1      24.893  63.764  18.492  1.00  0.00     0.099 C 
BRANCH  16  17
HETATM   17  S1  UNL     1      26.098  62.580  17.852  1.00  0.00    -0.172 SA
HETATM   18  C1  UNL     1      25.375  60.935  17.920  1.00  0.00     0.089 C 
ENDBRANCH  16  17
ENDBRANCH  11  16
ENDBRANCH   1  10
BRANCH   4  19
HETATM   19  N3  UNL     1      26.884  59.729  21.642  1.00  0.00    -0.217 N 
HETATM   20  C10 UNL     1      27.388  58.761  22.596  1.00  0.00     0.141 C 
HETATM   21  C11 UNL     1      28.180  57.827  21.727  1.00  0.00     0.022 C 
HETATM   22  C12 UNL     1      28.839  58.812  20.752  1.00  0.00     0.022 C 
HETATM   23  C13 UNL     1      27.795  59.863  20.543  1.00  0.00     0.141 C 
ENDBRANCH   4  19
BRANCH   7  24
HETATM   24  N5  UNL     1      22.381  59.972  23.382  1.00  0.00    -0.213 N 
HETATM   25  C15 UNL     1      21.037  60.463  23.224  1.00  0.00     0.167 C 
HETATM   26  C16 UNL     1      20.228  60.087  24.450  1.00  0.00     0.188 C 
HETATM   27  O1  UNL     1      20.981  60.098  25.600  1.00  0.00    -0.388 OA
HETATM   28  C17 UNL     1      22.038  59.220  25.631  1.00  0.00     0.188 C 
HETATM   29  C18 UNL     1      22.626  58.886  24.292  1.00  0.00     0.167 C 
ENDBRANCH   7  24
TORSDOF 5
ENDMDL
