MODEL 1
REMARK VINA RESULT: -7.537488705      0.000      0.000
REMARK  5 active torsions:
REMARK  status: ('A' for Active; 'I' for Inactive)
REMARK    1  A    between atoms: C2_2  and  N1_3 
REMARK    2  A    between atoms: N1_3  and  C4_5 
REMARK    3  A    between atoms: C6_10  and  C7_11 
REMARK    4  A    between atoms: C7_11  and  N3_12 
REMARK    5  A    between atoms: N4_15  and  C10_16 
ROOT
HETATM    1  C4  UNL     1      28.855  65.479  18.373  1.00  0.00     0.697 A 
HETATM    2  N2  UNL     1      28.601  66.011  19.595  1.00  0.00    -0.167 N 
ATOM      3  H2  UNL     1      29.261  66.482  20.215  1.00  0.00     0.186 HD
HETATM    4  C5  UNL     1      27.269  65.782  19.819  1.00  0.00     0.186 A 
HETATM    5  S1  UNL     1      25.985  65.989  20.916  1.00  0.00    -0.052 SA
HETATM    6  C6  UNL     1      24.752  65.237  20.021  1.00  0.00     0.028 A 
HETATM    7  C18 UNL     1      25.422  64.851  18.877  1.00  0.00     0.048 A 
HETATM    8  C19 UNL     1      24.656  64.114  17.777  1.00  0.00     0.071 C 
HETATM    9  N5  UNL     1      26.708  65.144  18.806  1.00  0.00    -0.222 N 
HETATM   10  N6  UNL     1      27.715  64.965  17.913  1.00  0.00    -0.123 N 
ATOM     11  H6  UNL     1      27.612  64.500  17.012  1.00  0.00     0.206 HD
ENDROOT
BRANCH   6  12
HETATM   12  C7  UNL     1      23.287  65.027  20.298  1.00  0.00     0.165 C 
BRANCH  12  13
HETATM   13  N3  UNL     1      23.136  63.950  21.204  1.00  0.00    -0.405 N 
HETATM   14  C8  UNL     1      23.490  62.652  20.780  1.00  0.00     0.136 C 
HETATM   15  C9  UNL     1      23.380  61.714  21.998  1.00  0.00     0.136 C 
HETATM   16  N4  UNL     1      22.039  61.646  22.430  1.00  0.00    -0.405 N 
HETATM   17  C16 UNL     1      21.243  62.812  22.233  1.00  0.00     0.136 C 
HETATM   18  C17 UNL     1      22.044  64.067  22.112  1.00  0.00     0.136 C 
BRANCH  16  19
HETATM   19  C10 UNL     1      21.729  60.912  23.586  1.00  0.00     0.079 C 
HETATM   20  C11 UNL     1      20.312  60.402  23.702  1.00  0.00     0.025 C 
HETATM   21  C12 UNL     1      20.111  60.105  25.194  1.00  0.00     0.002 C 
HETATM   22  C13 UNL     1      21.057  59.043  25.651  1.00  0.00     0.000 C 
HETATM   23  C14 UNL     1      22.478  59.237  25.224  1.00  0.00     0.002 C 
HETATM   24  C15 UNL     1      22.636  59.709  23.801  1.00  0.00     0.025 C 
ENDBRANCH  16  19
ENDBRANCH  12  13
ENDBRANCH   6  12
BRANCH   1  25
HETATM   25  N1  UNL     1      30.126  65.475  17.718  1.00  0.00    -0.221 N 
HETATM   26  C3  UNL     1      31.311  65.777  18.491  1.00  0.00     0.168 C 
BRANCH  25  27
HETATM   27  C2  UNL     1      30.289  65.169  16.317  1.00  0.00     0.136 C 
HETATM   28  C1  UNL     1      30.226  66.470  15.522  1.00  0.00     0.027 C 
ENDBRANCH  25  27
ENDBRANCH   1  25
TORSDOF 5
ENDMDL
MODEL 2
REMARK VINA RESULT: -7.480697316      1.355      2.097
REMARK  5 active torsions:
REMARK  status: ('A' for Active; 'I' for Inactive)
REMARK    1  A    between atoms: C2_2  and  N1_3 
REMARK    2  A    between atoms: N1_3  and  C4_5 
REMARK    3  A    between atoms: C6_10  and  C7_11 
REMARK    4  A    between atoms: C7_11  and  N3_12 
REMARK    5  A    between atoms: N4_15  and  C10_16 
ROOT
HETATM    1  C4  UNL     1      29.049  66.136  19.694  1.00  0.00     0.697 A 
HETATM    2  N2  UNL     1      28.452  65.475  18.669  1.00  0.00    -0.167 N 
ATOM      3  H2  UNL     1      28.891  65.132  17.814  1.00  0.00     0.186 HD
HETATM    4  C5  UNL     1      27.135  65.366  19.029  1.00  0.00     0.186 A 
HETATM    5  S1  UNL     1      25.607  64.785  18.560  1.00  0.00    -0.052 SA
HETATM    6  C6  UNL     1      24.710  65.284  19.914  1.00  0.00     0.028 A 
HETATM    7  C18 UNL     1      25.674  65.896  20.688  1.00  0.00     0.048 A 
HETATM    8  C19 UNL     1      25.275  66.505  22.033  1.00  0.00     0.071 C 
HETATM    9  N5  UNL     1      26.904  65.921  20.207  1.00  0.00    -0.222 N 
HETATM   10  N6  UNL     1      28.112  66.396  20.604  1.00  0.00    -0.123 N 
ATOM     11  H6  UNL     1      28.280  66.885  21.483  1.00  0.00     0.206 HD
ENDROOT
BRANCH   6  12
HETATM   12  C7  UNL     1      23.257  65.120  20.280  1.00  0.00     0.165 C 
BRANCH  12  13
HETATM   13  N3  UNL     1      23.124  64.030  21.173  1.00  0.00    -0.405 N 
HETATM   14  C8  UNL     1      23.476  62.740  20.725  1.00  0.00     0.136 C 
HETATM   15  C9  UNL     1      23.388  61.785  21.931  1.00  0.00     0.136 C 
HETATM   16  N4  UNL     1      22.054  61.706  22.383  1.00  0.00    -0.405 N 
HETATM   17  C16 UNL     1      21.251  62.872  22.215  1.00  0.00     0.136 C 
HETATM   18  C17 UNL     1      22.046  64.131  22.098  1.00  0.00     0.136 C 
BRANCH  16  19
HETATM   19  C10 UNL     1      21.764  60.955  23.533  1.00  0.00     0.079 C 
HETATM   20  C11 UNL     1      20.362  60.405  23.645  1.00  0.00     0.025 C 
HETATM   21  C12 UNL     1      20.169  60.091  25.135  1.00  0.00     0.002 C 
HETATM   22  C13 UNL     1      21.144  59.052  25.583  1.00  0.00     0.000 C 
HETATM   23  C14 UNL     1      22.559  59.288  25.158  1.00  0.00     0.002 C 
HETATM   24  C15 UNL     1      22.704  59.775  23.739  1.00  0.00     0.025 C 
ENDBRANCH  16  19
ENDBRANCH  12  13
ENDBRANCH   6  12
BRANCH   1  25
HETATM   25  N1  UNL     1      30.433  66.487  19.759  1.00  0.00    -0.221 N 
HETATM   26  C3  UNL     1      31.295  66.140  18.650  1.00  0.00     0.168 C 
BRANCH  25  27
HETATM   27  C2  UNL     1      31.016  67.187  20.879  1.00  0.00     0.136 C 
HETATM   28  C1  UNL     1      30.954  68.687  20.606  1.00  0.00     0.027 C 
ENDBRANCH  25  27
ENDBRANCH   1  25
TORSDOF 5
ENDMDL
MODEL 3
REMARK VINA RESULT: -7.148063668      1.137      1.682
REMARK  5 active torsions:
REMARK  status: ('A' for Active; 'I' for Inactive)
REMARK    1  A    between atoms: C2_2  and  N1_3 
REMARK    2  A    between atoms: N1_3  and  C4_5 
REMARK    3  A    between atoms: C6_10  and  C7_11 
REMARK    4  A    between atoms: C7_11  and  N3_12 
REMARK    5  A    between atoms: N4_15  and  C10_16 
ROOT
HETATM    1  C4  UNL     1      28.962  66.573  19.734  1.00  0.00     0.697 A 
HETATM    2  N2  UNL     1      28.251  67.097  20.765  1.00  0.00    -0.167 N 
ATOM      3  H2  UNL     1      28.579  67.754  21.472  1.00  0.00     0.186 HD
HETATM    4  C5  UNL     1      26.997  66.555  20.651  1.00  0.00     0.186 A 
HETATM    5  S1  UNL     1      25.438  66.499  21.327  1.00  0.00    -0.052 SA
HETATM    6  C6  UNL     1      24.720  65.410  20.239  1.00  0.00     0.028 A 
HETATM    7  C18 UNL     1      25.761  65.136  19.376  1.00  0.00     0.048 A 
HETATM    8  C19 UNL     1      25.534  64.167  18.215  1.00  0.00     0.071 C 
HETATM    9  N5  UNL     1      26.913  65.738  19.615  1.00  0.00    -0.222 N 
HETATM   10  N6  UNL     1      28.150  65.764  19.056  1.00  0.00    -0.123 N 
ATOM     11  H6  UNL     1      28.420  65.234  18.228  1.00  0.00     0.206 HD
ENDROOT
BRANCH   6  12
HETATM   12  C7  UNL     1      23.322  64.856  20.138  1.00  0.00     0.165 C 
BRANCH  12  13
HETATM   13  N3  UNL     1      23.165  63.817  21.087  1.00  0.00    -0.405 N 
HETATM   14  C8  UNL     1      23.557  62.509  20.731  1.00  0.00     0.136 C 
HETATM   15  C9  UNL     1      23.429  61.625  21.986  1.00  0.00     0.136 C 
HETATM   16  N4  UNL     1      22.077  61.547  22.382  1.00  0.00    -0.405 N 
HETATM   17  C16 UNL     1      21.265  62.687  22.110  1.00  0.00     0.136 C 
HETATM   18  C17 UNL     1      22.044  63.952  21.956  1.00  0.00     0.136 C 
BRANCH  16  19
HETATM   19  C10 UNL     1      21.747  60.859  23.560  1.00  0.00     0.079 C 
HETATM   20  C11 UNL     1      20.341  60.316  23.654  1.00  0.00     0.025 C 
HETATM   21  C12 UNL     1      20.097  60.082  25.150  1.00  0.00     0.002 C 
HETATM   22  C13 UNL     1      21.054  59.068  25.687  1.00  0.00     0.000 C 
HETATM   23  C14 UNL     1      22.483  59.282  25.299  1.00  0.00     0.002 C 
HETATM   24  C15 UNL     1      22.678  59.693  23.861  1.00  0.00     0.025 C 
ENDBRANCH  16  19
ENDBRANCH  12  13
ENDBRANCH   6  12
BRANCH   1  25
HETATM   25  N1  UNL     1      30.336  66.848  19.450  1.00  0.00    -0.221 N 
HETATM   26  C3  UNL     1      31.100  65.881  18.693  1.00  0.00     0.168 C 
BRANCH  25  27
HETATM   27  C2  UNL     1      31.000  68.058  19.874  1.00  0.00     0.136 C 
HETATM   28  C1  UNL     1      32.008  67.707  20.964  1.00  0.00     0.027 C 
ENDBRANCH  25  27
ENDBRANCH   1  25
TORSDOF 5
ENDMDL
MODEL 4
REMARK VINA RESULT: -7.117719370      0.983      1.153
REMARK  5 active torsions:
REMARK  status: ('A' for Active; 'I' for Inactive)
REMARK    1  A    between atoms: C2_2  and  N1_3 
REMARK    2  A    between atoms: N1_3  and  C4_5 
REMARK    3  A    between atoms: C6_10  and  C7_11 
REMARK    4  A    between atoms: C7_11  and  N3_12 
REMARK    5  A    between atoms: N4_15  and  C10_16 
ROOT
HETATM    1  C4  UNL     1      28.191  66.649  18.724  1.00  0.00     0.697 A 
HETATM    2  N2  UNL     1      27.944  66.910  20.033  1.00  0.00    -0.167 N 
ATOM      3  H2  UNL     1      28.590  67.301  20.719  1.00  0.00     0.186 HD
HETATM    4  C5  UNL     1      26.641  66.537  20.235  1.00  0.00     0.186 A 
HETATM    5  S1  UNL     1      25.387  66.424  21.379  1.00  0.00    -0.052 SA
HETATM    6  C6  UNL     1      24.180  65.767  20.379  1.00  0.00     0.028 A 
HETATM    7  C18 UNL     1      24.834  65.665  19.168  1.00  0.00     0.048 A 
HETATM    8  C19 UNL     1      24.084  65.101  17.960  1.00  0.00     0.071 C 
HETATM    9  N5  UNL     1      26.092  66.068  19.128  1.00  0.00    -0.222 N 
HETATM   10  N6  UNL     1      27.076  66.147  18.197  1.00  0.00    -0.123 N 
ATOM     11  H6  UNL     1      26.975  65.860  17.224  1.00  0.00     0.206 HD
ENDROOT
BRANCH   6  12
HETATM   12  C7  UNL     1      22.745  65.392  20.641  1.00  0.00     0.165 C 
BRANCH  12  13
HETATM   13  N3  UNL     1      22.709  64.244  21.469  1.00  0.00    -0.405 N 
HETATM   14  C8  UNL     1      23.069  62.997  20.915  1.00  0.00     0.136 C 
HETATM   15  C9  UNL     1      23.095  61.967  22.061  1.00  0.00     0.136 C 
HETATM   16  N4  UNL     1      21.799  61.812  22.597  1.00  0.00    -0.405 N 
HETATM   17  C16 UNL     1      20.951  62.957  22.560  1.00  0.00     0.136 C 
HETATM   18  C17 UNL     1      21.696  64.249  22.471  1.00  0.00     0.136 C 
BRANCH  16  19
HETATM   19  C10 UNL     1      21.615  60.981  23.713  1.00  0.00     0.079 C 
HETATM   20  C11 UNL     1      20.244  60.371  23.882  1.00  0.00     0.025 C 
HETATM   21  C12 UNL     1      20.164  59.959  25.357  1.00  0.00     0.002 C 
HETATM   22  C13 UNL     1      21.203  58.933  25.674  1.00  0.00     0.000 C 
HETATM   23  C14 UNL     1      22.577  59.251  25.173  1.00  0.00     0.002 C 
HETATM   24  C15 UNL     1      22.608  59.829  23.782  1.00  0.00     0.025 C 
ENDBRANCH  16  19
ENDBRANCH  12  13
ENDBRANCH   6  12
BRANCH   1  25
HETATM   25  N1  UNL     1      29.435  66.873  18.055  1.00  0.00    -0.221 N 
HETATM   26  C3  UNL     1      30.076  68.162  18.186  1.00  0.00     0.168 C 
BRANCH  25  27
HETATM   27  C2  UNL     1      30.093  65.864  17.259  1.00  0.00     0.136 C 
HETATM   28  C1  UNL     1      31.063  65.093  18.150  1.00  0.00     0.027 C 
ENDBRANCH  25  27
ENDBRANCH   1  25
TORSDOF 5
ENDMDL
MODEL 5
REMARK VINA RESULT: -7.061529915      4.433      9.908
REMARK  5 active torsions:
REMARK  status: ('A' for Active; 'I' for Inactive)
REMARK    1  A    between atoms: C2_2  and  N1_3 
REMARK    2  A    between atoms: N1_3  and  C4_5 
REMARK    3  A    between atoms: C6_10  and  C7_11 
REMARK    4  A    between atoms: C7_11  and  N3_12 
REMARK    5  A    between atoms: N4_15  and  C10_16 
ROOT
HETATM    1  C4  UNL     1      26.538  63.743  19.014  1.00  0.00     0.697 A 
HETATM    2  N2  UNL     1      26.157  64.735  19.859  1.00  0.00    -0.167 N 
ATOM      3  H2  UNL     1      25.344  64.745  20.474  1.00  0.00     0.186 HD
HETATM    4  C5  UNL     1      27.100  65.718  19.708  1.00  0.00     0.186 A 
HETATM    5  S1  UNL     1      27.588  67.267  20.213  1.00  0.00    -0.052 SA
HETATM    6  C6  UNL     1      28.983  67.426  19.256  1.00  0.00     0.028 A 
HETATM    7  C18 UNL     1      29.000  66.229  18.570  1.00  0.00     0.048 A 
HETATM    8  C19 UNL     1      30.125  65.957  17.570  1.00  0.00     0.071 C 
HETATM    9  N5  UNL     1      28.022  65.377  18.824  1.00  0.00    -0.222 N 
HETATM   10  N6  UNL     1      27.654  64.141  18.404  1.00  0.00    -0.123 N 
ATOM     11  H6  UNL     1      28.163  63.590  17.713  1.00  0.00     0.206 HD
ENDROOT
BRANCH   6  12
HETATM   12  C7  UNL     1      30.009  68.524  19.140  1.00  0.00     0.165 C 
BRANCH  12  13
HETATM   13  N3  UNL     1      30.677  68.667  20.379  1.00  0.00    -0.405 N 
HETATM   14  C8  UNL     1      31.275  69.907  20.689  1.00  0.00     0.136 C 
HETATM   15  C9  UNL     1      31.782  69.833  22.141  1.00  0.00     0.136 C 
HETATM   16  N4  UNL     1      32.797  68.858  22.245  1.00  0.00    -0.405 N 
HETATM   17  C16 UNL     1      32.704  67.741  21.364  1.00  0.00     0.136 C 
HETATM   18  C17 UNL     1      31.320  67.491  20.862  1.00  0.00     0.136 C 
BRANCH  16  19
HETATM   19  C10 UNL     1      33.339  68.566  23.507  1.00  0.00     0.079 C 
HETATM   20  C11 UNL     1      34.500  67.601  23.536  1.00  0.00     0.025 C 
HETATM   21  C12 UNL     1      34.561  67.084  24.980  1.00  0.00     0.002 C 
HETATM   22  C13 UNL     1      34.828  68.207  25.929  1.00  0.00     0.000 C 
HETATM   23  C14 UNL     1      33.983  69.424  25.720  1.00  0.00     0.002 C 
HETATM   24  C15 UNL     1      33.790  69.801  24.274  1.00  0.00     0.025 C 
ENDBRANCH  16  19
ENDBRANCH  12  13
ENDBRANCH   6  12
BRANCH   1  25
HETATM   25  N1  UNL     1      25.848  62.505  18.824  1.00  0.00    -0.221 N 
HETATM   26  C3  UNL     1      24.571  62.515  18.144  1.00  0.00     0.168 C 
BRANCH  25  27
HETATM   27  C2  UNL     1      26.371  61.236  19.269  1.00  0.00     0.136 C 
HETATM   28  C1  UNL     1      25.265  60.479  19.998  1.00  0.00     0.027 C 
ENDBRANCH  25  27
ENDBRANCH   1  25
TORSDOF 5
ENDMDL
