MODEL 1
REMARK VINA RESULT: -6.799522839      0.000      0.000
REMARK  6 active torsions:
REMARK  status: ('A' for Active; 'I' for Inactive)
REMARK    1  A    between atoms: C2_2  and  C4_4 
REMARK    2  A    between atoms: C9_12  and  C10_13 
REMARK    3  A    between atoms: C10_13  and  N2_14 
REMARK    4  A    between atoms: C14_19  and  C15_20 
REMARK    5  A    between atoms: C15_20  and  O4_22 
REMARK    6  A    between atoms: O4_22  and  C16_23 
ROOT
HETATM    1  C4  UNL     1      24.645  67.249  18.967  1.00  0.00    -0.005 C 
HETATM    2  N1  UNL     1      25.947  67.430  19.034  1.00  0.00    -0.343 N 
ATOM      3  H1  UNL     1      26.338  68.341  19.272  1.00  0.00     0.167 HD
HETATM    4  C5  UNL     1      26.815  66.292  18.758  1.00  0.00     0.157 A 
HETATM    5  O1  UNL     1      28.047  65.923  18.646  1.00  0.00    -0.304 OA
HETATM    6  C6  UNL     1      28.163  64.616  18.300  1.00  0.00     0.155 A 
HETATM    7  C7  UNL     1      26.876  64.093  18.178  1.00  0.00     0.016 A 
HETATM    8  C8  UNL     1      26.138  65.172  18.488  1.00  0.00     0.041 A 
HETATM    9  C9  UNL     1      24.751  64.801  18.668  1.00  0.00     0.125 C 
HETATM   10  C13 UNL     1      23.918  66.017  18.523  1.00  0.00     0.098 C 
HETATM   11  O2  UNL     1      24.598  63.703  17.845  1.00  0.00    -0.353 OA
HETATM   12  C14 UNL     1      25.865  63.061  17.803  1.00  0.00     0.258 C 
ENDROOT
BRANCH  12  13
HETATM   13  C15 UNL     1      26.009  61.844  18.499  1.00  0.00     0.293 C 
HETATM   14  O3  UNL     1      25.234  60.878  18.153  1.00  0.00    -0.262 OA
BRANCH  13  15
HETATM   15  O4  UNL     1      26.871  61.509  19.530  1.00  0.00    -0.314 OA
BRANCH  15  16
HETATM   16  C16 UNL     1      26.590  60.583  20.533  1.00  0.00     0.136 C 
HETATM   17  C17 UNL     1      27.766  59.714  20.896  1.00  0.00     0.059 C 
HETATM   18  C18 UNL     1      27.291  58.721  21.946  1.00  0.00     0.170 C 
HETATM   19  O5  UNL     1      26.879  59.458  23.053  1.00  0.00    -0.391 OA
HETATM   20  C19 UNL     1      25.714  60.169  22.788  1.00  0.00     0.170 C 
HETATM   21  C20 UNL     1      26.008  61.252  21.778  1.00  0.00     0.059 C 
ENDBRANCH  15  16
ENDBRANCH  13  15
ENDBRANCH  12  13
BRANCH   9  22
HETATM   22  C10 UNL     1      24.518  64.233  20.073  1.00  0.00     0.315 C 
BRANCH  22  23
HETATM   23  N2  UNL     1      23.180  64.326  20.602  1.00  0.00     0.083 N 
HETATM   24  C11 UNL     1      22.951  62.946  21.221  1.00  0.00     0.309 C 
HETATM   25  C12 UNL     1      23.138  65.202  21.803  1.00  0.00     0.309 C 
ENDBRANCH  22  23
ENDBRANCH   9  22
BRANCH   1  26
HETATM   26  C2  UNL     1      23.771  68.419  19.262  1.00  0.00     0.023 C 
HETATM   27  C1  UNL     1      22.345  67.861  19.348  1.00  0.00     0.016 C 
HETATM   28  C3  UNL     1      23.794  69.421  18.152  1.00  0.00     0.016 C 
ENDBRANCH   1  26
TORSDOF 6
ENDMDL
MODEL 2
REMARK VINA RESULT: -6.459706114      2.199      6.683
REMARK  6 active torsions:
REMARK  status: ('A' for Active; 'I' for Inactive)
REMARK    1  A    between atoms: C2_2  and  C4_4 
REMARK    2  A    between atoms: C9_12  and  C10_13 
REMARK    3  A    between atoms: C10_13  and  N2_14 
REMARK    4  A    between atoms: C14_19  and  C15_20 
REMARK    5  A    between atoms: C15_20  and  O4_22 
REMARK    6  A    between atoms: O4_22  and  C16_23 
ROOT
HETATM    1  C4  UNL     1      25.675  60.893  20.951  1.00  0.00    -0.005 C 
HETATM    2  N1  UNL     1      26.122  60.776  19.718  1.00  0.00    -0.343 N 
ATOM      3  H1  UNL     1      26.255  59.858  19.294  1.00  0.00     0.167 HD
HETATM    4  C5  UNL     1      26.419  61.994  18.974  1.00  0.00     0.157 A 
HETATM    5  O1  UNL     1      26.876  62.447  17.855  1.00  0.00    -0.304 OA
HETATM    6  C6  UNL     1      26.930  63.804  17.834  1.00  0.00     0.155 A 
HETATM    7  C7  UNL     1      26.459  64.267  19.062  1.00  0.00     0.016 A 
HETATM    8  C8  UNL     1      26.164  63.106  19.670  1.00  0.00     0.041 A 
HETATM    9  C9  UNL     1      25.421  63.348  20.888  1.00  0.00     0.125 C 
HETATM   10  C13 UNL     1      25.534  62.151  21.753  1.00  0.00     0.098 C 
HETATM   11  O2  UNL     1      25.858  64.592  21.294  1.00  0.00    -0.353 OA
HETATM   12  C14 UNL     1      26.200  65.298  20.110  1.00  0.00     0.258 C 
ENDROOT
BRANCH  12  13
HETATM   13  C15 UNL     1      25.342  66.333  19.689  1.00  0.00     0.293 C 
HETATM   14  O3  UNL     1      25.093  67.267  20.537  1.00  0.00    -0.262 OA
BRANCH  13  15
HETATM   15  O4  UNL     1      24.698  66.513  18.475  1.00  0.00    -0.314 OA
BRANCH  15  16
HETATM   16  C16 UNL     1      23.416  67.040  18.325  1.00  0.00     0.136 C 
HETATM   17  C17 UNL     1      23.405  68.458  17.816  1.00  0.00     0.059 C 
HETATM   18  C18 UNL     1      21.954  68.912  17.767  1.00  0.00     0.170 C 
HETATM   19  O5  UNL     1      21.291  68.075  16.873  1.00  0.00    -0.391 OA
HETATM   20  C19 UNL     1      21.167  66.786  17.376  1.00  0.00     0.170 C 
HETATM   21  C20 UNL     1      22.532  66.146  17.455  1.00  0.00     0.059 C 
ENDBRANCH  15  16
ENDBRANCH  13  15
ENDBRANCH  12  13
BRANCH   9  22
HETATM   22  C10 UNL     1      23.935  63.571  20.581  1.00  0.00     0.315 C 
BRANCH  22  23
HETATM   23  N2  UNL     1      23.068  63.830  21.704  1.00  0.00     0.083 N 
HETATM   24  C11 UNL     1      22.277  65.061  21.260  1.00  0.00     0.309 C 
HETATM   25  C12 UNL     1      21.994  62.805  21.799  1.00  0.00     0.309 C 
ENDBRANCH  22  23
ENDBRANCH   9  22
BRANCH   1  26
HETATM   26  C2  UNL     1      25.365  59.640  21.693  1.00  0.00     0.023 C 
HETATM   27  C1  UNL     1      24.462  60.061  22.859  1.00  0.00     0.016 C 
HETATM   28  C3  UNL     1      26.597  59.025  22.280  1.00  0.00     0.016 C 
ENDBRANCH   1  26
TORSDOF 6
ENDMDL
MODEL 3
REMARK VINA RESULT: -6.310840868      2.444      6.582
REMARK  6 active torsions:
REMARK  status: ('A' for Active; 'I' for Inactive)
REMARK    1  A    between atoms: C2_2  and  C4_4 
REMARK    2  A    between atoms: C9_12  and  C10_13 
REMARK    3  A    between atoms: C10_13  and  N2_14 
REMARK    4  A    between atoms: C14_19  and  C15_20 
REMARK    5  A    between atoms: C15_20  and  O4_22 
REMARK    6  A    between atoms: O4_22  and  C16_23 
ROOT
HETATM    1  C4  UNL     1      26.350  62.030  19.992  1.00  0.00    -0.005 C 
HETATM    2  N1  UNL     1      26.860  62.530  18.886  1.00  0.00    -0.343 N 
ATOM      3  H1  UNL     1      27.250  61.920  18.168  1.00  0.00     0.167 HD
HETATM    4  C5  UNL     1      26.851  63.977  18.715  1.00  0.00     0.157 A 
HETATM    5  O1  UNL     1      27.214  64.937  17.932  1.00  0.00    -0.304 OA
HETATM    6  C6  UNL     1      26.905  66.158  18.438  1.00  0.00     0.155 A 
HETATM    7  C7  UNL     1      26.279  65.962  19.670  1.00  0.00     0.016 A 
HETATM    8  C8  UNL     1      26.280  64.620  19.738  1.00  0.00     0.041 A 
HETATM    9  C9  UNL     1      25.452  64.170  20.836  1.00  0.00     0.125 C 
HETATM   10  C13 UNL     1      25.846  62.786  21.184  1.00  0.00     0.098 C 
HETATM   11  O2  UNL     1      25.525  65.205  21.745  1.00  0.00    -0.353 OA
HETATM   12  C14 UNL     1      25.713  66.389  20.983  1.00  0.00     0.258 C 
ENDROOT
BRANCH  12  13
HETATM   13  C15 UNL     1      24.627  67.280  20.870  1.00  0.00     0.293 C 
HETATM   14  O3  UNL     1      23.906  67.457  21.920  1.00  0.00    -0.262 OA
BRANCH  13  15
HETATM   15  O4  UNL     1      24.192  68.015  19.780  1.00  0.00    -0.314 OA
BRANCH  15  16
HETATM   16  C16 UNL     1      22.989  67.805  19.108  1.00  0.00     0.136 C 
HETATM   17  C17 UNL     1      22.327  69.078  18.648  1.00  0.00     0.059 C 
HETATM   18  C18 UNL     1      21.007  68.696  17.997  1.00  0.00     0.170 C 
HETATM   19  O5  UNL     1      21.306  67.888  16.903  1.00  0.00    -0.391 OA
HETATM   20  C19 UNL     1      21.795  66.650  17.301  1.00  0.00     0.170 C 
HETATM   21  C20 UNL     1      23.150  66.829  17.942  1.00  0.00     0.059 C 
ENDBRANCH  15  16
ENDBRANCH  13  15
ENDBRANCH  12  13
BRANCH   9  22
HETATM   22  C10 UNL     1      23.974  64.152  20.428  1.00  0.00     0.315 C 
BRANCH  22  23
HETATM   23  N2  UNL     1      23.004  64.055  21.491  1.00  0.00     0.083 N 
HETATM   24  C11 UNL     1      21.843  64.913  20.985  1.00  0.00     0.309 C 
HETATM   25  C12 UNL     1      22.383  62.704  21.527  1.00  0.00     0.309 C 
ENDBRANCH  22  23
ENDBRANCH   9  22
BRANCH   1  26
HETATM   26  C2  UNL     1      26.356  60.550  20.147  1.00  0.00     0.023 C 
HETATM   27  C1  UNL     1      24.888  60.116  20.062  1.00  0.00     0.016 C 
HETATM   28  C3  UNL     1      26.868  60.135  21.491  1.00  0.00     0.016 C 
ENDBRANCH   1  26
TORSDOF 6
ENDMDL
MODEL 4
REMARK VINA RESULT: -6.270776377      3.245      7.487
REMARK  6 active torsions:
REMARK  status: ('A' for Active; 'I' for Inactive)
REMARK    1  A    between atoms: C2_2  and  C4_4 
REMARK    2  A    between atoms: C9_12  and  C10_13 
REMARK    3  A    between atoms: C10_13  and  N2_14 
REMARK    4  A    between atoms: C14_19  and  C15_20 
REMARK    5  A    between atoms: C15_20  and  O4_22 
REMARK    6  A    between atoms: O4_22  and  C16_23 
ROOT
HETATM    1  C4  UNL     1      27.069  59.464  21.727  1.00  0.00    -0.005 C 
HETATM    2  N1  UNL     1      26.492  59.152  22.868  1.00  0.00    -0.343 N 
ATOM      3  H1  UNL     1      26.962  58.553  23.547  1.00  0.00     0.167 HD
HETATM    4  C5  UNL     1      25.163  59.686  23.137  1.00  0.00     0.157 A 
HETATM    5  O1  UNL     1      24.190  59.686  23.985  1.00  0.00    -0.304 OA
HETATM    6  C6  UNL     1      23.137  60.429  23.560  1.00  0.00     0.155 A 
HETATM    7  C7  UNL     1      23.467  60.961  22.314  1.00  0.00     0.016 A 
HETATM    8  C8  UNL     1      24.707  60.470  22.155  1.00  0.00     0.041 A 
HETATM    9  C9  UNL     1      25.357  61.096  21.023  1.00  0.00     0.125 C 
HETATM   10  C13 UNL     1      26.475  60.229  20.585  1.00  0.00     0.098 C 
HETATM   11  O2  UNL     1      24.309  61.423  20.186  1.00  0.00    -0.353 OA
HETATM   12  C14 UNL     1      23.191  61.667  21.028  1.00  0.00     0.258 C 
ENDROOT
BRANCH  12  13
HETATM   13  C15 UNL     1      22.769  63.001  21.192  1.00  0.00     0.293 C 
HETATM   14  O3  UNL     1      23.279  63.877  20.400  1.00  0.00    -0.262 OA
BRANCH  13  15
HETATM   15  O4  UNL     1      21.871  63.543  22.098  1.00  0.00    -0.314 OA
BRANCH  15  16
HETATM   16  C16 UNL     1      20.491  63.351  22.060  1.00  0.00     0.136 C 
HETATM   17  C17 UNL     1      20.007  62.276  22.998  1.00  0.00     0.059 C 
HETATM   18  C18 UNL     1      18.505  62.140  22.798  1.00  0.00     0.170 C 
HETATM   19  O5  UNL     1      17.933  63.363  23.135  1.00  0.00    -0.391 OA
HETATM   20  C19 UNL     1      18.253  64.349  22.210  1.00  0.00     0.170 C 
HETATM   21  C20 UNL     1      19.729  64.656  22.296  1.00  0.00     0.059 C 
ENDBRANCH  15  16
ENDBRANCH  13  15
ENDBRANCH  12  13
BRANCH   9  22
HETATM   22  C10 UNL     1      25.941  62.457  21.417  1.00  0.00     0.315 C 
BRANCH  22  23
HETATM   23  N2  UNL     1      25.943  63.485  20.406  1.00  0.00     0.083 N 
HETATM   24  C11 UNL     1      26.541  64.691  21.132  1.00  0.00     0.309 C 
HETATM   25  C12 UNL     1      26.979  63.217  19.373  1.00  0.00     0.309 C 
ENDBRANCH  22  23
ENDBRANCH   9  22
BRANCH   1  26
HETATM   26  C2  UNL     1      28.432  58.919  21.473  1.00  0.00     0.023 C 
HETATM   27  C1  UNL     1      28.729  59.215  19.998  1.00  0.00     0.016 C 
HETATM   28  C3  UNL     1      28.476  57.434  21.649  1.00  0.00     0.016 C 
ENDBRANCH   1  26
TORSDOF 6
ENDMDL
MODEL 5
REMARK VINA RESULT: -6.227645937      2.549      7.440
REMARK  6 active torsions:
REMARK  status: ('A' for Active; 'I' for Inactive)
REMARK    1  A    between atoms: C2_2  and  C4_4 
REMARK    2  A    between atoms: C9_12  and  C10_13 
REMARK    3  A    between atoms: C10_13  and  N2_14 
REMARK    4  A    between atoms: C14_19  and  C15_20 
REMARK    5  A    between atoms: C15_20  and  O4_22 
REMARK    6  A    between atoms: O4_22  and  C16_23 
ROOT
HETATM    1  C4  UNL     1      27.033  59.466  21.732  1.00  0.00    -0.005 C 
HETATM    2  N1  UNL     1      26.462  59.186  22.884  1.00  0.00    -0.343 N 
ATOM      3  H1  UNL     1      26.930  58.595  23.570  1.00  0.00     0.167 HD
HETATM    4  C5  UNL     1      25.143  59.744  23.153  1.00  0.00     0.157 A 
HETATM    5  O1  UNL     1      24.178  59.774  24.010  1.00  0.00    -0.304 OA
HETATM    6  C6  UNL     1      23.130  60.522  23.579  1.00  0.00     0.155 A 
HETATM    7  C7  UNL     1      23.456  61.024  22.319  1.00  0.00     0.016 A 
HETATM    8  C8  UNL     1      24.688  60.514  22.159  1.00  0.00     0.041 A 
HETATM    9  C9  UNL     1      25.336  61.107  21.009  1.00  0.00     0.125 C 
HETATM   10  C13 UNL     1      26.438  60.217  20.579  1.00  0.00     0.098 C 
HETATM   11  O2  UNL     1      24.285  61.431  20.175  1.00  0.00    -0.353 OA
HETATM   12  C14 UNL     1      23.178  61.707  21.022  1.00  0.00     0.258 C 
ENDROOT
BRANCH  12  13
HETATM   13  C15 UNL     1      22.775  63.051  21.162  1.00  0.00     0.293 C 
HETATM   14  O3  UNL     1      21.896  63.306  22.065  1.00  0.00    -0.262 OA
BRANCH  13  15
HETATM   15  O4  UNL     1      23.180  64.175  20.463  1.00  0.00    -0.314 OA
BRANCH  15  16
HETATM   16  C16 UNL     1      22.775  65.478  20.747  1.00  0.00     0.136 C 
HETATM   17  C17 UNL     1      23.740  66.230  21.627  1.00  0.00     0.059 C 
HETATM   18  C18 UNL     1      23.135  67.598  21.901  1.00  0.00     0.170 C 
HETATM   19  O5  UNL     1      23.002  68.242  20.674  1.00  0.00    -0.391 OA
HETATM   20  C19 UNL     1      22.019  67.651  19.890  1.00  0.00     0.170 C 
HETATM   21  C20 UNL     1      22.473  66.271  19.475  1.00  0.00     0.059 C 
ENDBRANCH  15  16
ENDBRANCH  13  15
ENDBRANCH  12  13
BRANCH   9  22
HETATM   22  C10 UNL     1      25.942  62.468  21.370  1.00  0.00     0.315 C 
BRANCH  22  23
HETATM   23  N2  UNL     1      25.939  63.479  20.341  1.00  0.00     0.083 N 
HETATM   24  C11 UNL     1      26.657  64.656  21.003  1.00  0.00     0.309 C 
HETATM   25  C12 UNL     1      26.885  63.130  19.247  1.00  0.00     0.309 C 
ENDBRANCH  22  23
ENDBRANCH   9  22
BRANCH   1  26
HETATM   26  C2  UNL     1      28.385  58.898  21.476  1.00  0.00     0.023 C 
HETATM   27  C1  UNL     1      28.723  59.263  20.025  1.00  0.00     0.016 C 
HETATM   28  C3  UNL     1      28.386  57.405  21.575  1.00  0.00     0.016 C 
ENDBRANCH   1  26
TORSDOF 6
ENDMDL
