MODEL 1
REMARK VINA RESULT: -6.253876944      0.000      0.000
REMARK  5 active torsions:
REMARK  status: ('A' for Active; 'I' for Inactive)
REMARK    1  A    between atoms: C2_2  and  C3_3 
REMARK    2  A    between atoms: C3_3  and  C4_4 
REMARK    3  A    between atoms: C4_4  and  N1_5 
REMARK    4  A    between atoms: C5_6  and  C6_7 
REMARK    5  A    between atoms: C11_18  and  N4_19 
ROOT
HETATM    1  N1  UNL     1      33.202  78.253  63.402  1.00  0.00    -0.319 N 
HETATM    2  C5  UNL     1      33.123  78.305  62.072  1.00  0.00     0.109 A 
HETATM    3  N2  UNL     1      34.090  79.153  61.663  1.00  0.00    -0.337 N 
ATOM      4  H2  UNL     1      34.268  79.390  60.687  1.00  0.00     0.167 HD
HETATM    5  C9  UNL     1      34.789  79.646  62.695  1.00  0.00     0.148 A 
HETATM    6  C10 UNL     1      35.836  80.513  62.885  1.00  0.00     0.290 A 
HETATM    7  O1  UNL     1      36.371  81.046  61.901  1.00  0.00    -0.265 OA
HETATM    8  N3  UNL     1      36.273  80.775  64.133  1.00  0.00    -0.154 N 
ATOM      9  H3  UNL     1      37.053  81.420  64.259  1.00  0.00     0.187 HD
HETATM   10  C11 UNL     1      35.713  80.212  65.216  1.00  0.00     0.680 A 
HETATM   11  N5  UNL     1      34.698  79.375  65.012  1.00  0.00    -0.174 N 
ATOM     12  H5  UNL     1      34.261  78.939  65.824  1.00  0.00     0.186 HD
HETATM   13  C12 UNL     1      34.213  79.071  63.781  1.00  0.00     0.157 A 
ENDROOT
BRANCH   1  14
HETATM   14  C4  UNL     1      32.434  77.489  64.352  1.00  0.00     0.132 C 
BRANCH  14  15
HETATM   15  C3  UNL     1      32.285  76.034  64.090  1.00  0.00     0.020 C 
BRANCH  15  16
HETATM   16  C2  UNL     1      33.592  75.273  64.098  1.00  0.00    -0.003 C 
HETATM   17  C1  UNL     1      34.564  75.654  65.164  1.00  0.00     0.005 C 
ENDBRANCH  15  16
ENDBRANCH  14  15
ENDBRANCH   1  14
BRANCH   2  18
HETATM   18  C6  UNL     1      32.195  77.627  61.155  1.00  0.00     0.088 C 
HETATM   19  C7  UNL     1      32.289  78.395  59.809  1.00  0.00     0.041 C 
HETATM   20  C8  UNL     1      32.487  76.238  60.754  1.00  0.00     0.041 C 
HETATM   21 CL1  UNL     1      30.467  77.881  61.566  1.00  0.00    -0.112 Cl
ENDBRANCH   2  18
BRANCH  10  22
HETATM   22  N4  UNL     1      36.162  80.502  66.408  1.00  0.00    -0.234 N 
ATOM     23  H42 UNL     1      37.078  80.921  66.566  1.00  0.00     0.174 HD
ATOM     24  H41 UNL     1      35.592  80.302  67.230  1.00  0.00     0.174 HD
ENDBRANCH  10  22
TORSDOF 5
ENDMDL
MODEL 2
REMARK VINA RESULT: -5.802552889      2.980      5.406
REMARK  5 active torsions:
REMARK  status: ('A' for Active; 'I' for Inactive)
REMARK    1  A    between atoms: C2_2  and  C3_3 
REMARK    2  A    between atoms: C3_3  and  C4_4 
REMARK    3  A    between atoms: C4_4  and  N1_5 
REMARK    4  A    between atoms: C5_6  and  C6_7 
REMARK    5  A    between atoms: C11_18  and  N4_19 
ROOT
HETATM    1  N1  UNL     1      33.964  78.742  63.006  1.00  0.00    -0.319 N 
HETATM    2  C5  UNL     1      34.777  79.019  64.025  1.00  0.00     0.109 A 
HETATM    3  N2  UNL     1      34.884  77.885  64.750  1.00  0.00    -0.337 N 
ATOM      4  H2  UNL     1      35.446  77.799  65.596  1.00  0.00     0.167 HD
HETATM    5  C9  UNL     1      34.162  76.887  64.222  1.00  0.00     0.148 A 
HETATM    6  C10 UNL     1      33.893  75.571  64.508  1.00  0.00     0.290 A 
HETATM    7  O1  UNL     1      34.412  75.048  65.507  1.00  0.00    -0.265 OA
HETATM    8  N3  UNL     1      33.074  74.863  63.706  1.00  0.00    -0.154 N 
ATOM      9  H3  UNL     1      32.885  73.886  63.931  1.00  0.00     0.187 HD
HETATM   10  C11 UNL     1      32.500  75.404  62.619  1.00  0.00     0.680 A 
HETATM   11  N5  UNL     1      32.771  76.681  62.358  1.00  0.00    -0.174 N 
ATOM     12  H5  UNL     1      32.343  77.107  61.536  1.00  0.00     0.186 HD
HETATM   13  C12 UNL     1      33.587  77.446  63.127  1.00  0.00     0.157 A 
ENDROOT
BRANCH   1  14
HETATM   14  C4  UNL     1      33.525  79.571  61.912  1.00  0.00     0.132 C 
BRANCH  14  15
HETATM   15  C3  UNL     1      32.227  80.276  62.074  1.00  0.00     0.020 C 
BRANCH  15  16
HETATM   16  C2  UNL     1      31.417  79.802  63.260  1.00  0.00    -0.003 C 
HETATM   17  C1  UNL     1      30.229  78.956  62.945  1.00  0.00     0.005 C 
ENDBRANCH  15  16
ENDBRANCH  14  15
ENDBRANCH   1  14
BRANCH   2  18
HETATM   18  C6  UNL     1      35.451  80.276  64.379  1.00  0.00     0.088 C 
HETATM   19  C7  UNL     1      36.864  79.876  64.881  1.00  0.00     0.041 C 
HETATM   20  C8  UNL     1      35.752  81.243  63.306  1.00  0.00     0.041 C 
HETATM   21 CL1  UNL     1      34.782  81.059  65.849  1.00  0.00    -0.112 Cl
ENDBRANCH   2  18
BRANCH  10  22
HETATM   22  N4  UNL     1      31.704  74.683  61.874  1.00  0.00    -0.234 N 
ATOM     23  H42 UNL     1      32.048  74.006  61.193  1.00  0.00     0.174 HD
ATOM     24  H41 UNL     1      30.694  74.791  61.956  1.00  0.00     0.174 HD
ENDBRANCH  10  22
TORSDOF 5
ENDMDL
MODEL 3
REMARK VINA RESULT: -5.385002003      1.948      2.497
REMARK  5 active torsions:
REMARK  status: ('A' for Active; 'I' for Inactive)
REMARK    1  A    between atoms: C2_2  and  C3_3 
REMARK    2  A    between atoms: C3_3  and  C4_4 
REMARK    3  A    between atoms: C4_4  and  N1_5 
REMARK    4  A    between atoms: C5_6  and  C6_7 
REMARK    5  A    between atoms: C11_18  and  N4_19 
ROOT
HETATM    1  N1  UNL     1      32.213  76.736  62.462  1.00  0.00    -0.319 N 
HETATM    2  C5  UNL     1      31.161  77.040  61.702  1.00  0.00     0.109 A 
HETATM    3  N2  UNL     1      31.293  78.341  61.367  1.00  0.00    -0.337 N 
ATOM      4  H2  UNL     1      30.629  78.852  60.786  1.00  0.00     0.167 HD
HETATM    5  C9  UNL     1      32.402  78.880  61.892  1.00  0.00     0.148 A 
HETATM    6  C10 UNL     1      33.028  80.102  61.898  1.00  0.00     0.290 A 
HETATM    7  O1  UNL     1      32.522  81.048  61.273  1.00  0.00    -0.265 OA
HETATM    8  N3  UNL     1      34.180  80.264  62.578  1.00  0.00    -0.154 N 
ATOM      9  H3  UNL     1      34.634  81.177  62.573  1.00  0.00     0.187 HD
HETATM   10  C11 UNL     1      34.748  79.258  63.263  1.00  0.00     0.680 A 
HETATM   11  N5  UNL     1      34.127  78.081  63.246  1.00  0.00    -0.174 N 
ATOM     12  H5  UNL     1      34.546  77.307  63.761  1.00  0.00     0.186 HD
HETATM   13  C12 UNL     1      32.966  77.856  62.581  1.00  0.00     0.157 A 
ENDROOT
BRANCH   1  14
HETATM   14  C4  UNL     1      32.593  75.486  63.070  1.00  0.00     0.132 C 
BRANCH  14  15
HETATM   15  C3  UNL     1      32.205  75.276  64.489  1.00  0.00     0.020 C 
BRANCH  15  16
HETATM   16  C2  UNL     1      33.256  75.718  65.482  1.00  0.00    -0.003 C 
HETATM   17  C1  UNL     1      34.675  75.488  65.081  1.00  0.00     0.005 C 
ENDBRANCH  15  16
ENDBRANCH  14  15
ENDBRANCH   1  14
BRANCH   2  18
HETATM   18  C6  UNL     1      30.031  76.203  61.277  1.00  0.00     0.088 C 
HETATM   19  C7  UNL     1      29.433  76.897  60.024  1.00  0.00     0.041 C 
HETATM   20  C8  UNL     1      30.307  74.838  60.787  1.00  0.00     0.041 C 
HETATM   21 CL1  UNL     1      28.630  76.266  62.396  1.00  0.00    -0.112 Cl
ENDBRANCH   2  18
BRANCH  10  22
HETATM   22  N4  UNL     1      35.861  79.462  63.917  1.00  0.00    -0.234 N 
ATOM     23  H42 UNL     1      35.907  79.486  64.936  1.00  0.00     0.174 HD
ATOM     24  H41 UNL     1      36.731  79.613  63.407  1.00  0.00     0.174 HD
ENDBRANCH  10  22
TORSDOF 5
ENDMDL
MODEL 4
REMARK VINA RESULT: -5.233854838      2.495      4.710
REMARK  5 active torsions:
REMARK  status: ('A' for Active; 'I' for Inactive)
REMARK    1  A    between atoms: C2_2  and  C3_3 
REMARK    2  A    between atoms: C3_3  and  C4_4 
REMARK    3  A    between atoms: C4_4  and  N1_5 
REMARK    4  A    between atoms: C5_6  and  C6_7 
REMARK    5  A    between atoms: C11_18  and  N4_19 
ROOT
HETATM    1  N1  UNL     1      33.747  78.285  63.708  1.00  0.00    -0.319 N 
HETATM    2  C5  UNL     1      34.401  79.373  63.302  1.00  0.00     0.109 A 
HETATM    3  N2  UNL     1      33.949  79.652  62.061  1.00  0.00    -0.337 N 
ATOM      4  H2  UNL     1      34.275  80.437  61.497  1.00  0.00     0.167 HD
HETATM    5  C9  UNL     1      33.021  78.773  61.660  1.00  0.00     0.148 A 
HETATM    6  C10 UNL     1      32.245  78.557  60.548  1.00  0.00     0.290 A 
HETATM    7  O1  UNL     1      32.338  79.331  59.582  1.00  0.00    -0.265 OA
HETATM    8  N3  UNL     1      31.393  77.514  60.516  1.00  0.00    -0.154 N 
ATOM      9  H3  UNL     1      30.822  77.366  59.683  1.00  0.00     0.187 HD
HETATM   10  C11 UNL     1      31.273  76.661  61.546  1.00  0.00     0.680 A 
HETATM   11  N5  UNL     1      32.034  76.886  62.615  1.00  0.00    -0.174 N 
ATOM     12  H5  UNL     1      31.954  76.247  63.407  1.00  0.00     0.186 HD
HETATM   13  C12 UNL     1      32.909  77.918  62.708  1.00  0.00     0.157 A 
ENDROOT
BRANCH   1  14
HETATM   14  C4  UNL     1      33.814  77.569  64.957  1.00  0.00     0.132 C 
BRANCH  14  15
HETATM   15  C3  UNL     1      34.634  76.330  64.985  1.00  0.00     0.020 C 
BRANCH  15  16
HETATM   16  C2  UNL     1      33.846  75.069  64.713  1.00  0.00    -0.003 C 
HETATM   17  C1  UNL     1      32.408  75.096  65.111  1.00  0.00     0.005 C 
ENDBRANCH  15  16
ENDBRANCH  14  15
ENDBRANCH   1  14
BRANCH   2  18
HETATM   18  C6  UNL     1      35.434  80.164  63.987  1.00  0.00     0.088 C 
HETATM   19  C7  UNL     1      36.670  79.234  64.113  1.00  0.00     0.041 C 
HETATM   20  C8  UNL     1      35.989  81.347  63.301  1.00  0.00     0.041 C 
HETATM   21 CL1  UNL     1      35.070  80.473  65.716  1.00  0.00    -0.112 Cl
ENDBRANCH   2  18
BRANCH  10  22
HETATM   22  N4  UNL     1      30.441  75.656  61.468  1.00  0.00    -0.234 N 
ATOM     23  H42 UNL     1      29.436  75.759  61.609  1.00  0.00     0.174 HD
ATOM     24  H41 UNL     1      30.791  74.720  61.267  1.00  0.00     0.174 HD
ENDBRANCH  10  22
TORSDOF 5
ENDMDL
MODEL 5
REMARK VINA RESULT: -5.184849758      3.132      5.473
REMARK  5 active torsions:
REMARK  status: ('A' for Active; 'I' for Inactive)
REMARK    1  A    between atoms: C2_2  and  C3_3 
REMARK    2  A    between atoms: C3_3  and  C4_4 
REMARK    3  A    between atoms: C4_4  and  N1_5 
REMARK    4  A    between atoms: C5_6  and  C6_7 
REMARK    5  A    between atoms: C11_18  and  N4_19 
ROOT
HETATM    1  N1  UNL     1      33.833  78.612  62.968  1.00  0.00    -0.319 N 
HETATM    2  C5  UNL     1      34.709  78.751  63.963  1.00  0.00     0.109 A 
HETATM    3  N2  UNL     1      34.813  77.542  64.555  1.00  0.00    -0.337 N 
ATOM      4  H2  UNL     1      35.416  77.347  65.354  1.00  0.00     0.167 HD
HETATM    5  C9  UNL     1      34.027  76.631  63.966  1.00  0.00     0.148 A 
HETATM    6  C10 UNL     1      33.725  75.301  64.125  1.00  0.00     0.290 A 
HETATM    7  O1  UNL     1      34.276  74.656  65.031  1.00  0.00    -0.265 OA
HETATM    8  N3  UNL     1      32.837  74.710  63.300  1.00  0.00    -0.154 N 
ATOM      9  H3  UNL     1      32.623  73.721  63.431  1.00  0.00     0.187 HD
HETATM   10  C11 UNL     1      32.226  75.384  62.313  1.00  0.00     0.680 A 
HETATM   11  N5  UNL     1      32.531  76.673  62.174  1.00  0.00    -0.174 N 
ATOM     12  H5  UNL     1      32.075  77.199  61.429  1.00  0.00     0.186 HD
HETATM   13  C12 UNL     1      33.415  77.324  62.972  1.00  0.00     0.157 A 
ENDROOT
BRANCH   1  14
HETATM   14  C4  UNL     1      33.367  79.569  61.997  1.00  0.00     0.132 C 
BRANCH  14  15
HETATM   15  C3  UNL     1      32.105  80.290  62.306  1.00  0.00     0.020 C 
BRANCH  15  16
HETATM   16  C2  UNL     1      31.269  79.629  63.379  1.00  0.00    -0.003 C 
HETATM   17  C1  UNL     1      30.045  78.917  62.910  1.00  0.00     0.005 C 
ENDBRANCH  15  16
ENDBRANCH  14  15
ENDBRANCH   1  14
BRANCH   2  18
HETATM   18  C6  UNL     1      35.448  79.940  64.410  1.00  0.00     0.088 C 
HETATM   19  C7  UNL     1      35.560  80.865  63.168  1.00  0.00     0.041 C 
HETATM   20  C8  UNL     1      34.824  80.823  65.414  1.00  0.00     0.041 C 
HETATM   21 CL1  UNL     1      37.181  79.623  64.748  1.00  0.00    -0.112 Cl
ENDBRANCH   2  18
BRANCH  10  22
HETATM   22  N4  UNL     1      31.365  74.774  61.543  1.00  0.00    -0.234 N 
ATOM     23  H42 UNL     1      31.400  74.827  60.524  1.00  0.00     0.174 HD
ATOM     24  H41 UNL     1      30.613  74.223  61.956  1.00  0.00     0.174 HD
ENDBRANCH  10  22
TORSDOF 5
ENDMDL
