MODEL 1
REMARK VINA RESULT: -8.265868870      0.000      0.000
REMARK  6 active torsions:
REMARK  status: ('A' for Active; 'I' for Inactive)
REMARK    1  A    between atoms: C2_2  and  C4_4 
REMARK    2  A    between atoms: C4_4  and  C5_5 
REMARK    3  A    between atoms: C4_4  and  N1_8 
REMARK    4  A    between atoms: C5_5  and  O1_6 
REMARK    5  A    between atoms: N1_8  and  C6_10 
REMARK    6  A    between atoms: C9_19  and  C10_20 
ROOT
HETATM    1  C6  UNL     1      33.757  78.451  63.966  1.00  0.00     0.146 A 
HETATM    2  N2  UNL     1      34.233  77.291  64.438  1.00  0.00    -0.321 N 
ATOM      3  H2  UNL     1      35.029  77.354  65.074  1.00  0.00     0.169 HD
HETATM    4  C7  UNL     1      33.789  76.073  64.171  1.00  0.00     0.141 A 
HETATM    5  N3  UNL     1      34.383  75.066  64.727  1.00  0.00    -0.383 N 
ATOM      6  H31 UNL     1      34.040  74.127  64.522  1.00  0.00     0.157 HD
ATOM      7  H32 UNL     1      35.163  75.299  65.340  1.00  0.00     0.157 HD
HETATM    8  C8  UNL     1      32.734  75.758  63.343  1.00  0.00     0.173 A 
HETATM    9  F1  UNL     1      32.391  74.442  63.166  1.00  0.00    -0.201 F 
HETATM   10  C9  UNL     1      31.975  76.666  62.662  1.00  0.00     0.036 A 
HETATM   11  S1  UNL     1      32.424  78.289  62.901  1.00  0.00    -0.055 SA
ENDROOT
BRANCH   1  12
HETATM   12  N1  UNL     1      34.255  79.599  64.281  1.00  0.00    -0.363 N 
ATOM     13  H1  UNL     1      33.649  80.284  64.734  1.00  0.00     0.162 HD
BRANCH  12  14
HETATM   14  C4  UNL     1      35.624  79.958  64.025  1.00  0.00     0.110 C 
BRANCH  14  15
HETATM   15  C2  UNL     1      36.075  80.982  65.032  1.00  0.00     0.002 C 
HETATM   16  C1  UNL     1      37.566  80.879  65.277  1.00  0.00     0.011 C 
HETATM   17  C3  UNL     1      35.348  80.883  66.337  1.00  0.00     0.011 C 
ENDBRANCH  14  15
BRANCH  14  18
HETATM   18  C5  UNL     1      35.745  80.432  62.611  1.00  0.00     0.189 C 
BRANCH  18  19
HETATM   19  O1  UNL     1      36.845  79.939  61.945  1.00  0.00    -0.399 OA
ATOM     20  H1  UNL     1      37.670  80.093  62.390  1.00  0.00     0.209 HD
ENDBRANCH  18  19
ENDBRANCH  14  18
ENDBRANCH  12  14
ENDBRANCH   1  12
BRANCH  10  21
HETATM   21  C10 UNL     1      30.845  76.315  61.776  1.00  0.00    -0.014 C 
HETATM   22  C11 UNL     1      31.311  75.206  60.862  1.00  0.00     0.020 C 
HETATM   23  C12 UNL     1      29.600  75.944  62.537  1.00  0.00     0.020 C 
HETATM   24  C13 UNL     1      30.534  77.511  60.909  1.00  0.00     0.020 C 
ENDBRANCH  10  21
TORSDOF 6
ENDMDL
MODEL 2
REMARK VINA RESULT: -8.052624658      0.361      1.289
REMARK  6 active torsions:
REMARK  status: ('A' for Active; 'I' for Inactive)
REMARK    1  A    between atoms: C2_2  and  C4_4 
REMARK    2  A    between atoms: C4_4  and  C5_5 
REMARK    3  A    between atoms: C4_4  and  N1_8 
REMARK    4  A    between atoms: C5_5  and  O1_6 
REMARK    5  A    between atoms: N1_8  and  C6_10 
REMARK    6  A    between atoms: C9_19  and  C10_20 
ROOT
HETATM    1  C6  UNL     1      33.771  78.332  63.991  1.00  0.00     0.146 A 
HETATM    2  N2  UNL     1      34.226  77.149  64.422  1.00  0.00    -0.321 N 
ATOM      3  H2  UNL     1      35.020  77.175  65.063  1.00  0.00     0.169 HD
HETATM    4  C7  UNL     1      33.761  75.949  64.111  1.00  0.00     0.141 A 
HETATM    5  N3  UNL     1      34.336  74.912  64.632  1.00  0.00    -0.383 N 
ATOM      6  H31 UNL     1      33.978  73.988  64.392  1.00  0.00     0.157 HD
ATOM      7  H32 UNL     1      35.119  75.110  65.255  1.00  0.00     0.157 HD
HETATM    8  C8  UNL     1      32.704  75.682  63.269  1.00  0.00     0.173 A 
HETATM    9  F1  UNL     1      32.339  74.378  63.045  1.00  0.00    -0.201 F 
HETATM   10  C9  UNL     1      31.963  76.626  62.619  1.00  0.00     0.036 A 
HETATM   11  S1  UNL     1      32.438  78.231  62.918  1.00  0.00    -0.055 SA
ENDROOT
BRANCH   1  12
HETATM   12  N1  UNL     1      34.287  79.460  64.349  1.00  0.00    -0.363 N 
ATOM     13  H1  UNL     1      33.690  80.139  64.821  1.00  0.00     0.162 HD
BRANCH  12  14
HETATM   14  C4  UNL     1      35.664  79.803  64.114  1.00  0.00     0.110 C 
BRANCH  14  15
HETATM   15  C2  UNL     1      36.269  80.358  65.376  1.00  0.00     0.002 C 
HETATM   16  C1  UNL     1      35.382  81.429  65.975  1.00  0.00     0.011 C 
HETATM   17  C3  UNL     1      37.648  80.906  65.175  1.00  0.00     0.011 C 
ENDBRANCH  14  15
BRANCH  14  18
HETATM   18  C5  UNL     1      35.738  80.751  62.960  1.00  0.00     0.189 C 
BRANCH  18  19
HETATM   19  O1  UNL     1      35.900  80.138  61.738  1.00  0.00    -0.399 OA
ATOM     20  H1  UNL     1      35.109  79.739  61.396  1.00  0.00     0.209 HD
ENDBRANCH  18  19
ENDBRANCH  14  18
ENDBRANCH  12  14
ENDBRANCH   1  12
BRANCH  10  21
HETATM   21  C10 UNL     1      30.830  76.327  61.718  1.00  0.00    -0.014 C 
HETATM   22  C11 UNL     1      30.564  77.566  60.896  1.00  0.00     0.020 C 
HETATM   23  C12 UNL     1      31.071  75.112  60.861  1.00  0.00     0.020 C 
HETATM   24  C13 UNL     1      29.605  76.078  62.564  1.00  0.00     0.020 C 
ENDBRANCH  10  21
TORSDOF 6
ENDMDL
MODEL 3
REMARK VINA RESULT: -7.247832480      1.527      2.011
REMARK  6 active torsions:
REMARK  status: ('A' for Active; 'I' for Inactive)
REMARK    1  A    between atoms: C2_2  and  C4_4 
REMARK    2  A    between atoms: C4_4  and  C5_5 
REMARK    3  A    between atoms: C4_4  and  N1_8 
REMARK    4  A    between atoms: C5_5  and  O1_6 
REMARK    5  A    between atoms: N1_8  and  C6_10 
REMARK    6  A    between atoms: C9_19  and  C10_20 
ROOT
HETATM    1  C6  UNL     1      33.963  78.231  64.773  1.00  0.00     0.146 A 
HETATM    2  N2  UNL     1      34.331  76.945  64.838  1.00  0.00    -0.321 N 
ATOM      3  H2  UNL     1      35.113  76.729  65.458  1.00  0.00     0.169 HD
HETATM    4  C7  UNL     1      33.795  75.922  64.191  1.00  0.00     0.141 A 
HETATM    5  N3  UNL     1      34.290  74.742  64.386  1.00  0.00    -0.383 N 
ATOM      6  H31 UNL     1      33.877  73.954  63.887  1.00  0.00     0.157 HD
ATOM      7  H32 UNL     1      35.073  74.696  65.038  1.00  0.00     0.157 HD
HETATM    8  C8  UNL     1      32.738  75.985  63.310  1.00  0.00     0.173 A 
HETATM    9  F1  UNL     1      32.292  74.831  62.715  1.00  0.00    -0.201 F 
HETATM   10  C9  UNL     1      32.072  77.126  62.965  1.00  0.00     0.036 A 
HETATM   11  S1  UNL     1      32.647  78.538  63.718  1.00  0.00    -0.055 SA
ENDROOT
BRANCH   1  12
HETATM   12  N1  UNL     1      34.545  79.167  65.443  1.00  0.00    -0.363 N 
ATOM     13  H1  UNL     1      34.601  79.075  66.457  1.00  0.00     0.162 HD
BRANCH  12  14
HETATM   14  C4  UNL     1      35.119  80.333  64.828  1.00  0.00     0.110 C 
BRANCH  14  15
HETATM   15  C2  UNL     1      36.346  79.941  64.047  1.00  0.00     0.002 C 
HETATM   16  C1  UNL     1      37.593  80.541  64.663  1.00  0.00     0.011 C 
HETATM   17  C3  UNL     1      36.269  80.323  62.602  1.00  0.00     0.011 C 
ENDBRANCH  14  15
BRANCH  14  18
HETATM   18  C5  UNL     1      35.397  81.354  65.885  1.00  0.00     0.189 C 
BRANCH  18  19
HETATM   19  O1  UNL     1      35.059  80.952  67.158  1.00  0.00    -0.399 OA
ATOM     20  H1  UNL     1      34.254  81.336  67.485  1.00  0.00     0.209 HD
ENDBRANCH  18  19
ENDBRANCH  14  18
ENDBRANCH  12  14
ENDBRANCH   1  12
BRANCH  10  21
HETATM   21  C10 UNL     1      30.939  77.180  62.018  1.00  0.00    -0.014 C 
HETATM   22  C11 UNL     1      31.490  77.592  60.672  1.00  0.00     0.020 C 
HETATM   23  C12 UNL     1      30.172  75.886  61.950  1.00  0.00     0.020 C 
HETATM   24  C13 UNL     1      29.996  78.269  62.469  1.00  0.00     0.020 C 
ENDBRANCH  10  21
TORSDOF 6
ENDMDL
MODEL 4
REMARK VINA RESULT: -7.030130810      1.800      2.450
REMARK  6 active torsions:
REMARK  status: ('A' for Active; 'I' for Inactive)
REMARK    1  A    between atoms: C2_2  and  C4_4 
REMARK    2  A    between atoms: C4_4  and  C5_5 
REMARK    3  A    between atoms: C4_4  and  N1_8 
REMARK    4  A    between atoms: C5_5  and  O1_6 
REMARK    5  A    between atoms: N1_8  and  C6_10 
REMARK    6  A    between atoms: C9_19  and  C10_20 
ROOT
HETATM    1  C6  UNL     1      33.575  78.492  63.795  1.00  0.00     0.146 A 
HETATM    2  N2  UNL     1      32.663  79.461  63.944  1.00  0.00    -0.321 N 
ATOM      3  H2  UNL     1      32.967  80.296  64.446  1.00  0.00     0.169 HD
HETATM    4  C7  UNL     1      31.411  79.458  63.514  1.00  0.00     0.141 A 
HETATM    5  N3  UNL     1      30.675  80.495  63.755  1.00  0.00    -0.383 N 
ATOM      6  H31 UNL     1      29.710  80.493  63.424  1.00  0.00     0.157 HD
ATOM      7  H32 UNL     1      31.131  81.249  64.269  1.00  0.00     0.157 HD
HETATM    8  C8  UNL     1      30.795  78.441  62.820  1.00  0.00     0.173 A 
HETATM    9  F1  UNL     1      29.485  78.586  62.440  1.00  0.00    -0.201 F 
HETATM   10  C9  UNL     1      31.389  77.264  62.464  1.00  0.00     0.036 A 
HETATM   11  S1  UNL     1      33.012  77.113  62.948  1.00  0.00    -0.055 SA
ENDROOT
BRANCH   1  12
HETATM   12  N1  UNL     1      34.780  78.581  64.250  1.00  0.00    -0.363 N 
ATOM     13  H1  UNL     1      35.062  77.954  65.004  1.00  0.00     0.162 HD
BRANCH  12  14
HETATM   14  C4  UNL     1      35.743  79.521  63.744  1.00  0.00     0.110 C 
BRANCH  14  15
HETATM   15  C2  UNL     1      36.003  80.585  64.777  1.00  0.00     0.002 C 
HETATM   16  C1  UNL     1      37.487  80.730  65.042  1.00  0.00     0.011 C 
HETATM   17  C3  UNL     1      35.288  80.337  66.069  1.00  0.00     0.011 C 
ENDBRANCH  14  15
BRANCH  14  18
HETATM   18  C5  UNL     1      35.247  80.073  62.444  1.00  0.00     0.189 C 
BRANCH  18  19
HETATM   19  O1  UNL     1      36.184  80.066  61.436  1.00  0.00    -0.399 OA
ATOM     20  H1  UNL     1      37.042  80.378  61.700  1.00  0.00     0.209 HD
ENDBRANCH  18  19
ENDBRANCH  14  18
ENDBRANCH  12  14
ENDBRANCH   1  12
BRANCH  10  21
HETATM   21  C10 UNL     1      30.717  76.179  61.717  1.00  0.00    -0.014 C 
HETATM   22  C11 UNL     1      31.761  75.134  61.398  1.00  0.00     0.020 C 
HETATM   23  C12 UNL     1      29.539  75.604  62.458  1.00  0.00     0.020 C 
HETATM   24  C13 UNL     1      30.227  76.740  60.405  1.00  0.00     0.020 C 
ENDBRANCH  10  21
TORSDOF 6
ENDMDL
MODEL 5
REMARK VINA RESULT: -6.917358728      3.772      7.234
REMARK  6 active torsions:
REMARK  status: ('A' for Active; 'I' for Inactive)
REMARK    1  A    between atoms: C2_2  and  C4_4 
REMARK    2  A    between atoms: C4_4  and  C5_5 
REMARK    3  A    between atoms: C4_4  and  N1_8 
REMARK    4  A    between atoms: C5_5  and  O1_6 
REMARK    5  A    between atoms: N1_8  and  C6_10 
REMARK    6  A    between atoms: C9_19  and  C10_20 
ROOT
HETATM    1  C6  UNL     1      30.622  75.924  61.135  1.00  0.00     0.146 A 
HETATM    2  N2  UNL     1      31.430  75.124  61.843  1.00  0.00    -0.321 N 
ATOM      3  H2  UNL     1      31.327  74.121  61.685  1.00  0.00     0.169 HD
HETATM    4  C7  UNL     1      32.348  75.487  62.725  1.00  0.00     0.141 A 
HETATM    5  N3  UNL     1      33.038  74.563  63.313  1.00  0.00    -0.383 N 
ATOM      6  H31 UNL     1      33.745  74.843  63.992  1.00  0.00     0.157 HD
ATOM      7  H32 UNL     1      32.812  73.606  63.042  1.00  0.00     0.157 HD
HETATM    8  C8  UNL     1      32.653  76.780  63.091  1.00  0.00     0.173 A 
HETATM    9  F1  UNL     1      33.636  76.998  64.023  1.00  0.00    -0.201 F 
HETATM   10  C9  UNL     1      32.049  77.898  62.594  1.00  0.00     0.036 A 
HETATM   11  S1  UNL     1      30.836  77.597  61.440  1.00  0.00    -0.055 SA
ENDROOT
BRANCH   1  12
HETATM   12  N1  UNL     1      29.751  75.480  60.292  1.00  0.00    -0.363 N 
ATOM     13  H1  UNL     1      29.908  75.646  59.298  1.00  0.00     0.162 HD
BRANCH  12  14
HETATM   14  C4  UNL     1      28.570  74.762  60.689  1.00  0.00     0.110 C 
BRANCH  14  15
HETATM   15  C2  UNL     1      27.785  74.365  59.466  1.00  0.00     0.002 C 
HETATM   16  C1  UNL     1      26.326  74.746  59.613  1.00  0.00     0.011 C 
HETATM   17  C3  UNL     1      27.891  72.906  59.148  1.00  0.00     0.011 C 
ENDBRANCH  14  15
BRANCH  14  18
HETATM   18  C5  UNL     1      27.785  75.606  61.642  1.00  0.00     0.189 C 
BRANCH  18  19
HETATM   19  O1  UNL     1      27.893  75.217  62.959  1.00  0.00    -0.399 OA
ATOM     20  H1  UNL     1      27.491  74.378  63.150  1.00  0.00     0.209 HD
ENDBRANCH  18  19
ENDBRANCH  14  18
ENDBRANCH  12  14
ENDBRANCH   1  12
BRANCH  10  21
HETATM   21  C10 UNL     1      32.385  79.281  62.995  1.00  0.00    -0.014 C 
HETATM   22  C11 UNL     1      31.117  79.930  63.497  1.00  0.00     0.020 C 
HETATM   23  C12 UNL     1      33.498  79.340  64.007  1.00  0.00     0.020 C 
HETATM   24  C13 UNL     1      32.820  80.038  61.764  1.00  0.00     0.020 C 
ENDBRANCH  10  21
TORSDOF 6
ENDMDL
