MODEL 1
REMARK VINA RESULT: -8.485748669      0.000      0.000
REMARK  5 active torsions:
REMARK  status: ('A' for Active; 'I' for Inactive)
REMARK    1  A    between atoms: O1_2  and  C2_3 
REMARK    2  A    between atoms: C16_17  and  O2_18 
REMARK    3  A    between atoms: O2_18  and  C17_19 
REMARK    4  A    between atoms: C17_19  and  C18_21 
REMARK    5  A    between atoms: C24_28  and  O4_29 
ROOT
HETATM    1  C2  UNL     1      32.880 -31.973   1.952  1.00  0.00     0.265 C 
HETATM    2  C3  UNL     1      33.137 -30.719   1.217  1.00  0.00     0.062 C 
HETATM    3  C4  UNL     1      34.462 -30.428   0.600  1.00  0.00     0.021 C 
HETATM    4  C5  UNL     1      35.518 -31.461   0.968  1.00  0.00     0.013 C 
HETATM    5  C6  UNL     1      35.045 -32.703   0.196  1.00  0.00     0.023 C 
HETATM    6  C7  UNL     1      35.239 -31.607   2.438  1.00  0.00     0.055 C 
HETATM    7  C8  UNL     1      35.995 -31.044   3.324  1.00  0.00     0.007 C 
HETATM    8  C9  UNL     1      37.156 -30.228   3.033  1.00  0.00     0.035 C 
HETATM    9  C10 UNL     1      37.821 -30.737   1.767  1.00  0.00     0.004 C 
HETATM   10  C11 UNL     1      39.055 -30.010   1.608  1.00  0.00     0.007 C 
HETATM   11  C12 UNL     1      40.354 -30.779   1.773  1.00  0.00     0.033 C 
HETATM   12  C13 UNL     1      41.330 -29.667   1.582  1.00  0.00    -0.023 C 
HETATM   13  C14 UNL     1      40.776 -28.737   0.824  1.00  0.00    -0.072 C 
HETATM   14  C15 UNL     1      41.378 -27.458   0.380  1.00  0.00     0.067 C 
HETATM   15  C16 UNL     1      40.656 -26.341   1.108  1.00  0.00     0.136 C 
HETATM   16  C19 UNL     1      39.299 -26.819   1.478  1.00  0.00     0.034 C 
HETATM   17  C20 UNL     1      38.670 -27.783   0.477  1.00  0.00     0.017 C 
HETATM   18  C21 UNL     1      39.376 -29.119   0.458  1.00  0.00    -0.007 C 
HETATM   19  C22 UNL     1      39.366 -29.814  -0.830  1.00  0.00     0.023 C 
HETATM   20  C23 UNL     1      40.187 -29.202  -1.946  1.00  0.00     0.014 C 
HETATM   21  C24 UNL     1      38.018 -30.052  -1.430  1.00  0.00     0.123 C 
HETATM   22  C25 UNL     1      36.859 -30.231  -0.560  1.00  0.00     0.042 C 
HETATM   23  C26 UNL     1      36.940 -31.105   0.646  1.00  0.00    -0.024 C 
HETATM   24  C27 UNL     1      37.553 -32.432   0.094  1.00  0.00     0.017 C 
HETATM   25  O5  UNL     1      34.108 -32.380   2.662  1.00  0.00    -0.324 OA
ENDROOT
BRANCH  15  26
HETATM   26  O2  UNL     1      40.654 -25.194   0.303  1.00  0.00    -0.315 OA
BRANCH  26  27
HETATM   27  C17 UNL     1      39.539 -24.419   0.102  1.00  0.00     0.273 C 
HETATM   28  O3  UNL     1      39.187 -23.627   1.011  1.00  0.00    -0.264 OA
BRANCH  27  29
HETATM   29  C18 UNL     1      38.753 -24.501  -1.162  1.00  0.00     0.225 C 
HETATM   30 CL1  UNL     1      39.494 -25.647  -2.302  1.00  0.00    -0.120 Cl
ENDBRANCH  27  29
ENDBRANCH  26  27
ENDBRANCH  15  26
BRANCH  21  31
HETATM   31  O4  UNL     1      37.744 -28.917  -2.241  1.00  0.00    -0.395 OA
ATOM     32  H4  UNL     1      37.152 -28.371  -1.737  1.00  0.00     0.210 HD
ENDBRANCH  21  31
BRANCH   1  33
HETATM   33  O1  UNL     1      32.006 -31.727   3.043  1.00  0.00    -0.366 OA
HETATM   34  C1  UNL     1      32.454 -32.328   4.191  1.00  0.00     0.204 C 
ENDBRANCH   1  33
TORSDOF 5
ENDMDL
MODEL 2
REMARK VINA RESULT: -8.377287105      1.557      1.666
REMARK  5 active torsions:
REMARK  status: ('A' for Active; 'I' for Inactive)
REMARK    1  A    between atoms: O1_2  and  C2_3 
REMARK    2  A    between atoms: C16_17  and  O2_18 
REMARK    3  A    between atoms: O2_18  and  C17_19 
REMARK    4  A    between atoms: C17_19  and  C18_21 
REMARK    5  A    between atoms: C24_28  and  O4_29 
ROOT
HETATM    1  C2  UNL     1      33.527 -32.461   1.123  1.00  0.00     0.265 C 
HETATM    2  C3  UNL     1      33.618 -31.422   0.079  1.00  0.00     0.062 C 
HETATM    3  C4  UNL     1      34.921 -31.029  -0.527  1.00  0.00     0.021 C 
HETATM    4  C5  UNL     1      36.110 -31.677   0.171  1.00  0.00     0.013 C 
HETATM    5  C6  UNL     1      35.969 -33.150  -0.243  1.00  0.00     0.023 C 
HETATM    6  C7  UNL     1      35.706 -31.484   1.606  1.00  0.00     0.055 C 
HETATM    7  C8  UNL     1      36.240 -30.558   2.335  1.00  0.00     0.007 C 
HETATM    8  C9  UNL     1      37.248 -29.620   1.885  1.00  0.00     0.035 C 
HETATM    9  C10 UNL     1      38.131 -30.292   0.849  1.00  0.00     0.004 C 
HETATM   10  C11 UNL     1      39.214 -29.387   0.555  1.00  0.00     0.007 C 
HETATM   11  C12 UNL     1      40.610 -29.789   0.996  1.00  0.00     0.033 C 
HETATM   12  C13 UNL     1      41.370 -28.585   0.550  1.00  0.00    -0.023 C 
HETATM   13  C14 UNL     1      40.734 -28.030  -0.467  1.00  0.00    -0.072 C 
HETATM   14  C15 UNL     1      41.124 -26.817  -1.223  1.00  0.00     0.067 C 
HETATM   15  C16 UNL     1      40.128 -25.728  -0.877  1.00  0.00     0.136 C 
HETATM   16  C19 UNL     1      38.855 -26.369  -0.457  1.00  0.00     0.034 C 
HETATM   17  C20 UNL     1      38.533 -27.675  -1.176  1.00  0.00     0.017 C 
HETATM   18  C21 UNL     1      39.481 -28.786  -0.781  1.00  0.00    -0.007 C 
HETATM   19  C22 UNL     1      39.743 -29.783  -1.821  1.00  0.00     0.023 C 
HETATM   20  C23 UNL     1      40.547 -29.328  -3.020  1.00  0.00     0.014 C 
HETATM   21  C24 UNL     1      38.538 -30.454  -2.397  1.00  0.00     0.123 C 
HETATM   22  C25 UNL     1      37.347 -30.639  -1.571  1.00  0.00     0.042 C 
HETATM   23  C26 UNL     1      37.463 -31.124  -0.165  1.00  0.00    -0.024 C 
HETATM   24  C27 UNL     1      38.374 -32.387  -0.289  1.00  0.00     0.017 C 
HETATM   25  O5  UNL     1      34.726 -32.393   1.981  1.00  0.00    -0.324 OA
ENDROOT
BRANCH  15  26
HETATM   26  O2  UNL     1      39.993 -24.864  -1.971  1.00  0.00    -0.315 OA
BRANCH  26  27
HETATM   27  C17 UNL     1      40.071 -23.498  -1.866  1.00  0.00     0.273 C 
HETATM   28  O3  UNL     1      40.022 -22.980  -0.722  1.00  0.00    -0.264 OA
BRANCH  27  29
HETATM   29  C18 UNL     1      40.213 -22.632  -3.071  1.00  0.00     0.225 C 
HETATM   30 CL1  UNL     1      38.852 -21.495  -3.205  1.00  0.00    -0.120 Cl
ENDBRANCH  27  29
ENDBRANCH  26  27
ENDBRANCH  15  26
BRANCH  21  31
HETATM   31  O4  UNL     1      38.141 -29.660  -3.508  1.00  0.00    -0.395 OA
ATOM     32  H4  UNL     1      38.937 -29.265  -3.845  1.00  0.00     0.210 HD
ENDBRANCH  21  31
BRANCH   1  33
HETATM   33  O1  UNL     1      32.510 -32.127   2.055  1.00  0.00    -0.366 OA
HETATM   34  C1  UNL     1      32.649 -32.830   3.224  1.00  0.00     0.204 C 
ENDBRANCH   1  33
TORSDOF 5
ENDMDL
MODEL 3
REMARK VINA RESULT: -8.350598256      1.026      1.110
REMARK  5 active torsions:
REMARK  status: ('A' for Active; 'I' for Inactive)
REMARK    1  A    between atoms: O1_2  and  C2_3 
REMARK    2  A    between atoms: C16_17  and  O2_18 
REMARK    3  A    between atoms: O2_18  and  C17_19 
REMARK    4  A    between atoms: C17_19  and  C18_21 
REMARK    5  A    between atoms: C24_28  and  O4_29 
ROOT
HETATM    1  C2  UNL     1      33.276 -32.220   1.402  1.00  0.00     0.265 C 
HETATM    2  C3  UNL     1      33.460 -31.005   0.585  1.00  0.00     0.062 C 
HETATM    3  C4  UNL     1      34.789 -30.627   0.027  1.00  0.00     0.021 C 
HETATM    4  C5  UNL     1      35.913 -31.517   0.540  1.00  0.00     0.013 C 
HETATM    5  C6  UNL     1      35.615 -32.855  -0.157  1.00  0.00     0.023 C 
HETATM    6  C7  UNL     1      35.551 -31.581   1.997  1.00  0.00     0.055 C 
HETATM    7  C8  UNL     1      36.187 -30.880   2.879  1.00  0.00     0.007 C 
HETATM    8  C9  UNL     1      37.280 -29.974   2.593  1.00  0.00     0.035 C 
HETATM    9  C10 UNL     1      38.075 -30.506   1.415  1.00  0.00     0.004 C 
HETATM   10  C11 UNL     1      39.242 -29.670   1.272  1.00  0.00     0.007 C 
HETATM   11  C12 UNL     1      40.595 -30.289   1.576  1.00  0.00     0.033 C 
HETATM   12  C13 UNL     1      41.469 -29.100   1.355  1.00  0.00    -0.023 C 
HETATM   13  C14 UNL     1      40.881 -28.290   0.493  1.00  0.00    -0.072 C 
HETATM   14  C15 UNL     1      41.385 -26.994  -0.016  1.00  0.00     0.067 C 
HETATM   15  C16 UNL     1      40.510 -25.906   0.575  1.00  0.00     0.136 C 
HETATM   16  C19 UNL     1      39.184 -26.490   0.900  1.00  0.00     0.034 C 
HETATM   17  C20 UNL     1      38.720 -27.584  -0.056  1.00  0.00     0.017 C 
HETATM   18  C21 UNL     1      39.552 -28.840   0.076  1.00  0.00    -0.007 C 
HETATM   19  C22 UNL     1      39.696 -29.626  -1.151  1.00  0.00     0.023 C 
HETATM   20  C23 UNL     1      40.528 -29.018  -2.261  1.00  0.00     0.014 C 
HETATM   21  C24 UNL     1      38.421 -30.043  -1.809  1.00  0.00     0.123 C 
HETATM   22  C25 UNL     1      37.228 -30.274  -0.999  1.00  0.00     0.042 C 
HETATM   23  C26 UNL     1      37.312 -31.044   0.277  1.00  0.00    -0.024 C 
HETATM   24  C27 UNL     1      38.086 -32.338  -0.129  1.00  0.00     0.017 C 
HETATM   25  O5  UNL     1      34.487 -32.447   2.215  1.00  0.00    -0.324 OA
ENDROOT
BRANCH  15  26
HETATM   26  O2  UNL     1      40.451 -24.828  -0.319  1.00  0.00    -0.315 OA
BRANCH  26  27
HETATM   27  C17 UNL     1      41.566 -24.234  -0.857  1.00  0.00     0.273 C 
HETATM   28  O3  UNL     1      42.376 -23.665  -0.084  1.00  0.00    -0.264 OA
BRANCH  27  29
HETATM   29  C18 UNL     1      41.824 -24.256  -2.325  1.00  0.00     0.225 C 
HETATM   30 CL1  UNL     1      40.719 -25.375  -3.153  1.00  0.00    -0.120 Cl
ENDBRANCH  27  29
ENDBRANCH  26  27
ENDBRANCH  15  26
BRANCH  21  31
HETATM   31  O4  UNL     1      38.094 -29.005  -2.724  1.00  0.00    -0.395 OA
ATOM     32  H4  UNL     1      37.173 -29.114  -2.926  1.00  0.00     0.210 HD
ENDBRANCH  21  31
BRANCH   1  33
HETATM   33  O1  UNL     1      32.311 -31.984   2.415  1.00  0.00    -0.366 OA
HETATM   34  C1  UNL     1      32.462 -32.853   3.465  1.00  0.00     0.204 C 
ENDBRANCH   1  33
TORSDOF 5
ENDMDL
MODEL 4
REMARK VINA RESULT: -8.329847497      2.013      2.237
REMARK  5 active torsions:
REMARK  status: ('A' for Active; 'I' for Inactive)
REMARK    1  A    between atoms: O1_2  and  C2_3 
REMARK    2  A    between atoms: C16_17  and  O2_18 
REMARK    3  A    between atoms: O2_18  and  C17_19 
REMARK    4  A    between atoms: C17_19  and  C18_21 
REMARK    5  A    between atoms: C24_28  and  O4_29 
ROOT
HETATM    1  C2  UNL     1      33.673 -32.546   0.405  1.00  0.00     0.265 C 
HETATM    2  C3  UNL     1      33.650 -31.085   0.201  1.00  0.00     0.062 C 
HETATM    3  C4  UNL     1      34.871 -30.328  -0.197  1.00  0.00     0.021 C 
HETATM    4  C5  UNL     1      36.125 -31.193  -0.185  1.00  0.00     0.013 C 
HETATM    5  C6  UNL     1      35.891 -32.124  -1.386  1.00  0.00     0.023 C 
HETATM    6  C7  UNL     1      35.922 -31.929   1.109  1.00  0.00     0.055 C 
HETATM    7  C8  UNL     1      36.573 -31.600   2.178  1.00  0.00     0.007 C 
HETATM    8  C9  UNL     1      37.536 -30.521   2.268  1.00  0.00     0.035 C 
HETATM    9  C10 UNL     1      38.254 -30.379   0.939  1.00  0.00     0.004 C 
HETATM   10  C11 UNL     1      39.312 -29.416   1.123  1.00  0.00     0.007 C 
HETATM   11  C12 UNL     1      40.743 -29.918   1.056  1.00  0.00     0.033 C 
HETATM   12  C13 UNL     1      41.468 -28.645   1.340  1.00  0.00    -0.023 C 
HETATM   13  C14 UNL     1      40.717 -27.629   0.954  1.00  0.00    -0.072 C 
HETATM   14  C15 UNL     1      41.035 -26.185   1.046  1.00  0.00     0.067 C 
HETATM   15  C16 UNL     1      40.123 -25.587   2.099  1.00  0.00     0.136 C 
HETATM   16  C19 UNL     1      38.901 -26.427   2.198  1.00  0.00     0.034 C 
HETATM   17  C20 UNL     1      38.452 -27.052   0.881  1.00  0.00     0.017 C 
HETATM   18  C21 UNL     1      39.413 -28.116   0.403  1.00  0.00    -0.007 C 
HETATM   19  C22 UNL     1      39.507 -28.268  -1.050  1.00  0.00     0.023 C 
HETATM   20  C23 UNL     1      40.156 -27.134  -1.817  1.00  0.00     0.014 C 
HETATM   21  C24 UNL     1      38.219 -28.526  -1.762  1.00  0.00     0.123 C 
HETATM   22  C25 UNL     1      37.145 -29.243  -1.079  1.00  0.00     0.042 C 
HETATM   23  C26 UNL     1      37.435 -30.469  -0.281  1.00  0.00    -0.024 C 
HETATM   24  C27 UNL     1      38.288 -31.344  -1.254  1.00  0.00     0.017 C 
HETATM   25  O5  UNL     1      34.977 -32.937   0.974  1.00  0.00    -0.324 OA
ENDROOT
BRANCH  15  26
HETATM   26  O2  UNL     1      39.866 -24.248   1.778  1.00  0.00    -0.315 OA
BRANCH  26  27
HETATM   27  C17 UNL     1      39.503 -23.307   2.709  1.00  0.00     0.273 C 
HETATM   28  O3  UNL     1      38.495 -22.593   2.480  1.00  0.00    -0.264 OA
BRANCH  27  29
HETATM   29  C18 UNL     1      40.277 -23.123   3.970  1.00  0.00     0.225 C 
HETATM   30 CL1  UNL     1      39.513 -23.990   5.322  1.00  0.00    -0.120 Cl
ENDBRANCH  27  29
ENDBRANCH  26  27
ENDBRANCH  15  26
BRANCH  21  31
HETATM   31  O4  UNL     1      37.699 -27.249  -2.107  1.00  0.00    -0.395 OA
ATOM     32  H4  UNL     1      36.835 -27.407  -2.470  1.00  0.00     0.210 HD
ENDBRANCH  21  31
BRANCH   1  33
HETATM   33  O1  UNL     1      32.799 -32.903   1.464  1.00  0.00    -0.366 OA
HETATM   34  C1  UNL     1      32.754 -31.930   2.429  1.00  0.00     0.204 C 
ENDBRANCH   1  33
TORSDOF 5
ENDMDL
MODEL 5
REMARK VINA RESULT: -8.317107130      1.171      1.274
REMARK  5 active torsions:
REMARK  status: ('A' for Active; 'I' for Inactive)
REMARK    1  A    between atoms: O1_2  and  C2_3 
REMARK    2  A    between atoms: C16_17  and  O2_18 
REMARK    3  A    between atoms: O2_18  and  C17_19 
REMARK    4  A    between atoms: C17_19  and  C18_21 
REMARK    5  A    between atoms: C24_28  and  O4_29 
ROOT
HETATM    1  C2  UNL     1      32.982 -32.054   1.932  1.00  0.00     0.265 C 
HETATM    2  C3  UNL     1      33.179 -30.818   1.150  1.00  0.00     0.062 C 
HETATM    3  C4  UNL     1      34.494 -30.476   0.538  1.00  0.00     0.021 C 
HETATM    4  C5  UNL     1      35.602 -31.431   0.962  1.00  0.00     0.013 C 
HETATM    5  C6  UNL     1      35.211 -32.728   0.235  1.00  0.00     0.023 C 
HETATM    6  C7  UNL     1      35.309 -31.533   2.432  1.00  0.00     0.055 C 
HETATM    7  C8  UNL     1      36.018 -30.893   3.305  1.00  0.00     0.007 C 
HETATM    8  C9  UNL     1      37.135 -30.024   2.995  1.00  0.00     0.035 C 
HETATM    9  C10 UNL     1      37.847 -30.545   1.759  1.00  0.00     0.004 C 
HETATM   10  C11 UNL     1      39.041 -29.755   1.586  1.00  0.00     0.007 C 
HETATM   11  C12 UNL     1      40.378 -30.441   1.799  1.00  0.00     0.033 C 
HETATM   12  C13 UNL     1      41.292 -29.283   1.575  1.00  0.00    -0.023 C 
HETATM   13  C14 UNL     1      40.698 -28.418   0.773  1.00  0.00    -0.072 C 
HETATM   14  C15 UNL     1      41.233 -27.126   0.284  1.00  0.00     0.067 C 
HETATM   15  C16 UNL     1      40.438 -26.024   0.956  1.00  0.00     0.136 C 
HETATM   16  C19 UNL     1      39.105 -26.563   1.328  1.00  0.00     0.034 C 
HETATM   17  C20 UNL     1      38.546 -27.601   0.360  1.00  0.00     0.017 C 
HETATM   18  C21 UNL     1      39.328 -28.895   0.405  1.00  0.00    -0.007 C 
HETATM   19  C22 UNL     1      39.376 -29.641  -0.854  1.00  0.00     0.023 C 
HETATM   20  C23 UNL     1      40.178 -29.028  -1.984  1.00  0.00     0.014 C 
HETATM   21  C24 UNL     1      38.053 -29.979  -1.460  1.00  0.00     0.123 C 
HETATM   22  C25 UNL     1      36.893 -30.189  -0.598  1.00  0.00     0.042 C 
HETATM   23  C26 UNL     1      37.005 -31.008   0.644  1.00  0.00    -0.024 C 
HETATM   24  C27 UNL     1      37.701 -32.318   0.155  1.00  0.00     0.017 C 
HETATM   25  O5  UNL     1      34.220 -32.361   2.674  1.00  0.00    -0.324 OA
ENDROOT
BRANCH  15  26
HETATM   26  O2  UNL     1      40.382 -24.913   0.104  1.00  0.00    -0.315 OA
BRANCH  26  27
HETATM   27  C17 UNL     1      40.306 -23.620   0.559  1.00  0.00     0.273 C 
HETATM   28  O3  UNL     1      40.073 -22.705  -0.270  1.00  0.00    -0.264 OA
BRANCH  27  29
HETATM   29  C18 UNL     1      40.492 -23.291   2.001  1.00  0.00     0.225 C 
HETATM   30 CL1  UNL     1      38.928 -23.186   2.840  1.00  0.00    -0.120 Cl
ENDBRANCH  27  29
ENDBRANCH  26  27
ENDBRANCH  15  26
BRANCH  21  31
HETATM   31  O4  UNL     1      37.727 -28.896  -2.321  1.00  0.00    -0.395 OA
ATOM     32  H4  UNL     1      37.196 -29.264  -3.017  1.00  0.00     0.210 HD
ENDBRANCH  21  31
BRANCH   1  33
HETATM   33  O1  UNL     1      32.080 -31.814   3.001  1.00  0.00    -0.366 OA
HETATM   34  C1  UNL     1      32.522 -32.381   4.169  1.00  0.00     0.204 C 
ENDBRANCH   1  33
TORSDOF 5
ENDMDL
