MODEL 1
REMARK VINA RESULT: -9.462029991      0.000      0.000
REMARK  3 active torsions:
REMARK  status: ('A' for Active; 'I' for Inactive)
REMARK    1  A    between atoms: C20_25  and  C21_26 
REMARK    2  A    between atoms: C21_26  and  C22_27 
REMARK    3  A    between atoms: C25_30  and  C26_31 
ROOT
HETATM    1  C1  UNL     1      37.790 -28.493   3.858  1.00  0.00     0.019 C 
HETATM    2  C2  UNL     1      38.532 -29.126   2.982  1.00  0.00    -0.054 C 
HETATM    3  C3  UNL     1      40.020 -28.985   3.103  1.00  0.00     0.120 C 
HETATM    4  C4  UNL     1      40.554 -29.657   1.852  1.00  0.00     0.279 C 
HETATM    5  F1  UNL     1      40.568 -30.999   1.945  1.00  0.00    -0.203 F 
HETATM    6  F2  UNL     1      41.880 -29.241   1.740  1.00  0.00    -0.203 F 
HETATM    7  C5  UNL     1      39.851 -29.100   0.617  1.00  0.00     0.148 C 
HETATM    8  C6  UNL     1      40.756 -29.294  -0.518  1.00  0.00     0.046 C 
HETATM    9  C7  UNL     1      40.313 -29.332  -1.903  1.00  0.00     0.008 C 
HETATM   10  C8  UNL     1      40.352 -28.075  -2.699  1.00  0.00    -0.012 C 
HETATM   11  C9  UNL     1      39.663 -28.349  -4.023  1.00  0.00     0.010 C 
HETATM   12  C10 UNL     1      39.821 -26.849  -2.087  1.00  0.00     0.022 C 
HETATM   13  C11 UNL     1      40.934 -26.032  -1.414  1.00  0.00     0.011 C 
HETATM   14  C12 UNL     1      40.636 -26.007   0.046  1.00  0.00     0.041 C 
HETATM   15  C13 UNL     1      39.358 -26.791   0.254  1.00  0.00     0.086 C 
HETATM   16  C14 UNL     1      38.439 -25.836   1.055  1.00  0.00     0.049 C 
HETATM   17  O1  UNL     1      39.547 -27.838   1.010  1.00  0.00    -0.359 OA
HETATM   18  C15 UNL     1      38.735 -26.963  -1.093  1.00  0.00     0.170 C 
HETATM   19  O2  UNL     1      37.897 -28.086  -1.185  1.00  0.00    -0.312 OA
HETATM   20  C16 UNL     1      37.572 -29.088  -0.286  1.00  0.00     0.275 C 
HETATM   21  O3  UNL     1      36.369 -29.309  -0.198  1.00  0.00    -0.264 OA
HETATM   22  C17 UNL     1      38.515 -29.874   0.536  1.00  0.00     0.108 C 
HETATM   23  C18 UNL     1      38.757 -31.261   0.030  1.00  0.00     0.035 C 
HETATM   24  C19 UNL     1      37.938 -29.963   1.901  1.00  0.00    -0.035 C 
HETATM   25  C20 UNL     1      36.904 -30.672   2.264  1.00  0.00    -0.017 C 
ENDROOT
BRANCH  25  26
HETATM   26  C21 UNL     1      36.012 -31.615   1.613  1.00  0.00     0.036 C 
BRANCH  26  27
HETATM   27  C22 UNL     1      34.745 -31.939   2.439  1.00  0.00     0.017 C 
HETATM   28  C23 UNL     1      35.200 -32.500   3.746  1.00  0.00     0.010 C 
HETATM   29  C24 UNL     1      35.295 -31.542   4.878  1.00  0.00     0.012 C 
HETATM   30  C25 UNL     1      34.065 -30.676   5.028  1.00  0.00     0.051 C 
HETATM   31  C27 UNL     1      33.938 -29.873   3.755  1.00  0.00     0.045 C 
HETATM   32  C28 UNL     1      33.868 -30.786   2.585  1.00  0.00    -0.084 C 
HETATM   33  C29 UNL     1      32.954 -30.519   1.672  1.00  0.00     0.015 C 
BRANCH  30  34
HETATM   34  C26 UNL     1      32.845 -31.444   5.347  1.00  0.00     0.236 C 
HETATM   35  O4  UNL     1      32.857 -32.176   6.319  1.00  0.00    -0.306 OA
ENDBRANCH  30  34
ENDBRANCH  26  27
ENDBRANCH  25  26
TORSDOF 3
ENDMDL
MODEL 2
REMARK VINA RESULT: -9.349082454      1.923      3.288
REMARK  3 active torsions:
REMARK  status: ('A' for Active; 'I' for Inactive)
REMARK    1  A    between atoms: C20_25  and  C21_26 
REMARK    2  A    between atoms: C21_26  and  C22_27 
REMARK    3  A    between atoms: C25_30  and  C26_31 
ROOT
HETATM    1  C1  UNL     1      38.166 -27.894   3.218  1.00  0.00     0.019 C 
HETATM    2  C2  UNL     1      38.541 -29.099   2.863  1.00  0.00    -0.054 C 
HETATM    3  C3  UNL     1      39.947 -29.271   2.372  1.00  0.00     0.120 C 
HETATM    4  C4  UNL     1      39.986 -30.701   1.868  1.00  0.00     0.279 C 
HETATM    5  F1  UNL     1      40.110 -31.601   2.860  1.00  0.00    -0.203 F 
HETATM    6  F2  UNL     1      41.137 -30.792   1.086  1.00  0.00    -0.203 F 
HETATM    7  C5  UNL     1      38.825 -30.950   0.907  1.00  0.00     0.148 C 
HETATM    8  C6  UNL     1      39.224 -32.051   0.027  1.00  0.00     0.046 C 
HETATM    9  C7  UNL     1      38.278 -32.886  -0.697  1.00  0.00     0.008 C 
HETATM   10  C8  UNL     1      37.932 -32.520  -2.098  1.00  0.00    -0.012 C 
HETATM   11  C9  UNL     1      36.797 -33.424  -2.540  1.00  0.00     0.010 C 
HETATM   12  C10 UNL     1      37.615 -31.116  -2.392  1.00  0.00     0.022 C 
HETATM   13  C11 UNL     1      38.856 -30.352  -2.881  1.00  0.00     0.011 C 
HETATM   14  C12 UNL     1      39.151 -29.303  -1.866  1.00  0.00     0.041 C 
HETATM   15  C13 UNL     1      38.102 -29.424  -0.781  1.00  0.00     0.086 C 
HETATM   16  C14 UNL     1      37.518 -27.996  -0.642  1.00  0.00     0.049 C 
HETATM   17  O1  UNL     1      38.630 -29.718   0.376  1.00  0.00    -0.359 OA
HETATM   18  C15 UNL     1      37.012 -30.286  -1.330  1.00  0.00     0.170 C 
HETATM   19  O2  UNL     1      36.270 -30.949  -0.341  1.00  0.00    -0.312 OA
HETATM   20  C16 UNL     1      36.378 -30.996   1.039  1.00  0.00     0.275 C 
HETATM   21  O3  UNL     1      35.320 -30.811   1.630  1.00  0.00    -0.264 OA
HETATM   22  C17 UNL     1      37.610 -31.239   1.817  1.00  0.00     0.108 C 
HETATM   23  C18 UNL     1      37.712 -32.621   2.384  1.00  0.00     0.035 C 
HETATM   24  C19 UNL     1      37.618 -30.268   2.939  1.00  0.00    -0.035 C 
HETATM   25  C20 UNL     1      36.850 -30.289   3.994  1.00  0.00    -0.017 C 
ENDROOT
BRANCH  25  26
HETATM   26  C21 UNL     1      35.828 -31.180   4.516  1.00  0.00     0.036 C 
BRANCH  26  27
HETATM   27  C22 UNL     1      34.753 -30.459   5.361  1.00  0.00     0.017 C 
HETATM   28  C23 UNL     1      33.446 -30.635   4.659  1.00  0.00     0.010 C 
HETATM   29  C24 UNL     1      32.592 -31.757   5.127  1.00  0.00     0.012 C 
HETATM   30  C25 UNL     1      32.441 -31.803   6.630  1.00  0.00     0.051 C 
HETATM   31  C27 UNL     1      33.824 -32.007   7.202  1.00  0.00     0.045 C 
HETATM   32  C28 UNL     1      34.728 -30.923   6.741  1.00  0.00    -0.084 C 
HETATM   33  C29 UNL     1      35.514 -30.374   7.647  1.00  0.00     0.015 C 
BRANCH  30  34
HETATM   34  C26 UNL     1      31.759 -30.616   7.184  1.00  0.00     0.236 C 
HETATM   35  O4  UNL     1      31.049 -30.758   8.162  1.00  0.00    -0.306 OA
ENDBRANCH  30  34
ENDBRANCH  26  27
ENDBRANCH  25  26
TORSDOF 3
ENDMDL
MODEL 3
REMARK VINA RESULT: -9.216555867      0.990      1.118
REMARK  3 active torsions:
REMARK  status: ('A' for Active; 'I' for Inactive)
REMARK    1  A    between atoms: C20_25  and  C21_26 
REMARK    2  A    between atoms: C21_26  and  C22_27 
REMARK    3  A    between atoms: C25_30  and  C26_31 
ROOT
HETATM    1  C1  UNL     1      37.882 -28.252   3.120  1.00  0.00     0.019 C 
HETATM    2  C2  UNL     1      38.641 -28.849   2.235  1.00  0.00    -0.054 C 
HETATM    3  C3  UNL     1      40.127 -28.717   2.394  1.00  0.00     0.120 C 
HETATM    4  C4  UNL     1      40.687 -29.336   1.127  1.00  0.00     0.279 C 
HETATM    5  F1  UNL     1      40.697 -30.680   1.163  1.00  0.00    -0.203 F 
HETATM    6  F2  UNL     1      42.015 -28.918   1.061  1.00  0.00    -0.203 F 
HETATM    7  C5  UNL     1      40.011 -28.725  -0.098  1.00  0.00     0.148 C 
HETATM    8  C6  UNL     1      40.941 -28.872  -1.221  1.00  0.00     0.046 C 
HETATM    9  C7  UNL     1      40.528 -28.850  -2.616  1.00  0.00     0.008 C 
HETATM   10  C8  UNL     1      40.586 -27.560  -3.355  1.00  0.00    -0.012 C 
HETATM   11  C9  UNL     1      39.926 -27.775  -4.704  1.00  0.00     0.010 C 
HETATM   12  C10 UNL     1      40.043 -26.360  -2.703  1.00  0.00     0.022 C 
HETATM   13  C11 UNL     1      41.143 -25.575  -1.971  1.00  0.00     0.011 C 
HETATM   14  C12 UNL     1      40.813 -25.612  -0.519  1.00  0.00     0.041 C 
HETATM   15  C13 UNL     1      39.530 -26.401  -0.373  1.00  0.00     0.086 C 
HETATM   16  C14 UNL     1      38.595 -25.479   0.449  1.00  0.00     0.049 C 
HETATM   17  O1  UNL     1      39.700 -27.480   0.342  1.00  0.00    -0.359 OA
HETATM   18  C15 UNL     1      38.936 -26.514  -1.739  1.00  0.00     0.170 C 
HETATM   19  O2  UNL     1      38.099 -27.630  -1.897  1.00  0.00    -0.312 OA
HETATM   20  C16 UNL     1      37.752 -28.669  -1.049  1.00  0.00     0.275 C 
HETATM   21  O3  UNL     1      36.548 -28.891  -0.997  1.00  0.00    -0.264 OA
HETATM   22  C17 UNL     1      38.677 -29.491  -0.241  1.00  0.00     0.108 C 
HETATM   23  C18 UNL     1      38.928 -30.857  -0.801  1.00  0.00     0.035 C 
HETATM   24  C19 UNL     1      38.070 -29.637   1.106  1.00  0.00    -0.035 C 
HETATM   25  C20 UNL     1      37.027 -30.358   1.416  1.00  0.00    -0.017 C 
ENDROOT
BRANCH  25  26
HETATM   26  C21 UNL     1      36.148 -31.271   0.706  1.00  0.00     0.036 C 
BRANCH  26  27
HETATM   27  C22 UNL     1      35.230 -32.096   1.638  1.00  0.00     0.017 C 
HETATM   28  C23 UNL     1      35.566 -31.714   3.042  1.00  0.00     0.010 C 
HETATM   29  C24 UNL     1      34.710 -30.670   3.664  1.00  0.00     0.012 C 
HETATM   30  C25 UNL     1      33.232 -30.928   3.483  1.00  0.00     0.051 C 
HETATM   31  C27 UNL     1      32.965 -30.917   1.996  1.00  0.00     0.045 C 
HETATM   32  C28 UNL     1      33.820 -31.926   1.321  1.00  0.00    -0.084 C 
HETATM   33  C29 UNL     1      33.240 -32.690   0.414  1.00  0.00     0.015 C 
BRANCH  30  34
HETATM   34  C26 UNL     1      32.771 -32.168   4.140  1.00  0.00     0.236 C 
HETATM   35  O4  UNL     1      32.425 -32.114   5.305  1.00  0.00    -0.306 OA
ENDBRANCH  30  34
ENDBRANCH  26  27
ENDBRANCH  25  26
TORSDOF 3
ENDMDL
MODEL 4
REMARK VINA RESULT: -8.974336433      3.114      5.280
REMARK  3 active torsions:
REMARK  status: ('A' for Active; 'I' for Inactive)
REMARK    1  A    between atoms: C20_25  and  C21_26 
REMARK    2  A    between atoms: C21_26  and  C22_27 
REMARK    3  A    between atoms: C25_30  and  C26_31 
ROOT
HETATM    1  C1  UNL     1      36.255 -32.947   3.835  1.00  0.00     0.019 C 
HETATM    2  C2  UNL     1      35.975 -31.967   3.011  1.00  0.00    -0.054 C 
HETATM    3  C3  UNL     1      34.854 -32.178   2.038  1.00  0.00     0.120 C 
HETATM    4  C4  UNL     1      34.927 -30.968   1.127  1.00  0.00     0.279 C 
HETATM    5  F1  UNL     1      34.383 -29.867   1.676  1.00  0.00    -0.203 F 
HETATM    6  F2  UNL     1      34.157 -31.291   0.011  1.00  0.00    -0.203 F 
HETATM    7  C5  UNL     1      36.349 -30.794   0.598  1.00  0.00     0.148 C 
HETATM    8  C6  UNL     1      36.252 -30.060  -0.665  1.00  0.00     0.046 C 
HETATM    9  C7  UNL     1      37.353 -29.304  -1.244  1.00  0.00     0.008 C 
HETATM   10  C8  UNL     1      38.226 -29.972  -2.247  1.00  0.00    -0.012 C 
HETATM   11  C9  UNL     1      39.390 -29.042  -2.533  1.00  0.00     0.010 C 
HETATM   12  C10 UNL     1      38.711 -31.328  -1.954  1.00  0.00     0.022 C 
HETATM   13  C11 UNL     1      37.796 -32.396  -2.572  1.00  0.00     0.011 C 
HETATM   14  C12 UNL     1      37.198 -33.164  -1.445  1.00  0.00     0.041 C 
HETATM   15  C13 UNL     1      37.747 -32.575  -0.163  1.00  0.00     0.086 C 
HETATM   16  C14 UNL     1      38.315 -33.790   0.613  1.00  0.00     0.049 C 
HETATM   17  O1  UNL     1      36.803 -32.073   0.586  1.00  0.00    -0.359 OA
HETATM   18  C15 UNL     1      38.912 -31.722  -0.545  1.00  0.00     0.170 C 
HETATM   19  O2  UNL     1      39.183 -30.697   0.375  1.00  0.00    -0.312 OA
HETATM   20  C16 UNL     1      38.556 -30.296   1.543  1.00  0.00     0.275 C 
HETATM   21  O3  UNL     1      39.319 -30.129   2.488  1.00  0.00    -0.264 OA
HETATM   22  C17 UNL     1      37.109 -30.065   1.729  1.00  0.00     0.108 C 
HETATM   23  C18 UNL     1      36.719 -28.620   1.758  1.00  0.00     0.035 C 
HETATM   24  C19 UNL     1      36.730 -30.681   3.026  1.00  0.00    -0.035 C 
HETATM   25  C20 UNL     1      37.037 -30.242   4.216  1.00  0.00    -0.017 C 
ENDROOT
BRANCH  25  26
HETATM   26  C21 UNL     1      37.730 -29.081   4.747  1.00  0.00     0.036 C 
BRANCH  26  27
HETATM   27  C22 UNL     1      37.174 -28.598   6.107  1.00  0.00     0.017 C 
HETATM   28  C23 UNL     1      36.320 -29.695   6.652  1.00  0.00     0.010 C 
HETATM   29  C24 UNL     1      36.970 -30.619   7.617  1.00  0.00     0.012 C 
HETATM   30  C25 UNL     1      37.735 -29.899   8.705  1.00  0.00     0.051 C 
HETATM   31  C27 UNL     1      38.824 -29.106   8.022  1.00  0.00     0.045 C 
HETATM   32  C28 UNL     1      38.227 -28.184   7.022  1.00  0.00    -0.084 C 
HETATM   33  C29 UNL     1      38.685 -26.946   7.002  1.00  0.00     0.015 C 
BRANCH  30  34
HETATM   34  C26 UNL     1      36.875 -29.068   9.571  1.00  0.00     0.236 C 
HETATM   35  O4  UNL     1      37.379 -28.512  10.528  1.00  0.00    -0.306 OA
ENDBRANCH  30  34
ENDBRANCH  26  27
ENDBRANCH  25  26
TORSDOF 3
ENDMDL
MODEL 5
REMARK VINA RESULT: -8.927649419      2.715      4.281
REMARK  3 active torsions:
REMARK  status: ('A' for Active; 'I' for Inactive)
REMARK    1  A    between atoms: C20_25  and  C21_26 
REMARK    2  A    between atoms: C21_26  and  C22_27 
REMARK    3  A    between atoms: C25_30  and  C26_31 
ROOT
HETATM    1  C1  UNL     1      38.904 -27.432   2.700  1.00  0.00     0.019 C 
HETATM    2  C2  UNL     1      39.034 -28.726   2.535  1.00  0.00    -0.054 C 
HETATM    3  C3  UNL     1      40.276 -29.218   1.854  1.00  0.00     0.120 C 
HETATM    4  C4  UNL     1      40.019 -30.698   1.649  1.00  0.00     0.279 C 
HETATM    5  F1  UNL     1      40.218 -31.423   2.764  1.00  0.00    -0.203 F 
HETATM    6  F2  UNL     1      40.965 -31.118   0.714  1.00  0.00    -0.203 F 
HETATM    7  C5  UNL     1      38.665 -30.908   0.973  1.00  0.00     0.148 C 
HETATM    8  C6  UNL     1      38.726 -32.195   0.277  1.00  0.00     0.046 C 
HETATM    9  C7  UNL     1      37.550 -32.968  -0.089  1.00  0.00     0.008 C 
HETATM   10  C8  UNL     1      36.980 -32.796  -1.453  1.00  0.00    -0.012 C 
HETATM   11  C9  UNL     1      35.668 -33.556  -1.502  1.00  0.00     0.010 C 
HETATM   12  C10 UNL     1      36.802 -31.430  -1.965  1.00  0.00     0.022 C 
HETATM   13  C11 UNL     1      38.010 -30.985  -2.805  1.00  0.00     0.011 C 
HETATM   14  C12 UNL     1      38.643 -29.843  -2.089  1.00  0.00     0.041 C 
HETATM   15  C13 UNL     1      37.828 -29.594  -0.837  1.00  0.00     0.086 C 
HETATM   16  C14 UNL     1      37.482 -28.085  -0.890  1.00  0.00     0.049 C 
HETATM   17  O1  UNL     1      38.534 -29.770   0.246  1.00  0.00    -0.359 OA
HETATM   18  C15 UNL     1      36.544 -30.339  -1.004  1.00  0.00     0.170 C 
HETATM   19  O2  UNL     1      35.934 -30.686   0.211  1.00  0.00    -0.312 OA
HETATM   20  C16 UNL     1      36.312 -30.512   1.532  1.00  0.00     0.275 C 
HETATM   21  O3  UNL     1      35.429 -30.051   2.248  1.00  0.00    -0.264 OA
HETATM   22  C17 UNL     1      37.631 -30.825   2.119  1.00  0.00     0.108 C 
HETATM   23  C18 UNL     1      37.659 -32.085   2.926  1.00  0.00     0.035 C 
HETATM   24  C19 UNL     1      37.997 -29.690   3.003  1.00  0.00    -0.035 C 
HETATM   25  C20 UNL     1      37.462 -29.399   4.158  1.00  0.00    -0.017 C 
ENDROOT
BRANCH  25  26
HETATM   26  C21 UNL     1      36.456 -29.999   5.017  1.00  0.00     0.036 C 
BRANCH  26  27
HETATM   27  C22 UNL     1      36.256 -29.247   6.353  1.00  0.00     0.017 C 
HETATM   28  C23 UNL     1      35.532 -30.170   7.278  1.00  0.00     0.010 C 
HETATM   29  C24 UNL     1      36.373 -30.952   8.221  1.00  0.00     0.012 C 
HETATM   30  C25 UNL     1      37.395 -30.107   8.946  1.00  0.00     0.051 C 
HETATM   31  C27 UNL     1      38.306 -29.522   7.892  1.00  0.00     0.045 C 
HETATM   32  C28 UNL     1      37.509 -28.752   6.904  1.00  0.00    -0.084 C 
HETATM   33  C29 UNL     1      37.979 -27.571   6.547  1.00  0.00     0.015 C 
BRANCH  30  34
HETATM   34  C26 UNL     1      36.790 -29.078   9.817  1.00  0.00     0.236 C 
HETATM   35  O4  UNL     1      37.525 -28.396  10.506  1.00  0.00    -0.306 OA
ENDBRANCH  30  34
ENDBRANCH  26  27
ENDBRANCH  25  26
TORSDOF 3
ENDMDL
