MODEL 1
REMARK VINA RESULT: -6.605737196      0.000      0.000
REMARK  4 active torsions:
REMARK  status: ('A' for Active; 'I' for Inactive)
REMARK    1  A    between atoms: S1_2  and  C2_3 
REMARK    2  A    between atoms: C2_3  and  C3_4 
REMARK    3  A    between atoms: C3_4  and  C4_5 
REMARK    4  A    between atoms: N3_24  and  O2_26 
ROOT
HETATM    1  C4  UNL     1      22.156   2.809   6.505  1.00  0.00     0.143 C 
HETATM    2  N1  UNL     1      21.679   2.110   5.336  1.00  0.00    -0.346 N 
ATOM      3  H1  UNL     1      21.786   2.583   4.438  1.00  0.00     0.163 HD
HETATM    4  C5  UNL     1      21.060   0.791   5.321  1.00  0.00     0.251 C 
HETATM    5  O1  UNL     1      19.955   0.692   4.652  1.00  0.00    -0.268 OA
HETATM    6  C6  UNL     1      21.539  -0.405   5.972  1.00  0.00     0.049 C 
HETATM    7  C7  UNL     1      22.573  -1.216   5.972  1.00  0.00     0.093 C 
HETATM    8  S2  UNL     1      24.132  -1.330   5.028  1.00  0.00    -0.032 SA
HETATM    9  N2  UNL     1      22.680  -2.098   7.107  1.00  0.00    -0.356 N 
ATOM     10  H2  UNL     1      22.496  -3.052   6.795  1.00  0.00     0.166 HD
HETATM   11  C8  UNL     1      22.910  -2.116   8.306  1.00  0.00    -0.007 C 
HETATM   12  C9  UNL     1      22.898  -3.420   9.116  1.00  0.00     0.053 C 
HETATM   13  C10 UNL     1      22.069  -3.273  10.342  1.00  0.00     0.006 C 
HETATM   14  C11 UNL     1      21.217  -4.436  10.698  1.00  0.00     0.000 C 
HETATM   15  C12 UNL     1      20.358  -5.005   9.626  1.00  0.00     0.000 C 
HETATM   16  C13 UNL     1      19.071  -4.303   9.375  1.00  0.00     0.000 C 
HETATM   17  C14 UNL     1      19.127  -3.129   8.446  1.00  0.00     0.006 C 
HETATM   18  C15 UNL     1      19.497  -3.453   7.046  1.00  0.00     0.055 C 
HETATM   19  C16 UNL     1      20.104  -2.406   6.253  1.00  0.00     0.014 C 
HETATM   20  N3  UNL     1      20.464  -2.641   5.018  1.00  0.00    -0.277 N 
ATOM     21  H3  UNL     1      20.892  -1.893   4.471  1.00  0.00     0.193 HD
HETATM   22  C17 UNL     1      20.334  -1.054   6.767  1.00  0.00     0.101 C 
HETATM   23  C18 UNL     1      23.238  -0.988   9.170  1.00  0.00     0.110 C 
HETATM   24  C19 UNL     1      23.834   0.233   8.484  1.00  0.00     0.021 A 
HETATM   25  C20 UNL     1      25.162   0.644   8.329  1.00  0.00     0.077 A 
HETATM   26  S3  UNL     1      24.966   2.052   7.367  1.00  0.00    -0.085 SA
HETATM   27  C21 UNL     1      23.269   2.053   7.210  1.00  0.00     0.074 A 
HETATM   28  N4  UNL     1      22.973   0.990   7.901  1.00  0.00    -0.355 N 
ATOM     29  H4  UNL     1      21.988   0.740   7.987  1.00  0.00     0.166 HD
ENDROOT
BRANCH   1  30
HETATM   30  C3  UNL     1      22.716   4.150   6.114  1.00  0.00     0.042 C 
BRANCH  30  31
HETATM   31  C2  UNL     1      22.861   4.373   4.656  1.00  0.00     0.076 C 
BRANCH  31  32
HETATM   32  S1  UNL     1      24.616   4.373   4.207  1.00  0.00    -0.173 SA
HETATM   33  C1  UNL     1      25.111   2.720   3.649  1.00  0.00     0.089 C 
ENDBRANCH  31  32
ENDBRANCH  30  31
ENDBRANCH   1  30
BRANCH  20  34
HETATM   34  O2  UNL     1      20.279  -3.870   4.443  1.00  0.00    -0.290 OA
ATOM     35  H2  UNL     1      20.511  -4.670   4.901  1.00  0.00     0.244 HD
ENDBRANCH  20  34
TORSDOF 4
ENDMDL
MODEL 2
REMARK VINA RESULT: -6.056633437      7.586      9.790
REMARK  4 active torsions:
REMARK  status: ('A' for Active; 'I' for Inactive)
REMARK    1  A    between atoms: S1_2  and  C2_3 
REMARK    2  A    between atoms: C2_3  and  C3_4 
REMARK    3  A    between atoms: C3_4  and  C4_5 
REMARK    4  A    between atoms: N3_24  and  O2_26 
ROOT
HETATM    1  C4  UNL     1      22.751  -8.080  11.662  1.00  0.00     0.143 C 
HETATM    2  N1  UNL     1      21.856  -9.199  11.831  1.00  0.00    -0.346 N 
ATOM      3  H1  UNL     1      22.118  -9.901  12.523  1.00  0.00     0.163 HD
HETATM    4  C5  UNL     1      20.613  -9.419  11.103  1.00  0.00     0.251 C 
HETATM    5  O1  UNL     1      20.455 -10.601  10.596  1.00  0.00    -0.268 OA
HETATM    6  C6  UNL     1      19.551  -8.467  10.883  1.00  0.00     0.049 C 
HETATM    7  C7  UNL     1      18.685  -7.740  11.552  1.00  0.00     0.093 C 
HETATM    8  S2  UNL     1      18.259  -7.526  13.315  1.00  0.00    -0.032 SA
HETATM    9  N2  UNL     1      18.058  -6.672  10.815  1.00  0.00    -0.356 N 
ATOM     10  H2  UNL     1      17.076  -6.907  10.672  1.00  0.00     0.166 HD
HETATM   11  C8  UNL     1      18.279  -5.587  10.298  1.00  0.00    -0.007 C 
HETATM   12  C9  UNL     1      17.181  -4.792   9.577  1.00  0.00     0.053 C 
HETATM   13  C10 UNL     1      17.646  -4.348   8.235  1.00  0.00     0.006 C 
HETATM   14  C11 UNL     1      16.650  -4.436   7.138  1.00  0.00     0.000 C 
HETATM   15  C12 UNL     1      15.931  -5.727   6.972  1.00  0.00     0.000 C 
HETATM   16  C13 UNL     1      16.656  -6.790   6.227  1.00  0.00     0.000 C 
HETATM   17  C14 UNL     1      17.599  -7.636   7.028  1.00  0.00     0.006 C 
HETATM   18  C15 UNL     1      16.959  -8.472   8.073  1.00  0.00     0.055 C 
HETATM   19  C16 UNL     1      17.766  -8.861   9.209  1.00  0.00     0.014 C 
HETATM   20  N3  UNL     1      17.248  -9.586  10.167  1.00  0.00    -0.277 N 
ATOM     21  H3  UNL     1      17.829  -9.851  10.962  1.00  0.00     0.193 HD
HETATM   22  C17 UNL     1      19.175  -8.488   9.346  1.00  0.00     0.101 C 
HETATM   23  C18 UNL     1      19.538  -4.852  10.268  1.00  0.00     0.110 C 
HETATM   24  C19 UNL     1      20.538  -5.184  11.366  1.00  0.00     0.021 A 
HETATM   25  C20 UNL     1      20.808  -4.555  12.586  1.00  0.00     0.077 A 
HETATM   26  S3  UNL     1      21.990  -5.608  13.250  1.00  0.00    -0.085 SA
HETATM   27  C21 UNL     1      22.082  -6.758  11.995  1.00  0.00     0.074 A 
HETATM   28  N4  UNL     1      21.215  -6.259  11.162  1.00  0.00    -0.355 N 
ATOM     29  H4  UNL     1      21.062  -6.755  10.284  1.00  0.00     0.166 HD
ENDROOT
BRANCH   1  30
HETATM   30  C3  UNL     1      23.933  -8.218  12.582  1.00  0.00     0.042 C 
BRANCH  30  31
HETATM   31  C2  UNL     1      24.679  -9.494  12.465  1.00  0.00     0.076 C 
BRANCH  31  32
HETATM   32  S1  UNL     1      25.465  -9.598  10.836  1.00  0.00    -0.173 SA
HETATM   33  C1  UNL     1      25.721 -11.335  10.383  1.00  0.00     0.089 C 
ENDBRANCH  31  32
ENDBRANCH  30  31
ENDBRANCH   1  30
BRANCH  20  34
HETATM   34  O2  UNL     1      15.942  -9.995  10.124  1.00  0.00    -0.290 OA
ATOM     35  H2  UNL     1      15.229  -9.390  10.294  1.00  0.00     0.244 HD
ENDBRANCH  20  34
TORSDOF 4
ENDMDL
MODEL 3
REMARK VINA RESULT: -6.000677326      7.626     10.011
REMARK  4 active torsions:
REMARK  status: ('A' for Active; 'I' for Inactive)
REMARK    1  A    between atoms: S1_2  and  C2_3 
REMARK    2  A    between atoms: C2_3  and  C3_4 
REMARK    3  A    between atoms: C3_4  and  C4_5 
REMARK    4  A    between atoms: N3_24  and  O2_26 
ROOT
HETATM    1  C4  UNL     1      22.848  -8.253  11.492  1.00  0.00     0.143 C 
HETATM    2  N1  UNL     1      21.952  -9.372  11.658  1.00  0.00    -0.346 N 
ATOM      3  H1  UNL     1      22.229 -10.091  12.326  1.00  0.00     0.163 HD
HETATM    4  C5  UNL     1      20.688  -9.567  10.960  1.00  0.00     0.251 C 
HETATM    5  O1  UNL     1      20.509 -10.735  10.429  1.00  0.00    -0.268 OA
HETATM    6  C6  UNL     1      19.626  -8.604  10.794  1.00  0.00     0.049 C 
HETATM    7  C7  UNL     1      18.783  -7.888  11.504  1.00  0.00     0.093 C 
HETATM    8  S2  UNL     1      18.408  -7.716  13.284  1.00  0.00    -0.032 SA
HETATM    9  N2  UNL     1      18.143  -6.799  10.811  1.00  0.00    -0.356 N 
ATOM     10  H2  UNL     1      17.156  -7.026  10.691  1.00  0.00     0.166 HD
HETATM   11  C8  UNL     1      18.355  -5.703  10.316  1.00  0.00    -0.007 C 
HETATM   12  C9  UNL     1      17.243  -4.885   9.645  1.00  0.00     0.053 C 
HETATM   13  C10 UNL     1      17.673  -4.410   8.303  1.00  0.00     0.006 C 
HETATM   14  C11 UNL     1      16.647  -4.466   7.232  1.00  0.00     0.000 C 
HETATM   15  C12 UNL     1      15.915  -5.748   7.054  1.00  0.00     0.000 C 
HETATM   16  C13 UNL     1      16.613  -6.797   6.263  1.00  0.00     0.000 C 
HETATM   17  C14 UNL     1      17.573  -7.667   7.017  1.00  0.00     0.006 C 
HETATM   18  C15 UNL     1      16.956  -8.526   8.058  1.00  0.00     0.055 C 
HETATM   19  C16 UNL     1      17.792  -8.947   9.162  1.00  0.00     0.014 C 
HETATM   20  N3  UNL     1      17.297  -9.692  10.115  1.00  0.00    -0.277 N 
ATOM     21  H3  UNL     1      17.899  -9.980  10.887  1.00  0.00     0.193 HD
HETATM   22  C17 UNL     1      19.207  -8.585   9.268  1.00  0.00     0.101 C 
HETATM   23  C18 UNL     1      19.617  -4.974  10.268  1.00  0.00     0.110 C 
HETATM   24  C19 UNL     1      20.646  -5.339  11.330  1.00  0.00     0.021 A 
HETATM   25  C20 UNL     1      20.954  -4.742  12.557  1.00  0.00     0.077 A 
HETATM   26  S3  UNL     1      22.147  -5.817  13.161  1.00  0.00    -0.085 SA
HETATM   27  C21 UNL     1      22.197  -6.936  11.876  1.00  0.00     0.074 A 
HETATM   28  N4  UNL     1      21.310  -6.412  11.080  1.00  0.00    -0.355 N 
ATOM     29  H4  UNL     1      21.130  -6.886  10.195  1.00  0.00     0.166 HD
ENDROOT
BRANCH   1  30
HETATM   30  C3  UNL     1      24.055  -8.420  12.375  1.00  0.00     0.042 C 
BRANCH  30  31
HETATM   31  C2  UNL     1      24.013  -9.587  13.288  1.00  0.00     0.076 C 
BRANCH  31  32
HETATM   32  S1  UNL     1      23.679  -9.029  14.980  1.00  0.00    -0.173 SA
HETATM   33  C1  UNL     1      21.891  -9.026  15.288  1.00  0.00     0.089 C 
ENDBRANCH  31  32
ENDBRANCH  30  31
ENDBRANCH   1  30
BRANCH  20  34
HETATM   34  O2  UNL     1      15.988 -10.093  10.099  1.00  0.00    -0.290 OA
ATOM     35  H2  UNL     1      15.537 -10.341  10.898  1.00  0.00     0.244 HD
ENDBRANCH  20  34
TORSDOF 4
ENDMDL
MODEL 4
REMARK VINA RESULT: -5.988695283      7.564      9.520
REMARK  4 active torsions:
REMARK  status: ('A' for Active; 'I' for Inactive)
REMARK    1  A    between atoms: S1_2  and  C2_3 
REMARK    2  A    between atoms: C2_3  and  C3_4 
REMARK    3  A    between atoms: C3_4  and  C4_5 
REMARK    4  A    between atoms: N3_24  and  O2_26 
ROOT
HETATM    1  C4  UNL     1      22.836  -8.433  11.396  1.00  0.00     0.143 C 
HETATM    2  N1  UNL     1      21.928  -9.542  11.563  1.00  0.00    -0.346 N 
ATOM      3  H1  UNL     1      22.204 -10.272  12.219  1.00  0.00     0.163 HD
HETATM    4  C5  UNL     1      20.651  -9.712  10.881  1.00  0.00     0.251 C 
HETATM    5  O1  UNL     1      20.449 -10.872  10.340  1.00  0.00    -0.268 OA
HETATM    6  C6  UNL     1      19.599  -8.734  10.741  1.00  0.00     0.049 C 
HETATM    7  C7  UNL     1      18.777  -8.015  11.471  1.00  0.00     0.093 C 
HETATM    8  S2  UNL     1      18.429  -7.858  13.258  1.00  0.00    -0.032 SA
HETATM    9  N2  UNL     1      18.141  -6.910  10.799  1.00  0.00    -0.356 N 
ATOM     10  H2  UNL     1      17.149  -7.122  10.691  1.00  0.00     0.166 HD
HETATM   11  C8  UNL     1      18.361  -5.811  10.313  1.00  0.00    -0.007 C 
HETATM   12  C9  UNL     1      17.250  -4.971   9.668  1.00  0.00     0.053 C 
HETATM   13  C10 UNL     1      17.667  -4.487   8.324  1.00  0.00     0.006 C 
HETATM   14  C11 UNL     1      16.625  -4.518   7.267  1.00  0.00     0.000 C 
HETATM   15  C12 UNL     1      15.874  -5.788   7.086  1.00  0.00     0.000 C 
HETATM   16  C13 UNL     1      16.546  -6.837   6.274  1.00  0.00     0.000 C 
HETATM   17  C14 UNL     1      17.505  -7.728   7.005  1.00  0.00     0.006 C 
HETATM   18  C15 UNL     1      16.892  -8.590   8.045  1.00  0.00     0.055 C 
HETATM   19  C16 UNL     1      17.739  -9.034   9.132  1.00  0.00     0.014 C 
HETATM   20  N3  UNL     1      17.247  -9.784  10.084  1.00  0.00    -0.277 N 
ATOM     21  H3  UNL     1      17.856 -10.088  10.844  1.00  0.00     0.193 HD
HETATM   22  C17 UNL     1      19.159  -8.692   9.221  1.00  0.00     0.101 C 
HETATM   23  C18 UNL     1      19.632  -5.099  10.255  1.00  0.00     0.110 C 
HETATM   24  C19 UNL     1      20.670  -5.489  11.297  1.00  0.00     0.021 A 
HETATM   25  C20 UNL     1      21.004  -4.910  12.526  1.00  0.00     0.077 A 
HETATM   26  S3  UNL     1      22.191  -6.007  13.102  1.00  0.00    -0.085 SA
HETATM   27  C21 UNL     1      22.208  -7.112  11.804  1.00  0.00     0.074 A 
HETATM   28  N4  UNL     1      21.317  -6.567  11.027  1.00  0.00    -0.355 N 
ATOM     29  H4  UNL     1      21.117  -7.029  10.139  1.00  0.00     0.166 HD
ENDROOT
BRANCH   1  30
HETATM   30  C3  UNL     1      24.053  -8.626  12.260  1.00  0.00     0.042 C 
BRANCH  30  31
HETATM   31  C2  UNL     1      25.352  -8.427  11.574  1.00  0.00     0.076 C 
BRANCH  31  32
HETATM   32  S1  UNL     1      26.032  -6.804  12.008  1.00  0.00    -0.173 SA
HETATM   33  C1  UNL     1      25.471  -5.560  10.812  1.00  0.00     0.089 C 
ENDBRANCH  31  32
ENDBRANCH  30  31
ENDBRANCH   1  30
BRANCH  20  34
HETATM   34  O2  UNL     1      15.932 -10.167  10.083  1.00  0.00    -0.290 OA
ATOM     35  H2  UNL     1      15.285  -9.715  10.611  1.00  0.00     0.244 HD
ENDBRANCH  20  34
TORSDOF 4
ENDMDL
MODEL 5
REMARK VINA RESULT: -5.892831090      2.983      7.242
REMARK  4 active torsions:
REMARK  status: ('A' for Active; 'I' for Inactive)
REMARK    1  A    between atoms: S1_2  and  C2_3 
REMARK    2  A    between atoms: C2_3  and  C3_4 
REMARK    3  A    between atoms: C3_4  and  C4_5 
REMARK    4  A    between atoms: N3_24  and  O2_26 
ROOT
HETATM    1  C4  UNL     1      20.002  -3.489   8.353  1.00  0.00     0.143 C 
HETATM    2  N1  UNL     1      21.359  -3.746   8.771  1.00  0.00    -0.346 N 
ATOM      3  H1  UNL     1      21.600  -4.711   8.995  1.00  0.00     0.163 HD
HETATM    4  C5  UNL     1      22.416  -2.751   8.903  1.00  0.00     0.251 C 
HETATM    5  O1  UNL     1      23.085  -2.780  10.013  1.00  0.00    -0.268 OA
HETATM    6  C6  UNL     1      22.791  -1.744   7.941  1.00  0.00     0.049 C 
HETATM    7  C7  UNL     1      23.244  -1.631   6.713  1.00  0.00     0.093 C 
HETATM    8  S2  UNL     1      23.750  -2.801   5.405  1.00  0.00    -0.032 SA
HETATM    9  N2  UNL     1      23.116  -0.327   6.112  1.00  0.00    -0.356 N 
ATOM     10  H2  UNL     1      24.046   0.081   6.018  1.00  0.00     0.166 HD
HETATM   11  C8  UNL     1      22.295   0.466   5.676  1.00  0.00    -0.007 C 
HETATM   12  C9  UNL     1      22.708   1.829   5.101  1.00  0.00     0.053 C 
HETATM   13  C10 UNL     1      21.891   2.921   5.695  1.00  0.00     0.006 C 
HETATM   14  C11 UNL     1      22.618   4.172   6.027  1.00  0.00     0.000 C 
HETATM   15  C12 UNL     1      23.866   4.045   6.824  1.00  0.00     0.000 C 
HETATM   16  C13 UNL     1      23.694   3.907   8.295  1.00  0.00     0.000 C 
HETATM   17  C14 UNL     1      23.450   2.520   8.806  1.00  0.00     0.006 C 
HETATM   18  C15 UNL     1      24.574   1.572   8.610  1.00  0.00     0.055 C 
HETATM   19  C16 UNL     1      24.258   0.161   8.544  1.00  0.00     0.014 C 
HETATM   20  N3  UNL     1      25.208  -0.718   8.357  1.00  0.00    -0.277 N 
ATOM     21  H3  UNL     1      24.970  -1.709   8.312  1.00  0.00     0.193 HD
HETATM   22  C17 UNL     1      22.895  -0.354   8.692  1.00  0.00     0.101 C 
HETATM   23  C18 UNL     1      20.849   0.300   5.595  1.00  0.00     0.110 C 
HETATM   24  C19 UNL     1      20.335  -1.132   5.578  1.00  0.00     0.021 A 
HETATM   25  C20 UNL     1      19.961  -1.963   4.516  1.00  0.00     0.077 A 
HETATM   26  S3  UNL     1      19.602  -3.422   5.345  1.00  0.00    -0.085 SA
HETATM   27  C21 UNL     1      19.934  -2.930   6.943  1.00  0.00     0.074 A 
HETATM   28  N4  UNL     1      20.287  -1.695   6.734  1.00  0.00    -0.355 N 
ATOM     29  H4  UNL     1      20.545  -1.132   7.545  1.00  0.00     0.166 HD
ENDROOT
BRANCH   1  30
HETATM   30  C3  UNL     1      19.208  -4.768   8.357  1.00  0.00     0.042 C 
BRANCH  30  31
HETATM   31  C2  UNL     1      17.756  -4.609   8.607  1.00  0.00     0.076 C 
BRANCH  31  32
HETATM   32  S1  UNL     1      16.814  -5.463   7.316  1.00  0.00    -0.173 SA
HETATM   33  C1  UNL     1      15.934  -4.253   6.291  1.00  0.00     0.089 C 
ENDBRANCH  31  32
ENDBRANCH  30  31
ENDBRANCH   1  30
BRANCH  20  34
HETATM   34  O2  UNL     1      26.515  -0.335   8.220  1.00  0.00    -0.290 OA
ATOM     35  H2  UNL     1      26.948   0.192   8.881  1.00  0.00     0.244 HD
ENDBRANCH  20  34
TORSDOF 4
ENDMDL
