MODEL 1
REMARK VINA RESULT: -8.593876576      0.000      0.000
REMARK  9 active torsions:
REMARK  status: ('A' for Active; 'I' for Inactive)
REMARK    1  A    between atoms: C3_3  and  C4_4 
REMARK    2  A    between atoms: C3_3  and  C6_6 
REMARK    3  A    between atoms: C6_6  and  S1_10 
REMARK    4  A    between atoms: S1_10  and  S2_11 
REMARK    5  A    between atoms: S2_11  and  C7_12 
REMARK    6  A    between atoms: C12_19  and  O1_20 
REMARK    7  A    between atoms: C20_31  and  C21_32 
REMARK    8  A    between atoms: C21_32  and  O3_34 
REMARK    9  A    between atoms: O3_34  and  C22_35 
ROOT
HETATM    1  C1  UNL     1      22.973  -0.752   7.668  1.00  0.00     0.013 C 
HETATM    2  C2  UNL     1      21.978  -0.471   7.029  1.00  0.00    -0.106 C 
HETATM    3  C3  UNL     1      20.786  -0.130   6.246  1.00  0.00     0.121 C 
ENDROOT
BRANCH   3   4
HETATM    4  C4  UNL     1      21.099   1.001   5.313  1.00  0.00     0.019 C 
HETATM    5  C5  UNL     1      21.478   2.210   6.108  1.00  0.00     0.007 C 
ENDBRANCH   3   4
BRANCH   3   6
HETATM    6  C6  UNL     1      20.351  -1.329   5.480  1.00  0.00     0.067 C 
HETATM    7  N1  UNL     1      19.829  -1.264   4.321  1.00  0.00    -0.395 N 
ATOM      8  H12 UNL     1      19.688  -0.363   3.863  1.00  0.00     0.156 HD
ATOM      9  H11 UNL     1      19.530  -2.085   3.796  1.00  0.00     0.156 HD
BRANCH   6  10
HETATM   10  S1  UNL     1      20.597  -2.911   6.286  1.00  0.00    -0.037 SA
BRANCH  10  11
HETATM   11  S2  UNL     1      19.259  -3.072   7.897  1.00  0.00    -0.037 SA
BRANCH  11  12
HETATM   12  C7  UNL     1      17.940  -4.275   7.529  1.00  0.00     0.068 C 
HETATM   13  N2  UNL     1      17.261  -4.039   6.468  1.00  0.00    -0.351 N 
HETATM   14  C8  UNL     1      16.164  -4.771   5.885  1.00  0.00     0.062 A 
ATOM     15  H2  UNL     1      17.541  -3.203   5.955  1.00  0.00     0.166 HD
HETATM   16  C9  UNL     1      15.424  -3.996   5.018  1.00  0.00     0.032 A 
HETATM   17  C13 UNL     1      15.824  -6.090   6.105  1.00  0.00     0.092 A 
HETATM   18  C10 UNL     1      14.342  -4.559   4.375  1.00  0.00     0.005 A 
HETATM   19  C11 UNL     1      14.025  -5.898   4.619  1.00  0.00     0.039 A 
HETATM   20  C12 UNL     1      14.756  -6.685   5.483  1.00  0.00     0.094 A 
HETATM   21  N3  UNL     1      16.532  -6.946   6.987  1.00  0.00    -0.357 N 
HETATM   22  C14 UNL     1      17.332  -6.662   7.956  1.00  0.00     0.015 C 
ATOM     23  H3  UNL     1      16.384  -7.943   6.828  1.00  0.00     0.166 HD
HETATM   24  C15 UNL     1      17.800  -5.381   8.502  1.00  0.00     0.090 C 
HETATM   25  C20 UNL     1      17.754  -7.996   8.530  1.00  0.00     0.160 C 
HETATM   26  C16 UNL     1      19.165  -5.515   9.155  1.00  0.00     0.021 C 
HETATM   27  C17 UNL     1      19.262  -6.687  10.088  1.00  0.00     0.036 C 
HETATM   28  C18 UNL     1      19.035  -7.899   9.248  1.00  0.00    -0.070 C 
HETATM   29  C19 UNL     1      19.936  -8.859   9.140  1.00  0.00     0.015 C 
BRANCH  20  30
HETATM   30  O1  UNL     1      14.418  -8.023   5.709  1.00  0.00    -0.358 OA
ATOM     31  H1  UNL     1      14.431  -8.394   6.584  1.00  0.00     0.217 HD
ENDBRANCH  20  30
BRANCH  25  32
HETATM   32  C21 UNL     1      16.713  -8.378   9.541  1.00  0.00     0.272 C 
HETATM   33  O2  UNL     1      15.655  -7.719   9.688  1.00  0.00    -0.264 OA
BRANCH  32  34
HETATM   34  O3  UNL     1      16.914  -9.471  10.330  1.00  0.00    -0.321 OA
BRANCH  34  35
HETATM   35  C22 UNL     1      16.752 -10.804   9.949  1.00  0.00     0.174 C 
HETATM   36  C23 UNL     1      17.882 -11.696  10.405  1.00  0.00     0.034 C 
ENDBRANCH  34  35
ENDBRANCH  32  34
ENDBRANCH  25  32
ENDBRANCH  11  12
ENDBRANCH  10  11
ENDBRANCH   6  10
ENDBRANCH   3   6
TORSDOF 9
ENDMDL
MODEL 2
REMARK VINA RESULT: -8.184991960      0.933      1.196
REMARK  9 active torsions:
REMARK  status: ('A' for Active; 'I' for Inactive)
REMARK    1  A    between atoms: C3_3  and  C4_4 
REMARK    2  A    between atoms: C3_3  and  C6_6 
REMARK    3  A    between atoms: C6_6  and  S1_10 
REMARK    4  A    between atoms: S1_10  and  S2_11 
REMARK    5  A    between atoms: S2_11  and  C7_12 
REMARK    6  A    between atoms: C12_19  and  O1_20 
REMARK    7  A    between atoms: C20_31  and  C21_32 
REMARK    8  A    between atoms: C21_32  and  O3_34 
REMARK    9  A    between atoms: O3_34  and  C22_35 
ROOT
HETATM    1  C1  UNL     1      23.006  -2.454   8.832  1.00  0.00     0.013 C 
HETATM    2  C2  UNL     1      22.765  -1.780   7.850  1.00  0.00    -0.106 C 
HETATM    3  C3  UNL     1      22.472  -0.979   6.658  1.00  0.00     0.121 C 
ENDROOT
BRANCH   3   4
HETATM    4  C4  UNL     1      23.160  -1.573   5.466  1.00  0.00     0.019 C 
HETATM    5  C5  UNL     1      23.268  -0.542   4.389  1.00  0.00     0.007 C 
ENDBRANCH   3   4
BRANCH   3   6
HETATM    6  C6  UNL     1      21.000  -0.948   6.445  1.00  0.00     0.067 C 
HETATM    7  N1  UNL     1      20.316   0.125   6.464  1.00  0.00    -0.395 N 
ATOM      8  H12 UNL     1      20.764   1.026   6.629  1.00  0.00     0.156 HD
ATOM      9  H11 UNL     1      19.307   0.147   6.318  1.00  0.00     0.156 HD
BRANCH   6  10
HETATM   10  S1  UNL     1      20.213  -2.531   6.155  1.00  0.00    -0.037 SA
BRANCH  10  11
HETATM   11  S2  UNL     1      19.220  -3.130   7.907  1.00  0.00    -0.037 SA
BRANCH  11  12
HETATM   12  C7  UNL     1      17.909  -4.340   7.531  1.00  0.00     0.068 C 
HETATM   13  N2  UNL     1      17.231  -4.103   6.469  1.00  0.00    -0.351 N 
HETATM   14  C8  UNL     1      16.140  -4.838   5.881  1.00  0.00     0.062 A 
ATOM     15  H2  UNL     1      17.508  -3.263   5.961  1.00  0.00     0.166 HD
HETATM   16  C9  UNL     1      15.397  -4.064   5.015  1.00  0.00     0.032 A 
HETATM   17  C13 UNL     1      15.807  -6.160   6.093  1.00  0.00     0.092 A 
HETATM   18  C10 UNL     1      14.320  -4.630   4.367  1.00  0.00     0.005 A 
HETATM   19  C11 UNL     1      14.010  -5.972   4.604  1.00  0.00     0.039 A 
HETATM   20  C12 UNL     1      14.744  -6.758   5.466  1.00  0.00     0.094 A 
HETATM   21  N3  UNL     1      16.517  -7.016   6.973  1.00  0.00    -0.357 N 
HETATM   22  C14 UNL     1      17.313  -6.732   7.946  1.00  0.00     0.015 C 
ATOM     23  H3  UNL     1      16.376  -8.012   6.810  1.00  0.00     0.166 HD
HETATM   24  C15 UNL     1      17.774  -5.450   8.498  1.00  0.00     0.090 C 
HETATM   25  C20 UNL     1      17.742  -8.066   8.514  1.00  0.00     0.160 C 
HETATM   26  C16 UNL     1      19.138  -5.579   9.154  1.00  0.00     0.021 C 
HETATM   27  C17 UNL     1      19.240  -6.755  10.082  1.00  0.00     0.036 C 
HETATM   28  C18 UNL     1      19.021  -7.965   9.236  1.00  0.00    -0.070 C 
HETATM   29  C19 UNL     1      19.928  -8.919   9.126  1.00  0.00     0.015 C 
BRANCH  20  30
HETATM   30  O1  UNL     1      14.413  -8.099   5.686  1.00  0.00    -0.358 OA
ATOM     31  H1  UNL     1      14.487  -8.491   6.549  1.00  0.00     0.217 HD
ENDBRANCH  20  30
BRANCH  25  32
HETATM   32  C21 UNL     1      16.701  -8.458   9.522  1.00  0.00     0.272 C 
HETATM   33  O2  UNL     1      15.641  -7.804   9.671  1.00  0.00    -0.264 OA
BRANCH  32  34
HETATM   34  O3  UNL     1      16.905  -9.556  10.303  1.00  0.00    -0.321 OA
BRANCH  34  35
HETATM   35  C22 UNL     1      16.750 -10.887   9.913  1.00  0.00     0.174 C 
HETATM   36  C23 UNL     1      17.880 -11.778  10.369  1.00  0.00     0.034 C 
ENDBRANCH  34  35
ENDBRANCH  32  34
ENDBRANCH  25  32
ENDBRANCH  11  12
ENDBRANCH  10  11
ENDBRANCH   6  10
ENDBRANCH   3   6
TORSDOF 9
ENDMDL
MODEL 3
REMARK VINA RESULT: -8.043712031      3.270      6.092
REMARK  9 active torsions:
REMARK  status: ('A' for Active; 'I' for Inactive)
REMARK    1  A    between atoms: C3_3  and  C4_4 
REMARK    2  A    between atoms: C3_3  and  C6_6 
REMARK    3  A    between atoms: C6_6  and  S1_10 
REMARK    4  A    between atoms: S1_10  and  S2_11 
REMARK    5  A    between atoms: S2_11  and  C7_12 
REMARK    6  A    between atoms: C12_19  and  O1_20 
REMARK    7  A    between atoms: C20_31  and  C21_32 
REMARK    8  A    between atoms: C21_32  and  O3_34 
REMARK    9  A    between atoms: O3_34  and  C22_35 
ROOT
HETATM    1  C1  UNL     1      15.461  -2.001   2.320  1.00  0.00     0.013 C 
HETATM    2  C2  UNL     1      14.713  -2.749   2.920  1.00  0.00    -0.106 C 
HETATM    3  C3  UNL     1      13.819  -3.661   3.639  1.00  0.00     0.121 C 
ENDROOT
BRANCH   3   4
HETATM    4  C4  UNL     1      13.513  -4.852   2.779  1.00  0.00     0.019 C 
HETATM    5  C5  UNL     1      13.178  -4.392   1.396  1.00  0.00     0.007 C 
ENDBRANCH   3   4
BRANCH   3   6
HETATM    6  C6  UNL     1      14.477  -4.090   4.902  1.00  0.00     0.067 C 
HETATM    7  N1  UNL     1      14.739  -3.290   5.857  1.00  0.00    -0.395 N 
ATOM      8  H12 UNL     1      14.500  -2.301   5.789  1.00  0.00     0.156 HD
ATOM      9  H11 UNL     1      15.191  -3.583   6.723  1.00  0.00     0.156 HD
BRANCH   6  10
HETATM   10  S1  UNL     1      14.899  -5.827   5.021  1.00  0.00    -0.037 SA
BRANCH  10  11
HETATM   11  S2  UNL     1      15.607  -6.227   6.957  1.00  0.00    -0.037 SA
BRANCH  11  12
HETATM   12  C7  UNL     1      17.202  -5.394   7.252  1.00  0.00     0.068 C 
HETATM   13  N2  UNL     1      17.662  -4.723   6.262  1.00  0.00    -0.351 N 
HETATM   14  C8  UNL     1      18.875  -3.952   6.146  1.00  0.00     0.062 A 
ATOM     15  H2  UNL     1      17.079  -4.736   5.425  1.00  0.00     0.166 HD
HETATM   16  C9  UNL     1      19.238  -3.747   4.832  1.00  0.00     0.032 A 
HETATM   17  C13 UNL     1      19.641  -3.434   7.170  1.00  0.00     0.092 A 
HETATM   18  C10 UNL     1      20.376  -3.019   4.559  1.00  0.00     0.005 A 
HETATM   19  C11 UNL     1      21.130  -2.508   5.619  1.00  0.00     0.039 A 
HETATM   20  C12 UNL     1      20.778  -2.704   6.937  1.00  0.00     0.094 A 
HETATM   21  N3  UNL     1      19.336  -3.609   8.544  1.00  0.00    -0.357 N 
HETATM   22  C14 UNL     1      18.585  -4.480   9.124  1.00  0.00     0.015 C 
ATOM     23  H3  UNL     1      19.781  -2.939   9.171  1.00  0.00     0.166 HD
HETATM   24  C15 UNL     1      17.784  -5.594   8.597  1.00  0.00     0.090 C 
HETATM   25  C20 UNL     1      18.673  -4.166  10.600  1.00  0.00     0.160 C 
HETATM   26  C16 UNL     1      16.605  -5.913   9.500  1.00  0.00     0.021 C 
HETATM   27  C17 UNL     1      16.981  -6.018  10.950  1.00  0.00     0.036 C 
HETATM   28  C18 UNL     1      17.505  -4.676  11.336  1.00  0.00    -0.070 C 
HETATM   29  C19 UNL     1      16.955  -3.956  12.299  1.00  0.00     0.015 C 
BRANCH  20  30
HETATM   30  O1  UNL     1      21.550  -2.181   7.980  1.00  0.00    -0.358 OA
ATOM     31  H1  UNL     1      21.167  -1.988   8.828  1.00  0.00     0.217 HD
ENDBRANCH  20  30
BRANCH  25  32
HETATM   32  C21 UNL     1      19.874  -4.897  11.125  1.00  0.00     0.272 C 
HETATM   33  O2  UNL     1      20.466  -4.539  12.171  1.00  0.00    -0.264 OA
BRANCH  32  34
HETATM   34  O3  UNL     1      20.344  -5.984  10.450  1.00  0.00    -0.321 OA
BRANCH  34  35
HETATM   35  C22 UNL     1      20.384  -7.296  10.925  1.00  0.00     0.174 C 
HETATM   36  C23 UNL     1      19.950  -8.315   9.900  1.00  0.00     0.034 C 
ENDBRANCH  34  35
ENDBRANCH  32  34
ENDBRANCH  25  32
ENDBRANCH  11  12
ENDBRANCH  10  11
ENDBRANCH   6  10
ENDBRANCH   3   6
TORSDOF 9
ENDMDL
MODEL 4
REMARK VINA RESULT: -8.020946413      3.473      6.922
REMARK  9 active torsions:
REMARK  status: ('A' for Active; 'I' for Inactive)
REMARK    1  A    between atoms: C3_3  and  C4_4 
REMARK    2  A    between atoms: C3_3  and  C6_6 
REMARK    3  A    between atoms: C6_6  and  S1_10 
REMARK    4  A    between atoms: S1_10  and  S2_11 
REMARK    5  A    between atoms: S2_11  and  C7_12 
REMARK    6  A    between atoms: C12_19  and  O1_20 
REMARK    7  A    between atoms: C20_31  and  C21_32 
REMARK    8  A    between atoms: C21_32  and  O3_34 
REMARK    9  A    between atoms: O3_34  and  C22_35 
ROOT
HETATM    1  C1  UNL     1      16.594  -3.478  11.398  1.00  0.00     0.013 C 
HETATM    2  C2  UNL     1      17.328  -3.661  12.349  1.00  0.00    -0.106 C 
HETATM    3  C3  UNL     1      18.205  -3.892  13.501  1.00  0.00     0.121 C 
ENDROOT
BRANCH   3   4
HETATM    4  C4  UNL     1      17.378  -4.089  14.736  1.00  0.00     0.019 C 
HETATM    5  C5  UNL     1      16.674  -2.812  15.071  1.00  0.00     0.007 C 
ENDBRANCH   3   4
BRANCH   3   6
HETATM    6  C6  UNL     1      19.041  -5.094  13.240  1.00  0.00     0.067 C 
HETATM    7  N1  UNL     1      19.022  -6.130  13.979  1.00  0.00    -0.395 N 
ATOM      8  H12 UNL     1      18.415  -6.175  14.798  1.00  0.00     0.156 HD
ATOM      9  H11 UNL     1      19.596  -6.954  13.801  1.00  0.00     0.156 HD
BRANCH   6  10
HETATM   10  S1  UNL     1      20.108  -5.014  11.802  1.00  0.00    -0.037 SA
BRANCH  10  11
HETATM   11  S2  UNL     1      19.176  -6.013  10.206  1.00  0.00    -0.037 SA
BRANCH  11  12
HETATM   12  C7  UNL     1      19.017  -4.918   8.757  1.00  0.00     0.068 C 
HETATM   13  N2  UNL     1      20.056  -4.223   8.477  1.00  0.00    -0.351 N 
HETATM   14  C8  UNL     1      20.279  -3.270   7.419  1.00  0.00     0.062 A 
ATOM     15  H2  UNL     1      20.850  -4.366   9.101  1.00  0.00     0.166 HD
HETATM   16  C9  UNL     1      21.330  -2.422   7.693  1.00  0.00     0.032 A 
HETATM   17  C13 UNL     1      19.579  -3.152   6.234  1.00  0.00     0.092 A 
HETATM   18  C10 UNL     1      21.671  -1.458   6.769  1.00  0.00     0.005 A 
HETATM   19  C11 UNL     1      20.943  -1.365   5.580  1.00  0.00     0.039 A 
HETATM   20  C12 UNL     1      19.890  -2.206   5.291  1.00  0.00     0.094 A 
HETATM   21  N3  UNL     1      18.483  -3.981   5.885  1.00  0.00    -0.357 N 
HETATM   22  C14 UNL     1      17.723  -4.711   6.628  1.00  0.00     0.015 C 
ATOM     23  H3  UNL     1      18.262  -4.004   4.890  1.00  0.00     0.166 HD
HETATM   24  C15 UNL     1      17.703  -4.952   8.077  1.00  0.00     0.090 C 
HETATM   25  C20 UNL     1      16.727  -5.342   5.682  1.00  0.00     0.160 C 
HETATM   26  C16 UNL     1      17.115  -6.312   8.412  1.00  0.00     0.021 C 
HETATM   27  C17 UNL     1      15.826  -6.592   7.694  1.00  0.00     0.036 C 
HETATM   28  C18 UNL     1      16.157  -6.580   6.239  1.00  0.00    -0.070 C 
HETATM   29  C19 UNL     1      15.954  -7.630   5.463  1.00  0.00     0.015 C 
BRANCH  20  30
HETATM   30  O1  UNL     1      19.177  -2.094   4.093  1.00  0.00    -0.358 OA
ATOM     31  H1  UNL     1      18.226  -2.092   4.082  1.00  0.00     0.217 HD
ENDBRANCH  20  30
BRANCH  25  32
HETATM   32  C21 UNL     1      15.595  -4.367   5.536  1.00  0.00     0.272 C 
HETATM   33  O2  UNL     1      15.296  -3.554   6.445  1.00  0.00    -0.264 OA
BRANCH  32  34
HETATM   34  O3  UNL     1      14.865  -4.355   4.386  1.00  0.00    -0.321 OA
BRANCH  34  35
HETATM   35  C22 UNL     1      13.551  -4.803   4.237  1.00  0.00     0.174 C 
HETATM   36  C23 UNL     1      13.137  -4.968   2.795  1.00  0.00     0.034 C 
ENDBRANCH  34  35
ENDBRANCH  32  34
ENDBRANCH  25  32
ENDBRANCH  11  12
ENDBRANCH  10  11
ENDBRANCH   6  10
ENDBRANCH   3   6
TORSDOF 9
ENDMDL
MODEL 5
REMARK VINA RESULT: -7.972149236      3.226      6.367
REMARK  9 active torsions:
REMARK  status: ('A' for Active; 'I' for Inactive)
REMARK    1  A    between atoms: C3_3  and  C4_4 
REMARK    2  A    between atoms: C3_3  and  C6_6 
REMARK    3  A    between atoms: C6_6  and  S1_10 
REMARK    4  A    between atoms: S1_10  and  S2_11 
REMARK    5  A    between atoms: S2_11  and  C7_12 
REMARK    6  A    between atoms: C12_19  and  O1_20 
REMARK    7  A    between atoms: C20_31  and  C21_32 
REMARK    8  A    between atoms: C21_32  and  O3_34 
REMARK    9  A    between atoms: O3_34  and  C22_35 
ROOT
HETATM    1  C1  UNL     1      15.333  -1.954   2.302  1.00  0.00     0.013 C 
HETATM    2  C2  UNL     1      14.431  -2.735   2.534  1.00  0.00    -0.106 C 
HETATM    3  C3  UNL     1      13.349  -3.686   2.806  1.00  0.00     0.121 C 
ENDROOT
BRANCH   3   4
HETATM    4  C4  UNL     1      12.907  -4.330   1.526  1.00  0.00     0.019 C 
HETATM    5  C5  UNL     1      14.085  -4.491   0.618  1.00  0.00     0.007 C 
ENDBRANCH   3   4
BRANCH   3   6
HETATM    6  C6  UNL     1      13.838  -4.716   3.762  1.00  0.00     0.067 C 
HETATM    7  N1  UNL     1      13.696  -5.966   3.572  1.00  0.00    -0.395 N 
ATOM      8  H12 UNL     1      13.231  -6.317   2.734  1.00  0.00     0.156 HD
ATOM      9  H11 UNL     1      14.031  -6.672   4.227  1.00  0.00     0.156 HD
BRANCH   6  10
HETATM   10  S1  UNL     1      14.654  -4.100   5.234  1.00  0.00    -0.037 SA
BRANCH  10  11
HETATM   11  S2  UNL     1      15.918  -5.598   5.990  1.00  0.00    -0.037 SA
BRANCH  11  12
HETATM   12  C7  UNL     1      17.509  -4.893   6.533  1.00  0.00     0.068 C 
HETATM   13  N2  UNL     1      18.119  -4.179   5.662  1.00  0.00    -0.351 N 
HETATM   14  C8  UNL     1      19.377  -3.480   5.750  1.00  0.00     0.062 A 
ATOM     15  H2  UNL     1      17.640  -4.090   4.766  1.00  0.00     0.166 HD
HETATM   16  C9  UNL     1      19.905  -3.198   4.508  1.00  0.00     0.032 A 
HETATM   17  C13 UNL     1      20.045  -3.092   6.894  1.00  0.00     0.092 A 
HETATM   18  C10 UNL     1      21.105  -2.524   4.428  1.00  0.00     0.005 A 
HETATM   19  C11 UNL     1      21.754  -2.146   5.605  1.00  0.00     0.039 A 
HETATM   20  C12 UNL     1      21.239  -2.421   6.854  1.00  0.00     0.094 A 
HETATM   21  N3  UNL     1      19.570  -3.354   8.205  1.00  0.00    -0.357 N 
HETATM   22  C14 UNL     1      18.709  -4.218   8.620  1.00  0.00     0.015 C 
ATOM     23  H3  UNL     1      19.973  -2.764   8.933  1.00  0.00     0.166 HD
HETATM   24  C15 UNL     1      17.916  -5.234   7.914  1.00  0.00     0.090 C 
HETATM   25  C20 UNL     1      18.639  -4.025  10.118  1.00  0.00     0.160 C 
HETATM   26  C16 UNL     1      16.623  -5.546   8.647  1.00  0.00     0.021 C 
HETATM   27  C17 UNL     1      16.819  -5.787  10.117  1.00  0.00     0.036 C 
HETATM   28  C18 UNL     1      17.366  -4.515  10.671  1.00  0.00    -0.070 C 
HETATM   29  C19 UNL     1      16.746  -3.838  11.622  1.00  0.00     0.015 C 
BRANCH  20  30
HETATM   30  O1  UNL     1      21.909  -2.030   8.018  1.00  0.00    -0.358 OA
ATOM     31  H1  UNL     1      22.412  -2.653   8.530  1.00  0.00     0.217 HD
ENDBRANCH  20  30
BRANCH  25  32
HETATM   32  C21 UNL     1      19.728  -4.870  10.712  1.00  0.00     0.272 C 
HETATM   33  O2  UNL     1      20.277  -4.578  11.802  1.00  0.00    -0.264 OA
BRANCH  32  34
HETATM   34  O3  UNL     1      20.140  -5.990  10.055  1.00  0.00    -0.321 OA
BRANCH  34  35
HETATM   35  C22 UNL     1      20.051  -7.302  10.523  1.00  0.00     0.174 C 
HETATM   36  C23 UNL     1      19.621  -8.287   9.463  1.00  0.00     0.034 C 
ENDBRANCH  34  35
ENDBRANCH  32  34
ENDBRANCH  25  32
ENDBRANCH  11  12
ENDBRANCH  10  11
ENDBRANCH   6  10
ENDBRANCH   3   6
TORSDOF 9
ENDMDL
