MODEL 1
REMARK VINA RESULT: -7.388808694      0.000      0.000
REMARK  5 active torsions:
REMARK  status: ('A' for Active; 'I' for Inactive)
REMARK    1  A    between atoms: N1_2  and  C3_4 
REMARK    2  A    between atoms: C4_7  and  N3_8 
REMARK    3  A    between atoms: N3_8  and  N4_10 
REMARK    4  A    between atoms: C8_19  and  C9_20 
REMARK    5  A    between atoms: C10_25  and  N6_26 
ROOT
HETATM    1  C3  UNL     1      -1.190   4.293  11.829  1.00  0.00     0.708 A 
HETATM    2  N2  UNL     1      -2.043   4.159  12.857  1.00  0.00    -0.020 N 
ATOM      3  H2  UNL     1      -2.524   3.269  12.990  1.00  0.00     0.203 HD
HETATM    4  C4  UNL     1      -2.283   5.177  13.728  1.00  0.00     0.726 A 
HETATM    5  N5  UNL     1      -1.645   6.345  13.546  1.00  0.00    -0.020 N 
ATOM      6  H5  UNL     1      -1.814   7.118  14.190  1.00  0.00     0.203 HD
HETATM    7  C10 UNL     1      -0.800   6.503  12.543  1.00  0.00     0.705 A 
HETATM    8  N7  UNL     1      -0.577   5.483  11.694  1.00  0.00    -0.022 N 
ATOM      9  H7  UNL     1       0.078   5.616  10.923  1.00  0.00     0.203 HD
ENDROOT
BRANCH   4  10
HETATM   10  N3  UNL     1      -3.189   4.947  14.795  1.00  0.00    -0.131 N 
ATOM     11  H3  UNL     1      -3.704   5.742  15.173  1.00  0.00     0.205 HD
BRANCH  10  12
HETATM   12  N4  UNL     1      -3.405   3.721  15.338  1.00  0.00    -0.285 N 
HETATM   13  C5  UNL     1      -4.484   3.153  15.736  1.00  0.00     0.102 C 
HETATM   14  C6  UNL     1      -5.795   3.712  15.698  1.00  0.00     0.189 C 
HETATM   15  C8  UNL     1      -4.419   1.795  16.336  1.00  0.00     0.264 C 
HETATM   16  O1  UNL     1      -6.057   4.904  15.319  1.00  0.00    -0.290 OA
HETATM   17  C7  UNL     1      -6.884   2.810  16.134  1.00  0.00     0.226 C 
HETATM   18  S1  UNL     1      -5.961   1.748  17.262  1.00  0.00     0.171 S 
HETATM   19  O2  UNL     1      -5.843   2.426  18.572  1.00  0.00    -0.226 OA
HETATM   20  O3  UNL     1      -6.523   0.378  17.340  1.00  0.00    -0.226 OA
ATOM     21  H4  UNL     1      -2.564   3.154  15.448  1.00  0.00     0.187 HD
BRANCH  15  22
HETATM   22  C9  UNL     1      -4.491   0.793  15.250  1.00  0.00     0.198 C 
HETATM   23  O4  UNL     1      -4.574  -0.447  15.394  1.00  0.00    -0.647 OA
HETATM   24  O5  UNL     1      -4.468   1.259  13.921  1.00  0.00    -0.647 OA
ENDBRANCH  15  22
ENDBRANCH  10  12
ENDBRANCH   4  10
BRANCH   1  25
HETATM   25  N1  UNL     1      -0.965   3.222  10.919  1.00  0.00    -0.225 N 
HETATM   26  C1  UNL     1      -1.592   1.929  11.094  1.00  0.00     0.168 C 
HETATM   27  C2  UNL     1      -0.083   3.431   9.794  1.00  0.00     0.168 C 
ENDBRANCH   1  25
BRANCH   7  28
HETATM   28  N6  UNL     1      -0.202   7.642  12.398  1.00  0.00    -0.234 N 
ATOM     29  H62 UNL     1       0.526   7.945  13.046  1.00  0.00     0.174 HD
ATOM     30  H61 UNL     1      -0.467   8.245  11.619  1.00  0.00     0.174 HD
ENDBRANCH   7  28
TORSDOF 5
ENDMDL
MODEL 2
REMARK VINA RESULT: -7.387128325      1.283      1.853
REMARK  5 active torsions:
REMARK  status: ('A' for Active; 'I' for Inactive)
REMARK    1  A    between atoms: N1_2  and  C3_4 
REMARK    2  A    between atoms: C4_7  and  N3_8 
REMARK    3  A    between atoms: N3_8  and  N4_10 
REMARK    4  A    between atoms: C8_19  and  C9_20 
REMARK    5  A    between atoms: C10_25  and  N6_26 
ROOT
HETATM    1  C3  UNL     1      -0.871   4.794  11.536  1.00  0.00     0.708 A 
HETATM    2  N2  UNL     1      -1.116   4.677  12.851  1.00  0.00    -0.020 N 
ATOM      3  H2  UNL     1      -0.332   4.564  13.494  1.00  0.00     0.203 HD
HETATM    4  C4  UNL     1      -2.382   4.706  13.350  1.00  0.00     0.726 A 
HETATM    5  N5  UNL     1      -3.408   4.857  12.497  1.00  0.00    -0.020 N 
ATOM      6  H5  UNL     1      -4.363   4.881  12.856  1.00  0.00     0.203 HD
HETATM    7  C10 UNL     1      -3.195   4.975  11.199  1.00  0.00     0.705 A 
HETATM    8  N7  UNL     1      -1.935   4.944  10.726  1.00  0.00    -0.022 N 
ATOM      9  H7  UNL     1      -1.782   5.037   9.722  1.00  0.00     0.203 HD
ENDROOT
BRANCH   4  10
HETATM   10  N3  UNL     1      -2.552   4.590  14.753  1.00  0.00    -0.131 N 
ATOM     11  H3  UNL     1      -2.316   5.391  15.338  1.00  0.00     0.205 HD
BRANCH  10  12
HETATM   12  N4  UNL     1      -3.013   3.464  15.358  1.00  0.00    -0.285 N 
HETATM   13  C5  UNL     1      -4.205   3.090  15.647  1.00  0.00     0.102 C 
HETATM   14  C6  UNL     1      -5.404   3.814  15.384  1.00  0.00     0.189 C 
HETATM   15  C8  UNL     1      -4.416   1.801  16.357  1.00  0.00     0.264 C 
HETATM   16  O1  UNL     1      -5.437   4.988  14.879  1.00  0.00    -0.290 OA
HETATM   17  C7  UNL     1      -6.660   3.116  15.736  1.00  0.00     0.226 C 
HETATM   18  S1  UNL     1      -6.053   2.055  17.061  1.00  0.00     0.171 S 
HETATM   19  O2  UNL     1      -6.001   2.837  18.317  1.00  0.00    -0.226 OA
HETATM   20  O3  UNL     1      -6.816   0.789  17.170  1.00  0.00    -0.226 OA
ATOM     21  H4  UNL     1      -2.285   2.802  15.628  1.00  0.00     0.187 HD
BRANCH  15  22
HETATM   22  C9  UNL     1      -4.499   0.716  15.354  1.00  0.00     0.198 C 
HETATM   23  O4  UNL     1      -4.578  -0.509  15.597  1.00  0.00    -0.647 OA
HETATM   24  O5  UNL     1      -4.492   1.075  13.992  1.00  0.00    -0.647 OA
ENDBRANCH  15  22
ENDBRANCH  10  12
ENDBRANCH   4  10
BRANCH   1  25
HETATM   25  N1  UNL     1       0.459   4.744  11.031  1.00  0.00    -0.225 N 
HETATM   26  C1  UNL     1       1.506   5.594  11.558  1.00  0.00     0.168 C 
HETATM   27  C2  UNL     1       0.769   3.824   9.961  1.00  0.00     0.168 C 
ENDBRANCH   1  25
BRANCH   7  28
HETATM   28  N6  UNL     1      -4.207   5.119  10.405  1.00  0.00    -0.234 N 
ATOM     29  H62 UNL     1      -5.114   5.432  10.754  1.00  0.00     0.174 HD
ATOM     30  H61 UNL     1      -4.093   4.913   9.413  1.00  0.00     0.174 HD
ENDBRANCH   7  28
TORSDOF 5
ENDMDL
MODEL 3
REMARK VINA RESULT: -7.334963822      1.620      2.014
REMARK  5 active torsions:
REMARK  status: ('A' for Active; 'I' for Inactive)
REMARK    1  A    between atoms: N1_2  and  C3_4 
REMARK    2  A    between atoms: C4_7  and  N3_8 
REMARK    3  A    between atoms: N3_8  and  N4_10 
REMARK    4  A    between atoms: C8_19  and  C9_20 
REMARK    5  A    between atoms: C10_25  and  N6_26 
ROOT
HETATM    1  C3  UNL     1      -2.719   5.369  11.154  1.00  0.00     0.708 A 
HETATM    2  N2  UNL     1      -3.111   5.269  12.435  1.00  0.00    -0.020 N 
ATOM      3  H2  UNL     1      -4.064   5.534  12.684  1.00  0.00     0.203 HD
HETATM    4  C4  UNL     1      -2.272   4.823  13.410  1.00  0.00     0.726 A 
HETATM    5  N5  UNL     1      -1.019   4.476  13.073  1.00  0.00    -0.020 N 
ATOM      6  H5  UNL     1      -0.378   4.140  13.792  1.00  0.00     0.203 HD
HETATM    7  C10 UNL     1      -0.608   4.564  11.820  1.00  0.00     0.705 A 
HETATM    8  N7  UNL     1      -1.454   5.007  10.872  1.00  0.00    -0.022 N 
ATOM      9  H7  UNL     1      -1.126   5.070   9.908  1.00  0.00     0.203 HD
ENDROOT
BRANCH   4  10
HETATM   10  N3  UNL     1      -2.771   4.735  14.734  1.00  0.00    -0.131 N 
ATOM     11  H3  UNL     1      -2.858   5.594  15.277  1.00  0.00     0.205 HD
BRANCH  10  12
HETATM   12  N4  UNL     1      -3.139   3.565  15.316  1.00  0.00    -0.285 N 
HETATM   13  C5  UNL     1      -4.293   3.116  15.652  1.00  0.00     0.102 C 
HETATM   14  C6  UNL     1      -5.541   3.783  15.480  1.00  0.00     0.189 C 
HETATM   15  C8  UNL     1      -4.399   1.792  16.319  1.00  0.00     0.264 C 
HETATM   16  O1  UNL     1      -5.663   4.971  15.024  1.00  0.00    -0.290 OA
HETATM   17  C7  UNL     1      -6.738   3.005  15.867  1.00  0.00     0.226 C 
HETATM   18  S1  UNL     1      -6.006   1.931  17.116  1.00  0.00     0.171 S 
HETATM   19  O2  UNL     1      -5.928   2.667  18.398  1.00  0.00    -0.226 OA
HETATM   20  O3  UNL     1      -6.695   0.622  17.213  1.00  0.00    -0.226 OA
ATOM     21  H4  UNL     1      -2.364   2.934  15.522  1.00  0.00     0.187 HD
BRANCH  15  22
HETATM   22  C9  UNL     1      -4.478   0.742  15.280  1.00  0.00     0.198 C 
HETATM   23  O4  UNL     1      -4.566  -0.490  15.480  1.00  0.00    -0.647 OA
HETATM   24  O5  UNL     1      -4.456   1.147  13.931  1.00  0.00    -0.647 OA
ENDBRANCH  15  22
ENDBRANCH  10  12
ENDBRANCH   4  10
BRANCH   1  25
HETATM   25  N1  UNL     1      -3.605   5.854  10.152  1.00  0.00    -0.225 N 
HETATM   26  C1  UNL     1      -4.901   6.407  10.485  1.00  0.00     0.168 C 
HETATM   27  C2  UNL     1      -3.201   5.787   8.767  1.00  0.00     0.168 C 
ENDBRANCH   1  25
BRANCH   7  28
HETATM   28  N6  UNL     1       0.606   4.220  11.532  1.00  0.00    -0.234 N 
ATOM     29  H62 UNL     1       1.274   3.971  12.261  1.00  0.00     0.174 HD
ATOM     30  H61 UNL     1       0.897   4.200  10.554  1.00  0.00     0.174 HD
ENDBRANCH   7  28
TORSDOF 5
ENDMDL
MODEL 4
REMARK VINA RESULT: -7.066958580      2.063      2.361
REMARK  5 active torsions:
REMARK  status: ('A' for Active; 'I' for Inactive)
REMARK    1  A    between atoms: N1_2  and  C3_4 
REMARK    2  A    between atoms: C4_7  and  N3_8 
REMARK    3  A    between atoms: N3_8  and  N4_10 
REMARK    4  A    between atoms: C8_19  and  C9_20 
REMARK    5  A    between atoms: C10_25  and  N6_26 
ROOT
HETATM    1  C3  UNL     1      -3.529   5.282  11.200  1.00  0.00     0.708 A 
HETATM    2  N2  UNL     1      -3.280   5.002  12.490  1.00  0.00    -0.020 N 
ATOM      3  H2  UNL     1      -2.465   4.436  12.726  1.00  0.00     0.203 HD
HETATM    4  C4  UNL     1      -4.084   5.455  13.491  1.00  0.00     0.726 A 
HETATM    5  N5  UNL     1      -5.153   6.201  13.171  1.00  0.00    -0.020 N 
ATOM      6  H5  UNL     1      -5.766   6.548  13.909  1.00  0.00     0.203 HD
HETATM    7  C10 UNL     1      -5.422   6.492  11.910  1.00  0.00     0.705 A 
HETATM    8  N7  UNL     1      -4.613   6.035  10.936  1.00  0.00    -0.022 N 
ATOM      9  H7  UNL     1      -4.829   6.266   9.966  1.00  0.00     0.203 HD
ENDROOT
BRANCH   4  10
HETATM   10  N3  UNL     1      -3.741   5.125  14.826  1.00  0.00    -0.131 N 
ATOM     11  H3  UNL     1      -3.494   5.881  15.464  1.00  0.00     0.205 HD
BRANCH  10  12
HETATM   12  N4  UNL     1      -3.725   3.851  15.299  1.00  0.00    -0.285 N 
HETATM   13  C5  UNL     1      -4.656   3.126  15.802  1.00  0.00     0.102 C 
HETATM   14  C6  UNL     1      -6.015   3.512  15.993  1.00  0.00     0.189 C 
HETATM   15  C8  UNL     1      -4.340   1.755  16.280  1.00  0.00     0.264 C 
HETATM   16  O1  UNL     1      -6.471   4.680  15.748  1.00  0.00    -0.290 OA
HETATM   17  C7  UNL     1      -6.911   2.453  16.508  1.00  0.00     0.226 C 
HETATM   18  S1  UNL     1      -5.709   1.456  17.409  1.00  0.00     0.171 S 
HETATM   19  O2  UNL     1      -5.476   2.066  18.738  1.00  0.00    -0.226 OA
HETATM   20  O3  UNL     1      -6.085   0.022  17.460  1.00  0.00    -0.226 OA
ATOM     21  H4  UNL     1      -2.815   3.393  15.245  1.00  0.00     0.187 HD
BRANCH  15  22
HETATM   22  C9  UNL     1      -4.454   0.817  15.142  1.00  0.00     0.198 C 
HETATM   23  O4  UNL     1      -4.539  -0.429  15.217  1.00  0.00    -0.647 OA
HETATM   24  O5  UNL     1      -4.475   1.359  13.841  1.00  0.00    -0.647 OA
ENDBRANCH  15  22
ENDBRANCH  10  12
ENDBRANCH   4  10
BRANCH   1  25
HETATM   25  N1  UNL     1      -2.687   4.786  10.166  1.00  0.00    -0.225 N 
HETATM   26  C1  UNL     1      -1.651   3.808  10.431  1.00  0.00     0.168 C 
HETATM   27  C2  UNL     1      -2.867   5.275   8.819  1.00  0.00     0.168 C 
ENDBRANCH   1  25
BRANCH   7  28
HETATM   28  N6  UNL     1      -6.461   7.214  11.638  1.00  0.00    -0.234 N 
ATOM     29  H62 UNL     1      -6.389   8.050  11.058  1.00  0.00     0.174 HD
ATOM     30  H61 UNL     1      -7.368   6.938  12.014  1.00  0.00     0.174 HD
ENDBRANCH   7  28
TORSDOF 5
ENDMDL
MODEL 5
REMARK VINA RESULT: -7.001801787      1.377      3.033
REMARK  5 active torsions:
REMARK  status: ('A' for Active; 'I' for Inactive)
REMARK    1  A    between atoms: N1_2  and  C3_4 
REMARK    2  A    between atoms: C4_7  and  N3_8 
REMARK    3  A    between atoms: N3_8  and  N4_10 
REMARK    4  A    between atoms: C8_19  and  C9_20 
REMARK    5  A    between atoms: C10_25  and  N6_26 
ROOT
HETATM    1  C3  UNL     1      -1.500   7.606  13.449  1.00  0.00     0.708 A 
HETATM    2  N2  UNL     1      -2.498   6.983  14.096  1.00  0.00    -0.020 N 
ATOM      3  H2  UNL     1      -3.157   7.537  14.643  1.00  0.00     0.203 HD
HETATM    4  C4  UNL     1      -2.656   5.632  14.040  1.00  0.00     0.726 A 
HETATM    5  N5  UNL     1      -1.785   4.910  13.316  1.00  0.00    -0.020 N 
ATOM      6  H5  UNL     1      -1.890   3.897  13.265  1.00  0.00     0.203 HD
HETATM    7  C10 UNL     1      -0.794   5.498  12.669  1.00  0.00     0.705 A 
HETATM    8  N7  UNL     1      -0.657   6.835  12.737  1.00  0.00    -0.022 N 
ATOM      9  H7  UNL     1       0.111   7.279  12.233  1.00  0.00     0.203 HD
ENDROOT
BRANCH   4  10
HETATM   10  N3  UNL     1      -3.745   5.056  14.742  1.00  0.00    -0.131 N 
ATOM     11  H3  UNL     1      -4.585   5.617  14.878  1.00  0.00     0.205 HD
BRANCH  10  12
HETATM   12  N4  UNL     1      -3.726   3.793  15.242  1.00  0.00    -0.285 N 
HETATM   13  C5  UNL     1      -4.655   3.077  15.762  1.00  0.00     0.102 C 
HETATM   14  C6  UNL     1      -6.014   3.465  15.949  1.00  0.00     0.189 C 
HETATM   15  C8  UNL     1      -4.335   1.717  16.268  1.00  0.00     0.264 C 
HETATM   16  O1  UNL     1      -6.472   4.627  15.680  1.00  0.00    -0.290 OA
HETATM   17  C7  UNL     1      -6.907   2.416  16.489  1.00  0.00     0.226 C 
HETATM   18  S1  UNL     1      -5.701   1.439  17.407  1.00  0.00     0.171 S 
HETATM   19  O2  UNL     1      -5.466   2.078  18.722  1.00  0.00    -0.226 OA
HETATM   20  O3  UNL     1      -6.074   0.007  17.490  1.00  0.00    -0.226 OA
ATOM     21  H4  UNL     1      -2.815   3.334  15.195  1.00  0.00     0.187 HD
BRANCH  15  22
HETATM   22  C9  UNL     1      -4.451   0.755  15.151  1.00  0.00     0.198 C 
HETATM   23  O4  UNL     1      -4.536  -0.489  15.253  1.00  0.00    -0.647 OA
HETATM   24  O5  UNL     1      -4.474   1.269  13.839  1.00  0.00    -0.647 OA
ENDBRANCH  15  22
ENDBRANCH  10  12
ENDBRANCH   4  10
BRANCH   1  25
HETATM   25  N1  UNL     1      -1.341   9.018  13.533  1.00  0.00    -0.225 N 
HETATM   26  C1  UNL     1      -0.942   9.809  12.388  1.00  0.00     0.168 C 
HETATM   27  C2  UNL     1      -1.579   9.676  14.797  1.00  0.00     0.168 C 
ENDBRANCH   1  25
BRANCH   7  28
HETATM   28  N6  UNL     1       0.026   4.771  11.981  1.00  0.00    -0.234 N 
ATOM     29  H62 UNL     1      -0.144   3.777  11.831  1.00  0.00     0.174 HD
ATOM     30  H61 UNL     1       0.859   5.206  11.583  1.00  0.00     0.174 HD
ENDBRANCH   7  28
TORSDOF 5
ENDMDL
