MODEL 1
REMARK VINA RESULT: -7.882236241      0.000      0.000
REMARK  8 active torsions:
REMARK  status: ('A' for Active; 'I' for Inactive)
REMARK    1  A    between atoms: C3_3  and  C4_4 
REMARK    2  A    between atoms: C4_4  and  C5_6 
REMARK    3  A    between atoms: C5_6  and  O2_7 
REMARK    4  A    between atoms: O2_7  and  C6_8 
REMARK    5  A    between atoms: C6_8  and  C7_10 
REMARK    6  A    between atoms: C10_16  and  N2_17 
REMARK    7  A    between atoms: N4_24  and  O6_25 
REMARK    8  A    between atoms: N5_29  and  O8_30 
ROOT
HETATM    1  C5  UNL     1      -6.029   4.467  13.242  1.00  0.00     0.263 C 
ENDROOT
BRANCH   1   2
HETATM    2  C4  UNL     1      -5.087   4.318  14.380  1.00  0.00     0.191 C 
HETATM    3  O1  UNL     1      -4.155   5.147  14.588  1.00  0.00    -0.290 OA
BRANCH   2   4
HETATM    4  C3  UNL     1      -5.286   3.165  15.254  1.00  0.00     0.107 A 
HETATM    5  C2  UNL     1      -6.083   3.256  16.384  1.00  0.00     0.061 A 
HETATM    6  C1  UNL     1      -6.760   4.530  16.739  1.00  0.00     0.072 C 
HETATM    7  N5  UNL     1      -6.258   2.186  17.181  1.00  0.00    -0.174 N 
HETATM    8  C12 UNL     1      -5.656   0.998  16.891  1.00  0.00     0.380 A 
HETATM    9  N4  UNL     1      -4.874   0.866  15.804  1.00  0.00    -0.131 N 
HETATM   10  O7  UNL     1      -5.820  -0.003  17.635  1.00  0.00    -0.242 OA
HETATM   11  C11 UNL     1      -4.703   1.940  15.011  1.00  0.00     0.291 A 
HETATM   12  O5  UNL     1      -3.968   1.802  13.999  1.00  0.00    -0.265 OA
BRANCH   7  13
HETATM   13  O8  UNL     1      -7.049   2.278  18.301  1.00  0.00    -0.279 OA
ATOM     14  H8  UNL     1      -6.721   1.989  19.144  1.00  0.00     0.245 HD
ENDBRANCH   7  13
BRANCH   9  15
HETATM   15  O6  UNL     1      -4.261  -0.349  15.512  1.00  0.00    -0.276 OA
ATOM     16  H6  UNL     1      -4.001  -0.945  16.203  1.00  0.00     0.245 HD
ENDBRANCH   9  15
ENDBRANCH   2   4
ENDBRANCH   1   2
BRANCH   1  17
HETATM   17  O2  UNL     1      -5.451   5.303  12.231  1.00  0.00    -0.309 OA
BRANCH  17  18
HETATM   18  C6  UNL     1      -4.977   4.735  11.070  1.00  0.00     0.311 C 
HETATM   19  O3  UNL     1      -5.233   5.307   9.981  1.00  0.00    -0.258 OA
BRANCH  18  20
HETATM   20  C7  UNL     1      -4.197   3.503  11.074  1.00  0.00     0.129 A 
HETATM   21  C8  UNL     1      -2.841   3.490  11.317  1.00  0.00     0.111 A 
HETATM   22  C9  UNL     1      -2.151   2.288  11.307  1.00  0.00     0.261 A 
HETATM   23  O4  UNL     1      -0.918   2.268  11.528  1.00  0.00    -0.268 OA
HETATM   24  N1  UNL     1      -2.773   1.104  11.063  1.00  0.00    -0.156 N 
HETATM   25  C10 UNL     1      -4.096   1.162  10.830  1.00  0.00     0.679 A 
ATOM     26  H1  UNL     1      -2.264   0.221  11.058  1.00  0.00     0.187 HD
HETATM   27  N3  UNL     1      -4.783   2.319  10.836  1.00  0.00    -0.186 N 
ATOM     28  H3  UNL     1      -5.786   2.296  10.652  1.00  0.00     0.184 HD
BRANCH  25  29
HETATM   29  N2  UNL     1      -4.717   0.065  10.596  1.00  0.00    -0.234 N 
ATOM     30  H22 UNL     1      -4.600  -0.392   9.691  1.00  0.00     0.174 HD
ATOM     31  H21 UNL     1      -5.312  -0.317  11.330  1.00  0.00     0.174 HD
ENDBRANCH  25  29
ENDBRANCH  18  20
ENDBRANCH  17  18
ENDBRANCH   1  17
TORSDOF 8
ENDMDL
MODEL 2
REMARK VINA RESULT: -7.775520663      1.519      1.974
REMARK  8 active torsions:
REMARK  status: ('A' for Active; 'I' for Inactive)
REMARK    1  A    between atoms: C3_3  and  C4_4 
REMARK    2  A    between atoms: C4_4  and  C5_6 
REMARK    3  A    between atoms: C5_6  and  O2_7 
REMARK    4  A    between atoms: O2_7  and  C6_8 
REMARK    5  A    between atoms: C6_8  and  C7_10 
REMARK    6  A    between atoms: C10_16  and  N2_17 
REMARK    7  A    between atoms: N4_24  and  O6_25 
REMARK    8  A    between atoms: N5_29  and  O8_30 
ROOT
HETATM    1  C5  UNL     1      -6.080   4.731  13.546  1.00  0.00     0.263 C 
ENDROOT
BRANCH   1   2
HETATM    2  C4  UNL     1      -5.057   4.429  14.579  1.00  0.00     0.191 C 
HETATM    3  O1  UNL     1      -4.046   5.169  14.754  1.00  0.00    -0.290 OA
BRANCH   2   4
HETATM    4  C3  UNL     1      -5.272   3.233  15.389  1.00  0.00     0.107 A 
HETATM    5  C2  UNL     1      -6.089   3.267  16.507  1.00  0.00     0.061 A 
HETATM    6  C1  UNL     1      -6.772   4.522  16.915  1.00  0.00     0.072 C 
HETATM    7  N5  UNL     1      -6.279   2.158  17.245  1.00  0.00    -0.174 N 
HETATM    8  C12 UNL     1      -5.671   0.985  16.906  1.00  0.00     0.380 A 
HETATM    9  N4  UNL     1      -4.870   0.909  15.829  1.00  0.00    -0.131 N 
HETATM   10  O7  UNL     1      -5.848  -0.051  17.596  1.00  0.00    -0.242 OA
HETATM   11  C11 UNL     1      -4.684   2.022  15.094  1.00  0.00     0.291 A 
HETATM   12  O5  UNL     1      -3.931   1.935  14.090  1.00  0.00    -0.265 OA
BRANCH   7  13
HETATM   13  O8  UNL     1      -7.090   2.193  18.354  1.00  0.00    -0.279 OA
ATOM     14  H8  UNL     1      -6.947   1.588  19.072  1.00  0.00     0.245 HD
ENDBRANCH   7  13
BRANCH   9  15
HETATM   15  O6  UNL     1      -4.251  -0.290  15.486  1.00  0.00    -0.276 OA
ATOM     16  H6  UNL     1      -4.250  -1.029  16.082  1.00  0.00     0.245 HD
ENDBRANCH   9  15
ENDBRANCH   2   4
ENDBRANCH   1   2
BRANCH   1  17
HETATM   17  O2  UNL     1      -5.771   4.038  12.330  1.00  0.00    -0.309 OA
BRANCH  17  18
HETATM   18  C6  UNL     1      -4.797   4.535  11.494  1.00  0.00     0.311 C 
HETATM   19  O3  UNL     1      -5.110   5.452  10.695  1.00  0.00    -0.258 OA
BRANCH  18  20
HETATM   20  C7  UNL     1      -3.430   4.027  11.513  1.00  0.00     0.129 A 
HETATM   21  C8  UNL     1      -3.097   2.785  11.019  1.00  0.00     0.111 A 
HETATM   22  C9  UNL     1      -1.780   2.356  11.065  1.00  0.00     0.261 A 
HETATM   23  O4  UNL     1      -1.470   1.227  10.617  1.00  0.00    -0.268 OA
HETATM   24  N1  UNL     1      -0.790   3.127  11.585  1.00  0.00    -0.156 N 
HETATM   25  C10 UNL     1      -1.157   4.332  12.057  1.00  0.00     0.679 A 
ATOM     26  H1  UNL     1       0.178   2.809  11.617  1.00  0.00     0.187 HD
HETATM   27  N3  UNL     1      -2.431   4.766  12.021  1.00  0.00    -0.186 N 
ATOM     28  H3  UNL     1      -2.644   5.691  12.395  1.00  0.00     0.184 HD
BRANCH  25  29
HETATM   29  N2  UNL     1      -0.250   5.087  12.556  1.00  0.00    -0.234 N 
ATOM     30  H22 UNL     1       0.730   4.828  12.450  1.00  0.00     0.174 HD
ATOM     31  H21 UNL     1      -0.544   5.931  13.048  1.00  0.00     0.174 HD
ENDBRANCH  25  29
ENDBRANCH  18  20
ENDBRANCH  17  18
ENDBRANCH   1  17
TORSDOF 8
ENDMDL
MODEL 3
REMARK VINA RESULT: -7.605984291      1.794      5.575
REMARK  8 active torsions:
REMARK  status: ('A' for Active; 'I' for Inactive)
REMARK    1  A    between atoms: C3_3  and  C4_4 
REMARK    2  A    between atoms: C4_4  and  C5_6 
REMARK    3  A    between atoms: C5_6  and  O2_7 
REMARK    4  A    between atoms: O2_7  and  C6_8 
REMARK    5  A    between atoms: C6_8  and  C7_10 
REMARK    6  A    between atoms: C10_16  and  N2_17 
REMARK    7  A    between atoms: N4_24  and  O6_25 
REMARK    8  A    between atoms: N5_29  and  O8_30 
ROOT
HETATM    1  C5  UNL     1      -5.104   5.789  12.272  1.00  0.00     0.263 C 
ENDROOT
BRANCH   1   2
HETATM    2  C4  UNL     1      -4.849   5.094  10.985  1.00  0.00     0.191 C 
HETATM    3  O1  UNL     1      -5.317   5.522   9.891  1.00  0.00    -0.290 OA
BRANCH   2   4
HETATM    4  C3  UNL     1      -4.028   3.887  11.039  1.00  0.00     0.107 A 
HETATM    5  C2  UNL     1      -2.648   3.959  10.955  1.00  0.00     0.061 A 
HETATM    6  C1  UNL     1      -1.960   5.268  10.806  1.00  0.00     0.072 C 
HETATM    7  N5  UNL     1      -1.903   2.840  11.006  1.00  0.00    -0.174 N 
HETATM    8  C12 UNL     1      -2.493   1.618  11.142  1.00  0.00     0.380 A 
HETATM    9  N4  UNL     1      -3.830   1.503  11.228  1.00  0.00    -0.131 N 
HETATM   10  O7  UNL     1      -1.797   0.572  11.190  1.00  0.00    -0.242 OA
HETATM   11  C11 UNL     1      -4.570   2.626  11.176  1.00  0.00     0.291 A 
HETATM   12  O5  UNL     1      -5.819   2.502  11.258  1.00  0.00    -0.265 OA
BRANCH   7  13
HETATM   13  O8  UNL     1      -0.533   2.914  10.921  1.00  0.00    -0.279 OA
ATOM     14  H8  UNL     1      -0.014   2.121  10.855  1.00  0.00     0.245 HD
ENDBRANCH   7  13
BRANCH   9  15
HETATM   15  O6  UNL     1      -4.429   0.254  11.367  1.00  0.00    -0.276 OA
ATOM     16  H6  UNL     1      -3.922  -0.507  11.621  1.00  0.00     0.245 HD
ENDBRANCH   9  15
ENDBRANCH   2   4
ENDBRANCH   1   2
BRANCH   1  17
HETATM   17  O2  UNL     1      -6.050   5.046  13.053  1.00  0.00    -0.309 OA
BRANCH  17  18
HETATM   18  C6  UNL     1      -5.982   5.093  14.427  1.00  0.00     0.311 C 
HETATM   19  O3  UNL     1      -6.186   6.194  14.996  1.00  0.00    -0.258 OA
BRANCH  18  20
HETATM   20  C7  UNL     1      -5.681   3.911  15.227  1.00  0.00     0.129 A 
HETATM   21  C8  UNL     1      -4.399   3.433  15.383  1.00  0.00     0.111 A 
HETATM   22  C9  UNL     1      -4.173   2.304  16.155  1.00  0.00     0.261 A 
HETATM   23  O4  UNL     1      -3.009   1.864  16.302  1.00  0.00    -0.268 OA
HETATM   24  N1  UNL     1      -5.186   1.642  16.774  1.00  0.00    -0.156 N 
HETATM   25  C10 UNL     1      -6.422   2.141  16.595  1.00  0.00     0.679 A 
ATOM     26  H1  UNL     1      -5.018   0.812  17.342  1.00  0.00     0.187 HD
HETATM   27  N3  UNL     1      -6.660   3.236  15.849  1.00  0.00    -0.186 N 
ATOM     28  H3  UNL     1      -7.621   3.565  15.753  1.00  0.00     0.184 HD
BRANCH  25  29
HETATM   29  N2  UNL     1      -7.403   1.543  17.163  1.00  0.00    -0.234 N 
ATOM     30  H22 UNL     1      -7.217   0.751  17.778  1.00  0.00     0.174 HD
ATOM     31  H21 UNL     1      -8.346   1.883  16.977  1.00  0.00     0.174 HD
ENDBRANCH  25  29
ENDBRANCH  18  20
ENDBRANCH  17  18
ENDBRANCH   1  17
TORSDOF 8
ENDMDL
MODEL 4
REMARK VINA RESULT: -7.532916727      2.001      5.625
REMARK  8 active torsions:
REMARK  status: ('A' for Active; 'I' for Inactive)
REMARK    1  A    between atoms: C3_3  and  C4_4 
REMARK    2  A    between atoms: C4_4  and  C5_6 
REMARK    3  A    between atoms: C5_6  and  O2_7 
REMARK    4  A    between atoms: O2_7  and  C6_8 
REMARK    5  A    between atoms: C6_8  and  C7_10 
REMARK    6  A    between atoms: C10_16  and  N2_17 
REMARK    7  A    between atoms: N4_24  and  O6_25 
REMARK    8  A    between atoms: N5_29  and  O8_30 
ROOT
HETATM    1  C5  UNL     1      -4.872   6.947  12.614  1.00  0.00     0.263 C 
ENDROOT
BRANCH   1   2
HETATM    2  C4  UNL     1      -3.808   6.753  11.597  1.00  0.00     0.191 C 
HETATM    3  O1  UNL     1      -3.349   7.717  10.919  1.00  0.00    -0.290 OA
BRANCH   2   4
HETATM    4  C3  UNL     1      -3.312   5.392  11.414  1.00  0.00     0.107 A 
HETATM    5  C2  UNL     1      -2.092   5.001  11.940  1.00  0.00     0.061 A 
HETATM    6  C1  UNL     1      -1.251   5.956  12.708  1.00  0.00     0.072 C 
HETATM    7  N5  UNL     1      -1.646   3.744  11.764  1.00  0.00    -0.174 N 
HETATM    8  C12 UNL     1      -2.386   2.835  11.067  1.00  0.00     0.380 A 
HETATM    9  N4  UNL     1      -3.576   3.173  10.538  1.00  0.00    -0.131 N 
HETATM   10  O7  UNL     1      -1.970   1.660  10.902  1.00  0.00    -0.242 OA
HETATM   11  C11 UNL     1      -4.016   4.433  10.718  1.00  0.00     0.291 A 
HETATM   12  O5  UNL     1      -5.131   4.734  10.218  1.00  0.00    -0.265 OA
BRANCH   7  13
HETATM   13  O8  UNL     1      -0.436   3.358  12.288  1.00  0.00    -0.279 OA
ATOM     14  H8  UNL     1      -0.187   2.441  12.295  1.00  0.00     0.245 HD
ENDBRANCH   7  13
BRANCH   9  15
HETATM   15  O6  UNL     1      -4.328   2.243   9.826  1.00  0.00    -0.276 OA
ATOM     16  H6  UNL     1      -3.963   1.788   9.077  1.00  0.00     0.245 HD
ENDBRANCH   9  15
ENDBRANCH   2   4
ENDBRANCH   1   2
BRANCH   1  17
HETATM   17  O2  UNL     1      -4.688   6.029  13.700  1.00  0.00    -0.309 OA
BRANCH  17  18
HETATM   18  C6  UNL     1      -5.650   5.079  13.957  1.00  0.00     0.311 C 
HETATM   19  O3  UNL     1      -6.744   5.159  13.345  1.00  0.00    -0.258 OA
BRANCH  18  20
HETATM   20  C7  UNL     1      -5.434   3.996  14.910  1.00  0.00     0.129 A 
HETATM   21  C8  UNL     1      -4.181   3.490  15.177  1.00  0.00     0.111 A 
HETATM   22  C9  UNL     1      -4.036   2.460  16.093  1.00  0.00     0.261 A 
HETATM   23  O4  UNL     1      -2.899   1.994  16.342  1.00  0.00    -0.268 OA
HETATM   24  N1  UNL     1      -5.100   1.923  16.747  1.00  0.00    -0.156 N 
HETATM   25  C10 UNL     1      -6.304   2.446  16.456  1.00  0.00     0.679 A 
ATOM     26  H1  UNL     1      -4.990   1.166  17.421  1.00  0.00     0.187 HD
HETATM   27  N3  UNL     1      -6.465   3.446  15.570  1.00  0.00    -0.186 N 
ATOM     28  H3  UNL     1      -7.405   3.799  15.394  1.00  0.00     0.184 HD
BRANCH  25  29
HETATM   29  N2  UNL     1      -7.331   1.965  17.053  1.00  0.00    -0.234 N 
ATOM     30  H22 UNL     1      -7.889   1.248  16.589  1.00  0.00     0.174 HD
ATOM     31  H21 UNL     1      -7.558   2.321  17.981  1.00  0.00     0.174 HD
ENDBRANCH  25  29
ENDBRANCH  18  20
ENDBRANCH  17  18
ENDBRANCH   1  17
TORSDOF 8
ENDMDL
MODEL 5
REMARK VINA RESULT: -7.442241772      1.696      2.126
REMARK  8 active torsions:
REMARK  status: ('A' for Active; 'I' for Inactive)
REMARK    1  A    between atoms: C3_3  and  C4_4 
REMARK    2  A    between atoms: C4_4  and  C5_6 
REMARK    3  A    between atoms: C5_6  and  O2_7 
REMARK    4  A    between atoms: O2_7  and  C6_8 
REMARK    5  A    between atoms: C6_8  and  C7_10 
REMARK    6  A    between atoms: C10_16  and  N2_17 
REMARK    7  A    between atoms: N4_24  and  O6_25 
REMARK    8  A    between atoms: N5_29  and  O8_30 
ROOT
HETATM    1  C5  UNL     1      -6.220   4.674  13.517  1.00  0.00     0.263 C 
ENDROOT
BRANCH   1   2
HETATM    2  C4  UNL     1      -5.128   4.368  14.475  1.00  0.00     0.191 C 
HETATM    3  O1  UNL     1      -4.097   5.094  14.567  1.00  0.00    -0.290 OA
BRANCH   2   4
HETATM    4  C3  UNL     1      -5.299   3.183  15.312  1.00  0.00     0.107 A 
HETATM    5  C2  UNL     1      -6.081   3.225  16.455  1.00  0.00     0.061 A 
HETATM    6  C1  UNL     1      -6.770   4.477  16.863  1.00  0.00     0.072 C 
HETATM    7  N5  UNL     1      -6.230   2.127  17.218  1.00  0.00    -0.174 N 
HETATM    8  C12 UNL     1      -5.616   0.958  16.881  1.00  0.00     0.380 A 
HETATM    9  N4  UNL     1      -4.848   0.873  15.779  1.00  0.00    -0.131 N 
HETATM   10  O7  UNL     1      -5.755  -0.069  17.593  1.00  0.00    -0.242 OA
HETATM   11  C11 UNL     1      -4.702   1.975  15.020  1.00  0.00     0.291 A 
HETATM   12  O5  UNL     1      -3.981   1.881  13.994  1.00  0.00    -0.265 OA
BRANCH   7  13
HETATM   13  O8  UNL     1      -7.006   2.170  18.351  1.00  0.00    -0.279 OA
ATOM     14  H8  UNL     1      -6.600   2.216  19.209  1.00  0.00     0.245 HD
ENDBRANCH   7  13
BRANCH   9  15
HETATM   15  O6  UNL     1      -4.222  -0.322  15.438  1.00  0.00    -0.276 OA
ATOM     16  H6  UNL     1      -4.501  -1.147  15.817  1.00  0.00     0.245 HD
ENDBRANCH   9  15
ENDBRANCH   2   4
ENDBRANCH   1   2
BRANCH   1  17
HETATM   17  O2  UNL     1      -5.676   4.921  12.213  1.00  0.00    -0.309 OA
BRANCH  17  18
HETATM   18  C6  UNL     1      -5.023   3.909  11.546  1.00  0.00     0.311 C 
HETATM   19  O3  UNL     1      -5.644   2.838  11.337  1.00  0.00    -0.258 OA
BRANCH  18  20
HETATM   20  C7  UNL     1      -3.647   4.049  11.084  1.00  0.00     0.129 A 
HETATM   21  C8  UNL     1      -3.337   4.439   9.800  1.00  0.00     0.111 A 
HETATM   22  C9  UNL     1      -2.010   4.555   9.417  1.00  0.00     0.261 A 
HETATM   23  O4  UNL     1      -1.720   4.910   8.251  1.00  0.00    -0.268 OA
HETATM   24  N1  UNL     1      -0.989   4.293  10.275  1.00  0.00    -0.156 N 
HETATM   25  C10 UNL     1      -1.335   3.915  11.518  1.00  0.00     0.679 A 
ATOM     26  H1  UNL     1      -0.013   4.380   9.991  1.00  0.00     0.187 HD
HETATM   27  N3  UNL     1      -2.618   3.797  11.908  1.00  0.00    -0.186 N 
ATOM     28  H3  UNL     1      -2.814   3.506  12.866  1.00  0.00     0.184 HD
BRANCH  25  29
HETATM   29  N2  UNL     1      -0.398   3.659  12.354  1.00  0.00    -0.234 N 
ATOM     30  H22 UNL     1       0.286   2.936  12.133  1.00  0.00     0.174 HD
ATOM     31  H21 UNL     1      -0.370   4.194  13.222  1.00  0.00     0.174 HD
ENDBRANCH  25  29
ENDBRANCH  18  20
ENDBRANCH  17  18
ENDBRANCH   1  17
TORSDOF 8
ENDMDL
