MODEL 1
REMARK VINA RESULT: -7.904925370      0.000      0.000
REMARK  6 active torsions:
REMARK  status: ('A' for Active; 'I' for Inactive)
REMARK    1  A    between atoms: C3_5  and  C4_6 
REMARK       I    between atoms: C4_6  and  N2_8 
REMARK    2  A    between atoms: N2_8  and  N3_10 
REMARK    3  A    between atoms: C5_13  and  C6_14 
REMARK    4  A    between atoms: C6_14  and  O3_16 
REMARK    5  A    between atoms: O3_16  and  C7_17 
REMARK    6  A    between atoms: C7_17  and  N4_18 
ROOT
HETATM    1  C6  UNL     1      -4.045   4.004  11.156  1.00  0.00     0.304 C 
HETATM    2  O2  UNL     1      -5.086   4.172  10.400  1.00  0.00    -0.259 OA
ENDROOT
BRANCH   1   3
HETATM    3  C5  UNL     1      -3.479   2.655  11.145  1.00  0.00     0.114 A 
HETATM    4  C3  UNL     1      -2.213   2.161  11.051  1.00  0.00     0.126 A 
HETATM    5  N1  UNL     1      -2.077   0.859  11.075  1.00  0.00    -0.348 N 
HETATM    6  C2  UNL     1      -3.108   0.068  11.184  1.00  0.00     0.048 A 
ATOM      7  H1  UNL     1      -1.143   0.454  11.007  1.00  0.00     0.166 HD
HETATM    8  C1  UNL     1      -3.144  -1.448  11.229  1.00  0.00     0.076 C 
HETATM    9  S1  UNL     1      -4.397   1.172  11.263  1.00  0.00    -0.069 SA
BRANCH   4  10
HETATM   10  C4  UNL     1      -0.988   3.009  10.924  1.00  0.00     0.287 C 
HETATM   11  O1  UNL     1      -0.343   3.093   9.878  1.00  0.00    -0.264 OA
HETATM   12  N2  UNL     1      -0.513   3.768  12.030  1.00  0.00    -0.271 N 
ATOM     13  H2  UNL     1      -1.005   3.741  12.923  1.00  0.00     0.189 HD
BRANCH  12  14
HETATM   14  N3  UNL     1       0.627   4.546  11.879  1.00  0.00    -0.342 N 
ATOM     15  H32 UNL     1       1.326   4.282  11.185  1.00  0.00     0.176 HD
ATOM     16  H31 UNL     1       0.748   5.372  12.466  1.00  0.00     0.176 HD
ENDBRANCH  12  14
ENDBRANCH   4  10
ENDBRANCH   1   3
BRANCH   1  17
HETATM   17  O3  UNL     1      -3.652   5.102  11.829  1.00  0.00    -0.296 OA
BRANCH  17  18
HETATM   18  C7  UNL     1      -4.243   5.485  13.030  1.00  0.00     0.319 C 
BRANCH  18  19
HETATM   19  N4  UNL     1      -4.291   4.458  14.017  1.00  0.00    -0.228 N 
HETATM   20  C8  UNL     1      -5.403   3.785  14.351  1.00  0.00     0.336 A 
HETATM   21  O4  UNL     1      -6.464   4.102  13.733  1.00  0.00    -0.246 OA
HETATM   22  N5  UNL     1      -5.370   2.830  15.292  1.00  0.00    -0.260 N 
HETATM   23  C9  UNL     1      -4.218   2.522  15.926  1.00  0.00     0.332 A 
ATOM     24  H5  UNL     1      -6.226   2.330  15.532  1.00  0.00     0.175 HD
HETATM   25  O5  UNL     1      -4.196   1.627  16.805  1.00  0.00    -0.246 OA
HETATM   26  N6  UNL     1      -3.106   3.175  15.613  1.00  0.00    -0.260 N 
HETATM   27  C10 UNL     1      -3.158   4.134  14.663  1.00  0.00     0.336 A 
ATOM     28  H6  UNL     1      -2.227   2.957  16.082  1.00  0.00     0.175 HD
HETATM   29  O6  UNL     1      -2.084   4.740  14.383  1.00  0.00    -0.246 OA
ENDBRANCH  18  19
ENDBRANCH  17  18
ENDBRANCH   1  17
TORSDOF 6
ENDMDL
MODEL 2
REMARK VINA RESULT: -7.903994300      0.049      1.632
REMARK  6 active torsions:
REMARK  status: ('A' for Active; 'I' for Inactive)
REMARK    1  A    between atoms: C3_5  and  C4_6 
REMARK       I    between atoms: C4_6  and  N2_8 
REMARK    2  A    between atoms: N2_8  and  N3_10 
REMARK    3  A    between atoms: C5_13  and  C6_14 
REMARK    4  A    between atoms: C6_14  and  O3_16 
REMARK    5  A    between atoms: O3_16  and  C7_17 
REMARK    6  A    between atoms: C7_17  and  N4_18 
ROOT
HETATM    1  C6  UNL     1      -4.057   3.988  11.155  1.00  0.00     0.304 C 
HETATM    2  O2  UNL     1      -5.083   4.160  10.380  1.00  0.00    -0.259 OA
ENDROOT
BRANCH   1   3
HETATM    3  C5  UNL     1      -3.491   2.639  11.151  1.00  0.00     0.114 A 
HETATM    4  C3  UNL     1      -2.224   2.146  11.063  1.00  0.00     0.126 A 
HETATM    5  N1  UNL     1      -2.088   0.844  11.091  1.00  0.00    -0.348 N 
HETATM    6  C2  UNL     1      -3.118   0.053  11.198  1.00  0.00     0.048 A 
ATOM      7  H1  UNL     1      -1.153   0.439  11.028  1.00  0.00     0.166 HD
HETATM    8  C1  UNL     1      -3.154  -1.463  11.247  1.00  0.00     0.076 C 
HETATM    9  S1  UNL     1      -4.408   1.157  11.269  1.00  0.00    -0.069 SA
BRANCH   4  10
HETATM   10  C4  UNL     1      -0.998   2.994  10.938  1.00  0.00     0.287 C 
HETATM   11  O1  UNL     1      -0.347   3.073   9.896  1.00  0.00    -0.264 OA
HETATM   12  N2  UNL     1      -0.530   3.759  12.043  1.00  0.00    -0.271 N 
ATOM     13  H2  UNL     1      -1.027   3.736  12.933  1.00  0.00     0.189 HD
BRANCH  12  14
HETATM   14  N3  UNL     1       0.611   4.537  11.895  1.00  0.00    -0.342 N 
ATOM     15  H32 UNL     1       0.664   5.208  11.129  1.00  0.00     0.176 HD
ATOM     16  H31 UNL     1       1.379   4.425  12.556  1.00  0.00     0.176 HD
ENDBRANCH  12  14
ENDBRANCH   4  10
ENDBRANCH   1   3
BRANCH   1  17
HETATM   17  O3  UNL     1      -3.677   5.084  11.840  1.00  0.00    -0.296 OA
BRANCH  17  18
HETATM   18  C7  UNL     1      -4.273   5.447  13.045  1.00  0.00     0.319 C 
BRANCH  18  19
HETATM   19  N4  UNL     1      -4.212   4.446  14.058  1.00  0.00    -0.228 N 
HETATM   20  C8  UNL     1      -3.091   4.108  14.716  1.00  0.00     0.336 A 
HETATM   21  O4  UNL     1      -2.037   4.735  14.397  1.00  0.00    -0.246 OA
HETATM   22  N5  UNL     1      -3.111   3.153  15.657  1.00  0.00    -0.260 N 
HETATM   23  C9  UNL     1      -4.257   2.509  15.968  1.00  0.00     0.332 A 
ATOM     24  H5  UNL     1      -2.250   2.911  16.146  1.00  0.00     0.175 HD
HETATM   25  O5  UNL     1      -4.267   1.618  16.850  1.00  0.00    -0.246 OA
HETATM   26  N6  UNL     1      -5.377   2.826  15.329  1.00  0.00    -0.260 N 
HETATM   27  C10 UNL     1      -5.338   3.790  14.383  1.00  0.00     0.336 A 
ATOM     28  H6  UNL     1      -6.252   2.350  15.548  1.00  0.00     0.175 HD
HETATM   29  O6  UNL     1      -6.419   4.073  13.791  1.00  0.00    -0.246 OA
ENDBRANCH  18  19
ENDBRANCH  17  18
ENDBRANCH   1  17
TORSDOF 6
ENDMDL
MODEL 3
REMARK VINA RESULT: -7.766262519      1.461      1.919
REMARK  6 active torsions:
REMARK  status: ('A' for Active; 'I' for Inactive)
REMARK    1  A    between atoms: C3_5  and  C4_6 
REMARK       I    between atoms: C4_6  and  N2_8 
REMARK    2  A    between atoms: N2_8  and  N3_10 
REMARK    3  A    between atoms: C5_13  and  C6_14 
REMARK    4  A    between atoms: C6_14  and  O3_16 
REMARK    5  A    between atoms: O3_16  and  C7_17 
REMARK    6  A    between atoms: C7_17  and  N4_18 
ROOT
HETATM    1  C6  UNL     1      -4.340   3.316  12.665  1.00  0.00     0.304 C 
HETATM    2  O2  UNL     1      -5.550   3.474  12.225  1.00  0.00    -0.259 OA
ENDROOT
BRANCH   1   3
HETATM    3  C5  UNL     1      -3.625   2.163  12.118  1.00  0.00     0.114 A 
HETATM    4  C3  UNL     1      -2.418   2.002  11.506  1.00  0.00     0.126 A 
HETATM    5  N1  UNL     1      -2.094   0.788  11.137  1.00  0.00    -0.348 N 
HETATM    6  C2  UNL     1      -2.889  -0.223  11.347  1.00  0.00     0.048 A 
ATOM      7  H1  UNL     1      -1.198   0.630  10.676  1.00  0.00     0.166 HD
HETATM    8  C1  UNL     1      -2.684  -1.684  10.994  1.00  0.00     0.076 C 
HETATM    9  S1  UNL     1      -4.211   0.517  12.115  1.00  0.00    -0.069 SA
BRANCH   4  10
HETATM   10  C4  UNL     1      -1.459   3.116  11.234  1.00  0.00     0.287 C 
HETATM   11  O1  UNL     1      -1.154   3.469  10.094  1.00  0.00    -0.264 OA
HETATM   12  N2  UNL     1      -0.850   3.827  12.307  1.00  0.00    -0.271 N 
ATOM     13  H2  UNL     1      -1.063   3.582  13.274  1.00  0.00     0.189 HD
BRANCH  12  14
HETATM   14  N3  UNL     1       0.037   4.857  12.022  1.00  0.00    -0.342 N 
ATOM     15  H32 UNL     1      -0.317   5.807  11.915  1.00  0.00     0.176 HD
ATOM     16  H31 UNL     1       1.030   4.646  11.924  1.00  0.00     0.176 HD
ENDBRANCH  12  14
ENDBRANCH   4  10
ENDBRANCH   1   3
BRANCH   1  17
HETATM   17  O3  UNL     1      -3.937   4.242  13.555  1.00  0.00    -0.296 OA
BRANCH  17  18
HETATM   18  C7  UNL     1      -3.655   3.922  14.880  1.00  0.00     0.319 C 
BRANCH  18  19
HETATM   19  N4  UNL     1      -4.701   3.224  15.553  1.00  0.00    -0.228 N 
HETATM   20  C8  UNL     1      -5.955   3.688  15.681  1.00  0.00     0.336 A 
HETATM   21  O4  UNL     1      -6.196   4.819  15.161  1.00  0.00    -0.246 OA
HETATM   22  N5  UNL     1      -6.887   2.974  16.329  1.00  0.00    -0.260 N 
HETATM   23  C9  UNL     1      -6.588   1.772  16.868  1.00  0.00     0.332 A 
ATOM     24  H5  UNL     1      -7.833   3.343  16.416  1.00  0.00     0.175 HD
HETATM   25  O5  UNL     1      -7.466   1.110  17.472  1.00  0.00    -0.246 OA
HETATM   26  N6  UNL     1      -5.355   1.294  16.754  1.00  0.00    -0.260 N 
HETATM   27  C10 UNL     1      -4.429   2.027  16.098  1.00  0.00     0.336 A 
ATOM     28  H6  UNL     1      -5.110   0.389  17.155  1.00  0.00     0.175 HD
HETATM   29  O6  UNL     1      -3.263   1.548  16.003  1.00  0.00    -0.246 OA
ENDBRANCH  18  19
ENDBRANCH  17  18
ENDBRANCH   1  17
TORSDOF 6
ENDMDL
MODEL 4
REMARK VINA RESULT: -7.653052384      1.415      1.914
REMARK  6 active torsions:
REMARK  status: ('A' for Active; 'I' for Inactive)
REMARK    1  A    between atoms: C3_5  and  C4_6 
REMARK       I    between atoms: C4_6  and  N2_8 
REMARK    2  A    between atoms: N2_8  and  N3_10 
REMARK    3  A    between atoms: C5_13  and  C6_14 
REMARK    4  A    between atoms: C6_14  and  O3_16 
REMARK    5  A    between atoms: O3_16  and  C7_17 
REMARK    6  A    between atoms: C7_17  and  N4_18 
ROOT
HETATM    1  C6  UNL     1      -4.564   3.216  11.180  1.00  0.00     0.304 C 
HETATM    2  O2  UNL     1      -4.689   3.831  10.045  1.00  0.00    -0.259 OA
ENDROOT
BRANCH   1   3
HETATM    3  C5  UNL     1      -3.778   1.983  11.138  1.00  0.00     0.114 A 
HETATM    4  C3  UNL     1      -2.443   1.715  11.071  1.00  0.00     0.126 A 
HETATM    5  N1  UNL     1      -2.089   0.455  11.049  1.00  0.00    -0.348 N 
HETATM    6  C2  UNL     1      -2.973  -0.503  11.089  1.00  0.00     0.048 A 
ATOM      7  H1  UNL     1      -1.099   0.216  11.000  1.00  0.00     0.166 HD
HETATM    8  C1  UNL     1      -2.753  -2.003  11.073  1.00  0.00     0.076 C 
HETATM    9  S1  UNL     1      -4.433   0.364  11.163  1.00  0.00    -0.069 SA
BRANCH   4  10
HETATM   10  C4  UNL     1      -1.377   2.762  11.023  1.00  0.00     0.287 C 
HETATM   11  O1  UNL     1      -0.779   3.055   9.987  1.00  0.00    -0.264 OA
HETATM   12  N2  UNL     1      -1.007   3.475  12.197  1.00  0.00    -0.271 N 
ATOM     13  H2  UNL     1      -1.467   3.278  13.086  1.00  0.00     0.189 HD
BRANCH  12  14
HETATM   14  N3  UNL     1      -0.013   4.442  12.120  1.00  0.00    -0.342 N 
ATOM     15  H32 UNL     1       0.253   4.815  11.209  1.00  0.00     0.176 HD
ATOM     16  H31 UNL     1       0.436   4.765  12.976  1.00  0.00     0.176 HD
ENDBRANCH  12  14
ENDBRANCH   4  10
ENDBRANCH   1   3
BRANCH   1  17
HETATM   17  O3  UNL     1      -5.180   3.815  12.218  1.00  0.00    -0.296 OA
BRANCH  17  18
HETATM   18  C7  UNL     1      -4.509   4.126  13.397  1.00  0.00     0.319 C 
BRANCH  18  19
HETATM   19  N4  UNL     1      -5.071   3.535  14.567  1.00  0.00    -0.228 N 
HETATM   20  C8  UNL     1      -4.723   2.329  15.044  1.00  0.00     0.336 A 
HETATM   21  O4  UNL     1      -3.836   1.698  14.394  1.00  0.00    -0.246 OA
HETATM   22  N5  UNL     1      -5.297   1.839  16.152  1.00  0.00    -0.260 N 
HETATM   23  C9  UNL     1      -6.238   2.544  16.815  1.00  0.00     0.332 A 
ATOM     24  H5  UNL     1      -5.019   0.920  16.498  1.00  0.00     0.175 HD
HETATM   25  O5  UNL     1      -6.770   2.078  17.851  1.00  0.00    -0.246 OA
HETATM   26  N6  UNL     1      -6.599   3.738  16.362  1.00  0.00    -0.260 N 
HETATM   27  C10 UNL     1      -6.010   4.217  15.244  1.00  0.00     0.336 A 
ATOM     28  H6  UNL     1      -7.309   4.285  16.848  1.00  0.00     0.175 HD
HETATM   29  O6  UNL     1      -6.371   5.357  14.834  1.00  0.00    -0.246 OA
ENDBRANCH  18  19
ENDBRANCH  17  18
ENDBRANCH   1  17
TORSDOF 6
ENDMDL
MODEL 5
REMARK VINA RESULT: -7.506294981      2.289      5.335
REMARK  6 active torsions:
REMARK  status: ('A' for Active; 'I' for Inactive)
REMARK    1  A    between atoms: C3_5  and  C4_6 
REMARK       I    between atoms: C4_6  and  N2_8 
REMARK    2  A    between atoms: N2_8  and  N3_10 
REMARK    3  A    between atoms: C5_13  and  C6_14 
REMARK    4  A    between atoms: C6_14  and  O3_16 
REMARK    5  A    between atoms: O3_16  and  C7_17 
REMARK    6  A    between atoms: C7_17  and  N4_18 
ROOT
HETATM    1  C6  UNL     1      -3.028   4.466  14.205  1.00  0.00     0.304 C 
HETATM    2  O2  UNL     1      -1.842   4.407  14.730  1.00  0.00    -0.259 OA
ENDROOT
BRANCH   1   3
HETATM    3  C5  UNL     1      -4.081   3.798  14.969  1.00  0.00     0.114 A 
HETATM    4  C3  UNL     1      -5.381   4.095  15.248  1.00  0.00     0.126 A 
HETATM    5  N1  UNL     1      -6.043   3.241  15.986  1.00  0.00    -0.348 N 
HETATM    6  C2  UNL     1      -5.485   2.152  16.435  1.00  0.00     0.048 A 
ATOM      7  H1  UNL     1      -7.019   3.431  16.214  1.00  0.00     0.166 HD
HETATM    8  C1  UNL     1      -6.089   1.057  17.294  1.00  0.00     0.076 C 
HETATM    9  S1  UNL     1      -3.910   2.276  15.811  1.00  0.00    -0.069 SA
BRANCH   4  10
HETATM   10  C4  UNL     1      -6.083   5.325  14.766  1.00  0.00     0.287 C 
HETATM   11  O1  UNL     1      -6.360   6.267  15.509  1.00  0.00    -0.264 OA
HETATM   12  N2  UNL     1      -6.465   5.454  13.401  1.00  0.00    -0.271 N 
ATOM     13  H2  UNL     1      -6.262   4.708  12.737  1.00  0.00     0.189 HD
BRANCH  12  14
HETATM   14  N3  UNL     1      -7.115   6.608  12.985  1.00  0.00    -0.342 N 
ATOM     15  H32 UNL     1      -7.082   6.875  12.002  1.00  0.00     0.176 HD
ATOM     16  H31 UNL     1      -7.617   7.172  13.671  1.00  0.00     0.176 HD
ENDBRANCH  12  14
ENDBRANCH   4  10
ENDBRANCH   1   3
BRANCH   1  17
HETATM   17  O3  UNL     1      -3.096   5.137  13.040  1.00  0.00    -0.296 OA
BRANCH  17  18
HETATM   18  C7  UNL     1      -2.640   4.590  11.843  1.00  0.00     0.319 C 
BRANCH  18  19
HETATM   19  N4  UNL     1      -3.280   3.371  11.472  1.00  0.00    -0.228 N 
HETATM   20  C8  UNL     1      -4.564   3.280  11.092  1.00  0.00     0.336 A 
HETATM   21  O4  UNL     1      -5.227   4.361  11.070  1.00  0.00    -0.246 OA
HETATM   22  N5  UNL     1      -5.097   2.096  10.757  1.00  0.00    -0.260 N 
HETATM   23  C9  UNL     1      -4.356   0.967  10.792  1.00  0.00     0.332 A 
ATOM     24  H5  UNL     1      -6.075   2.047  10.471  1.00  0.00     0.175 HD
HETATM   25  O5  UNL     1      -4.862  -0.136  10.476  1.00  0.00    -0.246 OA
HETATM   26  N6  UNL     1      -3.084   1.033  11.165  1.00  0.00    -0.260 N 
HETATM   27  C10 UNL     1      -2.564   2.235  11.500  1.00  0.00     0.336 A 
ATOM     28  H6  UNL     1      -2.509   0.192  11.200  1.00  0.00     0.175 HD
HETATM   29  O6  UNL     1      -1.350   2.270  11.851  1.00  0.00    -0.246 OA
ENDBRANCH  18  19
ENDBRANCH  17  18
ENDBRANCH   1  17
TORSDOF 6
ENDMDL
