MODEL 1
REMARK VINA RESULT: -7.356766326      0.000      0.000
REMARK  6 active torsions:
REMARK  status: ('A' for Active; 'I' for Inactive)
REMARK    1  A    between atoms: N1_1  and  C1_4 
REMARK    2  A    between atoms: N4_9  and  C2_10 
REMARK    3  A    between atoms: C4_14  and  S1_15 
REMARK    4  A    between atoms: S1_15  and  N6_16 
REMARK    5  A    between atoms: N8_22  and  C5_23 
REMARK    6  A    between atoms: C5_23  and  N9_24 
ROOT
HETATM    1  C2  UNL     1      -4.077   3.413  14.259  1.00  0.00     0.187 A 
HETATM    2  N5  UNL     1      -3.805   2.448  13.370  1.00  0.00    -0.333 N 
ATOM      3  H5  UNL     1      -4.267   1.546  13.486  1.00  0.00     0.168 HD
HETATM    4  C3  UNL     1      -2.960   2.595  12.335  1.00  0.00     0.102 A 
HETATM    5  C4  UNL     1      -2.557   1.744  11.330  1.00  0.00     0.165 A 
HETATM    6  N7  UNL     1      -1.692   2.442  10.569  1.00  0.00    -0.281 N 
ATOM      7  H7  UNL     1      -1.220   2.079   9.741  1.00  0.00     0.188 HD
HETATM    8  N8  UNL     1      -1.544   3.663  11.048  1.00  0.00    -0.254 N 
HETATM    9  C10 UNL     1      -2.311   3.797  12.140  1.00  0.00     0.089 A 
HETATM   10  C11 UNL     1      -2.581   4.804  13.048  1.00  0.00     0.080 A 
HETATM   11  C12 UNL     1      -3.460   4.638  14.117  1.00  0.00     0.166 A 
HETATM   12  F1  UNL     1      -3.704   5.636  14.988  1.00  0.00    -0.202 F 
ENDROOT
BRANCH   1  13
HETATM   13  N4  UNL     1      -4.969   3.248  15.346  1.00  0.00    -0.147 N 
HETATM   14  N3  UNL     1      -6.109   3.903  15.484  1.00  0.00    -0.205 N 
HETATM   15  N2  UNL     1      -6.731   3.552  16.583  1.00  0.00    -0.115 N 
ATOM     16  H3  UNL     1      -6.460   4.594  14.821  1.00  0.00     0.211 HD
HETATM   17  C1  UNL     1      -5.962   2.624  17.191  1.00  0.00     0.708 A 
ATOM     18  H2  UNL     1      -7.626   3.911  16.915  1.00  0.00     0.207 HD
HETATM   19  N11 UNL     1      -4.888   2.465  16.398  1.00  0.00    -0.107 N 
ATOM     20  H11 UNL     1      -4.117   1.824  16.587  1.00  0.00     0.208 HD
BRANCH  17  21
HETATM   21  N1  UNL     1      -6.237   2.023  18.319  1.00  0.00    -0.232 N 
ATOM     22  H12 UNL     1      -7.142   1.920  18.779  1.00  0.00     0.174 HD
ATOM     23  H11 UNL     1      -5.564   1.553  18.925  1.00  0.00     0.174 HD
ENDBRANCH  17  21
ENDBRANCH   1  13
BRANCH   5  24
HETATM   24  S1  UNL     1      -3.063   0.102  11.090  1.00  0.00     0.165 S 
HETATM   25  O1  UNL     1      -3.604  -0.113   9.510  1.00  0.00    -0.229 OA
BRANCH  24  26
HETATM   26  N6  UNL     1      -4.323  -0.369  12.160  1.00  0.00    -0.344 NA
ATOM     27  H62 UNL     1      -5.031   0.364  12.163  1.00  0.00     0.166 HD
ATOM     28  H61 UNL     1      -3.992  -0.542  13.110  1.00  0.00     0.166 HD
ENDBRANCH  24  26
ENDBRANCH   5  24
BRANCH   8  29
HETATM   29  C5  UNL     1      -0.694   4.683  10.507  1.00  0.00     0.178 C 
BRANCH  29  30
HETATM   30  N9  UNL     1       0.658   4.665  10.946  1.00  0.00    -0.275 NA
HETATM   31  C6  UNL     1       1.139   5.873  11.525  1.00  0.00     0.123 C 
HETATM   32  C7  UNL     1       2.621   5.725  11.872  1.00  0.00     0.247 C 
HETATM   33  N10 UNL     1       3.433   5.463  10.725  1.00  0.00    -0.073 N 
HETATM   34  C8  UNL     1       2.610   5.239   9.579  1.00  0.00     0.247 C 
ATOM     35 2H10 UNL     1       4.117   6.202  10.565  1.00  0.00     0.277 HD
ATOM     36 1H10 UNL     1       4.082   4.692  10.885  1.00  0.00     0.277 HD
HETATM   37  C9  UNL     1       1.494   4.241   9.846  1.00  0.00     0.123 C 
ENDBRANCH  29  30
ENDBRANCH   8  29
TORSDOF 6
ENDMDL
MODEL 2
REMARK VINA RESULT: -7.201370057      3.874      5.902
REMARK  6 active torsions:
REMARK  status: ('A' for Active; 'I' for Inactive)
REMARK    1  A    between atoms: N1_1  and  C1_4 
REMARK    2  A    between atoms: N4_9  and  C2_10 
REMARK    3  A    between atoms: C4_14  and  S1_15 
REMARK    4  A    between atoms: S1_15  and  N6_16 
REMARK    5  A    between atoms: N8_22  and  C5_23 
REMARK    6  A    between atoms: C5_23  and  N9_24 
ROOT
HETATM    1  C2  UNL     1      -3.935   1.100  12.392  1.00  0.00     0.187 A 
HETATM    2  N5  UNL     1      -4.372   1.300  13.643  1.00  0.00    -0.333 N 
ATOM      3  H5  UNL     1      -4.340   0.515  14.293  1.00  0.00     0.168 HD
HETATM    4  C3  UNL     1      -4.848   2.474  14.094  1.00  0.00     0.102 A 
HETATM    5  C4  UNL     1      -5.332   2.877  15.319  1.00  0.00     0.165 A 
HETATM    6  N7  UNL     1      -5.666   4.174  15.184  1.00  0.00    -0.281 N 
ATOM      7  H7  UNL     1      -6.055   4.756  15.926  1.00  0.00     0.188 HD
HETATM    8  N8  UNL     1      -5.417   4.585  13.955  1.00  0.00    -0.254 N 
HETATM    9  C10 UNL     1      -4.911   3.563  13.249  1.00  0.00     0.089 A 
HETATM   10  C11 UNL     1      -4.464   3.373  11.955  1.00  0.00     0.080 A 
HETATM   11  C12 UNL     1      -3.971   2.151  11.500  1.00  0.00     0.166 A 
HETATM   12  F1  UNL     1      -3.543   1.993  10.234  1.00  0.00    -0.202 F 
ENDROOT
BRANCH   1  13
HETATM   13  N4  UNL     1      -3.434  -0.141  11.927  1.00  0.00    -0.147 N 
HETATM   14  N3  UNL     1      -2.254  -0.303  11.353  1.00  0.00    -0.205 N 
HETATM   15  N2  UNL     1      -2.053  -1.555  11.024  1.00  0.00    -0.115 N 
ATOM     16  H3  UNL     1      -1.586   0.449  11.188  1.00  0.00     0.211 HD
HETATM   17  C1  UNL     1      -3.152  -2.243  11.399  1.00  0.00     0.708 A 
ATOM     18  H2  UNL     1      -1.223  -1.938  10.570  1.00  0.00     0.207 HD
HETATM   19  N11 UNL     1      -3.978  -1.337  11.951  1.00  0.00    -0.107 N 
ATOM     20  H11 UNL     1      -4.899  -1.549  12.336  1.00  0.00     0.208 HD
BRANCH  17  21
HETATM   21  N1  UNL     1      -3.341  -3.528  11.243  1.00  0.00    -0.232 N 
ATOM     22  H12 UNL     1      -3.128  -4.107  10.431  1.00  0.00     0.174 HD
ATOM     23  H11 UNL     1      -3.743  -4.160  11.936  1.00  0.00     0.174 HD
ENDBRANCH  17  21
ENDBRANCH   1  13
BRANCH   5  24
HETATM   24  S1  UNL     1      -5.479   1.908  16.750  1.00  0.00     0.165 S 
HETATM   25  O1  UNL     1      -4.195   0.822  16.850  1.00  0.00    -0.229 OA
BRANCH  24  26
HETATM   26  N6  UNL     1      -6.947   1.014  16.802  1.00  0.00    -0.344 NA
ATOM     27  H62 UNL     1      -7.163   0.700  15.856  1.00  0.00     0.166 HD
ATOM     28  H61 UNL     1      -7.725   1.553  17.180  1.00  0.00     0.166 HD
ENDBRANCH  24  26
ENDBRANCH   5  24
BRANCH   8  29
HETATM   29  C5  UNL     1      -5.658   5.902  13.441  1.00  0.00     0.178 C 
BRANCH  29  30
HETATM   30  N9  UNL     1      -4.544   6.785  13.445  1.00  0.00    -0.275 NA
HETATM   31  C6  UNL     1      -3.835   6.895  12.216  1.00  0.00     0.123 C 
HETATM   32  C7  UNL     1      -2.625   7.812  12.398  1.00  0.00     0.247 C 
HETATM   33  N10 UNL     1      -1.698   7.318  13.369  1.00  0.00    -0.073 N 
HETATM   34  C8  UNL     1      -2.243   6.178  14.034  1.00  0.00     0.247 C 
ATOM     35 2H10 UNL     1      -0.786   7.121  12.959  1.00  0.00     0.277 HD
ATOM     36 1H10 UNL     1      -1.413   8.044  14.027  1.00  0.00     0.277 HD
HETATM   37  C9  UNL     1      -3.662   6.411  14.527  1.00  0.00     0.123 C 
ENDBRANCH  29  30
ENDBRANCH   8  29
TORSDOF 6
ENDMDL
MODEL 3
REMARK VINA RESULT: -7.185668935      1.451      7.311
REMARK  6 active torsions:
REMARK  status: ('A' for Active; 'I' for Inactive)
REMARK    1  A    between atoms: N1_1  and  C1_4 
REMARK    2  A    between atoms: N4_9  and  C2_10 
REMARK    3  A    between atoms: C4_14  and  S1_15 
REMARK    4  A    between atoms: S1_15  and  N6_16 
REMARK    5  A    between atoms: N8_22  and  C5_23 
REMARK    6  A    between atoms: C5_23  and  N9_24 
ROOT
HETATM    1  C2  UNL     1      -1.126   4.697  12.066  1.00  0.00     0.187 A 
HETATM    2  N5  UNL     1      -1.775   3.571  11.737  1.00  0.00    -0.333 N 
ATOM      3  H5  UNL     1      -1.369   2.977  11.014  1.00  0.00     0.168 HD
HETATM    4  C3  UNL     1      -2.930   3.178  12.301  1.00  0.00     0.102 A 
HETATM    5  C4  UNL     1      -3.736   2.077  12.109  1.00  0.00     0.165 A 
HETATM    6  N7  UNL     1      -4.768   2.211  12.963  1.00  0.00    -0.281 N 
ATOM      7  H7  UNL     1      -5.537   1.548  13.057  1.00  0.00     0.188 HD
HETATM    8  N8  UNL     1      -4.641   3.324  13.662  1.00  0.00    -0.254 N 
HETATM    9  C10 UNL     1      -3.517   3.950  13.282  1.00  0.00     0.089 A 
HETATM   10  C11 UNL     1      -2.860   5.115  13.634  1.00  0.00     0.080 A 
HETATM   11  C12 UNL     1      -1.662   5.511  13.041  1.00  0.00     0.166 A 
HETATM   12  F1  UNL     1      -1.043   6.650  13.402  1.00  0.00    -0.202 F 
ENDROOT
BRANCH   1  13
HETATM   13  N4  UNL     1       0.091   5.102  11.466  1.00  0.00    -0.147 N 
HETATM   14  N3  UNL     1       0.180   5.726  10.303  1.00  0.00    -0.205 N 
HETATM   15  N2  UNL     1       1.427   5.979   9.993  1.00  0.00    -0.115 N 
ATOM     16  H3  UNL     1      -0.620   5.976   9.722  1.00  0.00     0.211 HD
HETATM   17  C1  UNL     1       2.189   5.500  10.999  1.00  0.00     0.708 A 
ATOM     18  H2  UNL     1       1.760   6.450   9.151  1.00  0.00     0.207 HD
HETATM   19  N11 UNL     1       1.329   4.969  11.885  1.00  0.00    -0.107 N 
ATOM     20  H11 UNL     1       1.600   4.524  12.762  1.00  0.00     0.208 HD
BRANCH  17  21
HETATM   21  N1  UNL     1       3.493   5.559  11.065  1.00  0.00    -0.232 N 
ATOM     22  H12 UNL     1       4.164   5.659  10.303  1.00  0.00     0.174 HD
ATOM     23  H11 UNL     1       4.050   5.511  11.919  1.00  0.00     0.174 HD
ENDBRANCH  17  21
ENDBRANCH   1  13
BRANCH   5  24
HETATM   24  S1  UNL     1      -3.473   0.776  10.992  1.00  0.00     0.165 S 
HETATM   25  O1  UNL     1      -1.983   0.960  10.229  1.00  0.00    -0.229 OA
BRANCH  24  26
HETATM   26  N6  UNL     1      -4.690   0.681   9.782  1.00  0.00    -0.344 NA
ATOM     27  H62 UNL     1      -4.235   0.681   8.869  1.00  0.00     0.166 HD
ATOM     28  H61 UNL     1      -5.364   1.444   9.838  1.00  0.00     0.166 HD
ENDBRANCH  24  26
ENDBRANCH   5  24
BRANCH   8  29
HETATM   29  C5  UNL     1      -5.556   3.804  14.657  1.00  0.00     0.178 C 
BRANCH  29  30
HETATM   30  N9  UNL     1      -5.505   3.149  15.916  1.00  0.00    -0.275 NA
HETATM   31  C6  UNL     1      -5.002   1.817  15.905  1.00  0.00     0.123 C 
HETATM   32  C7  UNL     1      -5.083   1.221  17.310  1.00  0.00     0.247 C 
HETATM   33  N10 UNL     1      -6.423   1.154  17.805  1.00  0.00    -0.073 N 
HETATM   34  C8  UNL     1      -7.312   1.825  16.912  1.00  0.00     0.247 C 
ATOM     35 2H10 UNL     1      -6.715   0.194  17.985  1.00  0.00     0.277 HD
ATOM     36 1H10 UNL     1      -6.496   1.513  18.757  1.00  0.00     0.277 HD
HETATM   37  C9  UNL     1      -6.816   3.208  16.521  1.00  0.00     0.123 C 
ENDBRANCH  29  30
ENDBRANCH   8  29
TORSDOF 6
ENDMDL
MODEL 4
REMARK VINA RESULT: -7.102001648      4.080      6.052
REMARK  6 active torsions:
REMARK  status: ('A' for Active; 'I' for Inactive)
REMARK    1  A    between atoms: N1_1  and  C1_4 
REMARK    2  A    between atoms: N4_9  and  C2_10 
REMARK    3  A    between atoms: C4_14  and  S1_15 
REMARK    4  A    between atoms: S1_15  and  N6_16 
REMARK    5  A    between atoms: N8_22  and  C5_23 
REMARK    6  A    between atoms: C5_23  and  N9_24 
ROOT
HETATM    1  C2  UNL     1      -3.921   1.034  12.347  1.00  0.00     0.187 A 
HETATM    2  N5  UNL     1      -4.334   1.252  13.603  1.00  0.00    -0.333 N 
ATOM      3  H5  UNL     1      -4.286   0.477  14.265  1.00  0.00     0.168 HD
HETATM    4  C3  UNL     1      -4.809   2.430  14.044  1.00  0.00     0.102 A 
HETATM    5  C4  UNL     1      -5.271   2.850  15.272  1.00  0.00     0.165 A 
HETATM    6  N7  UNL     1      -5.615   4.143  15.123  1.00  0.00    -0.281 N 
ATOM      7  H7  UNL     1      -5.993   4.735  15.863  1.00  0.00     0.188 HD
HETATM    8  N8  UNL     1      -5.392   4.536  13.883  1.00  0.00    -0.254 N 
HETATM    9  C10 UNL     1      -4.893   3.505  13.184  1.00  0.00     0.089 A 
HETATM   10  C11 UNL     1      -4.471   3.297  11.884  1.00  0.00     0.080 A 
HETATM   11  C12 UNL     1      -3.980   2.070  11.439  1.00  0.00     0.166 A 
HETATM   12  F1  UNL     1      -3.576   1.894  10.168  1.00  0.00    -0.202 F 
ENDROOT
BRANCH   1  13
HETATM   13  N4  UNL     1      -3.422  -0.211  11.892  1.00  0.00    -0.147 N 
HETATM   14  N3  UNL     1      -2.244  -0.380  11.315  1.00  0.00    -0.205 N 
HETATM   15  N2  UNL     1      -2.045  -1.635  10.997  1.00  0.00    -0.115 N 
ATOM     16  H3  UNL     1      -1.577   0.371  11.139  1.00  0.00     0.211 HD
HETATM   17  C1  UNL     1      -3.142  -2.319  11.384  1.00  0.00     0.708 A 
ATOM     18  H2  UNL     1      -1.217  -2.022  10.544  1.00  0.00     0.207 HD
HETATM   19  N11 UNL     1      -3.965  -1.407  11.930  1.00  0.00    -0.107 N 
ATOM     20  H11 UNL     1      -4.885  -1.615  12.321  1.00  0.00     0.208 HD
BRANCH  17  21
HETATM   21  N1  UNL     1      -3.331  -3.605  11.242  1.00  0.00    -0.232 N 
ATOM     22  H12 UNL     1      -4.168  -4.092  10.921  1.00  0.00     0.174 HD
ATOM     23  H11 UNL     1      -2.646  -4.334  11.440  1.00  0.00     0.174 HD
ENDBRANCH  17  21
ENDBRANCH   1  13
BRANCH   5  24
HETATM   24  S1  UNL     1      -5.384   1.904  16.721  1.00  0.00     0.165 S 
HETATM   25  O1  UNL     1      -4.113   0.801  16.795  1.00  0.00    -0.229 OA
BRANCH  24  26
HETATM   26  N6  UNL     1      -6.861   1.031  16.833  1.00  0.00    -0.344 NA
ATOM     27  H62 UNL     1      -6.641   0.047  16.987  1.00  0.00     0.166 HD
ATOM     28  H61 UNL     1      -7.445   1.133  16.002  1.00  0.00     0.166 HD
ENDBRANCH  24  26
ENDBRANCH   5  24
BRANCH   8  29
HETATM   29  C5  UNL     1      -5.650   5.843  13.353  1.00  0.00     0.178 C 
BRANCH  29  30
HETATM   30  N9  UNL     1      -4.618   6.406  12.555  1.00  0.00    -0.275 NA
HETATM   31  C6  UNL     1      -3.661   7.199  13.247  1.00  0.00     0.123 C 
HETATM   32  C7  UNL     1      -2.668   7.798  12.250  1.00  0.00     0.247 C 
HETATM   33  N10 UNL     1      -3.295   8.650  11.290  1.00  0.00    -0.073 N 
HETATM   34  C8  UNL     1      -4.716   8.577  11.419  1.00  0.00     0.247 C 
ATOM     35 2H10 UNL     1      -2.956   9.610  11.352  1.00  0.00     0.277 HD
ATOM     36 1H10 UNL     1      -2.987   8.445  10.339  1.00  0.00     0.277 HD
HETATM   37  C9  UNL     1      -5.224   7.145  11.471  1.00  0.00     0.123 C 
ENDBRANCH  29  30
ENDBRANCH   8  29
TORSDOF 6
ENDMDL
MODEL 5
REMARK VINA RESULT: -7.016896460      1.917      2.416
REMARK  6 active torsions:
REMARK  status: ('A' for Active; 'I' for Inactive)
REMARK    1  A    between atoms: N1_1  and  C1_4 
REMARK    2  A    between atoms: N4_9  and  C2_10 
REMARK    3  A    between atoms: C4_14  and  S1_15 
REMARK    4  A    between atoms: S1_15  and  N6_16 
REMARK    5  A    between atoms: N8_22  and  C5_23 
REMARK    6  A    between atoms: C5_23  and  N9_24 
ROOT
HETATM    1  C2  UNL     1      -4.093   3.099  13.940  1.00  0.00     0.187 A 
HETATM    2  N5  UNL     1      -3.909   2.035  13.145  1.00  0.00    -0.333 N 
ATOM      3  H5  UNL     1      -4.450   1.192  13.340  1.00  0.00     0.168 HD
HETATM    4  C3  UNL     1      -3.055   2.011  12.108  1.00  0.00     0.102 A 
HETATM    5  C4  UNL     1      -2.730   1.038  11.188  1.00  0.00     0.165 A 
HETATM    6  N7  UNL     1      -1.807   1.583  10.373  1.00  0.00    -0.281 N 
ATOM      7  H7  UNL     1      -1.370   1.105   9.585  1.00  0.00     0.188 HD
HETATM    8  N8  UNL     1      -1.550   2.825  10.739  1.00  0.00    -0.254 N 
HETATM    9  C10 UNL     1      -2.302   3.127  11.808  1.00  0.00     0.089 A 
HETATM   10  C11 UNL     1      -2.480   4.233  12.618  1.00  0.00     0.080 A 
HETATM   11  C12 UNL     1      -3.370   4.246  13.691  1.00  0.00     0.166 A 
HETATM   12  F1  UNL     1      -3.524   5.337  14.464  1.00  0.00    -0.202 F 
ENDROOT
BRANCH   1  13
HETATM   13  N4  UNL     1      -4.996   3.114  15.031  1.00  0.00    -0.147 N 
HETATM   14  N3  UNL     1      -6.043   3.916  15.124  1.00  0.00    -0.205 N 
HETATM   15  N2  UNL     1      -6.701   3.714  16.239  1.00  0.00    -0.115 N 
ATOM     16  H3  UNL     1      -6.305   4.605  14.419  1.00  0.00     0.211 HD
HETATM   17  C1  UNL     1      -6.054   2.734  16.905  1.00  0.00     0.708 A 
ATOM     18  H2  UNL     1      -7.542   4.203  16.545  1.00  0.00     0.207 HD
HETATM   19  N11 UNL     1      -5.012   2.392  16.129  1.00  0.00    -0.107 N 
ATOM     20  H11 UNL     1      -4.327   1.671  16.359  1.00  0.00     0.208 HD
BRANCH  17  21
HETATM   21  N1  UNL     1      -6.400   2.242  18.066  1.00  0.00    -0.232 N 
ATOM     22  H12 UNL     1      -7.325   1.948  18.381  1.00  0.00     0.174 HD
ATOM     23  H11 UNL     1      -5.774   2.076  18.855  1.00  0.00     0.174 HD
ENDBRANCH  17  21
ENDBRANCH   1  13
BRANCH   5  24
HETATM   24  S1  UNL     1      -3.380  -0.568  11.097  1.00  0.00     0.165 S 
HETATM   25  O1  UNL     1      -4.617  -0.758  12.225  1.00  0.00    -0.229 OA
BRANCH  24  26
HETATM   26  N6  UNL     1      -2.198  -1.783  11.383  1.00  0.00    -0.344 NA
ATOM     27  H62 UNL     1      -2.307  -2.509  10.675  1.00  0.00     0.166 HD
ATOM     28  H61 UNL     1      -2.266  -2.189  12.316  1.00  0.00     0.166 HD
ENDBRANCH  24  26
ENDBRANCH   5  24
BRANCH   8  29
HETATM   29  C5  UNL     1      -0.613   3.711  10.113  1.00  0.00     0.178 C 
BRANCH  29  30
HETATM   30  N9  UNL     1      -0.853   4.005   8.744  1.00  0.00    -0.275 NA
HETATM   31  C6  UNL     1       0.305   4.165   7.931  1.00  0.00     0.123 C 
HETATM   32  C7  UNL     1      -0.110   4.554   6.511  1.00  0.00     0.247 C 
HETATM   33  N10 UNL     1      -0.824   5.792   6.464  1.00  0.00    -0.073 N 
HETATM   34  C8  UNL     1      -1.107   6.248   7.788  1.00  0.00     0.247 C 
ATOM     35 2H10 UNL     1      -0.332   6.496   5.915  1.00  0.00     0.277 HD
ATOM     36 1H10 UNL     1      -1.669   5.723   5.896  1.00  0.00     0.277 HD
HETATM   37  C9  UNL     1      -1.713   5.163   8.664  1.00  0.00     0.123 C 
ENDBRANCH  29  30
ENDBRANCH   8  29
TORSDOF 6
ENDMDL
