MODEL 1
REMARK VINA RESULT: -6.461323609      0.000      0.000
REMARK  7 active torsions:
REMARK  status: ('A' for Active; 'I' for Inactive)
REMARK    1  A    between atoms: C2_2  and  C5_18 
REMARK    2  A    between atoms: N1_3  and  N2_5 
REMARK    3  A    between atoms: C3_6  and  O1_7 
REMARK    4  A    between atoms: N4_13  and  N5_15 
REMARK    5  A    between atoms: C6_19  and  N6_20 
REMARK    6  A    between atoms: C10_25  and  C11_26 
REMARK    7  A    between atoms: C11_26  and  O2_27 
ROOT
HETATM    1  C5  UNL     1      -2.674   3.253  11.572  1.00  0.00     0.102 A 
HETATM    2  C6  UNL     1      -3.692   3.566  12.404  1.00  0.00     0.137 A 
HETATM    3  N7  UNL     1      -4.510   2.531  12.813  1.00  0.00    -0.270 N 
ATOM      4  H7  UNL     1      -5.280   2.755  13.443  1.00  0.00     0.190 HD
HETATM    5  N8  UNL     1      -4.366   1.292  12.452  1.00  0.00    -0.238 N 
ATOM      6  H8  UNL     1      -5.014   0.585  12.801  1.00  0.00     0.208 HD
HETATM    7  N9  UNL     1      -3.399   0.942  11.647  1.00  0.00    -0.251 N 
ATOM      8  H9  UNL     1      -3.281  -0.029  11.358  1.00  0.00     0.192 HD
HETATM    9  C12 UNL     1      -2.568   1.893  11.214  1.00  0.00     0.277 A 
HETATM   10  O3  UNL     1      -1.645   1.507  10.436  1.00  0.00    -0.266 OA
ENDROOT
BRANCH   1  11
HETATM   11  C2  UNL     1      -1.650   4.113  11.051  1.00  0.00     0.042 C 
HETATM   12  C1  UNL     1      -1.762   4.932   9.846  1.00  0.00     0.071 C 
HETATM   13  N1  UNL     1      -0.531   4.217  11.697  1.00  0.00    -0.292 N 
ATOM     14  H1  UNL     1      -0.409   3.663  12.545  1.00  0.00     0.187 HD
BRANCH  13  15
HETATM   15  N2  UNL     1       0.539   5.065  11.283  1.00  0.00    -0.193 N 
HETATM   16  C3  UNL     1       1.499   4.700  10.448  1.00  0.00     0.251 A 
HETATM   17  N3  UNL     1       2.430   5.594  10.137  1.00  0.00    -0.288 N 
HETATM   18  S1  UNL     1       1.974   6.954  11.007  1.00  0.00     0.029 SA
ATOM     19  H3  UNL     1       3.231   5.481   9.515  1.00  0.00     0.178 HD
HETATM   20  C4  UNL     1       0.580   6.311  11.752  1.00  0.00     0.204 A 
HETATM   21  N4  UNL     1      -0.261   6.893  12.586  1.00  0.00    -0.283 N 
ATOM     22  H4  UNL     1      -1.060   6.373  12.948  1.00  0.00     0.188 HD
BRANCH  16  23
HETATM   23  O1  UNL     1       1.564   3.508   9.924  1.00  0.00    -0.331 OA
ATOM     24  H1  UNL     1       1.620   3.360   8.988  1.00  0.00     0.221 HD
ENDBRANCH  16  23
BRANCH  21  25
HETATM   25  N5  UNL     1      -0.061   8.215  12.971  1.00  0.00    -0.343 N 
ATOM     26  H52 UNL     1       0.841   8.483  13.365  1.00  0.00     0.176 HD
ATOM     27  H51 UNL     1      -0.808   8.901  12.859  1.00  0.00     0.176 HD
ENDBRANCH  21  25
ENDBRANCH  13  15
ENDBRANCH   1  11
BRANCH   2  28
HETATM   28  N6  UNL     1      -4.038   4.860  12.857  1.00  0.00    -0.356 N 
HETATM   29  C7  UNL     1      -5.028   5.829  12.421  1.00  0.00     0.162 C 
HETATM   30  C8  UNL     1      -5.728   6.211  13.757  1.00  0.00     0.190 C 
HETATM   31  F1  UNL     1      -6.921   5.511  13.872  1.00  0.00    -0.248 F 
HETATM   32  C9  UNL     1      -4.744   5.831  14.809  1.00  0.00     0.066 C 
HETATM   33  C10 UNL     1      -3.473   5.549  14.045  1.00  0.00     0.112 C 
BRANCH  33  34
HETATM   34  C11 UNL     1      -2.643   4.596  14.860  1.00  0.00     0.189 C 
BRANCH  34  35
HETATM   35  O2  UNL     1      -1.307   4.858  14.555  1.00  0.00    -0.399 OA
ATOM     36  H2  UNL     1      -0.872   5.065  15.374  1.00  0.00     0.209 HD
ENDBRANCH  34  35
ENDBRANCH  33  34
ENDBRANCH   2  28
TORSDOF 7
ENDMDL
MODEL 2
REMARK VINA RESULT: -6.123688084      2.226      2.653
REMARK  7 active torsions:
REMARK  status: ('A' for Active; 'I' for Inactive)
REMARK    1  A    between atoms: C2_2  and  C5_18 
REMARK    2  A    between atoms: N1_3  and  N2_5 
REMARK    3  A    between atoms: C3_6  and  O1_7 
REMARK    4  A    between atoms: N4_13  and  N5_15 
REMARK    5  A    between atoms: C6_19  and  N6_20 
REMARK    6  A    between atoms: C10_25  and  C11_26 
REMARK    7  A    between atoms: C11_26  and  O2_27 
ROOT
HETATM    1  C5  UNL     1      -2.667   3.378  11.924  1.00  0.00     0.102 A 
HETATM    2  C6  UNL     1      -3.149   3.802  13.113  1.00  0.00     0.137 A 
HETATM    3  N7  UNL     1      -3.978   2.937  13.799  1.00  0.00    -0.270 N 
ATOM      4  H7  UNL     1      -4.347   3.245  14.699  1.00  0.00     0.190 HD
HETATM    5  N8  UNL     1      -4.322   1.757  13.379  1.00  0.00    -0.238 N 
ATOM      6  H8  UNL     1      -4.939   1.177  13.947  1.00  0.00     0.208 HD
HETATM    7  N9  UNL     1      -3.883   1.306  12.234  1.00  0.00    -0.251 N 
ATOM      8  H9  UNL     1      -4.151   0.381  11.897  1.00  0.00     0.192 HD
HETATM    9  C12 UNL     1      -3.074   2.090  11.519  1.00  0.00     0.277 A 
HETATM   10  O3  UNL     1      -2.673   1.610  10.416  1.00  0.00    -0.266 OA
ENDROOT
BRANCH   1  11
HETATM   11  C2  UNL     1      -1.746   4.043  11.045  1.00  0.00     0.042 C 
HETATM   12  C1  UNL     1      -2.004   5.294  10.336  1.00  0.00     0.071 C 
HETATM   13  N1  UNL     1      -0.569   3.530  10.869  1.00  0.00    -0.292 N 
ATOM     14  H1  UNL     1      -0.345   2.656  11.346  1.00  0.00     0.187 HD
BRANCH  13  15
HETATM   15  N2  UNL     1       0.430   4.125  10.042  1.00  0.00    -0.193 N 
HETATM   16  C3  UNL     1       0.407   4.110   8.719  1.00  0.00     0.251 A 
HETATM   17  N3  UNL     1       1.397   4.714   8.070  1.00  0.00    -0.288 N 
HETATM   18  S1  UNL     1       2.369   5.307   9.301  1.00  0.00     0.029 SA
ATOM     19  H3  UNL     1       1.533   4.797   7.062  1.00  0.00     0.178 HD
HETATM   20  C4  UNL     1       1.451   4.748  10.627  1.00  0.00     0.204 A 
HETATM   21  N4  UNL     1       1.682   4.893  11.918  1.00  0.00    -0.283 N 
ATOM     22  H4  UNL     1       1.031   4.500  12.599  1.00  0.00     0.188 HD
BRANCH  16  23
HETATM   23  O1  UNL     1      -0.540   3.532   8.035  1.00  0.00    -0.331 OA
ATOM     24  H1  UNL     1      -0.458   2.655   7.681  1.00  0.00     0.221 HD
ENDBRANCH  16  23
BRANCH  21  25
HETATM   25  N5  UNL     1       2.810   5.582  12.354  1.00  0.00    -0.343 N 
ATOM     26  H52 UNL     1       3.335   6.144  11.683  1.00  0.00     0.176 HD
ATOM     27  H51 UNL     1       3.102   5.521  13.330  1.00  0.00     0.176 HD
ENDBRANCH  21  25
ENDBRANCH  13  15
ENDBRANCH   1  11
BRANCH   2  28
HETATM   28  N6  UNL     1      -2.933   5.068  13.703  1.00  0.00    -0.356 N 
HETATM   29  C7  UNL     1      -1.788   5.669  14.366  1.00  0.00     0.162 C 
HETATM   30  C8  UNL     1      -1.673   7.044  13.646  1.00  0.00     0.190 C 
HETATM   31  F1  UNL     1      -0.682   6.978  12.677  1.00  0.00    -0.248 F 
HETATM   32  C9  UNL     1      -3.025   7.267  13.061  1.00  0.00     0.066 C 
HETATM   33  C10 UNL     1      -3.887   6.206  13.702  1.00  0.00     0.112 C 
BRANCH  33  34
HETATM   34  C11 UNL     1      -5.040   5.924  12.780  1.00  0.00     0.189 C 
BRANCH  34  35
HETATM   35  O2  UNL     1      -6.084   5.441  13.569  1.00  0.00    -0.399 OA
ATOM     36  H2  UNL     1      -6.457   4.697  13.110  1.00  0.00     0.209 HD
ENDBRANCH  34  35
ENDBRANCH  33  34
ENDBRANCH   2  28
TORSDOF 7
ENDMDL
MODEL 3
REMARK VINA RESULT: -6.120115341      3.812      6.195
REMARK  7 active torsions:
REMARK  status: ('A' for Active; 'I' for Inactive)
REMARK    1  A    between atoms: C2_2  and  C5_18 
REMARK    2  A    between atoms: N1_3  and  N2_5 
REMARK    3  A    between atoms: C3_6  and  O1_7 
REMARK    4  A    between atoms: N4_13  and  N5_15 
REMARK    5  A    between atoms: C6_19  and  N6_20 
REMARK    6  A    between atoms: C10_25  and  C11_26 
REMARK    7  A    between atoms: C11_26  and  O2_27 
ROOT
HETATM    1  C5  UNL     1      -2.830   4.498  12.380  1.00  0.00     0.102 A 
HETATM    2  C6  UNL     1      -2.591   5.655  11.724  1.00  0.00     0.137 A 
HETATM    3  N7  UNL     1      -2.022   5.560  10.470  1.00  0.00    -0.270 N 
ATOM      4  H7  UNL     1      -1.839   6.427   9.964  1.00  0.00     0.190 HD
HETATM    5  N8  UNL     1      -1.705   4.443   9.888  1.00  0.00    -0.238 N 
ATOM      6  H8  UNL     1      -1.289   4.459   8.957  1.00  0.00     0.208 HD
HETATM    7  N9  UNL     1      -1.915   3.300  10.484  1.00  0.00    -0.251 N 
ATOM      8  H9  UNL     1      -1.665   2.419  10.033  1.00  0.00     0.192 HD
HETATM    9  C12 UNL     1      -2.464   3.318  11.700  1.00  0.00     0.277 A 
HETATM   10  O3  UNL     1      -2.649   2.186  12.239  1.00  0.00    -0.266 OA
ENDROOT
BRANCH   1  11
HETATM   11  C2  UNL     1      -3.462   4.308  13.656  1.00  0.00     0.042 C 
HETATM   12  C1  UNL     1      -2.897   4.690  14.947  1.00  0.00     0.071 C 
HETATM   13  N1  UNL     1      -4.647   3.783  13.694  1.00  0.00    -0.292 N 
ATOM     14  H1  UNL     1      -5.080   3.501  12.814  1.00  0.00     0.187 HD
BRANCH  13  15
HETATM   15  N2  UNL     1      -5.375   3.578  14.904  1.00  0.00    -0.193 N 
HETATM   16  C3  UNL     1      -6.186   4.473  15.445  1.00  0.00     0.251 A 
HETATM   17  N3  UNL     1      -6.813   4.149  16.570  1.00  0.00    -0.288 N 
HETATM   18  S1  UNL     1      -6.275   2.592  16.884  1.00  0.00     0.029 SA
ATOM     19  H3  UNL     1      -7.466   4.713  17.114  1.00  0.00     0.178 HD
HETATM   20  C4  UNL     1      -5.247   2.412  15.533  1.00  0.00     0.204 A 
HETATM   21  N4  UNL     1      -4.506   1.378  15.184  1.00  0.00    -0.283 N 
ATOM     22  H4  UNL     1      -3.940   1.421  14.337  1.00  0.00     0.188 HD
BRANCH  16  23
HETATM   23  O1  UNL     1      -6.392   5.649  14.920  1.00  0.00    -0.331 OA
ATOM     24  H1  UNL     1      -6.853   6.343  15.377  1.00  0.00     0.221 HD
ENDBRANCH  16  23
BRANCH  21  25
HETATM   25  N5  UNL     1      -4.494   0.229  15.970  1.00  0.00    -0.343 N 
ATOM     26  H52 UNL     1      -5.160   0.150  16.738  1.00  0.00     0.176 HD
ATOM     27  H51 UNL     1      -3.828  -0.519  15.774  1.00  0.00     0.176 HD
ENDBRANCH  21  25
ENDBRANCH  13  15
ENDBRANCH   1  11
BRANCH   2  28
HETATM   28  N6  UNL     1      -2.816   6.961  12.218  1.00  0.00    -0.356 N 
HETATM   29  C7  UNL     1      -1.931   7.985  12.747  1.00  0.00     0.162 C 
HETATM   30  C8  UNL     1      -2.361   9.243  11.939  1.00  0.00     0.190 C 
HETATM   31  F1  UNL     1      -1.468   9.452  10.898  1.00  0.00    -0.248 F 
HETATM   32  C9  UNL     1      -3.731   8.918  11.454  1.00  0.00     0.066 C 
HETATM   33  C10 UNL     1      -4.116   7.679  12.227  1.00  0.00     0.112 C 
BRANCH  33  34
HETATM   34  C11 UNL     1      -5.137   6.927  11.420  1.00  0.00     0.189 C 
BRANCH  34  35
HETATM   35  O2  UNL     1      -6.032   6.358  12.326  1.00  0.00    -0.399 OA
ATOM     36  H2  UNL     1      -6.480   5.655  11.869  1.00  0.00     0.209 HD
ENDBRANCH  34  35
ENDBRANCH  33  34
ENDBRANCH   2  28
TORSDOF 7
ENDMDL
MODEL 4
REMARK VINA RESULT: -6.107506358      3.406      3.937
REMARK  7 active torsions:
REMARK  status: ('A' for Active; 'I' for Inactive)
REMARK    1  A    between atoms: C2_2  and  C5_18 
REMARK    2  A    between atoms: N1_3  and  N2_5 
REMARK    3  A    between atoms: C3_6  and  O1_7 
REMARK    4  A    between atoms: N4_13  and  N5_15 
REMARK    5  A    between atoms: C6_19  and  N6_20 
REMARK    6  A    between atoms: C10_25  and  C11_26 
REMARK    7  A    between atoms: C11_26  and  O2_27 
ROOT
HETATM    1  C5  UNL     1      -3.760   3.636  11.857  1.00  0.00     0.102 A 
HETATM    2  C6  UNL     1      -3.636   3.639  13.203  1.00  0.00     0.137 A 
HETATM    3  N7  UNL     1      -3.990   2.482  13.869  1.00  0.00    -0.270 N 
ATOM      4  H7  UNL     1      -3.899   2.472  14.885  1.00  0.00     0.190 HD
HETATM    5  N8  UNL     1      -4.430   1.406  13.291  1.00  0.00    -0.238 N 
ATOM      6  H8  UNL     1      -4.670   0.591  13.856  1.00  0.00     0.208 HD
HETATM    7  N9  UNL     1      -4.569   1.357  11.993  1.00  0.00    -0.251 N 
ATOM      8  H9  UNL     1      -4.917   0.515  11.533  1.00  0.00     0.192 HD
HETATM    9  C12 UNL     1      -4.243   2.441  11.286  1.00  0.00     0.277 A 
HETATM   10  O3  UNL     1      -4.394   2.347  10.031  1.00  0.00    -0.266 OA
ENDROOT
BRANCH   1  11
HETATM   11  C2  UNL     1      -3.408   4.671  10.925  1.00  0.00     0.042 C 
HETATM   12  C1  UNL     1      -2.048   5.058  10.560  1.00  0.00     0.071 C 
HETATM   13  N1  UNL     1      -4.357   5.314  10.319  1.00  0.00    -0.292 N 
ATOM     14  H1  UNL     1      -5.323   5.076  10.543  1.00  0.00     0.187 HD
BRANCH  13  15
HETATM   15  N2  UNL     1      -4.118   6.337   9.354  1.00  0.00    -0.193 N 
HETATM   16  C3  UNL     1      -3.803   6.110   8.089  1.00  0.00     0.251 A 
HETATM   17  N3  UNL     1      -3.618   7.156   7.292  1.00  0.00    -0.288 N 
HETATM   18  S1  UNL     1      -3.881   8.469   8.303  1.00  0.00     0.029 SA
ATOM     19  H3  UNL     1      -3.374   7.160   6.302  1.00  0.00     0.178 HD
HETATM   20  C4  UNL     1      -4.225   7.608   9.736  1.00  0.00     0.204 A 
HETATM   21  N4  UNL     1      -4.528   8.074  10.933  1.00  0.00    -0.283 N 
ATOM     22  H4  UNL     1      -4.713   7.426  11.699  1.00  0.00     0.188 HD
BRANCH  16  23
HETATM   23  O1  UNL     1      -3.669   4.908   7.599  1.00  0.00    -0.331 OA
ATOM     24  H1  UNL     1      -2.848   4.583   7.250  1.00  0.00     0.221 HD
ENDBRANCH  16  23
BRANCH  21  25
HETATM   25  N5  UNL     1      -4.597   9.446  11.153  1.00  0.00    -0.343 N 
ATOM     26  H52 UNL     1      -5.117  10.026  10.493  1.00  0.00     0.176 HD
ATOM     27  H51 UNL     1      -4.133   9.860  11.962  1.00  0.00     0.176 HD
ENDBRANCH  21  25
ENDBRANCH  13  15
ENDBRANCH   1  11
BRANCH   2  28
HETATM   28  N6  UNL     1      -3.231   4.730  14.006  1.00  0.00    -0.356 N 
HETATM   29  C7  UNL     1      -1.929   5.273  14.354  1.00  0.00     0.162 C 
HETATM   30  C8  UNL     1      -2.114   6.789  14.058  1.00  0.00     0.190 C 
HETATM   31  F1  UNL     1      -1.561   7.091  12.821  1.00  0.00    -0.248 F 
HETATM   32  C9  UNL     1      -3.589   6.993  14.084  1.00  0.00     0.066 C 
HETATM   33  C10 UNL     1      -4.131   5.709  14.667  1.00  0.00     0.112 C 
BRANCH  33  34
HETATM   34  C11 UNL     1      -5.543   5.538  14.180  1.00  0.00     0.189 C 
BRANCH  34  35
HETATM   35  O2  UNL     1      -5.684   6.341  13.049  1.00  0.00    -0.399 OA
ATOM     36  H2  UNL     1      -5.799   5.758  12.308  1.00  0.00     0.209 HD
ENDBRANCH  34  35
ENDBRANCH  33  34
ENDBRANCH   2  28
TORSDOF 7
ENDMDL
MODEL 5
REMARK VINA RESULT: -6.080229449      4.068      6.955
REMARK  7 active torsions:
REMARK  status: ('A' for Active; 'I' for Inactive)
REMARK    1  A    between atoms: C2_2  and  C5_18 
REMARK    2  A    between atoms: N1_3  and  N2_5 
REMARK    3  A    between atoms: C3_6  and  O1_7 
REMARK    4  A    between atoms: N4_13  and  N5_15 
REMARK    5  A    between atoms: C6_19  and  N6_20 
REMARK    6  A    between atoms: C10_25  and  C11_26 
REMARK    7  A    between atoms: C11_26  and  O2_27 
ROOT
HETATM    1  C5  UNL     1      -4.340   3.941  12.978  1.00  0.00     0.102 A 
HETATM    2  C6  UNL     1      -3.836   3.341  11.876  1.00  0.00     0.137 A 
HETATM    3  N7  UNL     1      -3.794   4.091  10.717  1.00  0.00    -0.270 N 
ATOM      4  H7  UNL     1      -3.414   3.650   9.880  1.00  0.00     0.190 HD
HETATM    5  N8  UNL     1      -4.204   5.319  10.620  1.00  0.00    -0.238 N 
ATOM      6  H8  UNL     1      -4.137   5.805   9.725  1.00  0.00     0.208 HD
HETATM    7  N9  UNL     1      -4.701   5.939  11.657  1.00  0.00    -0.251 N 
ATOM      8  H9  UNL     1      -5.027   6.903  11.586  1.00  0.00     0.192 HD
HETATM    9  C12 UNL     1      -4.770   5.273  12.811  1.00  0.00     0.277 A 
HETATM   10  O3  UNL     1      -5.258   5.914  13.790  1.00  0.00    -0.266 OA
ENDROOT
BRANCH   1  11
HETATM   11  C2  UNL     1      -4.441   3.418  14.312  1.00  0.00     0.042 C 
HETATM   12  C1  UNL     1      -3.467   3.624  15.380  1.00  0.00     0.071 C 
HETATM   13  N1  UNL     1      -5.489   2.726  14.633  1.00  0.00    -0.292 N 
ATOM     14  H1  UNL     1      -6.197   2.558  13.917  1.00  0.00     0.187 HD
BRANCH  13  15
HETATM   15  N2  UNL     1      -5.703   2.187  15.937  1.00  0.00    -0.193 N 
HETATM   16  C3  UNL     1      -5.324   0.977  16.314  1.00  0.00     0.251 A 
HETATM   17  N3  UNL     1      -5.576   0.604  17.564  1.00  0.00    -0.288 N 
HETATM   18  S1  UNL     1      -6.346   1.939  18.224  1.00  0.00     0.029 SA
ATOM     19  H3  UNL     1      -5.354  -0.284  18.015  1.00  0.00     0.178 HD
HETATM   20  C4  UNL     1      -6.315   2.945  16.845  1.00  0.00     0.204 A 
HETATM   21  N4  UNL     1      -6.775   4.173  16.701  1.00  0.00    -0.283 N 
ATOM     22  H4  UNL     1      -6.678   4.651  15.805  1.00  0.00     0.188 HD
BRANCH  16  23
HETATM   23  O1  UNL     1      -4.717   0.145  15.514  1.00  0.00    -0.331 OA
ATOM     24  H1  UNL     1      -5.181  -0.496  14.989  1.00  0.00     0.221 HD
ENDBRANCH  16  23
BRANCH  21  25
HETATM   25  N5  UNL     1      -7.392   4.819  17.769  1.00  0.00    -0.343 N 
ATOM     26  H52 UNL     1      -6.856   5.496  18.312  1.00  0.00     0.176 HD
ATOM     27  H51 UNL     1      -8.364   4.614  17.999  1.00  0.00     0.176 HD
ENDBRANCH  21  25
ENDBRANCH  13  15
ENDBRANCH   1  11
BRANCH   2  28
HETATM   28  N6  UNL     1      -3.396   2.001  11.777  1.00  0.00    -0.356 N 
HETATM   29  C7  UNL     1      -4.091   0.726  11.816  1.00  0.00     0.162 C 
HETATM   30  C8  UNL     1      -3.527   0.004  10.559  1.00  0.00     0.190 C 
HETATM   31  F1  UNL     1      -4.436   0.112   9.515  1.00  0.00    -0.248 F 
HETATM   32  C9  UNL     1      -2.248   0.711  10.271  1.00  0.00     0.066 C 
HETATM   33  C10 UNL     1      -2.007   1.558  11.498  1.00  0.00     0.112 C 
BRANCH  33  34
HETATM   34  C11 UNL     1      -1.152   2.727  11.095  1.00  0.00     0.189 C 
BRANCH  34  35
HETATM   35  O2  UNL     1      -1.191   2.798   9.703  1.00  0.00    -0.399 OA
ATOM     36  H2  UNL     1      -0.579   2.150   9.375  1.00  0.00     0.209 HD
ENDBRANCH  34  35
ENDBRANCH  33  34
ENDBRANCH   2  28
TORSDOF 7
ENDMDL
