MODEL 1
REMARK VINA RESULT: -6.379256460      0.000      0.000
REMARK  11 active torsions:
REMARK  status: ('A' for Active; 'I' for Inactive)
REMARK    1  A    between atoms: C2_4  and  S1_6 
REMARK    2  A    between atoms: S1_6  and  C3_7 
REMARK    3  A    between atoms: C3_7  and  C4_8 
REMARK    4  A    between atoms: C5_9  and  C6_10 
REMARK    5  A    between atoms: C6_10  and  O1_11 
REMARK    6  A    between atoms: C6_10  and  O2_13 
REMARK    7  A    between atoms: O2_13  and  C7_14 
REMARK    8  A    between atoms: C11_21  and  N4_22 
REMARK    9  A    between atoms: C12_26  and  C13_27 
REMARK   10  A    between atoms: C13_27  and  O4_28 
REMARK   11  A    between atoms: C14_30  and  O5_31 
ROOT
HETATM    1  C7  UNL     1      -4.779   3.261  10.979  1.00  0.00     0.176 C 
HETATM    2  C8  UNL     1      -4.270   3.977  12.185  1.00  0.00     0.189 C 
HETATM    3  N2  UNL     1      -4.472   3.223  13.432  1.00  0.00    -0.222 N 
HETATM    4  C9  UNL     1      -4.825   3.622  14.664  1.00  0.00     0.357 A 
HETATM    5  O3  UNL     1      -5.083   4.787  15.067  1.00  0.00    -0.244 OA
HETATM    6  N3  UNL     1      -4.863   2.535  15.447  1.00  0.00    -0.135 N 
HETATM    7  C10 UNL     1      -5.200   2.480  16.874  1.00  0.00     0.180 C 
HETATM    8  C11 UNL     1      -4.535   1.445  14.715  1.00  0.00     0.699 A 
HETATM    9  N5  UNL     1      -4.300   1.906  13.477  1.00  0.00    -0.108 N 
HETATM   10  C12 UNL     1      -3.913   1.262  12.247  1.00  0.00     0.181 C 
HETATM   11  C14 UNL     1      -4.886   1.788  11.183  1.00  0.00     0.176 C 
ENDROOT
BRANCH   1  12
HETATM   12  O2  UNL     1      -4.049   3.611   9.827  1.00  0.00    -0.341 OA
BRANCH  12  13
HETATM   13  C6  UNL     1      -3.671   4.941   9.814  1.00  0.00     0.340 C 
BRANCH  13  14
HETATM   14  C5  UNL     1      -2.286   5.053   9.289  1.00  0.00    -0.046 C 
HETATM   15  C4  UNL     1      -1.161   5.124   8.855  1.00  0.00    -0.091 C 
BRANCH  15  16
HETATM   16  C3  UNL     1       0.194   5.183   8.323  1.00  0.00     0.177 C 
BRANCH  16  17
HETATM   17  S1  UNL     1       1.343   4.222   9.304  1.00  0.00    -0.070 SA
BRANCH  17  18
HETATM   18  C2  UNL     1       0.992   4.311  11.043  1.00  0.00     0.223 C 
HETATM   19  N1  UNL     1       1.647   5.002  11.871  1.00  0.00    -0.366 N 
HETATM   20  C1  UNL     1       2.774   5.819  11.525  1.00  0.00     0.149 C 
ATOM     21  H1  UNL     1       1.357   4.978  12.848  1.00  0.00     0.161 HD
HETATM   22  F1  UNL     1      -0.064   3.584  11.543  1.00  0.00    -0.178 F 
ENDBRANCH  17  18
ENDBRANCH  16  17
ENDBRANCH  15  16
ENDBRANCH  13  14
BRANCH  13  23
HETATM   23  O1  UNL     1      -4.469   5.759   9.057  1.00  0.00    -0.361 OA
ATOM     24  H1  UNL     1      -5.236   5.258   8.803  1.00  0.00     0.213 HD
ENDBRANCH  13  23
ENDBRANCH  12  13
ENDBRANCH   1  12
BRANCH  11  25
HETATM   25  O5  UNL     1      -4.808   1.058  10.010  1.00  0.00    -0.391 OA
ATOM     26  H5  UNL     1      -4.223   0.311  10.064  1.00  0.00     0.210 HD
ENDBRANCH  11  25
BRANCH  10  27
HETATM   27  C13 UNL     1      -4.107  -0.234  12.252  1.00  0.00     0.194 C 
BRANCH  27  28
HETATM   28  O4  UNL     1      -3.271  -0.907  11.396  1.00  0.00    -0.399 OA
ATOM     29  H4  UNL     1      -2.952  -0.378  10.674  1.00  0.00     0.209 HD
ENDBRANCH  27  28
ENDBRANCH  10  27
BRANCH   8  30
HETATM   30  N4  UNL     1      -4.468   0.215  15.158  1.00  0.00    -0.233 N 
ATOM     31  H42 UNL     1      -4.462  -0.117  16.123  1.00  0.00     0.174 HD
ATOM     32  H41 UNL     1      -4.411  -0.625  14.583  1.00  0.00     0.174 HD
ENDBRANCH   8  30
TORSDOF 11
ENDMDL
MODEL 2
REMARK VINA RESULT: -6.307391187      2.404      3.787
REMARK  11 active torsions:
REMARK  status: ('A' for Active; 'I' for Inactive)
REMARK    1  A    between atoms: C2_4  and  S1_6 
REMARK    2  A    between atoms: S1_6  and  C3_7 
REMARK    3  A    between atoms: C3_7  and  C4_8 
REMARK    4  A    between atoms: C5_9  and  C6_10 
REMARK    5  A    between atoms: C6_10  and  O1_11 
REMARK    6  A    between atoms: C6_10  and  O2_13 
REMARK    7  A    between atoms: O2_13  and  C7_14 
REMARK    8  A    between atoms: C11_21  and  N4_22 
REMARK    9  A    between atoms: C12_26  and  C13_27 
REMARK   10  A    between atoms: C13_27  and  O4_28 
REMARK   11  A    between atoms: C14_30  and  O5_31 
ROOT
HETATM    1  C7  UNL     1      -3.394   3.188  12.857  1.00  0.00     0.176 C 
HETATM    2  C8  UNL     1      -4.065   1.936  13.311  1.00  0.00     0.189 C 
HETATM    3  N2  UNL     1      -4.785   2.095  14.584  1.00  0.00    -0.222 N 
HETATM    4  C9  UNL     1      -4.914   1.276  15.639  1.00  0.00     0.357 A 
HETATM    5  O3  UNL     1      -4.427   0.126  15.805  1.00  0.00    -0.244 OA
HETATM    6  N3  UNL     1      -5.683   1.898  16.544  1.00  0.00    -0.135 N 
HETATM    7  C10 UNL     1      -6.097   1.390  17.857  1.00  0.00     0.180 C 
HETATM    8  C11 UNL     1      -6.043   3.111  16.065  1.00  0.00     0.699 A 
HETATM    9  N5  UNL     1      -5.471   3.200  14.854  1.00  0.00    -0.108 N 
HETATM   10  C12 UNL     1      -5.469   4.227  13.843  1.00  0.00     0.181 C 
HETATM   11  C14 UNL     1      -3.997   4.415  13.451  1.00  0.00     0.176 C 
ENDROOT
BRANCH   1  12
HETATM   12  O2  UNL     1      -3.299   3.241  11.453  1.00  0.00    -0.341 OA
BRANCH  12  13
HETATM   13  C6  UNL     1      -2.063   2.839  10.983  1.00  0.00     0.340 C 
BRANCH  13  14
HETATM   14  C5  UNL     1      -1.058   3.893  11.275  1.00  0.00    -0.046 C 
HETATM   15  C4  UNL     1      -0.226   4.739  11.501  1.00  0.00    -0.091 C 
BRANCH  15  16
HETATM   16  C3  UNL     1       0.795   5.745  11.759  1.00  0.00     0.177 C 
BRANCH  16  17
HETATM   17  S1  UNL     1       2.335   5.367  10.925  1.00  0.00    -0.070 SA
BRANCH  17  18
HETATM   18  C2  UNL     1       3.754   5.684  11.945  1.00  0.00     0.223 C 
HETATM   19  N1  UNL     1       4.947   5.671  11.535  1.00  0.00    -0.366 N 
HETATM   20  C1  UNL     1       5.330   5.401  10.179  1.00  0.00     0.149 C 
ATOM     21  H1  UNL     1       5.686   5.867  12.210  1.00  0.00     0.161 HD
HETATM   22  F1  UNL     1       3.561   5.963  13.279  1.00  0.00    -0.178 F 
ENDBRANCH  17  18
ENDBRANCH  16  17
ENDBRANCH  15  16
ENDBRANCH  13  14
BRANCH  13  23
HETATM   23  O1  UNL     1      -1.599   1.663  11.515  1.00  0.00    -0.361 OA
ATOM     24  H1  UNL     1      -1.445   1.062  10.796  1.00  0.00     0.213 HD
ENDBRANCH  13  23
ENDBRANCH  12  13
ENDBRANCH   1  12
BRANCH  11  25
HETATM   25  O5  UNL     1      -3.811   5.553  12.685  1.00  0.00    -0.391 OA
ATOM     26  H5  UNL     1      -4.593   5.833  12.223  1.00  0.00     0.210 HD
ENDBRANCH  11  25
BRANCH  10  27
HETATM   27  C13 UNL     1      -5.920   5.577  14.340  1.00  0.00     0.194 C 
BRANCH  27  28
HETATM   28  O4  UNL     1      -6.754   6.239  13.474  1.00  0.00    -0.399 OA
ATOM     29  H4  UNL     1      -6.382   7.035  13.112  1.00  0.00     0.209 HD
ENDBRANCH  27  28
ENDBRANCH  10  27
BRANCH   8  30
HETATM   30  N4  UNL     1      -6.796   3.987  16.682  1.00  0.00    -0.233 N 
ATOM     31  H42 UNL     1      -7.557   3.823  17.341  1.00  0.00     0.174 HD
ATOM     32  H41 UNL     1      -6.729   5.001  16.593  1.00  0.00     0.174 HD
ENDBRANCH   8  30
TORSDOF 11
ENDMDL
MODEL 3
REMARK VINA RESULT: -6.273426796      3.111      4.264
REMARK  11 active torsions:
REMARK  status: ('A' for Active; 'I' for Inactive)
REMARK    1  A    between atoms: C2_4  and  S1_6 
REMARK    2  A    between atoms: S1_6  and  C3_7 
REMARK    3  A    between atoms: C3_7  and  C4_8 
REMARK    4  A    between atoms: C5_9  and  C6_10 
REMARK    5  A    between atoms: C6_10  and  O1_11 
REMARK    6  A    between atoms: C6_10  and  O2_13 
REMARK    7  A    between atoms: O2_13  and  C7_14 
REMARK    8  A    between atoms: C11_21  and  N4_22 
REMARK    9  A    between atoms: C12_26  and  C13_27 
REMARK   10  A    between atoms: C13_27  and  O4_28 
REMARK   11  A    between atoms: C14_30  and  O5_31 
ROOT
HETATM    1  C7  UNL     1      -3.606   3.238  12.994  1.00  0.00     0.176 C 
HETATM    2  C8  UNL     1      -4.163   1.987  13.586  1.00  0.00     0.189 C 
HETATM    3  N2  UNL     1      -4.851   2.212  14.866  1.00  0.00    -0.222 N 
HETATM    4  C9  UNL     1      -4.883   1.488  15.997  1.00  0.00     0.357 A 
HETATM    5  O3  UNL     1      -4.303   0.398  16.247  1.00  0.00    -0.244 OA
HETATM    6  N3  UNL     1      -5.668   2.134  16.870  1.00  0.00    -0.135 N 
HETATM    7  C10 UNL     1      -5.999   1.722  18.239  1.00  0.00     0.180 C 
HETATM    8  C11 UNL     1      -6.136   3.267  16.297  1.00  0.00     0.699 A 
HETATM    9  N5  UNL     1      -5.612   3.283  15.061  1.00  0.00    -0.108 N 
HETATM   10  C12 UNL     1      -5.722   4.208  13.962  1.00  0.00     0.181 C 
HETATM   11  C14 UNL     1      -4.283   4.467  13.497  1.00  0.00     0.176 C 
ENDROOT
BRANCH   1  12
HETATM   12  O2  UNL     1      -3.561   3.165  11.588  1.00  0.00    -0.341 OA
BRANCH  12  13
HETATM   13  C6  UNL     1      -2.289   2.926  11.103  1.00  0.00     0.340 C 
BRANCH  13  14
HETATM   14  C5  UNL     1      -1.410   4.075  11.440  1.00  0.00    -0.046 C 
HETATM   15  C4  UNL     1      -0.713   5.023  11.712  1.00  0.00    -0.091 C 
BRANCH  15  16
HETATM   16  C3  UNL     1       0.107   6.183  12.036  1.00  0.00     0.177 C 
BRANCH  16  17
HETATM   17  S1  UNL     1      -0.888   7.626  12.405  1.00  0.00    -0.070 SA
BRANCH  17  18
HETATM   18  C2  UNL     1      -1.578   7.574  14.041  1.00  0.00     0.223 C 
HETATM   19  N1  UNL     1      -1.820   8.591  14.748  1.00  0.00    -0.366 N 
HETATM   20  C1  UNL     1      -1.574   9.941  14.330  1.00  0.00     0.149 C 
ATOM     21  H1  UNL     1      -2.217   8.444  15.675  1.00  0.00     0.161 HD
HETATM   22  F1  UNL     1      -1.876   6.350  14.595  1.00  0.00    -0.178 F 
ENDBRANCH  17  18
ENDBRANCH  16  17
ENDBRANCH  15  16
ENDBRANCH  13  14
BRANCH  13  23
HETATM   23  O1  UNL     1      -1.692   1.791  11.588  1.00  0.00    -0.361 OA
ATOM     24  H1  UNL     1      -1.687   1.147  10.889  1.00  0.00     0.213 HD
ENDBRANCH  13  23
ENDBRANCH  12  13
ENDBRANCH   1  12
BRANCH  11  25
HETATM   25  O5  UNL     1      -4.210   5.539  12.624  1.00  0.00    -0.391 OA
ATOM     26  H5  UNL     1      -4.933   6.150  12.709  1.00  0.00     0.210 HD
ENDBRANCH  11  25
BRANCH  10  27
HETATM   27  C13 UNL     1      -6.260   5.562  14.351  1.00  0.00     0.194 C 
BRANCH  27  28
HETATM   28  O4  UNL     1      -6.980   6.181  13.359  1.00  0.00    -0.399 OA
ATOM     29  H4  UNL     1      -6.926   5.748  12.516  1.00  0.00     0.209 HD
ENDBRANCH  27  28
ENDBRANCH  10  27
BRANCH   8  30
HETATM   30  N4  UNL     1      -6.934   4.138  16.861  1.00  0.00    -0.233 N 
ATOM     31  H42 UNL     1      -7.652   3.983  17.569  1.00  0.00     0.174 HD
ATOM     32  H41 UNL     1      -6.955   5.140  16.670  1.00  0.00     0.174 HD
ENDBRANCH   8  30
TORSDOF 11
ENDMDL
MODEL 4
REMARK VINA RESULT: -6.175902637      2.048      3.429
REMARK  11 active torsions:
REMARK  status: ('A' for Active; 'I' for Inactive)
REMARK    1  A    between atoms: C2_4  and  S1_6 
REMARK    2  A    between atoms: S1_6  and  C3_7 
REMARK    3  A    between atoms: C3_7  and  C4_8 
REMARK    4  A    between atoms: C5_9  and  C6_10 
REMARK    5  A    between atoms: C6_10  and  O1_11 
REMARK    6  A    between atoms: C6_10  and  O2_13 
REMARK    7  A    between atoms: O2_13  and  C7_14 
REMARK    8  A    between atoms: C11_21  and  N4_22 
REMARK    9  A    between atoms: C12_26  and  C13_27 
REMARK   10  A    between atoms: C13_27  and  O4_28 
REMARK   11  A    between atoms: C14_30  and  O5_31 
ROOT
HETATM    1  C7  UNL     1      -3.598   3.154  12.828  1.00  0.00     0.176 C 
HETATM    2  C8  UNL     1      -4.221   1.901  13.345  1.00  0.00     0.189 C 
HETATM    3  N2  UNL     1      -4.880   2.080  14.648  1.00  0.00    -0.222 N 
HETATM    4  C9  UNL     1      -4.941   1.286  15.729  1.00  0.00     0.357 A 
HETATM    5  O3  UNL     1      -4.424   0.149  15.897  1.00  0.00    -0.244 OA
HETATM    6  N3  UNL     1      -5.676   1.916  16.655  1.00  0.00    -0.135 N 
HETATM    7  C10 UNL     1      -6.015   1.434  17.999  1.00  0.00     0.180 C 
HETATM    8  C11 UNL     1      -6.082   3.110  16.166  1.00  0.00     0.699 A 
HETATM    9  N5  UNL     1      -5.573   3.178  14.926  1.00  0.00    -0.108 N 
HETATM   10  C12 UNL     1      -5.641   4.179  13.892  1.00  0.00     0.181 C 
HETATM   11  C14 UNL     1      -4.194   4.384  13.422  1.00  0.00     0.176 C 
ENDROOT
BRANCH   1  12
HETATM   12  O2  UNL     1      -3.574   3.173  11.420  1.00  0.00    -0.341 OA
BRANCH  12  13
HETATM   13  C6  UNL     1      -2.315   2.933  10.901  1.00  0.00     0.340 C 
BRANCH  13  14
HETATM   14  C5  UNL     1      -1.723   4.212  10.433  1.00  0.00    -0.046 C 
HETATM   15  C4  UNL     1      -1.223   5.247  10.062  1.00  0.00    -0.091 C 
BRANCH  15  16
HETATM   16  C3  UNL     1      -0.595   6.487   9.626  1.00  0.00     0.177 C 
BRANCH  16  17
HETATM   17  S1  UNL     1       1.186   6.334   9.510  1.00  0.00    -0.070 SA
BRANCH  17  18
HETATM   18  C2  UNL     1       1.816   4.990  10.485  1.00  0.00     0.223 C 
HETATM   19  N1  UNL     1       2.358   5.120  11.617  1.00  0.00    -0.366 N 
HETATM   20  C1  UNL     1       2.543   6.376  12.283  1.00  0.00     0.149 C 
ATOM     21  H1  UNL     1       2.686   4.277  12.089  1.00  0.00     0.161 HD
HETATM   22  F1  UNL     1       1.717   3.710   9.990  1.00  0.00    -0.178 F 
ENDBRANCH  17  18
ENDBRANCH  16  17
ENDBRANCH  15  16
ENDBRANCH  13  14
BRANCH  13  23
HETATM   23  O1  UNL     1      -1.430   2.362  11.779  1.00  0.00    -0.361 OA
ATOM     24  H1  UNL     1      -1.913   1.742  12.312  1.00  0.00     0.213 HD
ENDBRANCH  13  23
ENDBRANCH  12  13
ENDBRANCH   1  12
BRANCH  11  25
HETATM   25  O5  UNL     1      -4.068   5.506  12.620  1.00  0.00    -0.391 OA
ATOM     26  H5  UNL     1      -3.298   6.028  12.813  1.00  0.00     0.210 HD
ENDBRANCH  11  25
BRANCH  10  27
HETATM   27  C13 UNL     1      -6.092   5.534  14.378  1.00  0.00     0.194 C 
BRANCH  27  28
HETATM   28  O4  UNL     1      -6.881   6.213  13.482  1.00  0.00    -0.399 OA
ATOM     29  H4  UNL     1      -6.607   6.117  12.578  1.00  0.00     0.209 HD
ENDBRANCH  27  28
ENDBRANCH  10  27
BRANCH   8  30
HETATM   30  N4  UNL     1      -6.820   3.988  16.798  1.00  0.00    -0.233 N 
ATOM     31  H42 UNL     1      -7.264   3.908  17.714  1.00  0.00     0.174 HD
ATOM     32  H41 UNL     1      -7.067   4.916  16.458  1.00  0.00     0.174 HD
ENDBRANCH   8  30
TORSDOF 11
ENDMDL
MODEL 5
REMARK VINA RESULT: -6.143991227      2.307      3.694
REMARK  11 active torsions:
REMARK  status: ('A' for Active; 'I' for Inactive)
REMARK    1  A    between atoms: C2_4  and  S1_6 
REMARK    2  A    between atoms: S1_6  and  C3_7 
REMARK    3  A    between atoms: C3_7  and  C4_8 
REMARK    4  A    between atoms: C5_9  and  C6_10 
REMARK    5  A    between atoms: C6_10  and  O1_11 
REMARK    6  A    between atoms: C6_10  and  O2_13 
REMARK    7  A    between atoms: O2_13  and  C7_14 
REMARK    8  A    between atoms: C11_21  and  N4_22 
REMARK    9  A    between atoms: C12_26  and  C13_27 
REMARK   10  A    between atoms: C13_27  and  O4_28 
REMARK   11  A    between atoms: C14_30  and  O5_31 
ROOT
HETATM    1  C7  UNL     1      -3.455   3.179  12.896  1.00  0.00     0.176 C 
HETATM    2  C8  UNL     1      -4.106   1.922  13.366  1.00  0.00     0.189 C 
HETATM    3  N2  UNL     1      -4.818   2.083  14.643  1.00  0.00    -0.222 N 
HETATM    4  C9  UNL     1      -4.928   1.271  15.707  1.00  0.00     0.357 A 
HETATM    5  O3  UNL     1      -4.424   0.129  15.878  1.00  0.00    -0.244 OA
HETATM    6  N3  UNL     1      -5.698   1.891  16.612  1.00  0.00    -0.135 N 
HETATM    7  C10 UNL     1      -6.095   1.389  17.932  1.00  0.00     0.180 C 
HETATM    8  C11 UNL     1      -6.078   3.095  16.126  1.00  0.00     0.699 A 
HETATM    9  N5  UNL     1      -5.517   3.180  14.909  1.00  0.00    -0.108 N 
HETATM   10  C12 UNL     1      -5.536   4.198  13.890  1.00  0.00     0.181 C 
HETATM   11  C14 UNL     1      -4.070   4.403  13.484  1.00  0.00     0.176 C 
ENDROOT
BRANCH   1  12
HETATM   12  O2  UNL     1      -3.372   3.221  11.491  1.00  0.00    -0.341 OA
BRANCH  12  13
HETATM   13  C6  UNL     1      -2.115   2.893  11.017  1.00  0.00     0.340 C 
BRANCH  13  14
HETATM   14  C5  UNL     1      -1.168   3.994  11.333  1.00  0.00    -0.046 C 
HETATM   15  C4  UNL     1      -0.410   4.902  11.576  1.00  0.00    -0.091 C 
BRANCH  15  16
HETATM   16  C3  UNL     1       0.491   6.012  11.852  1.00  0.00     0.177 C 
BRANCH  16  17
HETATM   17  S1  UNL     1       2.193   5.608  11.467  1.00  0.00    -0.070 SA
BRANCH  17  18
HETATM   18  C2  UNL     1       2.377   4.924   9.838  1.00  0.00     0.223 C 
HETATM   19  N1  UNL     1       2.971   5.497   8.884  1.00  0.00    -0.366 N 
HETATM   20  C1  UNL     1       3.587   6.788   8.978  1.00  0.00     0.149 C 
ATOM     21  H1  UNL     1       3.016   5.011   7.989  1.00  0.00     0.161 HD
HETATM   22  F1  UNL     1       1.840   3.683   9.578  1.00  0.00    -0.178 F 
ENDBRANCH  17  18
ENDBRANCH  16  17
ENDBRANCH  15  16
ENDBRANCH  13  14
BRANCH  13  23
HETATM   23  O1  UNL     1      -1.591   1.734  11.529  1.00  0.00    -0.361 OA
ATOM     24  H1  UNL     1      -2.196   1.410  12.185  1.00  0.00     0.213 HD
ENDBRANCH  13  23
ENDBRANCH  12  13
ENDBRANCH   1  12
BRANCH  11  25
HETATM   25  O5  UNL     1      -3.905   5.537  12.707  1.00  0.00    -0.391 OA
ATOM     26  H5  UNL     1      -3.607   6.294  13.197  1.00  0.00     0.210 HD
ENDBRANCH  11  25
BRANCH  10  27
HETATM   27  C13 UNL     1      -6.002   5.547  14.379  1.00  0.00     0.194 C 
BRANCH  27  28
HETATM   28  O4  UNL     1      -6.820   6.207  13.496  1.00  0.00    -0.399 OA
ATOM     29  H4  UNL     1      -7.714   6.307  13.800  1.00  0.00     0.209 HD
ENDBRANCH  27  28
ENDBRANCH  10  27
BRANCH   8  30
HETATM   30  N4  UNL     1      -6.837   3.966  16.741  1.00  0.00    -0.233 N 
ATOM     31  H42 UNL     1      -7.716   3.810  17.236  1.00  0.00     0.174 HD
ATOM     32  H41 UNL     1      -6.655   4.966  16.821  1.00  0.00     0.174 HD
ENDBRANCH   8  30
TORSDOF 11
ENDMDL
