MODEL 1
REMARK VINA RESULT: -8.186973987      0.000      0.000
REMARK  7 active torsions:
REMARK  status: ('A' for Active; 'I' for Inactive)
REMARK    1  A    between atoms: N1_1  and  N2_4 
REMARK    2  A    between atoms: N2_4  and  C1_6 
REMARK    3  A    between atoms: C2_9  and  N4_10 
REMARK       I    between atoms: N4_10  and  C3_12 
REMARK    4  A    between atoms: C3_12  and  C4_14 
REMARK    5  A    between atoms: C4_14  and  N5_15 
REMARK    6  A    between atoms: C7_18  and  N6_19 
REMARK    7  A    between atoms: N9_26  and  C8_27 
ROOT
HETATM    1  C1  UNL     1      -4.604   5.241  14.140  1.00  0.00     0.747 A 
HETATM    2  N3  UNL     1      -3.476   5.760  13.573  1.00  0.00    -0.017 N 
ATOM      3  H3  UNL     1      -3.438   6.581  12.968  1.00  0.00     0.203 HD
HETATM    4  C2  UNL     1      -2.426   5.011  13.944  1.00  0.00     0.715 A 
HETATM    5  N8  UNL     1      -2.903   4.040  14.731  1.00  0.00    -0.095 N 
ATOM      6  H8  UNL     1      -2.343   3.309  15.169  1.00  0.00     0.207 HD
HETATM    7  N9  UNL     1      -4.213   4.172  14.853  1.00  0.00     0.106 N 
ENDROOT
BRANCH   4   8
HETATM    8  N4  UNL     1      -1.195   5.193  13.607  1.00  0.00    -0.156 N 
HETATM    9  C3  UNL     1      -0.827   5.293  12.240  1.00  0.00     0.255 C 
HETATM   10  O1  UNL     1      -0.629   6.419  11.721  1.00  0.00    -0.271 OA
ATOM     11  H4  UNL     1      -0.479   5.264  14.329  1.00  0.00     0.187 HD
BRANCH   9  12
HETATM   12  C4  UNL     1      -0.675   4.079  11.418  1.00  0.00     0.251 C 
BRANCH  12  13
HETATM   13  N5  UNL     1      -1.939   3.385  11.342  1.00  0.00    -0.293 N 
HETATM   14  C5  UNL     1      -3.045   3.909  10.732  1.00  0.00     0.114 A 
HETATM   15  C6  UNL     1      -4.074   3.006  10.832  1.00  0.00     0.075 A 
HETATM   16  C7  UNL     1      -3.576   1.924  11.514  1.00  0.00     0.189 A 
HETATM   17  N7  UNL     1      -2.267   2.194  11.809  1.00  0.00    -0.278 N 
ATOM     18  H7  UNL     1      -1.639   1.568  12.314  1.00  0.00     0.189 HD
BRANCH  16  19
HETATM   19  N6  UNL     1      -4.274   0.735  11.860  1.00  0.00    -0.097 N 
HETATM   20  O2  UNL     1      -4.612  -0.058  10.953  1.00  0.00    -0.530 OA
HETATM   21  O3  UNL     1      -4.558   0.488  13.164  1.00  0.00    -0.530 OA
ENDBRANCH  16  19
ENDBRANCH  12  13
ENDBRANCH   9  12
ENDBRANCH   4   8
BRANCH   1  22
HETATM   22  N2  UNL     1      -5.759   5.760  13.955  1.00  0.00    -0.136 N 
ATOM     23  H2  UNL     1      -6.518   5.491  14.580  1.00  0.00     0.205 HD
BRANCH  22  24
HETATM   24  N1  UNL     1      -6.030   6.677  12.939  1.00  0.00    -0.331 N 
ATOM     25  H12 UNL     1      -5.233   7.088  12.454  1.00  0.00     0.177 HD
ATOM     26  H11 UNL     1      -6.976   6.945  12.667  1.00  0.00     0.177 HD
ENDBRANCH  22  24
ENDBRANCH   1  22
BRANCH   7  27
HETATM   27  C8  UNL     1      -5.113   3.352  15.600  1.00  0.00     0.722 A 
HETATM   28  N10 UNL     1      -4.841   2.049  15.805  1.00  0.00    -0.151 N 
HETATM   29  C9  UNL     1      -5.655   1.235  16.500  1.00  0.00     0.299 A 
ATOM     30  H10 UNL     1      -3.981   1.663  15.416  1.00  0.00     0.188 HD
HETATM   31  O4  UNL     1      -5.396   0.017  16.690  1.00  0.00    -0.264 OA
HETATM   32  C10 UNL     1      -6.827   1.723  17.039  1.00  0.00     0.200 A 
HETATM   33  F1  UNL     1      -7.673   0.934  17.747  1.00  0.00    -0.199 F 
HETATM   34  C11 UNL     1      -7.105   3.055  16.830  1.00  0.00     0.154 A 
HETATM   35  N11 UNL     1      -6.259   3.825  16.128  1.00  0.00    -0.196 N 
ATOM     36  H11 UNL     1      -6.493   4.808  15.989  1.00  0.00     0.183 HD
ENDBRANCH   7  27
TORSDOF 7
ENDMDL
MODEL 2
REMARK VINA RESULT: -7.971739257      2.523      3.815
REMARK  7 active torsions:
REMARK  status: ('A' for Active; 'I' for Inactive)
REMARK    1  A    between atoms: N1_1  and  N2_4 
REMARK    2  A    between atoms: N2_4  and  C1_6 
REMARK    3  A    between atoms: C2_9  and  N4_10 
REMARK       I    between atoms: N4_10  and  C3_12 
REMARK    4  A    between atoms: C3_12  and  C4_14 
REMARK    5  A    between atoms: C4_14  and  N5_15 
REMARK    6  A    between atoms: C7_18  and  N6_19 
REMARK    7  A    between atoms: N9_26  and  C8_27 
ROOT
HETATM    1  C1  UNL     1      -3.873   2.061  12.324  1.00  0.00     0.747 A 
HETATM    2  N3  UNL     1      -2.898   2.546  11.501  1.00  0.00    -0.017 N 
ATOM      3  H3  UNL     1      -2.687   2.205  10.563  1.00  0.00     0.203 HD
HETATM    4  C2  UNL     1      -2.262   3.546  12.132  1.00  0.00     0.715 A 
HETATM    5  N8  UNL     1      -2.840   3.675  13.332  1.00  0.00    -0.095 N 
ATOM      6  H8  UNL     1      -2.574   4.355  14.043  1.00  0.00     0.207 HD
HETATM    7  N9  UNL     1      -3.810   2.784  13.454  1.00  0.00     0.106 N 
ENDROOT
BRANCH   4   8
HETATM    8  N4  UNL     1      -1.283   4.247  11.670  1.00  0.00    -0.156 N 
HETATM    9  C3  UNL     1      -1.379   5.660  11.593  1.00  0.00     0.255 C 
HETATM   10  O1  UNL     1      -0.841   6.378  12.471  1.00  0.00    -0.271 OA
ATOM     11  H4  UNL     1      -0.432   3.780  11.358  1.00  0.00     0.187 HD
BRANCH   9  12
HETATM   12  C4  UNL     1      -2.109   6.297  10.482  1.00  0.00     0.251 C 
BRANCH  12  13
HETATM   13  N5  UNL     1      -3.332   6.881  10.980  1.00  0.00    -0.293 N 
HETATM   14  C5  UNL     1      -3.620   8.214  10.881  1.00  0.00     0.114 A 
HETATM   15  C6  UNL     1      -4.850   8.443  11.446  1.00  0.00     0.075 A 
HETATM   16  C7  UNL     1      -5.306   7.227  11.890  1.00  0.00     0.189 A 
HETATM   17  N7  UNL     1      -4.350   6.296  11.586  1.00  0.00    -0.278 N 
ATOM     18  H7  UNL     1      -4.413   5.300  11.797  1.00  0.00     0.189 HD
BRANCH  16  19
HETATM   19  N6  UNL     1      -6.539   6.962  12.545  1.00  0.00    -0.097 N 
HETATM   20  O2  UNL     1      -7.562   7.592  12.195  1.00  0.00    -0.530 OA
HETATM   21  O3  UNL     1      -6.578   6.034  13.535  1.00  0.00    -0.530 OA
ENDBRANCH  16  19
ENDBRANCH  12  13
ENDBRANCH   9  12
ENDBRANCH   4   8
BRANCH   1  22
HETATM   22  N2  UNL     1      -4.639   1.097  11.976  1.00  0.00    -0.136 N 
ATOM     23  H2  UNL     1      -4.971   0.456  12.697  1.00  0.00     0.205 HD
BRANCH  22  24
HETATM   24  N1  UNL     1      -5.043   0.880  10.659  1.00  0.00    -0.331 N 
ATOM     25  H12 UNL     1      -4.843   1.615   9.981  1.00  0.00     0.177 HD
ATOM     26  H11 UNL     1      -5.520   0.032  10.354  1.00  0.00     0.177 HD
ENDBRANCH  22  24
ENDBRANCH   1  22
BRANCH   7  27
HETATM   27  C8  UNL     1      -4.677   2.577  14.571  1.00  0.00     0.722 A 
HETATM   28  N10 UNL     1      -4.657   1.411  15.245  1.00  0.00    -0.151 N 
HETATM   29  C9  UNL     1      -5.452   1.166  16.300  1.00  0.00     0.299 A 
ATOM     30  H10 UNL     1      -4.011   0.682  14.940  1.00  0.00     0.188 HD
HETATM   31  O4  UNL     1      -5.430   0.074  16.928  1.00  0.00    -0.264 OA
HETATM   32  C10 UNL     1      -6.337   2.128  16.739  1.00  0.00     0.200 A 
HETATM   33  F1  UNL     1      -7.155   1.920  17.801  1.00  0.00    -0.199 F 
HETATM   34  C11 UNL     1      -6.357   3.320  16.051  1.00  0.00     0.154 A 
HETATM   35  N11 UNL     1      -5.543   3.514  15.002  1.00  0.00    -0.196 N 
ATOM     36  H11 UNL     1      -5.581   4.408  14.511  1.00  0.00     0.183 HD
ENDBRANCH   7  27
TORSDOF 7
ENDMDL
MODEL 3
REMARK VINA RESULT: -7.920247359      3.480      7.098
REMARK  7 active torsions:
REMARK  status: ('A' for Active; 'I' for Inactive)
REMARK    1  A    between atoms: N1_1  and  N2_4 
REMARK    2  A    between atoms: N2_4  and  C1_6 
REMARK    3  A    between atoms: C2_9  and  N4_10 
REMARK       I    between atoms: N4_10  and  C3_12 
REMARK    4  A    between atoms: C3_12  and  C4_14 
REMARK    5  A    between atoms: C4_14  and  N5_15 
REMARK    6  A    between atoms: C7_18  and  N6_19 
REMARK    7  A    between atoms: N9_26  and  C8_27 
ROOT
HETATM    1  C1  UNL     1      -2.070   2.486  11.184  1.00  0.00     0.747 A 
HETATM    2  N3  UNL     1      -3.316   2.622  11.725  1.00  0.00    -0.017 N 
ATOM      3  H3  UNL     1      -3.972   1.862  11.906  1.00  0.00     0.203 HD
HETATM    4  C2  UNL     1      -3.534   3.922  11.979  1.00  0.00     0.715 A 
HETATM    5  N8  UNL     1      -2.434   4.580  11.597  1.00  0.00    -0.095 N 
ATOM      6  H8  UNL     1      -2.297   5.588  11.664  1.00  0.00     0.207 HD
HETATM    7  N9  UNL     1      -1.549   3.721  11.117  1.00  0.00     0.106 N 
ENDROOT
BRANCH   4   8
HETATM    8  N4  UNL     1      -4.599   4.437  12.491  1.00  0.00    -0.156 N 
HETATM    9  C3  UNL     1      -4.518   5.570  13.341  1.00  0.00     0.255 C 
HETATM   10  O1  UNL     1      -4.766   6.715  12.892  1.00  0.00    -0.271 OA
ATOM     11  H4  UNL     1      -5.509   4.025  12.283  1.00  0.00     0.187 HD
BRANCH   9  12
HETATM   12  C4  UNL     1      -4.142   5.412  14.758  1.00  0.00     0.251 C 
BRANCH  12  13
HETATM   13  N5  UNL     1      -4.813   4.259  15.310  1.00  0.00    -0.293 N 
HETATM   14  C5  UNL     1      -6.137   4.255  15.651  1.00  0.00     0.114 A 
HETATM   15  C6  UNL     1      -6.462   3.015  16.143  1.00  0.00     0.075 A 
HETATM   16  C7  UNL     1      -5.314   2.265  16.096  1.00  0.00     0.189 A 
HETATM   17  N7  UNL     1      -4.327   3.061  15.581  1.00  0.00    -0.278 N 
ATOM     18  H7  UNL     1      -3.360   2.772  15.429  1.00  0.00     0.189 HD
BRANCH  16  19
HETATM   19  N6  UNL     1      -5.158   0.911  16.502  1.00  0.00    -0.097 N 
HETATM   20  O2  UNL     1      -4.859   0.050  15.646  1.00  0.00    -0.530 OA
HETATM   21  O3  UNL     1      -5.338   0.586  17.807  1.00  0.00    -0.530 OA
ENDBRANCH  16  19
ENDBRANCH  12  13
ENDBRANCH   9  12
ENDBRANCH   4   8
BRANCH   1  22
HETATM   22  N2  UNL     1      -1.598   1.347  10.843  1.00  0.00    -0.136 N 
ATOM     23  H2  UNL     1      -0.637   1.301  10.503  1.00  0.00     0.205 HD
BRANCH  22  24
HETATM   24  N1  UNL     1      -2.332   0.163  10.913  1.00  0.00    -0.331 N 
ATOM     25  H12 UNL     1      -3.205   0.121  10.386  1.00  0.00     0.177 HD
ATOM     26  H11 UNL     1      -2.037  -0.646  11.460  1.00  0.00     0.177 HD
ENDBRANCH  22  24
ENDBRANCH   1  22
BRANCH   7  27
HETATM   27  C8  UNL     1      -0.245   3.999  10.602  1.00  0.00     0.722 A 
HETATM   28  N10 UNL     1       0.761   4.336  11.431  1.00  0.00    -0.151 N 
HETATM   29  C9  UNL     1       2.003   4.607  10.997  1.00  0.00     0.299 A 
ATOM     30  H10 UNL     1       0.571   4.389  12.432  1.00  0.00     0.188 HD
HETATM   31  O4  UNL     1       2.942   4.921  11.777  1.00  0.00    -0.264 OA
HETATM   32  C10 UNL     1       2.295   4.547   9.651  1.00  0.00     0.200 A 
HETATM   33  F1  UNL     1       3.537   4.812   9.173  1.00  0.00    -0.199 F 
HETATM   34  C11 UNL     1       1.267   4.202   8.803  1.00  0.00     0.154 A 
HETATM   35  N11 UNL     1       0.043   3.941   9.287  1.00  0.00    -0.196 N 
ATOM     36  H11 UNL     1      -0.698   3.689   8.634  1.00  0.00     0.183 HD
ENDBRANCH   7  27
TORSDOF 7
ENDMDL
MODEL 4
REMARK VINA RESULT: -7.839475824      2.541      5.540
REMARK  7 active torsions:
REMARK  status: ('A' for Active; 'I' for Inactive)
REMARK    1  A    between atoms: N1_1  and  N2_4 
REMARK    2  A    between atoms: N2_4  and  C1_6 
REMARK    3  A    between atoms: C2_9  and  N4_10 
REMARK       I    between atoms: N4_10  and  C3_12 
REMARK    4  A    between atoms: C3_12  and  C4_14 
REMARK    5  A    between atoms: C4_14  and  N5_15 
REMARK    6  A    between atoms: C7_18  and  N6_19 
REMARK    7  A    between atoms: N9_26  and  C8_27 
ROOT
HETATM    1  C1  UNL     1      -1.908   3.980  12.262  1.00  0.00     0.747 A 
HETATM    2  N3  UNL     1      -2.315   5.210  12.693  1.00  0.00    -0.017 N 
ATOM      3  H3  UNL     1      -1.713   6.022  12.826  1.00  0.00     0.203 HD
HETATM    4  C2  UNL     1      -3.639   5.171  12.913  1.00  0.00     0.715 A 
HETATM    5  N8  UNL     1      -4.042   3.929  12.621  1.00  0.00    -0.095 N 
ATOM      6  H8  UNL     1      -5.002   3.590  12.690  1.00  0.00     0.207 HD
HETATM    7  N9  UNL     1      -3.006   3.207  12.229  1.00  0.00     0.106 N 
ENDROOT
BRANCH   4   8
HETATM    8  N4  UNL     1      -4.378   6.142  13.327  1.00  0.00    -0.156 N 
HETATM    9  C3  UNL     1      -5.094   6.038  14.547  1.00  0.00     0.255 C 
HETATM   10  O1  UNL     1      -4.646   6.576  15.589  1.00  0.00    -0.271 OA
ATOM     11  H4  UNL     1      -4.448   6.995  12.771  1.00  0.00     0.187 HD
BRANCH   9  12
HETATM   12  C4  UNL     1      -6.368   5.298  14.602  1.00  0.00     0.251 C 
BRANCH  12  13
HETATM   13  N5  UNL     1      -6.241   4.187  15.517  1.00  0.00    -0.293 N 
HETATM   14  C5  UNL     1      -6.908   4.119  16.708  1.00  0.00     0.114 A 
HETATM   15  C6  UNL     1      -6.573   2.945  17.335  1.00  0.00     0.075 A 
HETATM   16  C7  UNL     1      -5.692   2.299  16.504  1.00  0.00     0.189 A 
HETATM   17  N7  UNL     1      -5.514   3.090  15.402  1.00  0.00    -0.278 N 
ATOM     18  H7  UNL     1      -4.910   2.867  14.611  1.00  0.00     0.189 HD
BRANCH  16  19
HETATM   19  N6  UNL     1      -5.068   1.041  16.729  1.00  0.00    -0.097 N 
HETATM   20  O2  UNL     1      -3.852   0.909  16.466  1.00  0.00    -0.530 OA
HETATM   21  O3  UNL     1      -5.806   0.014  17.221  1.00  0.00    -0.530 OA
ENDBRANCH  16  19
ENDBRANCH  12  13
ENDBRANCH   9  12
ENDBRANCH   4   8
BRANCH   1  22
HETATM   22  N2  UNL     1      -0.687   3.730  11.975  1.00  0.00    -0.136 N 
ATOM     23  H2  UNL     1      -0.399   2.756  11.881  1.00  0.00     0.205 HD
BRANCH  22  24
HETATM   24  N1  UNL     1       0.272   4.725  11.784  1.00  0.00    -0.331 N 
ATOM     25  H12 UNL     1       1.237   4.425  11.647  1.00  0.00     0.177 HD
ATOM     26  H11 UNL     1       0.049   5.720  11.776  1.00  0.00     0.177 HD
ENDBRANCH  22  24
ENDBRANCH   1  22
BRANCH   7  27
HETATM   27  C8  UNL     1      -2.992   1.836  11.826  1.00  0.00     0.722 A 
HETATM   28  N10 UNL     1      -3.936   0.984  12.269  1.00  0.00    -0.151 N 
HETATM   29  C9  UNL     1      -3.967  -0.314  11.920  1.00  0.00     0.299 A 
ATOM     30  H10 UNL     1      -4.658   1.338  12.896  1.00  0.00     0.188 HD
HETATM   31  O4  UNL     1      -4.852  -1.108  12.336  1.00  0.00    -0.264 OA
HETATM   32  C10 UNL     1      -3.006  -0.827  11.075  1.00  0.00     0.200 A 
HETATM   33  F1  UNL     1      -3.003  -2.131  10.699  1.00  0.00    -0.199 F 
HETATM   34  C11 UNL     1      -2.041   0.044  10.622  1.00  0.00     0.154 A 
HETATM   35  N11 UNL     1      -2.055   1.332  11.000  1.00  0.00    -0.196 N 
ATOM     36  H11 UNL     1      -1.326   1.953  10.648  1.00  0.00     0.183 HD
ENDBRANCH   7  27
TORSDOF 7
ENDMDL
MODEL 5
REMARK VINA RESULT: -7.815227981      1.654      1.865
REMARK  7 active torsions:
REMARK  status: ('A' for Active; 'I' for Inactive)
REMARK    1  A    between atoms: N1_1  and  N2_4 
REMARK    2  A    between atoms: N2_4  and  C1_6 
REMARK    3  A    between atoms: C2_9  and  N4_10 
REMARK       I    between atoms: N4_10  and  C3_12 
REMARK    4  A    between atoms: C3_12  and  C4_14 
REMARK    5  A    between atoms: C4_14  and  N5_15 
REMARK    6  A    between atoms: C7_18  and  N6_19 
REMARK    7  A    between atoms: N9_26  and  C8_27 
ROOT
HETATM    1  C1  UNL     1      -3.427   5.963  13.507  1.00  0.00     0.747 A 
HETATM    2  N3  UNL     1      -2.321   6.407  12.842  1.00  0.00    -0.017 N 
ATOM      3  H3  UNL     1      -2.262   7.264  12.290  1.00  0.00     0.203 HD
HETATM    4  C2  UNL     1      -1.323   5.529  13.034  1.00  0.00     0.715 A 
HETATM    5  N8  UNL     1      -1.811   4.555  13.809  1.00  0.00    -0.095 N 
ATOM      6  H8  UNL     1      -1.288   3.740  14.128  1.00  0.00     0.207 HD
HETATM    7  N9  UNL     1      -3.076   4.809  14.097  1.00  0.00     0.106 N 
ENDROOT
BRANCH   4   8
HETATM    8  N4  UNL     1      -0.126   5.611  12.561  1.00  0.00    -0.156 N 
HETATM    9  C3  UNL     1       0.106   5.529  11.164  1.00  0.00     0.255 C 
HETATM   10  O1  UNL     1       0.291   6.574  10.493  1.00  0.00    -0.271 OA
ATOM     11  H4  UNL     1       0.660   5.735  13.198  1.00  0.00     0.187 HD
BRANCH   9  12
HETATM   12  C4  UNL     1       0.133   4.219  10.489  1.00  0.00     0.251 C 
BRANCH  12  13
HETATM   13  N5  UNL     1      -1.127   3.543  10.695  1.00  0.00    -0.293 N 
HETATM   14  C5  UNL     1      -1.221   2.256  11.145  1.00  0.00     0.114 A 
HETATM   15  C6  UNL     1      -2.547   1.915  11.232  1.00  0.00     0.075 A 
HETATM   16  C7  UNL     1      -3.259   3.017  10.828  1.00  0.00     0.189 A 
HETATM   17  N7  UNL     1      -2.355   3.992  10.507  1.00  0.00    -0.278 N 
ATOM     18  H7  UNL     1      -2.593   4.926  10.173  1.00  0.00     0.189 HD
BRANCH  16  19
HETATM   19  N6  UNL     1      -4.673   3.141  10.750  1.00  0.00    -0.097 N 
HETATM   20  O2  UNL     1      -5.167   4.203  10.308  1.00  0.00    -0.530 OA
HETATM   21  O3  UNL     1      -5.453   2.108  11.156  1.00  0.00    -0.530 OA
ENDBRANCH  16  19
ENDBRANCH  12  13
ENDBRANCH   9  12
ENDBRANCH   4   8
BRANCH   1  22
HETATM   22  N2  UNL     1      -4.531   6.609  13.497  1.00  0.00    -0.136 N 
ATOM     23  H2  UNL     1      -4.831   7.072  14.355  1.00  0.00     0.205 HD
BRANCH  22  24
HETATM   24  N1  UNL     1      -5.346   6.711  12.369  1.00  0.00    -0.331 N 
ATOM     25  H12 UNL     1      -5.358   5.919  11.727  1.00  0.00     0.177 HD
ATOM     26  H11 UNL     1      -5.918   7.531  12.167  1.00  0.00     0.177 HD
ENDBRANCH  22  24
ENDBRANCH   1  22
BRANCH   7  27
HETATM   27  C8  UNL     1      -3.969   4.029  14.895  1.00  0.00     0.722 A 
HETATM   28  N10 UNL     1      -3.558   2.873  15.451  1.00  0.00    -0.151 N 
HETATM   29  C9  UNL     1      -4.359   2.104  16.208  1.00  0.00     0.299 A 
ATOM     30  H10 UNL     1      -2.598   2.569  15.290  1.00  0.00     0.188 HD
HETATM   31  O4  UNL     1      -3.970   1.024  16.726  1.00  0.00    -0.264 OA
HETATM   32  C10 UNL     1      -5.663   2.484  16.445  1.00  0.00     0.200 A 
HETATM   33  F1  UNL     1      -6.502   1.736  17.204  1.00  0.00    -0.199 F 
HETATM   34  C11 UNL     1      -6.083   3.666  15.877  1.00  0.00     0.154 A 
HETATM   35  N11 UNL     1      -5.244   4.398  15.129  1.00  0.00    -0.196 N 
ATOM     36  H11 UNL     1      -5.584   5.269  14.720  1.00  0.00     0.183 HD
ENDBRANCH   7  27
TORSDOF 7
ENDMDL
