MODEL 1
REMARK VINA RESULT: -9.298052945      0.000      0.000
REMARK  7 active torsions:
REMARK  status: ('A' for Active; 'I' for Inactive)
REMARK    1  A    between atoms: C2_2  and  N1_3 
REMARK    2  A    between atoms: C2_2  and  C11_23 
REMARK    3  A    between atoms: N1_3  and  C3_5 
REMARK    4  A    between atoms: C6_14  and  N5_15 
REMARK    5  A    between atoms: C12_26  and  C13_27 
REMARK    6  A    between atoms: C13_27  and  N8_28 
REMARK    7  A    between atoms: C14_33  and  S2_34 
ROOT
HETATM    1  N1  UNL     1      19.589 -22.865  21.774  1.00  0.00    -0.366 N 
ATOM      2  H1  UNL     1      18.884 -22.136  21.890  1.00  0.00     0.161 HD
ENDROOT
BRANCH   1   3
HETATM    3  C2  UNL     1      19.028 -23.833  20.929  1.00  0.00     0.131 C 
HETATM    4  C1  UNL     1      20.136 -24.954  20.713  1.00  0.00     0.039 C 
BRANCH   3   5
HETATM    5  C11 UNL     1      17.860 -24.612  21.537  1.00  0.00     0.061 A 
HETATM    6  N7  UNL     1      17.551 -24.401  22.795  1.00  0.00    -0.353 N 
HETATM    7  C12 UNL     1      16.493 -24.968  23.324  1.00  0.00     0.078 A 
ATOM      8  H7  UNL     1      18.137 -23.792  23.365  1.00  0.00     0.166 HD
HETATM    9  S1  UNL     1      15.866 -25.861  22.021  1.00  0.00    -0.061 SA
HETATM   10  C14 UNL     1      17.030 -25.442  20.843  1.00  0.00     0.125 A 
BRANCH   7  11
HETATM   11  C13 UNL     1      15.957 -24.861  24.737  1.00  0.00     0.294 C 
BRANCH  11  12
HETATM   12  N8  UNL     1      15.964 -26.195  25.273  1.00  0.00    -0.074 N 
ATOM     13  H83 UNL     1      16.316 -26.893  24.617  1.00  0.00     0.274 HD
ATOM     14  H82 UNL     1      16.667 -26.337  25.998  1.00  0.00     0.274 HD
ATOM     15  H81 UNL     1      15.013 -26.380  25.590  1.00  0.00     0.274 HD
ENDBRANCH  11  12
ENDBRANCH   7  11
BRANCH  10  16
HETATM   16  S2  UNL     1      17.111 -26.097  19.216  1.00  0.00     0.180 S 
HETATM   17  C15 UNL     1      15.854 -27.392  19.133  1.00  0.00     0.167 C 
HETATM   18  O2  UNL     1      18.421 -26.807  19.001  1.00  0.00    -0.222 OA
HETATM   19  O3  UNL     1      16.812 -25.094  18.188  1.00  0.00    -0.222 OA
ENDBRANCH  10  16
ENDBRANCH   3   5
ENDBRANCH   1   3
BRANCH   1  20
HETATM   20  C3  UNL     1      20.567 -22.516  22.437  1.00  0.00     0.122 A 
HETATM   21  N2  UNL     1      21.817 -23.013  22.356  1.00  0.00    -0.338 N 
HETATM   22  C4  UNL     1      22.874 -22.629  23.083  1.00  0.00     0.183 A 
ATOM     23  H2  UNL     1      21.973 -23.754  21.674  1.00  0.00     0.168 HD
HETATM   24  N3  UNL     1      22.739 -21.681  23.984  1.00  0.00    -0.337 N 
HETATM   25  C5  UNL     1      21.522 -21.110  24.151  1.00  0.00     0.141 A 
ATOM     26  H3  UNL     1      23.536 -21.381  24.546  1.00  0.00     0.168 HD
HETATM   27  N4  UNL     1      21.403 -20.123  25.086  1.00  0.00    -0.175 N 
HETATM   28  C10 UNL     1      20.432 -21.492  23.412  1.00  0.00     0.121 A 
HETATM   29  C6  UNL     1      20.259 -19.501  25.325  1.00  0.00     0.684 A 
ATOM     30  H4  UNL     1      22.228 -19.853  25.621  1.00  0.00     0.186 HD
HETATM   31  N6  UNL     1      19.193 -19.867  24.615  1.00  0.00    -0.155 N 
HETATM   32  C9  UNL     1      19.246 -20.847  23.663  1.00  0.00     0.277 A 
ATOM     33  H6  UNL     1      18.304 -19.399  24.789  1.00  0.00     0.187 HD
HETATM   34  O1  UNL     1      18.224 -21.159  23.028  1.00  0.00    -0.266 OA
BRANCH  29  35
HETATM   35  N5  UNL     1      20.242 -18.485  26.329  1.00  0.00    -0.226 N 
HETATM   36  C7  UNL     1      19.006 -17.973  26.866  1.00  0.00     0.168 C 
HETATM   37  C8  UNL     1      21.498 -17.951  26.817  1.00  0.00     0.168 C 
ENDBRANCH  29  35
ENDBRANCH   1  20
TORSDOF 7
ENDMDL
MODEL 2
REMARK VINA RESULT: -8.578675593      4.056      7.834
REMARK  7 active torsions:
REMARK  status: ('A' for Active; 'I' for Inactive)
REMARK    1  A    between atoms: C2_2  and  N1_3 
REMARK    2  A    between atoms: C2_2  and  C11_23 
REMARK    3  A    between atoms: N1_3  and  C3_5 
REMARK    4  A    between atoms: C6_14  and  N5_15 
REMARK    5  A    between atoms: C12_26  and  C13_27 
REMARK    6  A    between atoms: C13_27  and  N8_28 
REMARK    7  A    between atoms: C14_33  and  S2_34 
ROOT
HETATM    1  N1  UNL     1      20.705 -19.790  25.141  1.00  0.00    -0.366 N 
ATOM      2  H1  UNL     1      19.846 -19.760  24.590  1.00  0.00     0.161 HD
ENDROOT
BRANCH   1   3
HETATM    3  C2  UNL     1      20.550 -18.851  26.171  1.00  0.00     0.131 C 
HETATM    4  C1  UNL     1      20.720 -17.412  25.512  1.00  0.00     0.039 C 
BRANCH   3   5
HETATM    5  C11 UNL     1      19.146 -18.791  26.775  1.00  0.00     0.061 A 
HETATM    6  N7  UNL     1      18.170 -19.418  26.162  1.00  0.00    -0.353 N 
HETATM    7  C12 UNL     1      16.976 -19.481  26.701  1.00  0.00     0.078 A 
ATOM      8  H7  UNL     1      18.341 -19.860  25.258  1.00  0.00     0.166 HD
HETATM    9  S1  UNL     1      17.184 -18.622  28.152  1.00  0.00    -0.061 SA
HETATM   10  C14 UNL     1      18.836 -18.223  27.976  1.00  0.00     0.125 A 
BRANCH   7  11
HETATM   11  C13 UNL     1      15.722 -20.147  26.172  1.00  0.00     0.294 C 
BRANCH  11  12
HETATM   12  N8  UNL     1      16.085 -20.755  24.922  1.00  0.00    -0.074 N 
ATOM     13  H83 UNL     1      15.290 -20.918  24.304  1.00  0.00     0.274 HD
ATOM     14  H82 UNL     1      16.601 -20.130  24.301  1.00  0.00     0.274 HD
ATOM     15  H81 UNL     1      16.598 -21.606  25.156  1.00  0.00     0.274 HD
ENDBRANCH  11  12
ENDBRANCH   7  11
BRANCH  10  16
HETATM   16  S2  UNL     1      19.758 -17.206  29.070  1.00  0.00     0.180 S 
HETATM   17  C15 UNL     1      19.799 -15.564  28.315  1.00  0.00     0.167 C 
HETATM   18  O2  UNL     1      21.196 -17.652  29.114  1.00  0.00    -0.222 OA
HETATM   19  O3  UNL     1      19.139 -17.092  30.394  1.00  0.00    -0.222 OA
ENDBRANCH  10  16
ENDBRANCH   3   5
ENDBRANCH   1   3
BRANCH   1  20
HETATM   20  C3  UNL     1      21.431 -20.634  24.615  1.00  0.00     0.122 A 
HETATM   21  N2  UNL     1      22.730 -20.864  24.887  1.00  0.00    -0.338 N 
HETATM   22  C4  UNL     1      23.514 -21.783  24.309  1.00  0.00     0.183 A 
ATOM     23  H2  UNL     1      23.160 -20.280  25.604  1.00  0.00     0.168 HD
HETATM   24  N3  UNL     1      23.022 -22.566  23.374  1.00  0.00    -0.337 N 
HETATM   25  C5  UNL     1      21.723 -22.421  23.019  1.00  0.00     0.141 A 
ATOM     26  H3  UNL     1      23.608 -23.269  22.923  1.00  0.00     0.168 HD
HETATM   27  N4  UNL     1      21.229 -23.247  22.051  1.00  0.00    -0.175 N 
HETATM   28  C10 UNL     1      20.909 -21.485  23.605  1.00  0.00     0.121 A 
HETATM   29  C6  UNL     1      19.974 -23.187  21.635  1.00  0.00     0.684 A 
ATOM     30  H4  UNL     1      21.852 -23.937  21.632  1.00  0.00     0.186 HD
HETATM   31  N6  UNL     1      19.177 -22.279  22.195  1.00  0.00    -0.155 N 
HETATM   32  C9  UNL     1      19.608 -21.424  23.170  1.00  0.00     0.277 A 
ATOM     33  H6  UNL     1      18.207 -22.219  21.884  1.00  0.00     0.187 HD
HETATM   34  O1  UNL     1      18.830 -20.589  23.661  1.00  0.00    -0.266 OA
BRANCH  29  35
HETATM   35  N5  UNL     1      19.559 -24.095  20.613  1.00  0.00    -0.226 N 
HETATM   36  C7  UNL     1      18.192 -24.149  20.158  1.00  0.00     0.168 C 
HETATM   37  C8  UNL     1      20.536 -24.987  20.020  1.00  0.00     0.168 C 
ENDBRANCH  29  35
ENDBRANCH   1  20
TORSDOF 7
ENDMDL
MODEL 3
REMARK VINA RESULT: -8.027718759      3.006      7.726
REMARK  7 active torsions:
REMARK  status: ('A' for Active; 'I' for Inactive)
REMARK    1  A    between atoms: C2_2  and  N1_3 
REMARK    2  A    between atoms: C2_2  and  C11_23 
REMARK    3  A    between atoms: N1_3  and  C3_5 
REMARK    4  A    between atoms: C6_14  and  N5_15 
REMARK    5  A    between atoms: C12_26  and  C13_27 
REMARK    6  A    between atoms: C13_27  and  N8_28 
REMARK    7  A    between atoms: C14_33  and  S2_34 
ROOT
HETATM    1  N1  UNL     1      18.707 -22.824  22.857  1.00  0.00    -0.366 N 
ATOM      2  H1  UNL     1      19.612 -23.289  22.769  1.00  0.00     0.161 HD
ENDROOT
BRANCH   1   3
HETATM    3  C2  UNL     1      18.964 -21.446  22.841  1.00  0.00     0.131 C 
HETATM    4  C1  UNL     1      17.674 -20.730  23.439  1.00  0.00     0.039 C 
BRANCH   3   5
HETATM    5  C11 UNL     1      20.080 -20.993  23.784  1.00  0.00     0.061 A 
HETATM    6  N7  UNL     1      19.865 -19.961  24.564  1.00  0.00    -0.353 N 
HETATM    7  C12 UNL     1      20.754 -19.606  25.460  1.00  0.00     0.078 A 
ATOM      8  H7  UNL     1      18.998 -19.430  24.474  1.00  0.00     0.166 HD
HETATM    9  S1  UNL     1      21.985 -20.755  25.230  1.00  0.00    -0.061 SA
HETATM   10  C14 UNL     1      21.264 -21.647  23.963  1.00  0.00     0.125 A 
BRANCH   7  11
HETATM   11  C13 UNL     1      20.708 -18.462  26.453  1.00  0.00     0.294 C 
BRANCH  11  12
HETATM   12  N8  UNL     1      22.059 -17.995  26.594  1.00  0.00    -0.074 N 
ATOM     13  H83 UNL     1      22.746 -18.599  26.141  1.00  0.00     0.274 HD
ATOM     14  H82 UNL     1      22.256 -17.153  26.053  1.00  0.00     0.274 HD
ATOM     15  H81 UNL     1      22.219 -17.879  27.594  1.00  0.00     0.274 HD
ENDBRANCH  11  12
ENDBRANCH   7  11
BRANCH  10  16
HETATM   16  S2  UNL     1      22.021 -22.971  23.093  1.00  0.00     0.180 S 
HETATM   17  C15 UNL     1      23.711 -23.085  23.724  1.00  0.00     0.167 C 
HETATM   18  O2  UNL     1      22.170 -22.623  21.636  1.00  0.00    -0.222 OA
HETATM   19  O3  UNL     1      21.352 -24.255  23.324  1.00  0.00    -0.222 OA
ENDBRANCH  10  16
ENDBRANCH   3   5
ENDBRANCH   1   3
BRANCH   1  20
HETATM   20  C3  UNL     1      17.861 -23.715  22.932  1.00  0.00     0.122 A 
HETATM   21  N2  UNL     1      17.050 -23.974  23.977  1.00  0.00    -0.338 N 
HETATM   22  C4  UNL     1      16.133 -24.947  24.051  1.00  0.00     0.183 A 
ATOM     23  H2  UNL     1      17.144 -23.368  24.792  1.00  0.00     0.168 HD
HETATM   24  N3  UNL     1      15.965 -25.765  23.036  1.00  0.00    -0.337 N 
HETATM   25  C5  UNL     1      16.729 -25.598  21.930  1.00  0.00     0.141 A 
ATOM     26  H3  UNL     1      15.271 -26.512  23.079  1.00  0.00     0.168 HD
HETATM   27  N4  UNL     1      16.536 -26.453  20.884  1.00  0.00    -0.175 N 
HETATM   28  C10 UNL     1      17.670 -24.603  21.840  1.00  0.00     0.121 A 
HETATM   29  C6  UNL     1      17.229 -26.373  19.760  1.00  0.00     0.684 A 
ATOM     30  H4  UNL     1      15.828 -27.182  20.972  1.00  0.00     0.186 HD
HETATM   31  N6  UNL     1      18.148 -25.414  19.664  1.00  0.00    -0.155 N 
HETATM   32  C9  UNL     1      18.390 -24.524  20.674  1.00  0.00     0.277 A 
ATOM     33  H6  UNL     1      18.693 -25.339  18.804  1.00  0.00     0.187 HD
HETATM   34  O1  UNL     1      19.261 -23.648  20.542  1.00  0.00    -0.266 OA
BRANCH  29  35
HETATM   35  N5  UNL     1      16.951 -27.320  18.727  1.00  0.00    -0.226 N 
HETATM   36  C7  UNL     1      17.054 -28.740  18.955  1.00  0.00     0.168 C 
HETATM   37  C8  UNL     1      16.559 -26.842  17.415  1.00  0.00     0.168 C 
ENDBRANCH  29  35
ENDBRANCH   1  20
TORSDOF 7
ENDMDL
MODEL 4
REMARK VINA RESULT: -8.013622825      4.468      7.648
REMARK  7 active torsions:
REMARK  status: ('A' for Active; 'I' for Inactive)
REMARK    1  A    between atoms: C2_2  and  N1_3 
REMARK    2  A    between atoms: C2_2  and  C11_23 
REMARK    3  A    between atoms: N1_3  and  C3_5 
REMARK    4  A    between atoms: C6_14  and  N5_15 
REMARK    5  A    between atoms: C12_26  and  C13_27 
REMARK    6  A    between atoms: C13_27  and  N8_28 
REMARK    7  A    between atoms: C14_33  and  S2_34 
ROOT
HETATM    1  N1  UNL     1      16.399 -19.959  26.349  1.00  0.00    -0.366 N 
ATOM      2  H1  UNL     1      15.952 -20.363  25.525  1.00  0.00     0.161 HD
ENDROOT
BRANCH   1   3
HETATM    3  C2  UNL     1      15.430 -19.943  27.362  1.00  0.00     0.131 C 
HETATM    4  C1  UNL     1      14.032 -20.255  26.668  1.00  0.00     0.039 C 
BRANCH   3   5
HETATM    5  C11 UNL     1      15.564 -21.066  28.392  1.00  0.00     0.061 A 
HETATM    6  N7  UNL     1      15.118 -22.260  28.082  1.00  0.00    -0.353 N 
HETATM    7  C12 UNL     1      15.308 -23.273  28.893  1.00  0.00     0.078 A 
ATOM      8  H7  UNL     1      14.619 -22.402  27.204  1.00  0.00     0.166 HD
HETATM    9  S1  UNL     1      16.155 -22.557  30.181  1.00  0.00    -0.061 SA
HETATM   10  C14 UNL     1      16.216 -20.957  29.585  1.00  0.00     0.125 A 
BRANCH   7  11
HETATM   11  C13 UNL     1      14.884 -24.719  28.733  1.00  0.00     0.294 C 
BRANCH  11  12
HETATM   12  N8  UNL     1      15.921 -25.361  27.971  1.00  0.00    -0.074 N 
ATOM     13  H83 UNL     1      16.305 -24.770  27.233  1.00  0.00     0.274 HD
ATOM     14  H82 UNL     1      16.788 -25.489  28.494  1.00  0.00     0.274 HD
ATOM     15  H81 UNL     1      15.523 -26.234  27.626  1.00  0.00     0.274 HD
ENDBRANCH  11  12
ENDBRANCH   7  11
BRANCH  10  16
HETATM   16  S2  UNL     1      16.861 -19.574  30.453  1.00  0.00     0.180 S 
HETATM   17  C15 UNL     1      17.665 -20.237  31.929  1.00  0.00     0.167 C 
HETATM   18  O2  UNL     1      15.741 -18.711  30.971  1.00  0.00    -0.222 OA
HETATM   19  O3  UNL     1      17.859 -18.833  29.675  1.00  0.00    -0.222 OA
ENDBRANCH  10  16
ENDBRANCH   3   5
ENDBRANCH   1   3
BRANCH   1  20
HETATM   20  C3  UNL     1      17.558 -19.696  26.025  1.00  0.00     0.122 A 
HETATM   21  N2  UNL     1      18.347 -18.741  26.555  1.00  0.00    -0.338 N 
HETATM   22  C4  UNL     1      19.606 -18.459  26.195  1.00  0.00     0.183 A 
ATOM     23  H2  UNL     1      17.947 -18.178  27.305  1.00  0.00     0.168 HD
HETATM   24  N3  UNL     1      20.180 -19.146  25.232  1.00  0.00    -0.337 N 
HETATM   25  C5  UNL     1      19.476 -20.132  24.626  1.00  0.00     0.141 A 
ATOM     26  H3  UNL     1      21.138 -18.940  24.947  1.00  0.00     0.168 HD
HETATM   27  N4  UNL     1      20.091 -20.839  23.633  1.00  0.00    -0.175 N 
HETATM   28  C10 UNL     1      18.187 -20.432  24.987  1.00  0.00     0.121 A 
HETATM   29  C6  UNL     1      19.491 -21.821  22.981  1.00  0.00     0.684 A 
ATOM     30  H4  UNL     1      21.051 -20.600  23.385  1.00  0.00     0.186 HD
HETATM   31  N6  UNL     1      18.238 -22.118  23.320  1.00  0.00    -0.155 N 
HETATM   32  C9  UNL     1      17.567 -21.451  24.307  1.00  0.00     0.277 A 
ATOM     33  H6  UNL     1      17.761 -22.872  22.826  1.00  0.00     0.187 HD
HETATM   34  O1  UNL     1      16.395 -21.759  24.587  1.00  0.00    -0.266 OA
BRANCH  29  35
HETATM   35  N5  UNL     1      20.222 -22.494  21.955  1.00  0.00    -0.226 N 
HETATM   36  C7  UNL     1      19.654 -22.733  20.652  1.00  0.00     0.168 C 
HETATM   37  C8  UNL     1      21.570 -22.953  22.232  1.00  0.00     0.168 C 
ENDBRANCH  29  35
ENDBRANCH   1  20
TORSDOF 7
ENDMDL
MODEL 5
REMARK VINA RESULT: -7.928811466      1.692      1.952
REMARK  7 active torsions:
REMARK  status: ('A' for Active; 'I' for Inactive)
REMARK    1  A    between atoms: C2_2  and  N1_3 
REMARK    2  A    between atoms: C2_2  and  C11_23 
REMARK    3  A    between atoms: N1_3  and  C3_5 
REMARK    4  A    between atoms: C6_14  and  N5_15 
REMARK    5  A    between atoms: C12_26  and  C13_27 
REMARK    6  A    between atoms: C13_27  and  N8_28 
REMARK    7  A    between atoms: C14_33  and  S2_34 
ROOT
HETATM    1  N1  UNL     1      18.672 -24.252  21.266  1.00  0.00    -0.366 N 
ATOM      2  H1  UNL     1      17.979 -23.567  21.572  1.00  0.00     0.161 HD
ENDROOT
BRANCH   1   3
HETATM    3  C2  UNL     1      17.956 -25.362  20.795  1.00  0.00     0.131 C 
HETATM    4  C1  UNL     1      18.944 -26.608  20.855  1.00  0.00     0.039 C 
BRANCH   3   5
HETATM    5  C11 UNL     1      16.793 -25.798  21.687  1.00  0.00     0.061 A 
HETATM    6  N7  UNL     1      16.761 -25.376  22.929  1.00  0.00    -0.353 N 
HETATM    7  C12 UNL     1      15.730 -25.640  23.695  1.00  0.00     0.078 A 
ATOM      8  H7  UNL     1      17.544 -24.840  23.302  1.00  0.00     0.166 HD
HETATM    9  S1  UNL     1      14.721 -26.531  22.658  1.00  0.00    -0.061 SA
HETATM   10  C14 UNL     1      15.710 -26.512  21.265  1.00  0.00     0.125 A 
BRANCH   7  11
HETATM   11  C13 UNL     1      15.488 -25.252  25.141  1.00  0.00     0.294 C 
BRANCH  11  12
HETATM   12  N8  UNL     1      15.692 -23.832  25.216  1.00  0.00    -0.074 N 
ATOM     13  H83 UNL     1      16.164 -23.446  24.398  1.00  0.00     0.274 HD
ATOM     14  H82 UNL     1      14.829 -23.293  25.129  1.00  0.00     0.274 HD
ATOM     15  H81 UNL     1      16.189 -23.660  26.090  1.00  0.00     0.274 HD
ENDBRANCH  11  12
ENDBRANCH   7  11
BRANCH  10  16
HETATM   16  S2  UNL     1      15.371 -27.360  19.766  1.00  0.00     0.180 S 
HETATM   17  C15 UNL     1      16.534 -28.741  19.696  1.00  0.00     0.167 C 
HETATM   18  O2  UNL     1      15.719 -26.495  18.584  1.00  0.00    -0.222 OA
HETATM   19  O3  UNL     1      14.007 -27.898  19.717  1.00  0.00    -0.222 OA
ENDBRANCH  10  16
ENDBRANCH   3   5
ENDBRANCH   1   3
BRANCH   1  20
HETATM   20  C3  UNL     1      19.777 -23.748  21.471  1.00  0.00     0.122 A 
HETATM   21  N2  UNL     1      20.931 -24.050  20.844  1.00  0.00    -0.338 N 
HETATM   22  C4  UNL     1      22.130 -23.499  21.075  1.00  0.00     0.183 A 
ATOM     23  H2  UNL     1      20.887 -24.769  20.122  1.00  0.00     0.168 HD
HETATM   24  N3  UNL     1      22.255 -22.569  21.996  1.00  0.00    -0.337 N 
HETATM   25  C5  UNL     1      21.157 -22.187  22.691  1.00  0.00     0.141 A 
ATOM     26  H3  UNL     1      23.162 -22.142  22.183  1.00  0.00     0.168 HD
HETATM   27  N4  UNL     1      21.305 -21.216  23.638  1.00  0.00    -0.175 N 
HETATM   28  C10 UNL     1      19.923 -22.742  22.462  1.00  0.00     0.121 A 
HETATM   29  C6  UNL     1      20.295 -20.772  24.369  1.00  0.00     0.684 A 
ATOM     30  H4  UNL     1      22.231 -20.816  23.787  1.00  0.00     0.186 HD
HETATM   31  N6  UNL     1      19.094 -21.307  24.159  1.00  0.00    -0.155 N 
HETATM   32  C9  UNL     1      18.877 -22.282  23.225  1.00  0.00     0.277 A 
ATOM     33  H6  UNL     1      18.305 -20.977  24.715  1.00  0.00     0.187 HD
HETATM   34  O1  UNL     1      17.739 -22.756  23.065  1.00  0.00    -0.266 OA
BRANCH  29  35
HETATM   35  N5  UNL     1      20.560 -19.756  25.337  1.00  0.00    -0.226 N 
HETATM   36  C7  UNL     1      19.579 -18.752  25.667  1.00  0.00     0.168 C 
HETATM   37  C8  UNL     1      21.848 -19.729  26.002  1.00  0.00     0.168 C 
ENDBRANCH  29  35
ENDBRANCH   1  20
TORSDOF 7
ENDMDL
