MODEL 1
REMARK VINA RESULT: -8.480929100      0.000      0.000
REMARK  5 active torsions:
REMARK  status: ('A' for Active; 'I' for Inactive)
REMARK    1  A    between atoms: O1_2  and  C2_3 
REMARK    2  A    between atoms: C7_10  and  O4_12 
REMARK    3  A    between atoms: O4_12  and  C9_13 
REMARK    4  A    between atoms: C9_13  and  C10_15 
REMARK    5  A    between atoms: C13_20  and  S1_21 
ROOT
HETATM    1  C2  UNL     1      16.027 -27.928  17.088  1.00  0.00     0.231 C 
HETATM    2  C3  UNL     1      16.364 -28.131  15.604  1.00  0.00     0.089 C 
HETATM    3  O2  UNL     1      16.914 -28.680  17.871  1.00  0.00    -0.318 OA
HETATM    4  C4  UNL     1      17.429 -28.293  19.089  1.00  0.00     0.155 C 
HETATM    5  C5  UNL     1      17.370 -27.031  19.510  1.00  0.00     0.052 C 
HETATM    6  C6  UNL     1      17.915 -26.622  20.797  1.00  0.00     0.217 C 
HETATM    7  O3  UNL     1      18.552 -27.461  21.462  1.00  0.00    -0.287 OA
HETATM    8  C7  UNL     1      17.707 -25.237  21.289  1.00  0.00     0.206 C 
HETATM    9  C8  UNL     1      16.612 -25.332  22.361  1.00  0.00     0.081 C 
HETATM   10  N2  UNL     1      17.181 -24.388  20.252  1.00  0.00    -0.361 N 
ATOM     11  H2  UNL     1      17.185 -23.385  20.434  1.00  0.00     0.162 HD
HETATM   12  C15 UNL     1      16.662 -24.802  19.015  1.00  0.00     0.102 C 
HETATM   13  C16 UNL     1      16.734 -26.055  18.624  1.00  0.00     0.046 C 
HETATM   14  C17 UNL     1      16.207 -26.493  17.360  1.00  0.00     0.223 C 
HETATM   15  O8  UNL     1      15.905 -25.647  16.495  1.00  0.00    -0.286 OA
ENDROOT
BRANCH   8  16
HETATM   16  O4  UNL     1      18.837 -24.705  21.921  1.00  0.00    -0.277 OA
BRANCH  16  17
HETATM   17  C9  UNL     1      19.451 -23.522  21.615  1.00  0.00     0.314 C 
HETATM   18  O5  UNL     1      19.964 -23.404  20.475  1.00  0.00    -0.257 OA
BRANCH  17  19
HETATM   19  C10 UNL     1      19.549 -22.393  22.526  1.00  0.00     0.130 A 
HETATM   20  N1  UNL     1      18.522 -21.561  22.792  1.00  0.00    -0.360 N 
HETATM   21  C11 UNL     1      18.892 -20.604  23.668  1.00  0.00     0.090 A 
ATOM     22  H1  UNL     1      17.590 -21.644  22.386  1.00  0.00     0.165 HD
HETATM   23  C12 UNL     1      20.215 -20.839  23.971  1.00  0.00     0.043 A 
HETATM   24  C13 UNL     1      20.615 -21.959  23.252  1.00  0.00     0.092 A 
BRANCH  24  25
HETATM   25  S1  UNL     1      22.187 -22.675  23.277  1.00  0.00     0.174 S 
HETATM   26  C14 UNL     1      23.313 -21.633  24.219  1.00  0.00     0.167 C 
HETATM   27  O6  UNL     1      22.803 -22.861  21.943  1.00  0.00    -0.223 OA
HETATM   28  O7  UNL     1      22.083 -24.010  24.001  1.00  0.00    -0.223 OA
ENDBRANCH  24  25
ENDBRANCH  17  19
ENDBRANCH  16  17
ENDBRANCH   8  16
BRANCH   1  29
HETATM   29  O1  UNL     1      14.714 -28.344  17.253  1.00  0.00    -0.354 OA
HETATM   30  C1  UNL     1      14.231 -29.110  16.221  1.00  0.00     0.206 C 
ENDBRANCH   1  29
TORSDOF 5
ENDMDL
MODEL 2
REMARK VINA RESULT: -8.430120944      3.004      8.983
REMARK  5 active torsions:
REMARK  status: ('A' for Active; 'I' for Inactive)
REMARK    1  A    between atoms: O1_2  and  C2_3 
REMARK    2  A    between atoms: C7_10  and  O4_12 
REMARK    3  A    between atoms: O4_12  and  C9_13 
REMARK    4  A    between atoms: C9_13  and  C10_15 
REMARK    5  A    between atoms: C13_20  and  S1_21 
ROOT
HETATM    1  C2  UNL     1      21.550 -18.925  26.044  1.00  0.00     0.231 C 
HETATM    2  C3  UNL     1      21.315 -18.375  27.459  1.00  0.00     0.089 C 
HETATM    3  O2  UNL     1      22.237 -20.144  26.131  1.00  0.00    -0.318 OA
HETATM    4  C4  UNL     1      22.037 -21.233  25.310  1.00  0.00     0.155 C 
HETATM    5  C5  UNL     1      20.959 -21.344  24.538  1.00  0.00     0.052 C 
HETATM    6  C6  UNL     1      20.747 -22.495  23.670  1.00  0.00     0.217 C 
HETATM    7  O3  UNL     1      21.548 -23.447  23.747  1.00  0.00    -0.287 OA
HETATM    8  C7  UNL     1      19.604 -22.516  22.725  1.00  0.00     0.206 C 
HETATM    9  C8  UNL     1      20.199 -22.229  21.339  1.00  0.00     0.081 C 
HETATM   10  N2  UNL     1      18.682 -21.445  22.996  1.00  0.00    -0.361 N 
ATOM     11  H2  UNL     1      17.776 -21.490  22.529  1.00  0.00     0.162 HD
HETATM   12  C15 UNL     1      18.903 -20.345  23.838  1.00  0.00     0.102 C 
HETATM   13  C16 UNL     1      19.977 -20.259  24.591  1.00  0.00     0.046 C 
HETATM   14  C17 UNL     1      20.217 -19.138  25.459  1.00  0.00     0.223 C 
HETATM   15  O8  UNL     1      19.286 -18.348  25.711  1.00  0.00    -0.286 OA
ENDROOT
BRANCH   8  16
HETATM   16  O4  UNL     1      18.987 -23.771  22.639  1.00  0.00    -0.277 OA
BRANCH  16  17
HETATM   17  C9  UNL     1      17.696 -24.060  22.984  1.00  0.00     0.314 C 
HETATM   18  O5  UNL     1      17.144 -23.340  23.853  1.00  0.00    -0.257 OA
BRANCH  17  19
HETATM   19  C10 UNL     1      16.922 -25.149  22.412  1.00  0.00     0.130 A 
HETATM   20  N1  UNL     1      16.204 -26.020  23.151  1.00  0.00    -0.360 N 
HETATM   21  C11 UNL     1      15.588 -26.926  22.364  1.00  0.00     0.090 A 
ATOM     22  H1  UNL     1      16.136 -25.997  24.168  1.00  0.00     0.165 HD
HETATM   23  C12 UNL     1      15.931 -26.617  21.066  1.00  0.00     0.043 A 
HETATM   24  C13 UNL     1      16.765 -25.506  21.108  1.00  0.00     0.092 A 
BRANCH  24  25
HETATM   25  S1  UNL     1      17.474 -24.715  19.746  1.00  0.00     0.174 S 
HETATM   26  C14 UNL     1      19.205 -25.187  19.603  1.00  0.00     0.167 C 
HETATM   27  O6  UNL     1      17.445 -23.236  19.805  1.00  0.00    -0.223 OA
HETATM   28  O7  UNL     1      16.759 -25.206  18.494  1.00  0.00    -0.223 OA
ENDBRANCH  24  25
ENDBRANCH  17  19
ENDBRANCH  16  17
ENDBRANCH   8  16
BRANCH   1  29
HETATM   29  O1  UNL     1      22.287 -17.965  25.366  1.00  0.00    -0.354 OA
HETATM   30  C1  UNL     1      21.877 -16.674  25.594  1.00  0.00     0.206 C 
ENDBRANCH   1  29
TORSDOF 5
ENDMDL
MODEL 3
REMARK VINA RESULT: -8.085318221      2.241      4.028
REMARK  5 active torsions:
REMARK  status: ('A' for Active; 'I' for Inactive)
REMARK    1  A    between atoms: O1_2  and  C2_3 
REMARK    2  A    between atoms: C7_10  and  O4_12 
REMARK    3  A    between atoms: O4_12  and  C9_13 
REMARK    4  A    between atoms: C9_13  and  C10_15 
REMARK    5  A    between atoms: C13_20  and  S1_21 
ROOT
HETATM    1  C2  UNL     1      16.911 -27.145  19.679  1.00  0.00     0.231 C 
HETATM    2  C3  UNL     1      15.659 -27.884  20.174  1.00  0.00     0.089 C 
HETATM    3  O2  UNL     1      16.545 -25.872  19.220  1.00  0.00    -0.318 OA
HETATM    4  C4  UNL     1      17.294 -24.726  19.367  1.00  0.00     0.155 C 
HETATM    5  C5  UNL     1      18.310 -24.653  20.224  1.00  0.00     0.052 C 
HETATM    6  C6  UNL     1      19.103 -23.440  20.379  1.00  0.00     0.217 C 
HETATM    7  O3  UNL     1      18.739 -22.416  19.771  1.00  0.00    -0.287 OA
HETATM    8  C7  UNL     1      20.310 -23.444  21.242  1.00  0.00     0.206 C 
HETATM    9  C8  UNL     1      21.511 -23.491  20.285  1.00  0.00     0.081 C 
HETATM   10  N2  UNL     1      20.382 -24.643  22.036  1.00  0.00    -0.361 N 
ATOM     11  H2  UNL     1      21.064 -24.651  22.793  1.00  0.00     0.162 HD
HETATM   12  C15 UNL     1      19.607 -25.801  21.872  1.00  0.00     0.102 C 
HETATM   13  C16 UNL     1      18.608 -25.846  21.018  1.00  0.00     0.046 C 
HETATM   14  C17 UNL     1      17.805 -27.025  20.840  1.00  0.00     0.223 C 
HETATM   15  O8  UNL     1      17.874 -27.946  21.679  1.00  0.00    -0.286 OA
ENDROOT
BRANCH   8  16
HETATM   16  O4  UNL     1      20.449 -22.271  21.995  1.00  0.00    -0.277 OA
BRANCH  16  17
HETATM   17  C9  UNL     1      20.973 -22.178  23.254  1.00  0.00     0.314 C 
HETATM   18  O5  UNL     1      21.733 -23.099  23.644  1.00  0.00    -0.257 OA
BRANCH  17  19
HETATM   19  C10 UNL     1      20.707 -21.082  24.171  1.00  0.00     0.130 A 
HETATM   20  N1  UNL     1      21.672 -20.432  24.854  1.00  0.00    -0.360 N 
HETATM   21  C11 UNL     1      21.144 -19.463  25.629  1.00  0.00     0.090 A 
ATOM     22  H1  UNL     1      22.668 -20.645  24.792  1.00  0.00     0.165 HD
HETATM   23  C12 UNL     1      19.781 -19.499  25.430  1.00  0.00     0.043 A 
HETATM   24  C13 UNL     1      19.520 -20.514  24.517  1.00  0.00     0.092 A 
BRANCH  24  25
HETATM   25  S1  UNL     1      17.963 -20.972  23.925  1.00  0.00     0.174 S 
HETATM   26  C14 UNL     1      16.702 -20.537  25.133  1.00  0.00     0.167 C 
HETATM   27  O6  UNL     1      17.805 -22.419  23.656  1.00  0.00    -0.223 OA
HETATM   28  O7  UNL     1      17.686 -20.168  22.662  1.00  0.00    -0.223 OA
ENDBRANCH  24  25
ENDBRANCH  17  19
ENDBRANCH  16  17
ENDBRANCH   8  16
BRANCH   1  29
HETATM   29  O1  UNL     1      17.450 -27.923  18.664  1.00  0.00    -0.354 OA
HETATM   30  C1  UNL     1      16.839 -29.142  18.502  1.00  0.00     0.206 C 
ENDBRANCH   1  29
TORSDOF 5
ENDMDL
MODEL 4
REMARK VINA RESULT: -8.032122958      9.167     11.900
REMARK  5 active torsions:
REMARK  status: ('A' for Active; 'I' for Inactive)
REMARK    1  A    between atoms: O1_2  and  C2_3 
REMARK    2  A    between atoms: C7_10  and  O4_12 
REMARK    3  A    between atoms: O4_12  and  C9_13 
REMARK    4  A    between atoms: C9_13  and  C10_15 
REMARK    5  A    between atoms: C13_20  and  S1_21 
ROOT
HETATM    1  C2  UNL     1      15.259 -20.294  26.524  1.00  0.00     0.231 C 
HETATM    2  C3  UNL     1      16.575 -20.464  25.750  1.00  0.00     0.089 C 
HETATM    3  O2  UNL     1      14.772 -21.556  26.891  1.00  0.00    -0.318 OA
HETATM    4  C4  UNL     1      14.128 -21.850  28.072  1.00  0.00     0.155 C 
HETATM    5  C5  UNL     1      14.165 -21.028  29.119  1.00  0.00     0.052 C 
HETATM    6  C6  UNL     1      13.483 -21.339  30.368  1.00  0.00     0.217 C 
HETATM    7  O3  UNL     1      12.950 -22.458  30.486  1.00  0.00    -0.287 OA
HETATM    8  C7  UNL     1      13.434 -20.335  31.460  1.00  0.00     0.206 C 
HETATM    9  C8  UNL     1      12.015 -19.749  31.429  1.00  0.00     0.081 C 
HETATM   10  N2  UNL     1      14.328 -19.237  31.202  1.00  0.00    -0.361 N 
ATOM     11  H2  UNL     1      14.508 -18.599  31.977  1.00  0.00     0.162 HD
HETATM   12  C15 UNL     1      14.979 -18.956  29.991  1.00  0.00     0.102 C 
HETATM   13  C16 UNL     1      14.925 -19.785  28.972  1.00  0.00     0.046 C 
HETATM   14  C17 UNL     1      15.587 -19.510  27.725  1.00  0.00     0.223 C 
HETATM   15  O8  UNL     1      16.440 -18.603  27.671  1.00  0.00    -0.286 OA
ENDROOT
BRANCH   8  16
HETATM   16  O4  UNL     1      13.602 -20.900  32.731  1.00  0.00    -0.277 OA
BRANCH  16  17
HETATM   17  C9  UNL     1      14.775 -20.984  33.428  1.00  0.00     0.314 C 
HETATM   18  O5  UNL     1      15.241 -19.929  33.923  1.00  0.00    -0.257 OA
BRANCH  17  19
HETATM   19  C10 UNL     1      15.518 -22.217  33.630  1.00  0.00     0.130 A 
HETATM   20  N1  UNL     1      15.023 -23.283  34.293  1.00  0.00    -0.360 N 
HETATM   21  C11 UNL     1      15.924 -24.286  34.332  1.00  0.00     0.090 A 
ATOM     22  H1  UNL     1      14.092 -23.325  34.708  1.00  0.00     0.165 HD
HETATM   23  C12 UNL     1      17.042 -23.837  33.665  1.00  0.00     0.043 A 
HETATM   24  C13 UNL     1      16.777 -22.543  33.231  1.00  0.00     0.092 A 
BRANCH  24  25
HETATM   25  S1  UNL     1      17.855 -21.529  32.341  1.00  0.00     0.174 S 
HETATM   26  C14 UNL     1      19.434 -22.365  32.123  1.00  0.00     0.167 C 
HETATM   27  O6  UNL     1      18.153 -20.228  32.982  1.00  0.00    -0.223 OA
HETATM   28  O7  UNL     1      17.257 -21.309  30.957  1.00  0.00    -0.223 OA
ENDBRANCH  24  25
ENDBRANCH  17  19
ENDBRANCH  16  17
ENDBRANCH   8  16
BRANCH   1  29
HETATM   29  O1  UNL     1      14.386 -19.631  25.673  1.00  0.00    -0.354 OA
HETATM   30  C1  UNL     1      13.848 -20.423  24.688  1.00  0.00     0.206 C 
ENDBRANCH   1  29
TORSDOF 5
ENDMDL
MODEL 5
REMARK VINA RESULT: -7.981336218     10.745     13.613
REMARK  5 active torsions:
REMARK  status: ('A' for Active; 'I' for Inactive)
REMARK    1  A    between atoms: O1_2  and  C2_3 
REMARK    2  A    between atoms: C7_10  and  O4_12 
REMARK    3  A    between atoms: O4_12  and  C9_13 
REMARK    4  A    between atoms: C9_13  and  C10_15 
REMARK    5  A    between atoms: C13_20  and  S1_21 
ROOT
HETATM    1  C2  UNL     1      16.456 -18.980  28.665  1.00  0.00     0.231 C 
HETATM    2  C3  UNL     1      15.286 -18.153  28.113  1.00  0.00     0.089 C 
HETATM    3  O2  UNL     1      16.947 -18.368  29.827  1.00  0.00    -0.318 OA
HETATM    4  C4  UNL     1      17.417 -19.030  30.940  1.00  0.00     0.155 C 
HETATM    5  C5  UNL     1      17.176 -20.324  31.144  1.00  0.00     0.052 C 
HETATM    6  C6  UNL     1      17.673 -21.024  32.321  1.00  0.00     0.217 C 
HETATM    7  O3  UNL     1      18.240 -20.358  33.208  1.00  0.00    -0.287 OA
HETATM    8  C7  UNL     1      17.501 -22.493  32.442  1.00  0.00     0.206 C 
HETATM    9  C8  UNL     1      18.876 -23.104  32.131  1.00  0.00     0.081 C 
HETATM   10  N2  UNL     1      16.601 -22.999  31.439  1.00  0.00    -0.361 N 
ATOM     11  H2  UNL     1      16.272 -23.956  31.558  1.00  0.00     0.162 HD
HETATM   12  C15 UNL     1      16.131 -22.307  30.312  1.00  0.00     0.102 C 
HETATM   13  C16 UNL     1      16.383 -21.029  30.135  1.00  0.00     0.046 C 
HETATM   14  C17 UNL     1      15.908 -20.307  28.986  1.00  0.00     0.223 C 
HETATM   15  O8  UNL     1      15.027 -20.814  28.264  1.00  0.00    -0.286 OA
ENDROOT
BRANCH   8  16
HETATM   16  O4  UNL     1      17.170 -22.901  33.740  1.00  0.00    -0.277 OA
BRANCH  16  17
HETATM   17  C9  UNL     1      15.982 -23.450  34.135  1.00  0.00     0.314 C 
HETATM   18  O5  UNL     1      15.577 -24.472  33.528  1.00  0.00    -0.257 OA
BRANCH  17  19
HETATM   19  C10 UNL     1      15.158 -22.926  35.211  1.00  0.00     0.130 A 
HETATM   20  N1  UNL     1      15.133 -23.453  36.453  1.00  0.00    -0.360 N 
HETATM   21  C11 UNL     1      14.282 -22.773  37.248  1.00  0.00     0.090 A 
ATOM     22  H1  UNL     1      15.684 -24.258  36.751  1.00  0.00     0.165 HD
HETATM   23  C12 UNL     1      13.741 -21.769  36.476  1.00  0.00     0.043 A 
HETATM   24  C13 UNL     1      14.295 -21.874  35.206  1.00  0.00     0.092 A 
BRANCH  24  25
HETATM   25  S1  UNL     1      13.951 -20.850  33.858  1.00  0.00     0.174 S 
HETATM   26  C14 UNL     1      12.352 -20.056  34.092  1.00  0.00     0.167 C 
HETATM   27  O6  UNL     1      13.888 -21.545  32.552  1.00  0.00    -0.223 OA
HETATM   28  O7  UNL     1      15.007 -19.753  33.821  1.00  0.00    -0.223 OA
ENDBRANCH  24  25
ENDBRANCH  17  19
ENDBRANCH  16  17
ENDBRANCH   8  16
BRANCH   1  29
HETATM   29  O1  UNL     1      17.414 -19.024  27.662  1.00  0.00    -0.354 OA
HETATM   30  C1  UNL     1      18.276 -17.954  27.657  1.00  0.00     0.206 C 
ENDBRANCH   1  29
TORSDOF 5
ENDMDL
