MODEL 1
REMARK VINA RESULT: -8.574749759      0.000      0.000
REMARK  7 active torsions:
REMARK  status: ('A' for Active; 'I' for Inactive)
REMARK    1  A    between atoms: S1_2  and  C2_3 
REMARK    2  A    between atoms: C2_3  and  C3_4 
REMARK    3  A    between atoms: C3_4  and  C4_5 
REMARK    4  A    between atoms: C5_10  and  N3_11 
REMARK       I    between atoms: N3_11  and  C6_13 
REMARK       I    between atoms: C6_13  and  N4_15 
REMARK    5  A    between atoms: N4_15  and  C7_17 
REMARK    6  A    between atoms: C8_21  and  C9_22 
REMARK    7  A    between atoms: N8_31  and  N9_32 
ROOT
HETATM    1  C7  UNL     1      17.424 -24.702  21.838  1.00  0.00     0.274 A 
HETATM    2  O2  UNL     1      17.326 -24.374  20.543  1.00  0.00    -0.197 OA
HETATM    3  N5  UNL     1      16.400 -25.092  19.983  1.00  0.00    -0.239 N 
ATOM      4  H5  UNL     1      16.128 -25.037  19.001  1.00  0.00     0.196 HD
HETATM    5  C8  UNL     1      15.858 -25.913  20.886  1.00  0.00     0.168 A 
HETATM    6  N8  UNL     1      16.506 -25.658  22.034  1.00  0.00    -0.204 N 
ENDROOT
BRANCH   1   7
HETATM    7  N4  UNL     1      18.237 -24.189  22.691  1.00  0.00    -0.271 N 
HETATM    8  C6  UNL     1      19.546 -23.796  22.356  1.00  0.00     0.329 C 
HETATM    9  N3  UNL     1      19.812 -22.449  22.010  1.00  0.00    -0.287 N 
HETATM   10  O1  UNL     1      20.473 -24.634  22.363  1.00  0.00    -0.247 OA
ATOM     11  H3  UNL     1      20.193 -22.189  21.100  1.00  0.00     0.172 HD
ATOM     12  H4  UNL     1      17.919 -24.063  23.652  1.00  0.00     0.174 HD
BRANCH   9  13
HETATM   13  C5  UNL     1      19.539 -21.555  22.933  1.00  0.00     0.169 A 
HETATM   14  N2  UNL     1      18.368 -20.942  23.158  1.00  0.00    -0.279 N 
HETATM   15  N1  UNL     1      18.299 -20.100  24.106  1.00  0.00    -0.296 N 
ATOM     16  H2  UNL     1      17.552 -21.148  22.582  1.00  0.00     0.189 HD
HETATM   17  C4  UNL     1      19.363 -19.839  24.848  1.00  0.00     0.070 A 
ATOM     18  H1  UNL     1      17.419 -19.622  24.297  1.00  0.00     0.187 HD
HETATM   19  S2  UNL     1      20.528 -20.864  24.142  1.00  0.00    -0.038 SA
BRANCH  17  20
HETATM   20  C3  UNL     1      19.517 -18.891  26.010  1.00  0.00     0.076 C 
BRANCH  20  21
HETATM   21  C2  UNL     1      20.521 -17.839  25.687  1.00  0.00     0.080 C 
BRANCH  21  22
HETATM   22  S1  UNL     1      20.653 -16.591  26.975  1.00  0.00    -0.173 SA
HETATM   23  C1  UNL     1      20.935 -17.404  28.567  1.00  0.00     0.089 C 
ENDBRANCH  21  22
ENDBRANCH  20  21
ENDBRANCH  17  20
ENDBRANCH   9  13
ENDBRANCH   1   7
BRANCH   6  24
HETATM   24  N9  UNL     1      16.256 -26.295  23.242  1.00  0.00    -0.334 N 
ATOM     25  H92 UNL     1      16.451 -27.278  23.433  1.00  0.00     0.177 HD
ATOM     26  H91 UNL     1      15.851 -25.854  24.068  1.00  0.00     0.177 HD
ENDBRANCH   6  24
BRANCH   5  27
HETATM   27  C9  UNL     1      14.789 -26.891  20.697  1.00  0.00     0.105 A 
HETATM   28  C10 UNL     1      14.870 -28.141  20.105  1.00  0.00     0.042 A 
HETATM   29  C11 UNL     1      16.121 -28.716  19.537  1.00  0.00     0.071 C 
HETATM   30  N6  UNL     1      13.637 -28.680  20.157  1.00  0.00    -0.299 N 
HETATM   31  N7  UNL     1      12.794 -27.852  20.741  1.00  0.00    -0.261 N 
ATOM     32  H6  UNL     1      13.391 -29.601  19.794  1.00  0.00     0.187 HD
HETATM   33  C12 UNL     1      11.379 -28.069  20.985  1.00  0.00     0.181 C 
HETATM   34  C13 UNL     1      13.460 -26.744  21.087  1.00  0.00     0.277 A 
HETATM   35  O3  UNL     1      12.982 -25.733  21.666  1.00  0.00    -0.265 OA
ENDBRANCH   5  27
TORSDOF 7
ENDMDL
MODEL 2
REMARK VINA RESULT: -8.363407873      4.717     10.143
REMARK  7 active torsions:
REMARK  status: ('A' for Active; 'I' for Inactive)
REMARK    1  A    between atoms: S1_2  and  C2_3 
REMARK    2  A    between atoms: C2_3  and  C3_4 
REMARK    3  A    between atoms: C3_4  and  C4_5 
REMARK    4  A    between atoms: C5_10  and  N3_11 
REMARK       I    between atoms: N3_11  and  C6_13 
REMARK       I    between atoms: C6_13  and  N4_15 
REMARK    5  A    between atoms: N4_15  and  C7_17 
REMARK    6  A    between atoms: C8_21  and  C9_22 
REMARK    7  A    between atoms: N8_31  and  N9_32 
ROOT
HETATM    1  C7  UNL     1      18.516 -24.474  20.423  1.00  0.00     0.274 A 
HETATM    2  O2  UNL     1      18.050 -23.283  20.025  1.00  0.00    -0.197 OA
HETATM    3  N5  UNL     1      18.601 -22.344  20.735  1.00  0.00    -0.239 N 
ATOM      4  H5  UNL     1      18.416 -21.346  20.632  1.00  0.00     0.196 HD
HETATM    5  C8  UNL     1      19.443 -22.883  21.620  1.00  0.00     0.168 A 
HETATM    6  N8  UNL     1      19.378 -24.208  21.413  1.00  0.00    -0.204 N 
ENDROOT
BRANCH   1   7
HETATM    7  N4  UNL     1      18.186 -25.618  19.938  1.00  0.00    -0.271 N 
HETATM    8  C6  UNL     1      16.959 -26.244  20.227  1.00  0.00     0.329 C 
HETATM    9  N3  UNL     1      15.862 -26.089  19.345  1.00  0.00    -0.287 N 
HETATM   10  O1  UNL     1      16.837 -26.936  21.261  1.00  0.00    -0.247 OA
ATOM     11  H3  UNL     1      14.981 -25.670  19.645  1.00  0.00     0.172 HD
ATOM     12  H4  UNL     1      18.843 -26.092  19.317  1.00  0.00     0.174 HD
BRANCH   9  13
HETATM   13  C5  UNL     1      16.048 -26.516  18.117  1.00  0.00     0.169 A 
HETATM   14  N2  UNL     1      16.350 -25.788  17.033  1.00  0.00    -0.279 N 
HETATM   15  N1  UNL     1      16.492 -26.387  15.922  1.00  0.00    -0.296 N 
ATOM     16  H2  UNL     1      16.462 -24.777  17.099  1.00  0.00     0.189 HD
HETATM   17  C4  UNL     1      16.343 -27.700  15.847  1.00  0.00     0.070 A 
ATOM     18  H1  UNL     1      16.722 -25.854  15.084  1.00  0.00     0.187 HD
HETATM   19  S2  UNL     1      15.979 -28.094  17.465  1.00  0.00    -0.038 SA
BRANCH  17  20
HETATM   20  C3  UNL     1      16.462 -28.615  14.654  1.00  0.00     0.076 C 
BRANCH  20  21
HETATM   21  C2  UNL     1      15.310 -29.559  14.612  1.00  0.00     0.080 C 
BRANCH  21  22
HETATM   22  S1  UNL     1      13.725 -28.714  14.548  1.00  0.00    -0.173 SA
HETATM   23  C1  UNL     1      12.601 -29.465  15.751  1.00  0.00     0.089 C 
ENDBRANCH  21  22
ENDBRANCH  20  21
ENDBRANCH  17  20
ENDBRANCH   9  13
ENDBRANCH   1   7
BRANCH   6  24
HETATM   24  N9  UNL     1      20.102 -25.157  22.124  1.00  0.00    -0.334 N 
ATOM     25  H92 UNL     1      21.108 -25.305  22.038  1.00  0.00     0.177 HD
ATOM     26  H91 UNL     1      19.712 -25.807  22.806  1.00  0.00     0.177 HD
ENDBRANCH   6  24
BRANCH   5  27
HETATM   27  C9  UNL     1      20.271 -22.204  22.613  1.00  0.00     0.105 A 
HETATM   28  C10 UNL     1      19.880 -21.261  23.551  1.00  0.00     0.042 A 
HETATM   29  C11 UNL     1      18.484 -20.763  23.701  1.00  0.00     0.071 C 
HETATM   30  N6  UNL     1      20.981 -20.920  24.247  1.00  0.00    -0.299 N 
HETATM   31  N7  UNL     1      22.031 -21.587  23.808  1.00  0.00    -0.261 N 
ATOM     32  H6  UNL     1      20.999 -20.241  25.008  1.00  0.00     0.187 HD
HETATM   33  C12 UNL     1      23.394 -21.497  24.301  1.00  0.00     0.181 C 
HETATM   34  C13 UNL     1      21.638 -22.384  22.808  1.00  0.00     0.277 A 
HETATM   35  O3  UNL     1      22.367 -23.168  22.146  1.00  0.00    -0.265 OA
ENDBRANCH   5  27
TORSDOF 7
ENDMDL
MODEL 3
REMARK VINA RESULT: -8.346216214      1.064      1.672
REMARK  7 active torsions:
REMARK  status: ('A' for Active; 'I' for Inactive)
REMARK    1  A    between atoms: S1_2  and  C2_3 
REMARK    2  A    between atoms: C2_3  and  C3_4 
REMARK    3  A    between atoms: C3_4  and  C4_5 
REMARK    4  A    between atoms: C5_10  and  N3_11 
REMARK       I    between atoms: N3_11  and  C6_13 
REMARK       I    between atoms: C6_13  and  N4_15 
REMARK    5  A    between atoms: N4_15  and  C7_17 
REMARK    6  A    between atoms: C8_21  and  C9_22 
REMARK    7  A    between atoms: N8_31  and  N9_32 
ROOT
HETATM    1  C7  UNL     1      17.449 -24.751  21.788  1.00  0.00     0.274 A 
HETATM    2  O2  UNL     1      17.297 -24.354  20.518  1.00  0.00    -0.197 OA
HETATM    3  N5  UNL     1      16.424 -25.114  19.927  1.00  0.00    -0.239 N 
ATOM      4  H5  UNL     1      16.128 -25.022  18.955  1.00  0.00     0.196 HD
HETATM    5  C8  UNL     1      15.973 -26.032  20.785  1.00  0.00     0.168 A 
HETATM    6  N8  UNL     1      16.621 -25.794  21.936  1.00  0.00    -0.204 N 
ENDROOT
BRANCH   1   7
HETATM    7  N4  UNL     1      18.232 -24.224  22.659  1.00  0.00    -0.271 N 
HETATM    8  C6  UNL     1      19.547 -23.820  22.358  1.00  0.00     0.329 C 
HETATM    9  N3  UNL     1      19.809 -22.473  22.009  1.00  0.00    -0.287 N 
HETATM   10  O1  UNL     1      20.482 -24.649  22.398  1.00  0.00    -0.247 OA
ATOM     11  H3  UNL     1      20.213 -22.216  21.108  1.00  0.00     0.172 HD
ATOM     12  H4  UNL     1      17.887 -24.094  23.610  1.00  0.00     0.174 HD
BRANCH   9  13
HETATM   13  C5  UNL     1      19.501 -21.575  22.916  1.00  0.00     0.169 A 
HETATM   14  N2  UNL     1      18.311 -20.994  23.123  1.00  0.00    -0.279 N 
HETATM   15  N1  UNL     1      18.208 -20.141  24.058  1.00  0.00    -0.296 N 
ATOM     16  H2  UNL     1      17.507 -21.232  22.543  1.00  0.00     0.189 HD
HETATM   17  C4  UNL     1      19.258 -19.839  24.806  1.00  0.00     0.070 A 
ATOM     18  H1  UNL     1      17.313 -19.687  24.235  1.00  0.00     0.187 HD
HETATM   19  S2  UNL     1      20.459 -20.839  24.124  1.00  0.00    -0.038 SA
BRANCH  17  20
HETATM   20  C3  UNL     1      19.372 -18.870  25.956  1.00  0.00     0.076 C 
BRANCH  20  21
HETATM   21  C2  UNL     1      20.488 -17.913  25.714  1.00  0.00     0.080 C 
BRANCH  21  22
HETATM   22  S1  UNL     1      20.579 -16.626  26.966  1.00  0.00    -0.173 SA
HETATM   23  C1  UNL     1      20.906 -17.383  28.577  1.00  0.00     0.089 C 
ENDBRANCH  21  22
ENDBRANCH  20  21
ENDBRANCH  17  20
ENDBRANCH   9  13
ENDBRANCH   1   7
BRANCH   6  24
HETATM   24  N9  UNL     1      16.451 -26.524  23.106  1.00  0.00    -0.334 N 
ATOM     25  H92 UNL     1      17.186 -27.056  23.572  1.00  0.00     0.177 HD
ATOM     26  H91 UNL     1      15.577 -26.609  23.626  1.00  0.00     0.177 HD
ENDBRANCH   6  24
BRANCH   5  27
HETATM   27  C9  UNL     1      14.988 -27.086  20.550  1.00  0.00     0.105 A 
HETATM   28  C10 UNL     1      13.660 -27.116  20.944  1.00  0.00     0.042 A 
HETATM   29  C11 UNL     1      12.990 -26.027  21.709  1.00  0.00     0.071 C 
HETATM   30  N6  UNL     1      13.148 -28.282  20.506  1.00  0.00    -0.299 N 
HETATM   31  N7  UNL     1      14.066 -28.979  19.865  1.00  0.00    -0.261 N 
ATOM     32  H6  UNL     1      12.184 -28.583  20.649  1.00  0.00     0.187 HD
HETATM   33  C12 UNL     1      13.904 -30.283  19.248  1.00  0.00     0.181 C 
HETATM   34  C13 UNL     1      15.208 -28.281  19.870  1.00  0.00     0.277 A 
HETATM   35  O3  UNL     1      16.301 -28.631  19.354  1.00  0.00    -0.265 OA
ENDBRANCH   5  27
TORSDOF 7
ENDMDL
MODEL 4
REMARK VINA RESULT: -8.253295756      3.728      8.513
REMARK  7 active torsions:
REMARK  status: ('A' for Active; 'I' for Inactive)
REMARK    1  A    between atoms: S1_2  and  C2_3 
REMARK    2  A    between atoms: C2_3  and  C3_4 
REMARK    3  A    between atoms: C3_4  and  C4_5 
REMARK    4  A    between atoms: C5_10  and  N3_11 
REMARK       I    between atoms: N3_11  and  C6_13 
REMARK       I    between atoms: C6_13  and  N4_15 
REMARK    5  A    between atoms: N4_15  and  C7_17 
REMARK    6  A    between atoms: C8_21  and  C9_22 
REMARK    7  A    between atoms: N8_31  and  N9_32 
ROOT
HETATM    1  C7  UNL     1      17.746 -23.829  20.730  1.00  0.00     0.274 A 
HETATM    2  O2  UNL     1      18.399 -23.144  19.783  1.00  0.00    -0.197 OA
HETATM    3  N5  UNL     1      19.379 -22.483  20.323  1.00  0.00    -0.239 N 
ATOM      4  H5  UNL     1      20.030 -21.882  19.818  1.00  0.00     0.196 HD
HETATM    5  C8  UNL     1      19.404 -22.711  21.639  1.00  0.00     0.168 A 
HETATM    6  N8  UNL     1      18.382 -23.548  21.876  1.00  0.00    -0.204 N 
ENDROOT
BRANCH   1   7
HETATM    7  N4  UNL     1      16.725 -24.589  20.551  1.00  0.00    -0.271 N 
HETATM    8  C6  UNL     1      16.838 -25.947  20.197  1.00  0.00     0.329 C 
HETATM    9  N3  UNL     1      16.804 -26.943  21.203  1.00  0.00    -0.287 N 
HETATM   10  O1  UNL     1      16.969 -26.273  18.998  1.00  0.00    -0.247 OA
ATOM     11  H3  UNL     1      17.582 -27.585  21.356  1.00  0.00     0.172 HD
ATOM     12  H4  UNL     1      15.794 -24.190  20.668  1.00  0.00     0.174 HD
BRANCH   9  13
HETATM   13  C5  UNL     1      15.709 -26.989  21.927  1.00  0.00     0.169 A 
HETATM   14  N2  UNL     1      14.456 -27.213  21.505  1.00  0.00    -0.279 N 
HETATM   15  N1  UNL     1      13.520 -27.220  22.364  1.00  0.00    -0.296 N 
ATOM     16  H2  UNL     1      14.260 -27.376  20.518  1.00  0.00     0.189 HD
HETATM   17  C4  UNL     1      13.786 -27.008  23.643  1.00  0.00     0.070 A 
ATOM     18  H1  UNL     1      12.560 -27.389  22.067  1.00  0.00     0.187 HD
HETATM   19  S2  UNL     1      15.476 -26.788  23.608  1.00  0.00    -0.038 SA
BRANCH  17  20
HETATM   20  C3  UNL     1      12.850 -26.969  24.825  1.00  0.00     0.076 C 
BRANCH  20  21
HETATM   21  C2  UNL     1      13.006 -28.202  25.646  1.00  0.00     0.080 C 
BRANCH  21  22
HETATM   22  S1  UNL     1      14.101 -27.963  27.052  1.00  0.00    -0.173 SA
HETATM   23  C1  UNL     1      15.567 -29.004  26.849  1.00  0.00     0.089 C 
ENDBRANCH  21  22
ENDBRANCH  20  21
ENDBRANCH  17  20
ENDBRANCH   9  13
ENDBRANCH   1   7
BRANCH   6  24
HETATM   24  N9  UNL     1      18.041 -24.047  23.127  1.00  0.00    -0.334 N 
ATOM     25  H92 UNL     1      17.417 -23.583  23.787  1.00  0.00     0.177 HD
ATOM     26  H91 UNL     1      18.376 -24.925  23.522  1.00  0.00     0.177 HD
ENDBRANCH   6  24
BRANCH   5  27
HETATM   27  C9  UNL     1      20.331 -22.176  22.633  1.00  0.00     0.105 A 
HETATM   28  C10 UNL     1      20.091 -21.198  23.586  1.00  0.00     0.042 A 
HETATM   29  C11 UNL     1      18.785 -20.500  23.756  1.00  0.00     0.071 C 
HETATM   30  N6  UNL     1      21.235 -21.034  24.276  1.00  0.00    -0.299 N 
HETATM   31  N7  UNL     1      22.171 -21.843  23.820  1.00  0.00    -0.261 N 
ATOM     32  H6  UNL     1      21.360 -20.376  25.045  1.00  0.00     0.187 HD
HETATM   33  C12 UNL     1      23.536 -21.964  24.301  1.00  0.00     0.181 C 
HETATM   34  C13 UNL     1      21.658 -22.559  22.813  1.00  0.00     0.277 A 
HETATM   35  O3  UNL     1      22.257 -23.433  22.134  1.00  0.00    -0.265 OA
ENDBRANCH   5  27
TORSDOF 7
ENDMDL
MODEL 5
REMARK VINA RESULT: -8.185421862      3.685      8.212
REMARK  7 active torsions:
REMARK  status: ('A' for Active; 'I' for Inactive)
REMARK    1  A    between atoms: S1_2  and  C2_3 
REMARK    2  A    between atoms: C2_3  and  C3_4 
REMARK    3  A    between atoms: C3_4  and  C4_5 
REMARK    4  A    between atoms: C5_10  and  N3_11 
REMARK       I    between atoms: N3_11  and  C6_13 
REMARK       I    between atoms: C6_13  and  N4_15 
REMARK    5  A    between atoms: N4_15  and  C7_17 
REMARK    6  A    between atoms: C8_21  and  C9_22 
REMARK    7  A    between atoms: N8_31  and  N9_32 
ROOT
HETATM    1  C7  UNL     1      17.777 -23.863  20.591  1.00  0.00     0.274 A 
HETATM    2  O2  UNL     1      18.462 -23.175  19.669  1.00  0.00    -0.197 OA
HETATM    3  N5  UNL     1      19.390 -22.476  20.251  1.00  0.00    -0.239 N 
ATOM      4  H5  UNL     1      20.051 -21.864  19.772  1.00  0.00     0.196 HD
HETATM    5  C8  UNL     1      19.348 -22.680  21.570  1.00  0.00     0.168 A 
HETATM    6  N8  UNL     1      18.339 -23.544  21.765  1.00  0.00    -0.204 N 
ENDROOT
BRANCH   1   7
HETATM    7  N4  UNL     1      16.791 -24.656  20.369  1.00  0.00    -0.271 N 
HETATM    8  C6  UNL     1      16.957 -26.035  20.140  1.00  0.00     0.329 C 
HETATM    9  N3  UNL     1      16.830 -26.950  21.214  1.00  0.00    -0.287 N 
HETATM   10  O1  UNL     1      17.217 -26.453  18.991  1.00  0.00    -0.247 OA
ATOM     11  H3  UNL     1      17.596 -27.561  21.499  1.00  0.00     0.172 HD
ATOM     12  H4  UNL     1      15.847 -24.269  20.357  1.00  0.00     0.174 HD
BRANCH   9  13
HETATM   13  C5  UNL     1      15.666 -26.962  21.822  1.00  0.00     0.169 A 
HETATM   14  N2  UNL     1      14.472 -27.272  21.299  1.00  0.00    -0.279 N 
HETATM   15  N1  UNL     1      13.450 -27.225  22.052  1.00  0.00    -0.296 N 
ATOM     16  H2  UNL     1      14.385 -27.539  20.319  1.00  0.00     0.189 HD
HETATM   17  C4  UNL     1      13.572 -26.877  23.323  1.00  0.00     0.070 A 
ATOM     18  H1  UNL     1      12.531 -27.458  21.677  1.00  0.00     0.187 HD
HETATM   19  S2  UNL     1      15.251 -26.601  23.439  1.00  0.00    -0.038 SA
BRANCH  17  20
HETATM   20  C3  UNL     1      12.516 -26.752  24.392  1.00  0.00     0.076 C 
BRANCH  20  21
HETATM   21  C2  UNL     1      13.150 -26.687  25.738  1.00  0.00     0.080 C 
BRANCH  21  22
HETATM   22  S1  UNL     1      12.906 -25.097  26.541  1.00  0.00    -0.173 SA
HETATM   23  C1  UNL     1      13.545 -23.785  25.471  1.00  0.00     0.089 C 
ENDBRANCH  21  22
ENDBRANCH  20  21
ENDBRANCH  17  20
ENDBRANCH   9  13
ENDBRANCH   1   7
BRANCH   6  24
HETATM   24  N9  UNL     1      17.942 -24.032  23.004  1.00  0.00    -0.334 N 
ATOM     25  H92 UNL     1      17.624 -24.985  23.179  1.00  0.00     0.177 HD
ATOM     26  H91 UNL     1      17.925 -23.495  23.871  1.00  0.00     0.177 HD
ENDBRANCH   6  24
BRANCH   5  27
HETATM   27  C9  UNL     1      20.200 -22.101  22.605  1.00  0.00     0.105 A 
HETATM   28  C10 UNL     1      19.871 -21.132  23.540  1.00  0.00     0.042 A 
HETATM   29  C11 UNL     1      18.530 -20.493  23.643  1.00  0.00     0.071 C 
HETATM   30  N6  UNL     1      20.973 -20.914  24.283  1.00  0.00    -0.299 N 
HETATM   31  N7  UNL     1      21.965 -21.682  23.876  1.00  0.00    -0.261 N 
ATOM     32  H6  UNL     1      21.031 -20.248  25.054  1.00  0.00     0.187 HD
HETATM   33  C12 UNL     1      23.309 -21.740  24.423  1.00  0.00     0.181 C 
HETATM   34  C13 UNL     1      21.533 -22.424  22.850  1.00  0.00     0.277 A 
HETATM   35  O3  UNL     1      22.203 -23.273  22.206  1.00  0.00    -0.265 OA
ENDBRANCH   5  27
TORSDOF 7
ENDMDL
