MODEL 1
REMARK VINA RESULT: -8.829419879      0.000      0.000
REMARK  7 active torsions:
REMARK  status: ('A' for Active; 'I' for Inactive)
REMARK    1  A    between atoms: O1_2  and  C2_3 
REMARK    2  A    between atoms: C2_3  and  C3_5 
REMARK    3  A    between atoms: C4_6  and  C5_7 
REMARK    4  A    between atoms: C5_7  and  O3_8 
REMARK    5  A    between atoms: O3_8  and  C6_9 
REMARK    6  A    between atoms: C6_9  and  C7_11 
REMARK    7  A    between atoms: C8_12  and  O5_13 
ROOT
HETATM    1  C5  UNL     1      19.658 -22.186  23.587  1.00  0.00     0.216 C 
ENDROOT
BRANCH   1   2
HETATM    2  C4  UNL     1      19.959 -20.958  24.406  1.00  0.00    -0.020 C 
HETATM    3  C3  UNL     1      21.078 -20.523  24.914  1.00  0.00     0.119 C 
HETATM    4  N3  UNL     1      20.901 -19.274  25.644  1.00  0.00    -0.290 N 
HETATM    5  C12 UNL     1      19.629 -18.758  25.180  1.00  0.00     0.167 C 
HETATM    6  C14 UNL     1      21.509 -18.418  26.604  1.00  0.00     0.306 C 
HETATM    7  C11 UNL     1      18.867 -19.966  24.777  1.00  0.00     0.076 C 
HETATM    8  S2  UNL     1      18.981 -18.063  26.761  1.00  0.00    -0.056 SA
HETATM    9  C13 UNL     1      20.562 -17.895  27.560  1.00  0.00     0.278 C 
HETATM   10  O7  UNL     1      20.788 -17.436  28.678  1.00  0.00    -0.275 OA
HETATM   11  O8  UNL     1      22.734 -18.149  26.616  1.00  0.00    -0.263 OA
BRANCH   3  12
HETATM   12  C2  UNL     1      22.417 -21.150  24.818  1.00  0.00     0.310 C 
HETATM   13  O2  UNL     1      23.147 -21.203  25.817  1.00  0.00    -0.258 OA
BRANCH  12  14
HETATM   14  O1  UNL     1      22.898 -21.691  23.631  1.00  0.00    -0.321 OA
HETATM   15  C1  UNL     1      23.497 -22.972  23.571  1.00  0.00     0.213 C 
ENDBRANCH  12  14
ENDBRANCH   3  12
ENDBRANCH   1   2
BRANCH   1  16
HETATM   16  O3  UNL     1      19.989 -21.923  22.254  1.00  0.00    -0.313 OA
BRANCH  16  17
HETATM   17  C6  UNL     1      20.234 -22.876  21.305  1.00  0.00     0.303 C 
HETATM   18  O4  UNL     1      21.339 -22.998  20.745  1.00  0.00    -0.259 OA
BRANCH  17  19
HETATM   19  C7  UNL     1      19.127 -23.773  20.957  1.00  0.00     0.158 A 
HETATM   20  C8  UNL     1      19.183 -25.091  21.348  1.00  0.00     0.164 A 
HETATM   21  N1  UNL     1      18.159 -25.919  21.025  1.00  0.00    -0.313 N 
HETATM   22  C9  UNL     1      17.087 -25.504  20.336  1.00  0.00     0.180 A 
ATOM     23  H1  UNL     1      18.207 -26.895  21.317  1.00  0.00     0.170 HD
HETATM   24  S1  UNL     1      15.848 -26.476  19.939  1.00  0.00    -0.040 SA
HETATM   25  N2  UNL     1      17.042 -24.217  19.960  1.00  0.00    -0.299 N 
HETATM   26  C10 UNL     1      18.024 -23.356  20.250  1.00  0.00     0.268 A 
ATOM     27  H2  UNL     1      16.234 -23.885  19.435  1.00  0.00     0.171 HD
HETATM   28  O6  UNL     1      17.946 -22.145  19.876  1.00  0.00    -0.267 OA
BRANCH  20  29
HETATM   29  O5  UNL     1      20.269 -25.614  22.073  1.00  0.00    -0.345 OA
ATOM     30  H5  UNL     1      20.200 -25.847  22.991  1.00  0.00     0.219 HD
ENDBRANCH  20  29
ENDBRANCH  17  19
ENDBRANCH  16  17
ENDBRANCH   1  16
TORSDOF 7
ENDMDL
MODEL 2
REMARK VINA RESULT: -8.357312948      1.656      2.009
REMARK  7 active torsions:
REMARK  status: ('A' for Active; 'I' for Inactive)
REMARK    1  A    between atoms: O1_2  and  C2_3 
REMARK    2  A    between atoms: C2_3  and  C3_5 
REMARK    3  A    between atoms: C4_6  and  C5_7 
REMARK    4  A    between atoms: C5_7  and  O3_8 
REMARK    5  A    between atoms: O3_8  and  C6_9 
REMARK    6  A    between atoms: C6_9  and  C7_11 
REMARK    7  A    between atoms: C8_12  and  O5_13 
ROOT
HETATM    1  C5  UNL     1      21.078 -23.064  22.383  1.00  0.00     0.216 C 
ENDROOT
BRANCH   1   2
HETATM    2  C4  UNL     1      20.339 -22.011  23.165  1.00  0.00    -0.020 C 
HETATM    3  C3  UNL     1      20.744 -21.205  24.107  1.00  0.00     0.119 C 
HETATM    4  N3  UNL     1      19.674 -20.340  24.587  1.00  0.00    -0.290 N 
HETATM    5  C12 UNL     1      18.662 -20.403  23.551  1.00  0.00     0.167 C 
HETATM    6  C14 UNL     1      19.289 -19.491  25.661  1.00  0.00     0.306 C 
HETATM    7  C11 UNL     1      18.865 -21.731  22.919  1.00  0.00     0.076 C 
HETATM    8  S2  UNL     1      17.144 -20.393  24.599  1.00  0.00    -0.056 SA
HETATM    9  C13 UNL     1      17.903 -19.656  26.030  1.00  0.00     0.278 C 
HETATM   10  O7  UNL     1      17.360 -19.357  27.092  1.00  0.00    -0.275 OA
HETATM   11  O8  UNL     1      20.071 -18.688  26.226  1.00  0.00    -0.263 OA
BRANCH   3  12
HETATM   12  C2  UNL     1      22.104 -21.104  24.687  1.00  0.00     0.310 C 
HETATM   13  O2  UNL     1      22.247 -20.779  25.873  1.00  0.00    -0.258 OA
BRANCH  12  14
HETATM   14  O1  UNL     1      23.248 -21.365  23.941  1.00  0.00    -0.321 OA
HETATM   15  C1  UNL     1      23.899 -22.621  23.968  1.00  0.00     0.213 C 
ENDBRANCH  12  14
ENDBRANCH   3  12
ENDBRANCH   1   2
BRANCH   1  16
HETATM   16  O3  UNL     1      20.489 -23.174  21.119  1.00  0.00    -0.313 OA
BRANCH  16  17
HETATM   17  C6  UNL     1      20.176 -24.352  20.500  1.00  0.00     0.303 C 
HETATM   18  O4  UNL     1      20.986 -24.972  19.788  1.00  0.00    -0.259 OA
BRANCH  17  19
HETATM   19  C7  UNL     1      18.822 -24.877  20.706  1.00  0.00     0.158 A 
HETATM   20  C8  UNL     1      18.661 -26.106  21.303  1.00  0.00     0.164 A 
HETATM   21  N1  UNL     1      17.408 -26.590  21.492  1.00  0.00    -0.313 N 
HETATM   22  C9  UNL     1      16.312 -25.914  21.120  1.00  0.00     0.180 A 
ATOM     23  H1  UNL     1      17.296 -27.502  21.934  1.00  0.00     0.170 HD
HETATM   24  S1  UNL     1      14.802 -26.471  21.336  1.00  0.00    -0.040 SA
HETATM   25  N2  UNL     1      16.479 -24.716  20.539  1.00  0.00    -0.299 N 
HETATM   26  C10 UNL     1      17.691 -24.191  20.327  1.00  0.00     0.268 A 
ATOM     27  H2  UNL     1      15.656 -24.190  20.249  1.00  0.00     0.171 HD
HETATM   28  O6  UNL     1      17.810 -23.054  19.774  1.00  0.00    -0.267 OA
BRANCH  20  29
HETATM   29  O5  UNL     1      19.754 -26.884  21.725  1.00  0.00    -0.345 OA
ATOM     30  H5  UNL     1      19.764 -27.331  22.563  1.00  0.00     0.219 HD
ENDBRANCH  20  29
ENDBRANCH  17  19
ENDBRANCH  16  17
ENDBRANCH   1  16
TORSDOF 7
ENDMDL
MODEL 3
REMARK VINA RESULT: -8.334894511      2.213      3.528
REMARK  7 active torsions:
REMARK  status: ('A' for Active; 'I' for Inactive)
REMARK    1  A    between atoms: O1_2  and  C2_3 
REMARK    2  A    between atoms: C2_3  and  C3_5 
REMARK    3  A    between atoms: C4_6  and  C5_7 
REMARK    4  A    between atoms: C5_7  and  O3_8 
REMARK    5  A    between atoms: O3_8  and  C6_9 
REMARK    6  A    between atoms: C6_9  and  C7_11 
REMARK    7  A    between atoms: C8_12  and  O5_13 
ROOT
HETATM    1  C5  UNL     1      19.779 -22.957  21.595  1.00  0.00     0.216 C 
ENDROOT
BRANCH   1   2
HETATM    2  C4  UNL     1      20.207 -22.166  22.802  1.00  0.00    -0.020 C 
HETATM    3  C3  UNL     1      19.546 -21.330  23.554  1.00  0.00     0.119 C 
HETATM    4  N3  UNL     1      20.369 -20.789  24.629  1.00  0.00    -0.290 N 
HETATM    5  C12 UNL     1      21.494 -21.698  24.718  1.00  0.00     0.167 C 
HETATM    6  C14 UNL     1      20.453 -19.735  25.581  1.00  0.00     0.306 C 
HETATM    7  C11 UNL     1      21.622 -22.261  23.351  1.00  0.00     0.076 C 
HETATM    8  S2  UNL     1      22.843 -20.487  25.064  1.00  0.00    -0.056 SA
HETATM    9  C13 UNL     1      21.790 -19.202  25.701  1.00  0.00     0.278 C 
HETATM   10  O7  UNL     1      22.132 -18.107  26.143  1.00  0.00    -0.275 OA
HETATM   11  O8  UNL     1      19.472 -19.316  26.241  1.00  0.00    -0.263 OA
BRANCH   3  12
HETATM   12  C2  UNL     1      18.130 -20.915  23.415  1.00  0.00     0.310 C 
HETATM   13  O2  UNL     1      17.818 -20.055  22.581  1.00  0.00    -0.258 OA
BRANCH  12  14
HETATM   14  O1  UNL     1      17.118 -21.462  24.197  1.00  0.00    -0.321 OA
HETATM   15  C1  UNL     1      16.379 -20.689  25.125  1.00  0.00     0.213 C 
ENDBRANCH  12  14
ENDBRANCH   3  12
ENDBRANCH   1   2
BRANCH   1  16
HETATM   16  O3  UNL     1      19.315 -24.205  22.023  1.00  0.00    -0.313 OA
BRANCH  16  17
HETATM   17  C6  UNL     1      18.006 -24.601  22.012  1.00  0.00     0.303 C 
HETATM   18  O4  UNL     1      17.221 -24.351  22.944  1.00  0.00    -0.259 OA
BRANCH  17  19
HETATM   19  C7  UNL     1      17.544 -25.349  20.838  1.00  0.00     0.158 A 
HETATM   20  C8  UNL     1      17.501 -26.722  20.891  1.00  0.00     0.164 A 
HETATM   21  N1  UNL     1      17.074 -27.412  19.804  1.00  0.00    -0.313 N 
HETATM   22  C9  UNL     1      16.688 -26.806  18.673  1.00  0.00     0.180 A 
ATOM     23  H1  UNL     1      17.045 -28.431  19.849  1.00  0.00     0.170 HD
HETATM   24  S1  UNL     1      16.172 -27.609  17.359  1.00  0.00    -0.040 SA
HETATM   25  N2  UNL     1      16.734 -25.466  18.631  1.00  0.00    -0.299 N 
HETATM   26  C10 UNL     1      17.147 -24.735  19.673  1.00  0.00     0.268 A 
ATOM     27  H2  UNL     1      16.444 -24.989  17.778  1.00  0.00     0.171 HD
HETATM   28  O6  UNL     1      17.176 -23.468  19.596  1.00  0.00    -0.267 OA
BRANCH  20  29
HETATM   29  O5  UNL     1      17.887 -27.442  22.036  1.00  0.00    -0.345 OA
ATOM     30  H5  UNL     1      17.621 -28.342  22.182  1.00  0.00     0.219 HD
ENDBRANCH  20  29
ENDBRANCH  17  19
ENDBRANCH  16  17
ENDBRANCH   1  16
TORSDOF 7
ENDMDL
MODEL 4
REMARK VINA RESULT: -8.279741373      1.901      2.907
REMARK  7 active torsions:
REMARK  status: ('A' for Active; 'I' for Inactive)
REMARK    1  A    between atoms: O1_2  and  C2_3 
REMARK    2  A    between atoms: C2_3  and  C3_5 
REMARK    3  A    between atoms: C4_6  and  C5_7 
REMARK    4  A    between atoms: C5_7  and  O3_8 
REMARK    5  A    between atoms: O3_8  and  C6_9 
REMARK    6  A    between atoms: C6_9  and  C7_11 
REMARK    7  A    between atoms: C8_12  and  O5_13 
ROOT
HETATM    1  C5  UNL     1      21.414 -22.758  22.266  1.00  0.00     0.216 C 
ENDROOT
BRANCH   1   2
HETATM    2  C4  UNL     1      21.067 -21.803  23.378  1.00  0.00    -0.020 C 
HETATM    3  C3  UNL     1      19.918 -21.325  23.765  1.00  0.00     0.119 C 
HETATM    4  N3  UNL     1      20.054 -20.419  24.900  1.00  0.00    -0.290 N 
HETATM    5  C12 UNL     1      21.365 -20.713  25.444  1.00  0.00     0.167 C 
HETATM    6  C14 UNL     1      19.386 -19.399  25.631  1.00  0.00     0.306 C 
HETATM    7  C11 UNL     1      22.140 -21.220  24.284  1.00  0.00     0.076 C 
HETATM    8  S2  UNL     1      21.899 -19.008  25.902  1.00  0.00    -0.056 SA
HETATM    9  C13 UNL     1      20.264 -18.312  25.997  1.00  0.00     0.278 C 
HETATM   10  O7  UNL     1      19.958 -17.162  26.304  1.00  0.00    -0.275 OA
HETATM   11  O8  UNL     1      18.167 -19.440  25.924  1.00  0.00    -0.263 OA
BRANCH   3  12
HETATM   12  C2  UNL     1      18.582 -21.605  23.188  1.00  0.00     0.310 C 
HETATM   13  O2  UNL     1      18.114 -20.854  22.322  1.00  0.00    -0.258 OA
BRANCH  12  14
HETATM   14  O1  UNL     1      17.818 -22.696  23.587  1.00  0.00    -0.321 OA
HETATM   15  C1  UNL     1      16.772 -22.582  24.534  1.00  0.00     0.213 C 
ENDBRANCH  12  14
ENDBRANCH   3  12
ENDBRANCH   1   2
BRANCH   1  16
HETATM   16  O3  UNL     1      20.245 -23.066  21.564  1.00  0.00    -0.313 OA
BRANCH  16  17
HETATM   17  C6  UNL     1      20.085 -24.148  20.743  1.00  0.00     0.303 C 
HETATM   18  O4  UNL     1      20.999 -24.583  20.020  1.00  0.00    -0.259 OA
BRANCH  17  19
HETATM   19  C7  UNL     1      18.770 -24.797  20.740  1.00  0.00     0.158 A 
HETATM   20  C8  UNL     1      18.656 -26.087  21.203  1.00  0.00     0.164 A 
HETATM   21  N1  UNL     1      17.439 -26.685  21.199  1.00  0.00    -0.313 N 
HETATM   22  C9  UNL     1      16.335 -26.067  20.760  1.00  0.00     0.180 A 
ATOM     23  H1  UNL     1      17.362 -27.642  21.544  1.00  0.00     0.170 HD
HETATM   24  S1  UNL     1      14.866 -26.761  20.746  1.00  0.00    -0.040 SA
HETATM   25  N2  UNL     1      16.456 -24.809  20.310  1.00  0.00    -0.299 N 
HETATM   26  C10 UNL     1      17.630 -24.170  20.290  1.00  0.00     0.268 A 
ATOM     27  H2  UNL     1      15.625 -24.324  19.971  1.00  0.00     0.171 HD
HETATM   28  O6  UNL     1      17.706 -22.979  19.856  1.00  0.00    -0.267 OA
BRANCH  20  29
HETATM   29  O5  UNL     1      19.761 -26.812  21.683  1.00  0.00    -0.345 OA
ATOM     30  H5  UNL     1      20.220 -26.570  22.478  1.00  0.00     0.219 HD
ENDBRANCH  20  29
ENDBRANCH  17  19
ENDBRANCH  16  17
ENDBRANCH   1  16
TORSDOF 7
ENDMDL
MODEL 5
REMARK VINA RESULT: -8.235609541      2.315      3.988
REMARK  7 active torsions:
REMARK  status: ('A' for Active; 'I' for Inactive)
REMARK    1  A    between atoms: O1_2  and  C2_3 
REMARK    2  A    between atoms: C2_3  and  C3_5 
REMARK    3  A    between atoms: C4_6  and  C5_7 
REMARK    4  A    between atoms: C5_7  and  O3_8 
REMARK    5  A    between atoms: O3_8  and  C6_9 
REMARK    6  A    between atoms: C6_9  and  C7_11 
REMARK    7  A    between atoms: C8_12  and  O5_13 
ROOT
HETATM    1  C5  UNL     1      19.603 -23.078  21.345  1.00  0.00     0.216 C 
ENDROOT
BRANCH   1   2
HETATM    2  C4  UNL     1      20.122 -22.344  22.553  1.00  0.00    -0.020 C 
HETATM    3  C3  UNL     1      19.536 -21.502  23.358  1.00  0.00     0.119 C 
HETATM    4  N3  UNL     1      20.431 -21.033  24.409  1.00  0.00    -0.290 N 
HETATM    5  C12 UNL     1      21.515 -21.996  24.420  1.00  0.00     0.167 C 
HETATM    6  C14 UNL     1      20.608 -20.014  25.385  1.00  0.00     0.306 C 
HETATM    7  C11 UNL     1      21.554 -22.523  23.033  1.00  0.00     0.076 C 
HETATM    8  S2  UNL     1      22.934 -20.861  24.738  1.00  0.00    -0.056 SA
HETATM    9  C13 UNL     1      21.973 -19.548  25.460  1.00  0.00     0.278 C 
HETATM   10  O7  UNL     1      22.387 -18.484  25.916  1.00  0.00    -0.275 OA
HETATM   11  O8  UNL     1      19.679 -19.570  26.101  1.00  0.00    -0.263 OA
BRANCH   3  12
HETATM   12  C2  UNL     1      18.137 -21.018  23.296  1.00  0.00     0.310 C 
HETATM   13  O2  UNL     1      17.835 -20.101  22.520  1.00  0.00    -0.258 OA
BRANCH  12  14
HETATM   14  O1  UNL     1      17.130 -21.559  24.088  1.00  0.00    -0.321 OA
HETATM   15  C1  UNL     1      16.471 -20.808  25.091  1.00  0.00     0.213 C 
ENDBRANCH  12  14
ENDBRANCH   3  12
ENDBRANCH   1   2
BRANCH   1  16
HETATM   16  O3  UNL     1      19.221 -24.365  21.736  1.00  0.00    -0.313 OA
BRANCH  16  17
HETATM   17  C6  UNL     1      17.935 -24.827  21.765  1.00  0.00     0.303 C 
HETATM   18  O4  UNL     1      17.163 -24.606  22.716  1.00  0.00    -0.259 OA
BRANCH  17  19
HETATM   19  C7  UNL     1      17.480 -25.610  20.611  1.00  0.00     0.158 A 
HETATM   20  C8  UNL     1      16.965 -24.956  19.516  1.00  0.00     0.164 A 
HETATM   21  N1  UNL     1      16.543 -25.681  18.451  1.00  0.00    -0.313 N 
HETATM   22  C9  UNL     1      16.610 -27.019  18.420  1.00  0.00     0.180 A 
ATOM     23  H1  UNL     1      16.162 -25.190  17.642  1.00  0.00     0.170 HD
HETATM   24  S1  UNL     1      16.113 -27.911  17.156  1.00  0.00    -0.040 SA
HETATM   25  N2  UNL     1      17.114 -27.648  19.493  1.00  0.00    -0.299 N 
HETATM   26  C10 UNL     1      17.543 -26.984  20.571  1.00  0.00     0.268 A 
ATOM     27  H2  UNL     1      17.171 -28.666  19.486  1.00  0.00     0.171 HD
HETATM   28  O6  UNL     1      18.015 -27.614  21.568  1.00  0.00    -0.267 OA
BRANCH  20  29
HETATM   29  O5  UNL     1      16.857 -23.554  19.461  1.00  0.00    -0.345 OA
ATOM     30  H5  UNL     1      17.202 -22.992  20.145  1.00  0.00     0.219 HD
ENDBRANCH  20  29
ENDBRANCH  17  19
ENDBRANCH  16  17
ENDBRANCH   1  16
TORSDOF 7
ENDMDL
