MODEL 1
REMARK VINA RESULT: -8.621610330      0.000      0.000
REMARK  6 active torsions:
REMARK  status: ('A' for Active; 'I' for Inactive)
REMARK    1  A    between atoms: C2_2  and  C3_3 
REMARK    2  A    between atoms: C2_2  and  O1_12 
REMARK    3  A    between atoms: C2_2  and  C8_15 
REMARK    4  A    between atoms: C3_3  and  C4_4 
REMARK    5  A    between atoms: C4_4  and  C5_5 
REMARK    6  A    between atoms: O1_12  and  O2_13 
ROOT
HETATM    1  C1  UNL     1      11.293   8.610   1.149  1.00  0.00     0.050 C 
HETATM    2  C2  UNL     1      10.877   9.576   2.252  1.00  0.00     0.100 C 
ENDROOT
BRANCH   2   3
HETATM    3  C3  UNL     1      11.994  10.409   2.716  1.00  0.00     0.047 C 
BRANCH   3   4
HETATM    4  C4  UNL     1      13.320  10.289   2.021  1.00  0.00     0.061 C 
BRANCH   4   5
HETATM    5  C5  UNL     1      14.328  10.146   3.109  1.00  0.00     0.025 A 
HETATM    6  C6  UNL     1      15.630   9.725   3.010  1.00  0.00     0.114 A 
HETATM    7  N1  UNL     1      16.156   9.760   4.275  1.00  0.00    -0.360 N 
HETATM    8  C7  UNL     1      15.214  10.185   5.123  1.00  0.00     0.180 A 
ATOM      9  H1  UNL     1      17.110   9.504   4.528  1.00  0.00     0.166 HD
HETATM   10  N2  UNL     1      14.111  10.414   4.399  1.00  0.00    -0.355 N 
ATOM     11  H2  UNL     1      13.226  10.749   4.780  1.00  0.00     0.166 HD
ENDBRANCH   4   5
ENDBRANCH   3   4
ENDBRANCH   2   3
BRANCH   2  12
HETATM   12  O1  UNL     1      10.642   8.663   3.352  1.00  0.00    -0.232 OA
BRANCH  12  13
HETATM   13  O2  UNL     1      11.356   9.036   4.383  1.00  0.00    -0.250 OA
ATOM     14  H2  UNL     1      11.156   9.940   4.594  1.00  0.00     0.253 HD
ENDBRANCH  12  13
ENDBRANCH   2  12
BRANCH   2  15
HETATM   15  C8  UNL     1       9.552  10.195   2.017  1.00  0.00    -0.005 C 
HETATM   16  C9  UNL     1       8.958   9.727   0.721  1.00  0.00     0.017 C 
HETATM   17  C10 UNL     1       7.648  10.404   0.416  1.00  0.00    -0.013 C 
HETATM   18  C11 UNL     1       7.943  11.859   0.130  1.00  0.00     0.009 C 
HETATM   19  C15 UNL     1       6.679  10.344   1.580  1.00  0.00     0.009 C 
HETATM   20  C12 UNL     1       8.587  12.436   1.344  1.00  0.00    -0.013 C 
HETATM   21  C13 UNL     1       7.631  12.377   2.538  1.00  0.00     0.009 C 
HETATM   22  C17 UNL     1       9.830  11.700   1.793  1.00  0.00     0.017 C 
HETATM   23  C14 UNL     1       7.343  10.942   2.808  1.00  0.00    -0.013 C 
HETATM   24  C16 UNL     1       8.564  10.105   3.127  1.00  0.00     0.017 C 
ENDBRANCH   2  15
TORSDOF 6
ENDMDL
MODEL 2
REMARK VINA RESULT: -8.617721097      0.601      1.179
REMARK  6 active torsions:
REMARK  status: ('A' for Active; 'I' for Inactive)
REMARK    1  A    between atoms: C2_2  and  C3_3 
REMARK    2  A    between atoms: C2_2  and  O1_12 
REMARK    3  A    between atoms: C2_2  and  C8_15 
REMARK    4  A    between atoms: C3_3  and  C4_4 
REMARK    5  A    between atoms: C4_4  and  C5_5 
REMARK    6  A    between atoms: O1_12  and  O2_13 
ROOT
HETATM    1  C1  UNL     1      11.538   8.358   1.327  1.00  0.00     0.050 C 
HETATM    2  C2  UNL     1      10.937   9.426   2.233  1.00  0.00     0.100 C 
ENDROOT
BRANCH   2   3
HETATM    3  C3  UNL     1      11.948  10.365   2.736  1.00  0.00     0.047 C 
BRANCH   3   4
HETATM    4  C4  UNL     1      13.281  10.427   2.047  1.00  0.00     0.061 C 
BRANCH   4   5
HETATM    5  C5  UNL     1      14.293  10.216   3.120  1.00  0.00     0.025 A 
HETATM    6  C6  UNL     1      15.586   9.778   2.993  1.00  0.00     0.114 A 
HETATM    7  N1  UNL     1      16.122   9.746   4.254  1.00  0.00    -0.360 N 
HETATM    8  C7  UNL     1      15.193  10.149   5.127  1.00  0.00     0.180 A 
ATOM      9  H1  UNL     1      17.073   9.462   4.488  1.00  0.00     0.166 HD
HETATM   10  N2  UNL     1      14.089  10.431   4.422  1.00  0.00    -0.355 N 
ATOM     11  H2  UNL     1      13.213  10.764   4.824  1.00  0.00     0.166 HD
ENDBRANCH   4   5
ENDBRANCH   3   4
ENDBRANCH   2   3
BRANCH   2  12
HETATM   12  O1  UNL     1      10.580   8.640   3.396  1.00  0.00    -0.232 OA
BRANCH  12  13
HETATM   13  O2  UNL     1      11.382   8.942   4.384  1.00  0.00    -0.250 OA
ATOM     14  H2  UNL     1      11.322   8.271   5.054  1.00  0.00     0.253 HD
ENDBRANCH  12  13
ENDBRANCH   2  12
BRANCH   2  15
HETATM   15  C8  UNL     1       9.638   9.943   1.743  1.00  0.00    -0.005 C 
HETATM   16  C9  UNL     1       9.834  10.938   0.637  1.00  0.00     0.017 C 
HETATM   17  C10 UNL     1       8.534  11.542   0.177  1.00  0.00    -0.013 C 
HETATM   18  C11 UNL     1       8.010  12.408   1.300  1.00  0.00     0.009 C 
HETATM   19  C15 UNL     1       7.484  10.494  -0.134  1.00  0.00     0.009 C 
HETATM   20  C12 UNL     1       7.815  11.532   2.491  1.00  0.00    -0.013 C 
HETATM   21  C13 UNL     1       6.765  10.456   2.199  1.00  0.00     0.009 C 
HETATM   22  C17 UNL     1       9.055  10.774   2.910  1.00  0.00     0.017 C 
HETATM   23  C14 UNL     1       7.287   9.614   1.088  1.00  0.00    -0.013 C 
HETATM   24  C16 UNL     1       8.606   8.932   1.383  1.00  0.00     0.017 C 
ENDBRANCH   2  15
TORSDOF 6
ENDMDL
MODEL 3
REMARK VINA RESULT: -8.573900748      0.212      1.544
REMARK  6 active torsions:
REMARK  status: ('A' for Active; 'I' for Inactive)
REMARK    1  A    between atoms: C2_2  and  C3_3 
REMARK    2  A    between atoms: C2_2  and  O1_12 
REMARK    3  A    between atoms: C2_2  and  C8_15 
REMARK    4  A    between atoms: C3_3  and  C4_4 
REMARK    5  A    between atoms: C4_4  and  C5_5 
REMARK    6  A    between atoms: O1_12  and  O2_13 
ROOT
HETATM    1  C1  UNL     1      11.189   8.631   1.152  1.00  0.00     0.050 C 
HETATM    2  C2  UNL     1      10.823   9.644   2.230  1.00  0.00     0.100 C 
ENDROOT
BRANCH   2   3
HETATM    3  C3  UNL     1      11.995  10.373   2.733  1.00  0.00     0.047 C 
BRANCH   3   4
HETATM    4  C4  UNL     1      13.311  10.195   2.031  1.00  0.00     0.061 C 
BRANCH   4   5
HETATM    5  C5  UNL     1      14.328  10.087   3.114  1.00  0.00     0.025 A 
HETATM    6  C6  UNL     1      15.641   9.703   3.011  1.00  0.00     0.114 A 
HETATM    7  N1  UNL     1      16.173   9.762   4.273  1.00  0.00    -0.360 N 
HETATM    8  C7  UNL     1      15.224  10.166   5.123  1.00  0.00     0.180 A 
ATOM      9  H1  UNL     1      17.135   9.534   4.522  1.00  0.00     0.166 HD
HETATM   10  N2  UNL     1      14.110  10.360   4.403  1.00  0.00    -0.355 N 
ATOM     11  H2  UNL     1      13.219  10.672   4.787  1.00  0.00     0.166 HD
ENDBRANCH   4   5
ENDBRANCH   3   4
ENDBRANCH   2   3
BRANCH   2  12
HETATM   12  O1  UNL     1      10.460   8.769   3.326  1.00  0.00    -0.232 OA
BRANCH  12  13
HETATM   13  O2  UNL     1      11.259   8.990   4.339  1.00  0.00    -0.250 OA
ATOM     14  H2  UNL     1      11.042   9.826   4.733  1.00  0.00     0.253 HD
ENDBRANCH  12  13
ENDBRANCH   2  12
BRANCH   2  15
HETATM   15  C8  UNL     1       9.573  10.382   1.938  1.00  0.00    -0.005 C 
HETATM   16  C9  UNL     1       8.478   9.989   2.886  1.00  0.00     0.017 C 
HETATM   17  C10 UNL     1       7.172  10.663   2.558  1.00  0.00    -0.013 C 
HETATM   18  C11 UNL     1       6.682  10.096   1.245  1.00  0.00     0.009 C 
HETATM   19  C15 UNL     1       7.317  12.162   2.394  1.00  0.00     0.009 C 
HETATM   20  C12 UNL     1       7.719  10.385   0.215  1.00  0.00    -0.013 C 
HETATM   21  C13 UNL     1       7.894  11.896   0.038  1.00  0.00     0.009 C 
HETATM   22  C17 UNL     1       9.097   9.864   0.561  1.00  0.00     0.017 C 
HETATM   23  C14 UNL     1       8.370  12.445   1.337  1.00  0.00    -0.013 C 
HETATM   24  C16 UNL     1       9.680  11.862   1.822  1.00  0.00     0.017 C 
ENDBRANCH   2  15
TORSDOF 6
ENDMDL
MODEL 4
REMARK VINA RESULT: -8.506867624      0.875      1.008
REMARK  6 active torsions:
REMARK  status: ('A' for Active; 'I' for Inactive)
REMARK    1  A    between atoms: C2_2  and  C3_3 
REMARK    2  A    between atoms: C2_2  and  O1_12 
REMARK    3  A    between atoms: C2_2  and  C8_15 
REMARK    4  A    between atoms: C3_3  and  C4_4 
REMARK    5  A    between atoms: C4_4  and  C5_5 
REMARK    6  A    between atoms: O1_12  and  O2_13 
ROOT
HETATM    1  C1  UNL     1      11.324   9.949   0.287  1.00  0.00     0.050 C 
HETATM    2  C2  UNL     1      10.851   9.880   1.734  1.00  0.00     0.100 C 
ENDROOT
BRANCH   2   3
HETATM    3  C3  UNL     1      11.929  10.170   2.689  1.00  0.00     0.047 C 
BRANCH   3   4
HETATM    4  C4  UNL     1      13.257  10.630   2.158  1.00  0.00     0.061 C 
BRANCH   4   5
HETATM    5  C5  UNL     1      14.244  10.309   3.228  1.00  0.00     0.025 A 
HETATM    6  C6  UNL     1      15.505   9.787   3.089  1.00  0.00     0.114 A 
HETATM    7  N1  UNL     1      16.028   9.671   4.351  1.00  0.00    -0.360 N 
HETATM    8  C7  UNL     1      15.123  10.104   5.235  1.00  0.00     0.180 A 
ATOM      9  H1  UNL     1      16.955   9.313   4.579  1.00  0.00     0.166 HD
HETATM   10  N2  UNL     1      14.047  10.488   4.536  1.00  0.00    -0.355 N 
ATOM     11  H2  UNL     1      13.193  10.866   4.946  1.00  0.00     0.166 HD
ENDBRANCH   4   5
ENDBRANCH   3   4
ENDBRANCH   2   3
BRANCH   2  12
HETATM   12  O1  UNL     1      10.622   8.458   1.888  1.00  0.00    -0.232 OA
BRANCH  12  13
HETATM   13  O2  UNL     1      11.484   7.799   1.157  1.00  0.00    -0.250 OA
ATOM     14  H2  UNL     1      11.554   6.909   1.480  1.00  0.00     0.253 HD
ENDBRANCH  12  13
ENDBRANCH   2  12
BRANCH   2  15
HETATM   15  C8  UNL     1       9.512  10.479   1.940  1.00  0.00    -0.005 C 
HETATM   16  C9  UNL     1       8.578  10.112   0.825  1.00  0.00     0.017 C 
HETATM   17  C10 UNL     1       7.233  10.775   0.966  1.00  0.00    -0.013 C 
HETATM   18  C11 UNL     1       7.431  12.258   0.747  1.00  0.00     0.009 C 
HETATM   19  C15 UNL     1       6.632  10.582   2.343  1.00  0.00     0.009 C 
HETATM   20  C12 UNL     1       8.391  12.742   1.780  1.00  0.00    -0.013 C 
HETATM   21  C13 UNL     1       7.811  12.547   3.184  1.00  0.00     0.009 C 
HETATM   22  C17 UNL     1       9.711  12.005   1.791  1.00  0.00     0.017 C 
HETATM   23  C14 UNL     1       7.614  11.086   3.387  1.00  0.00    -0.013 C 
HETATM   24  C16 UNL     1       8.877  10.260   3.269  1.00  0.00     0.017 C 
ENDBRANCH   2  15
TORSDOF 6
ENDMDL
MODEL 5
REMARK VINA RESULT: -8.450014746      1.342      1.928
REMARK  6 active torsions:
REMARK  status: ('A' for Active; 'I' for Inactive)
REMARK    1  A    between atoms: C2_2  and  C3_3 
REMARK    2  A    between atoms: C2_2  and  O1_12 
REMARK    3  A    between atoms: C2_2  and  C8_15 
REMARK    4  A    between atoms: C3_3  and  C4_4 
REMARK    5  A    between atoms: C4_4  and  C5_5 
REMARK    6  A    between atoms: O1_12  and  O2_13 
ROOT
HETATM    1  C1  UNL     1      12.147  10.278   1.332  1.00  0.00     0.050 C 
HETATM    2  C2  UNL     1      11.031   9.690   2.187  1.00  0.00     0.100 C 
ENDROOT
BRANCH   2   3
HETATM    3  C3  UNL     1      11.333   9.754   3.623  1.00  0.00     0.047 C 
BRANCH   3   4
HETATM    4  C4  UNL     1      12.170   8.666   4.233  1.00  0.00     0.061 C 
BRANCH   4   5
HETATM    5  C5  UNL     1      13.513   9.273   4.451  1.00  0.00     0.025 A 
HETATM    6  C6  UNL     1      13.911  10.112   5.461  1.00  0.00     0.114 A 
HETATM    7  N1  UNL     1      15.232  10.403   5.239  1.00  0.00    -0.360 N 
HETATM    8  C7  UNL     1      15.634   9.768   4.134  1.00  0.00     0.180 A 
ATOM      9  H1  UNL     1      15.812  11.005   5.822  1.00  0.00     0.166 HD
HETATM   10  N2  UNL     1      14.578   9.086   3.668  1.00  0.00    -0.355 N 
ATOM     11  H2  UNL     1      14.587   8.504   2.831  1.00  0.00     0.166 HD
ENDBRANCH   4   5
ENDBRANCH   3   4
ENDBRANCH   2   3
BRANCH   2  12
HETATM   12  O1  UNL     1      11.145   8.281   1.869  1.00  0.00    -0.232 OA
BRANCH  12  13
HETATM   13  O2  UNL     1      12.140   8.105   1.037  1.00  0.00    -0.250 OA
ATOM     14  H2  UNL     1      12.957   8.305   1.479  1.00  0.00     0.253 HD
ENDBRANCH  12  13
ENDBRANCH   2  12
BRANCH   2  15
HETATM   15  C8  UNL     1       9.677  10.052   1.709  1.00  0.00    -0.005 C 
HETATM   16  C9  UNL     1       9.747  11.052   0.592  1.00  0.00     0.017 C 
HETATM   17  C10 UNL     1       8.381  11.500   0.142  1.00  0.00    -0.013 C 
HETATM   18  C11 UNL     1       7.774  12.311   1.265  1.00  0.00     0.009 C 
HETATM   19  C15 UNL     1       7.454  10.337  -0.148  1.00  0.00     0.009 C 
HETATM   20  C12 UNL     1       7.693  11.430   2.464  1.00  0.00    -0.013 C 
HETATM   21  C13 UNL     1       6.769  10.239   2.193  1.00  0.00     0.009 C 
HETATM   22  C17 UNL     1       9.015  10.821   2.875  1.00  0.00     0.017 C 
HETATM   23  C14 UNL     1       7.372   9.451   1.083  1.00  0.00    -0.013 C 
HETATM   24  C16 UNL     1       8.763   8.926   1.368  1.00  0.00     0.017 C 
ENDBRANCH   2  15
TORSDOF 6
ENDMDL
