MODEL 1
REMARK VINA RESULT: -7.633961306      0.000      0.000
REMARK  5 active torsions:
REMARK  status: ('A' for Active; 'I' for Inactive)
REMARK    1  A    between atoms: C2_2  and  C3_3 
REMARK    2  A    between atoms: C3_3  and  C4_4 
REMARK    3  A    between atoms: C4_4  and  C5_5 
REMARK    4  A    between atoms: C6_6  and  O1_7 
REMARK    5  A    between atoms: C9_12  and  C10_13 
ROOT
HETATM    1  C5  UNL     1      11.143   9.688   2.959  1.00  0.00     0.044 A 
HETATM    2  C6  UNL     1       9.884   9.741   3.508  1.00  0.00     0.100 A 
HETATM    3  C7  UNL     1       8.890  10.550   2.990  1.00  0.00     0.101 A 
HETATM    4  C8  UNL     1       7.600  10.608   3.668  1.00  0.00     0.104 C 
HETATM    5  N1  UNL     1       6.599  10.687   4.195  1.00  0.00    -0.191 NA
HETATM    6  C9  UNL     1       9.097  11.369   1.877  1.00  0.00     0.040 A 
HETATM    7  N2  UNL     1      10.346  11.304   1.354  1.00  0.00    -0.325 N 
ATOM      8  H2  UNL     1      10.556  11.883   0.540  1.00  0.00     0.169 HD
HETATM    9  C16 UNL     1      11.317  10.529   1.839  1.00  0.00     0.254 A 
HETATM   10  O2  UNL     1      12.451  10.512   1.302  1.00  0.00    -0.268 OA
ENDROOT
BRANCH   2  11
HETATM   11  O1  UNL     1       9.552   8.974   4.636  1.00  0.00    -0.358 OA
ATOM     12  H1  UNL     1       8.669   8.976   4.988  1.00  0.00     0.217 HD
ENDBRANCH   2  11
BRANCH   6  13
HETATM   13  C10 UNL     1       7.942  12.055   1.326  1.00  0.00     0.037 C 
HETATM   14  C11 UNL     1       7.976  13.582   1.558  1.00  0.00     0.011 C 
HETATM   15  C12 UNL     1       6.568  14.020   1.098  1.00  0.00     0.001 C 
HETATM   16  C13 UNL     1       6.686  14.108  -0.418  1.00  0.00     0.000 C 
HETATM   17  C14 UNL     1       7.055  12.760  -0.974  1.00  0.00     0.001 C 
HETATM   18  C15 UNL     1       8.084  11.991  -0.224  1.00  0.00     0.011 C 
ENDBRANCH   6  13
BRANCH   1  19
HETATM   19  C4  UNL     1      12.257   8.861   3.435  1.00  0.00     0.047 C 
BRANCH  19  20
HETATM   20  C3  UNL     1      12.988   9.364   4.627  1.00  0.00     0.004 C 
BRANCH  20  21
HETATM   21  C2  UNL     1      14.149  10.291   4.201  1.00  0.00    -0.004 C 
HETATM   22  C1  UNL     1      15.088   9.503   3.322  1.00  0.00     0.005 C 
ENDBRANCH  20  21
ENDBRANCH  19  20
ENDBRANCH   1  19
TORSDOF 5
ENDMDL
MODEL 2
REMARK VINA RESULT: -7.475542051      0.856      1.030
REMARK  5 active torsions:
REMARK  status: ('A' for Active; 'I' for Inactive)
REMARK    1  A    between atoms: C2_2  and  C3_3 
REMARK    2  A    between atoms: C3_3  and  C4_4 
REMARK    3  A    between atoms: C4_4  and  C5_5 
REMARK    4  A    between atoms: C6_6  and  O1_7 
REMARK    5  A    between atoms: C9_12  and  C10_13 
ROOT
HETATM    1  C5  UNL     1      10.925   9.496   2.809  1.00  0.00     0.044 A 
HETATM    2  C6  UNL     1       9.685   9.673   3.376  1.00  0.00     0.100 A 
HETATM    3  C7  UNL     1       8.663  10.332   2.719  1.00  0.00     0.101 A 
HETATM    4  C8  UNL     1       7.398  10.543   3.411  1.00  0.00     0.104 C 
HETATM    5  N1  UNL     1       6.414  10.740   3.941  1.00  0.00    -0.191 NA
HETATM    6  C9  UNL     1       8.821  10.867   1.437  1.00  0.00     0.040 A 
HETATM    7  N2  UNL     1      10.052  10.685   0.898  1.00  0.00    -0.325 N 
ATOM      8  H2  UNL     1      10.226  11.057  -0.036  1.00  0.00     0.169 HD
HETATM    9  C16 UNL     1      11.049  10.050   1.516  1.00  0.00     0.254 A 
HETATM   10  O2  UNL     1      12.164   9.912   0.958  1.00  0.00    -0.268 OA
ENDROOT
BRANCH   2  11
HETATM   11  O1  UNL     1       9.403   9.191   4.665  1.00  0.00    -0.358 OA
ATOM     12  H1  UNL     1       8.786   9.641   5.231  1.00  0.00     0.217 HD
ENDBRANCH   2  11
BRANCH   6  13
HETATM   13  C10 UNL     1       7.639  11.398   0.783  1.00  0.00     0.037 C 
HETATM   14  C11 UNL     1       7.874  12.783   0.140  1.00  0.00     0.011 C 
HETATM   15  C12 UNL     1       6.445  13.207  -0.267  1.00  0.00     0.001 C 
HETATM   16  C13 UNL     1       6.206  12.482  -1.585  1.00  0.00     0.000 C 
HETATM   17  C14 UNL     1       6.302  10.997  -1.367  1.00  0.00     0.001 C 
HETATM   18  C15 UNL     1       7.401  10.524  -0.484  1.00  0.00     0.011 C 
ENDBRANCH   6  13
BRANCH   1  19
HETATM   19  C4  UNL     1      12.065   8.809   3.425  1.00  0.00     0.047 C 
BRANCH  19  20
HETATM   20  C3  UNL     1      12.902   9.620   4.347  1.00  0.00     0.004 C 
BRANCH  20  21
HETATM   21  C2  UNL     1      14.381   9.179   4.269  1.00  0.00    -0.004 C 
HETATM   22  C1  UNL     1      14.980   9.748   3.007  1.00  0.00     0.005 C 
ENDBRANCH  20  21
ENDBRANCH  19  20
ENDBRANCH   1  19
TORSDOF 5
ENDMDL
MODEL 3
REMARK VINA RESULT: -7.272610284      1.786      3.192
REMARK  5 active torsions:
REMARK  status: ('A' for Active; 'I' for Inactive)
REMARK    1  A    between atoms: C2_2  and  C3_3 
REMARK    2  A    between atoms: C3_3  and  C4_4 
REMARK    3  A    between atoms: C4_4  and  C5_5 
REMARK    4  A    between atoms: C6_6  and  O1_7 
REMARK    5  A    between atoms: C9_12  and  C10_13 
ROOT
HETATM    1  C5  UNL     1      11.355   9.643   2.247  1.00  0.00     0.044 A 
HETATM    2  C6  UNL     1      10.662  10.294   1.255  1.00  0.00     0.100 A 
HETATM    3  C7  UNL     1       9.392  10.801   1.454  1.00  0.00     0.101 A 
HETATM    4  C8  UNL     1       8.691  11.416   0.334  1.00  0.00     0.104 C 
HETATM    5  N1  UNL     1       8.118  11.875  -0.530  1.00  0.00    -0.191 NA
HETATM    6  C9  UNL     1       8.725  10.683   2.677  1.00  0.00     0.040 A 
HETATM    7  N2  UNL     1       9.424  10.035   3.641  1.00  0.00    -0.325 N 
ATOM      8  H2  UNL     1       8.985   9.918   4.555  1.00  0.00     0.169 HD
HETATM    9  C16 UNL     1      10.651   9.542   3.467  1.00  0.00     0.254 A 
HETATM   10  O2  UNL     1      11.245   8.957   4.404  1.00  0.00    -0.268 OA
ENDROOT
BRANCH   2  11
HETATM   11  O1  UNL     1      11.219  10.468  -0.023  1.00  0.00    -0.358 OA
ATOM     12  H1  UNL     1      10.676  10.437  -0.803  1.00  0.00     0.217 HD
ENDBRANCH   2  11
BRANCH   6  13
HETATM   13  C10 UNL     1       7.463  11.387   2.822  1.00  0.00     0.037 C 
HETATM   14  C11 UNL     1       6.661  10.944   4.066  1.00  0.00     0.011 C 
HETATM   15  C12 UNL     1       5.305  11.652   3.857  1.00  0.00     0.001 C 
HETATM   16  C13 UNL     1       5.551  13.072   4.352  1.00  0.00     0.000 C 
HETATM   17  C14 UNL     1       6.640  13.708   3.532  1.00  0.00     0.001 C 
HETATM   18  C15 UNL     1       7.814  12.855   3.208  1.00  0.00     0.011 C 
ENDBRANCH   6  13
BRANCH   1  19
HETATM   19  C4  UNL     1      12.704   9.079   2.130  1.00  0.00     0.047 C 
BRANCH  19  20
HETATM   20  C3  UNL     1      13.832  10.035   2.273  1.00  0.00     0.004 C 
BRANCH  20  21
HETATM   21  C2  UNL     1      14.600   9.776   3.589  1.00  0.00    -0.004 C 
HETATM   22  C1  UNL     1      16.079   9.801   3.288  1.00  0.00     0.005 C 
ENDBRANCH  20  21
ENDBRANCH  19  20
ENDBRANCH   1  19
TORSDOF 5
ENDMDL
MODEL 4
REMARK VINA RESULT: -7.094218287      2.141      2.853
REMARK  5 active torsions:
REMARK  status: ('A' for Active; 'I' for Inactive)
REMARK    1  A    between atoms: C2_2  and  C3_3 
REMARK    2  A    between atoms: C3_3  and  C4_4 
REMARK    3  A    between atoms: C4_4  and  C5_5 
REMARK    4  A    between atoms: C6_6  and  O1_7 
REMARK    5  A    between atoms: C9_12  and  C10_13 
ROOT
HETATM    1  C5  UNL     1      12.731   9.589   1.955  1.00  0.00     0.044 A 
HETATM    2  C6  UNL     1      11.897   8.605   1.478  1.00  0.00     0.100 A 
HETATM    3  C7  UNL     1      10.573   8.850   1.166  1.00  0.00     0.101 A 
HETATM    4  C8  UNL     1       9.732   7.741   0.732  1.00  0.00     0.104 C 
HETATM    5  N1  UNL     1       9.053   6.889   0.418  1.00  0.00    -0.191 NA
HETATM    6  C9  UNL     1       9.991  10.111   1.318  1.00  0.00     0.040 A 
HETATM    7  N2  UNL     1      10.829  11.066   1.794  1.00  0.00    -0.325 N 
ATOM      8  H2  UNL     1      10.457  12.007   1.927  1.00  0.00     0.169 HD
HETATM    9  C16 UNL     1      12.109  10.848   2.098  1.00  0.00     0.254 A 
HETATM   10  O2  UNL     1      12.832  11.779   2.529  1.00  0.00    -0.268 OA
ENDROOT
BRANCH   2  11
HETATM   11  O1  UNL     1      12.359   7.292   1.291  1.00  0.00    -0.358 OA
ATOM     12  H1  UNL     1      12.109   6.789   0.524  1.00  0.00     0.217 HD
ENDBRANCH   2  11
BRANCH   6  13
HETATM   13  C10 UNL     1       8.641  10.291   0.814  1.00  0.00     0.037 C 
HETATM   14  C11 UNL     1       7.570  10.268   1.928  1.00  0.00     0.011 C 
HETATM   15  C12 UNL     1       6.253  10.244   1.122  1.00  0.00     0.001 C 
HETATM   16  C13 UNL     1       6.026  11.702   0.742  1.00  0.00     0.000 C 
HETATM   17  C14 UNL     1       7.176  12.189  -0.094  1.00  0.00     0.001 C 
HETATM   18  C15 UNL     1       8.537  11.771   0.339  1.00  0.00     0.011 C 
ENDBRANCH   6  13
BRANCH   1  19
HETATM   19  C4  UNL     1      14.145   9.425   2.307  1.00  0.00     0.047 C 
BRANCH  19  20
HETATM   20  C3  UNL     1      14.426   8.823   3.637  1.00  0.00     0.004 C 
BRANCH  20  21
HETATM   21  C2  UNL     1      14.976   9.890   4.611  1.00  0.00    -0.004 C 
HETATM   22  C1  UNL     1      13.909  10.192   5.634  1.00  0.00     0.005 C 
ENDBRANCH  20  21
ENDBRANCH  19  20
ENDBRANCH   1  19
TORSDOF 5
ENDMDL
MODEL 5
REMARK VINA RESULT: -6.870491757      1.624      2.220
REMARK  5 active torsions:
REMARK  status: ('A' for Active; 'I' for Inactive)
REMARK    1  A    between atoms: C2_2  and  C3_3 
REMARK    2  A    between atoms: C3_3  and  C4_4 
REMARK    3  A    between atoms: C4_4  and  C5_5 
REMARK    4  A    between atoms: C6_6  and  O1_7 
REMARK    5  A    between atoms: C9_12  and  C10_13 
ROOT
HETATM    1  C5  UNL     1      13.127   9.498   2.675  1.00  0.00     0.044 A 
HETATM    2  C6  UNL     1      12.069   9.025   3.414  1.00  0.00     0.100 A 
HETATM    3  C7  UNL     1      10.777   9.480   3.225  1.00  0.00     0.101 A 
HETATM    4  C8  UNL     1       9.718   8.983   4.094  1.00  0.00     0.104 C 
HETATM    5  N1  UNL     1       8.883   8.631   4.777  1.00  0.00    -0.191 NA
HETATM    6  C9  UNL     1      10.460  10.452   2.272  1.00  0.00     0.040 A 
HETATM    7  N2  UNL     1      11.518  10.907   1.556  1.00  0.00    -0.325 N 
ATOM      8  H2  UNL     1      11.346  11.620   0.847  1.00  0.00     0.169 HD
HETATM    9  C16 UNL     1      12.770  10.479   1.724  1.00  0.00     0.254 A 
HETATM   10  O2  UNL     1      13.703  10.939   1.024  1.00  0.00    -0.268 OA
ENDROOT
BRANCH   2  11
HETATM   11  O1  UNL     1      12.258   8.054   4.411  1.00  0.00    -0.358 OA
ATOM     12  H1  UNL     1      12.906   7.366   4.309  1.00  0.00     0.217 HD
ENDBRANCH   2  11
BRANCH   6  13
HETATM   13  C10 UNL     1       9.054  10.739   2.051  1.00  0.00     0.037 C 
HETATM   14  C11 UNL     1       8.777  12.233   1.774  1.00  0.00     0.011 C 
HETATM   15  C12 UNL     1       7.234  12.297   1.809  1.00  0.00     0.001 C 
HETATM   16  C13 UNL     1       6.814  11.822   0.424  1.00  0.00     0.000 C 
HETATM   17  C14 UNL     1       7.304  10.417   0.205  1.00  0.00     0.001 C 
HETATM   18  C15 UNL     1       8.683  10.113   0.673  1.00  0.00     0.011 C 
ENDBRANCH   6  13
BRANCH   1  19
HETATM   19  C4  UNL     1      14.525   9.074   2.802  1.00  0.00     0.047 C 
BRANCH  19  20
HETATM   20  C3  UNL     1      15.450  10.041   3.449  1.00  0.00     0.004 C 
BRANCH  20  21
HETATM   21  C2  UNL     1      15.573   9.746   4.961  1.00  0.00    -0.004 C 
HETATM   22  C1  UNL     1      14.438  10.438   5.674  1.00  0.00     0.005 C 
ENDBRANCH  20  21
ENDBRANCH  19  20
ENDBRANCH   1  19
TORSDOF 5
ENDMDL
