MODEL 1
REMARK VINA RESULT: -6.486273776      0.000      0.000
REMARK  7 active torsions:
REMARK  status: ('A' for Active; 'I' for Inactive)
REMARK    1  A    between atoms: C2_2  and  C3_3 
REMARK    2  A    between atoms: C5_5  and  C6_6 
REMARK    3  A    between atoms: C6_6  and  C7_7 
REMARK    4  A    between atoms: C7_7  and  C8_8 
REMARK    5  A    between atoms: C8_8  and  O1_9 
REMARK    6  A    between atoms: C11_13  and  O2_14 
REMARK    7  A    between atoms: C13_17  and  C14_18 
ROOT
HETATM    1  C3  UNL     1       7.150  11.001  -0.007  1.00  0.00    -0.024 A 
HETATM    2  C4  UNL     1       7.344  12.159   0.699  1.00  0.00     0.020 A 
HETATM    3  C5  UNL     1       8.470  12.353   1.535  1.00  0.00    -0.023 A 
HETATM    4  C9  UNL     1       9.417  11.359   1.656  1.00  0.00     0.084 A 
HETATM    5  C10 UNL     1       9.207  10.195   0.937  1.00  0.00     0.012 A 
HETATM    6  C11 UNL     1       8.103  10.016   0.126  1.00  0.00     0.081 A 
HETATM    7  C12 UNL     1      10.358   9.304   1.224  1.00  0.00     0.077 C 
HETATM    8  C13 UNL     1      10.917   9.898   2.478  1.00  0.00     0.140 C 
HETATM    9  O3  UNL     1      10.606  11.243   2.372  1.00  0.00    -0.344 OA
ENDROOT
BRANCH   3  10
HETATM   10  C6  UNL     1       8.577  13.599   2.316  1.00  0.00     0.043 C 
BRANCH  10  11
HETATM   11  C7  UNL     1       7.304  14.259   2.677  1.00  0.00     0.031 C 
BRANCH  11  12
HETATM   12  C8  UNL     1       6.704  13.994   4.004  1.00  0.00     0.164 C 
BRANCH  12  13
HETATM   13  O1  UNL     1       6.742  12.661   4.406  1.00  0.00    -0.401 OA
ATOM     14  H1  UNL     1       7.487  12.429   4.947  1.00  0.00     0.209 HD
ENDBRANCH  12  13
ENDBRANCH  11  12
ENDBRANCH  10  11
ENDBRANCH   3  10
BRANCH   1  15
HETATM   15  C2  UNL     1       5.971  10.809  -0.857  1.00  0.00     0.037 C 
HETATM   16  C1  UNL     1       6.150  11.311  -2.257  1.00  0.00     0.010 C 
ENDBRANCH   1  15
BRANCH   6  17
HETATM   17  O2  UNL     1       7.895   8.839  -0.596  1.00  0.00    -0.359 OA
ATOM     18  H2  UNL     1       8.518   8.136  -0.457  1.00  0.00     0.217 HD
ENDBRANCH   6  17
BRANCH   8  19
HETATM   19  C14 UNL     1      12.383   9.625   2.666  1.00  0.00    -0.024 C 
HETATM   20  C15 UNL     1      13.288  10.747   2.268  1.00  0.00     0.017 C 
HETATM   21  C16 UNL     1      12.739   8.439   1.771  1.00  0.00     0.017 C 
HETATM   22  C17 UNL     1      12.626   9.221   4.076  1.00  0.00     0.017 C 
ENDBRANCH   8  19
TORSDOF 7
ENDMDL
MODEL 2
REMARK VINA RESULT: -6.447226420      0.887      1.335
REMARK  7 active torsions:
REMARK  status: ('A' for Active; 'I' for Inactive)
REMARK    1  A    between atoms: C2_2  and  C3_3 
REMARK    2  A    between atoms: C5_5  and  C6_6 
REMARK    3  A    between atoms: C6_6  and  C7_7 
REMARK    4  A    between atoms: C7_7  and  C8_8 
REMARK    5  A    between atoms: C8_8  and  O1_9 
REMARK    6  A    between atoms: C11_13  and  O2_14 
REMARK    7  A    between atoms: C13_17  and  C14_18 
ROOT
HETATM    1  C3  UNL     1       7.258  10.952   0.136  1.00  0.00    -0.024 A 
HETATM    2  C4  UNL     1       7.498  12.113   0.823  1.00  0.00     0.020 A 
HETATM    3  C5  UNL     1       8.660  12.297   1.610  1.00  0.00    -0.023 A 
HETATM    4  C9  UNL     1       9.597  11.291   1.700  1.00  0.00     0.084 A 
HETATM    5  C10 UNL     1       9.341  10.124   1.000  1.00  0.00     0.012 A 
HETATM    6  C11 UNL     1       8.202   9.954   0.237  1.00  0.00     0.081 A 
HETATM    7  C12 UNL     1      10.491   9.220   1.246  1.00  0.00     0.077 C 
HETATM    8  C13 UNL     1      11.111   9.816   2.470  1.00  0.00     0.140 C 
HETATM    9  O3  UNL     1      10.813  11.164   2.366  1.00  0.00    -0.344 OA
ENDROOT
BRANCH   3  10
HETATM   10  C6  UNL     1       8.817  13.548   2.376  1.00  0.00     0.043 C 
BRANCH  10  11
HETATM   11  C7  UNL     1       7.646  14.451   2.404  1.00  0.00     0.031 C 
BRANCH  11  12
HETATM   12  C8  UNL     1       7.774  15.781   3.039  1.00  0.00     0.164 C 
BRANCH  12  13
HETATM   13  O1  UNL     1       6.960  15.976   4.153  1.00  0.00    -0.401 OA
ATOM     14  H1  UNL     1       6.762  16.885   4.347  1.00  0.00     0.209 HD
ENDBRANCH  12  13
ENDBRANCH  11  12
ENDBRANCH  10  11
ENDBRANCH   3  10
BRANCH   1  15
HETATM   15  C2  UNL     1       6.042  10.770  -0.663  1.00  0.00     0.037 C 
HETATM   16  C1  UNL     1       6.159  11.287  -2.064  1.00  0.00     0.010 C 
ENDBRANCH   1  15
BRANCH   6  17
HETATM   17  O2  UNL     1       7.948   8.775  -0.466  1.00  0.00    -0.359 OA
ATOM     18  H2  UNL     1       8.585   8.524  -1.125  1.00  0.00     0.217 HD
ENDBRANCH   6  17
BRANCH   8  19
HETATM   19  C14 UNL     1      12.580   9.523   2.599  1.00  0.00    -0.024 C 
HETATM   20  C15 UNL     1      13.047   8.313   1.855  1.00  0.00     0.017 C 
HETATM   21  C16 UNL     1      12.858   9.262   4.078  1.00  0.00     0.017 C 
HETATM   22  C17 UNL     1      13.352  10.728   2.194  1.00  0.00     0.017 C 
ENDBRANCH   8  19
TORSDOF 7
ENDMDL
MODEL 3
REMARK VINA RESULT: -6.129926408      2.297      4.024
REMARK  7 active torsions:
REMARK  status: ('A' for Active; 'I' for Inactive)
REMARK    1  A    between atoms: C2_2  and  C3_3 
REMARK    2  A    between atoms: C5_5  and  C6_6 
REMARK    3  A    between atoms: C6_6  and  C7_7 
REMARK    4  A    between atoms: C7_7  and  C8_8 
REMARK    5  A    between atoms: C8_8  and  O1_9 
REMARK    6  A    between atoms: C11_13  and  O2_14 
REMARK    7  A    between atoms: C13_17  and  C14_18 
ROOT
HETATM    1  C3  UNL     1       5.594  10.915   2.409  1.00  0.00    -0.024 A 
HETATM    2  C4  UNL     1       5.752  10.775   1.055  1.00  0.00     0.020 A 
HETATM    3  C5  UNL     1       7.012  10.510   0.467  1.00  0.00    -0.023 A 
HETATM    4  C9  UNL     1       8.130  10.382   1.263  1.00  0.00     0.084 A 
HETATM    5  C10 UNL     1       7.954  10.526   2.628  1.00  0.00     0.012 A 
HETATM    6  C11 UNL     1       6.720  10.787   3.191  1.00  0.00     0.081 A 
HETATM    7  C12 UNL     1       9.286  10.330   3.252  1.00  0.00     0.077 C 
HETATM    8  C13 UNL     1      10.213  10.538   2.096  1.00  0.00     0.140 C 
HETATM    9  O3  UNL     1       9.473  10.124   1.002  1.00  0.00    -0.344 OA
ENDROOT
BRANCH   3  10
HETATM   10  C6  UNL     1       7.117  10.439  -1.002  1.00  0.00     0.043 C 
BRANCH  10  11
HETATM   11  C7  UNL     1       6.342  11.442  -1.765  1.00  0.00     0.031 C 
BRANCH  11  12
HETATM   12  C8  UNL     1       5.925  11.133  -3.150  1.00  0.00     0.164 C 
BRANCH  12  13
HETATM   13  O1  UNL     1       5.887  12.231  -4.007  1.00  0.00    -0.401 OA
ATOM     14  H1  UNL     1       6.730  12.639  -4.167  1.00  0.00     0.209 HD
ENDBRANCH  12  13
ENDBRANCH  11  12
ENDBRANCH  10  11
ENDBRANCH   3  10
BRANCH   1  15
HETATM   15  C2  UNL     1       4.285  11.204   3.002  1.00  0.00     0.037 C 
HETATM   16  C1  UNL     1       3.263  10.137   2.758  1.00  0.00     0.010 C 
ENDBRANCH   1  15
BRANCH   6  17
HETATM   17  O2  UNL     1       6.548  10.932   4.569  1.00  0.00    -0.359 OA
ATOM     18  H2  UNL     1       7.331  11.088   5.084  1.00  0.00     0.217 HD
ENDBRANCH   6  17
BRANCH   8  19
HETATM   19  C14 UNL     1      11.527   9.825   2.250  1.00  0.00    -0.024 C 
HETATM   20  C15 UNL     1      12.734  10.665   1.977  1.00  0.00     0.017 C 
HETATM   21  C16 UNL     1      11.546   8.690   1.228  1.00  0.00     0.017 C 
HETATM   22  C17 UNL     1      11.597   9.219   3.606  1.00  0.00     0.017 C 
ENDBRANCH   8  19
TORSDOF 7
ENDMDL
MODEL 4
REMARK VINA RESULT: -6.118542021      1.839      5.489
REMARK  7 active torsions:
REMARK  status: ('A' for Active; 'I' for Inactive)
REMARK    1  A    between atoms: C2_2  and  C3_3 
REMARK    2  A    between atoms: C5_5  and  C6_6 
REMARK    3  A    between atoms: C6_6  and  C7_7 
REMARK    4  A    between atoms: C7_7  and  C8_8 
REMARK    5  A    between atoms: C8_8  and  O1_9 
REMARK    6  A    between atoms: C11_13  and  O2_14 
REMARK    7  A    between atoms: C13_17  and  C14_18 
ROOT
HETATM    1  C3  UNL     1       8.163   9.088   0.977  1.00  0.00    -0.024 A 
HETATM    2  C4  UNL     1       9.447   9.431   1.312  1.00  0.00     0.020 A 
HETATM    3  C5  UNL     1       9.802  10.750   1.680  1.00  0.00    -0.023 A 
HETATM    4  C9  UNL     1       8.843  11.739   1.712  1.00  0.00     0.084 A 
HETATM    5  C10 UNL     1       7.551  11.377   1.370  1.00  0.00     0.012 A 
HETATM    6  C11 UNL     1       7.216  10.086   1.010  1.00  0.00     0.081 A 
HETATM    7  C12 UNL     1       6.720  12.599   1.497  1.00  0.00     0.077 C 
HETATM    8  C13 UNL     1       7.746  13.688   1.472  1.00  0.00     0.140 C 
HETATM    9  O3  UNL     1       8.867  13.095   2.027  1.00  0.00    -0.344 OA
ENDROOT
BRANCH   3  10
HETATM   10  C6  UNL     1      11.217  11.060   1.963  1.00  0.00     0.043 C 
BRANCH  10  11
HETATM   11  C7  UNL     1      12.221  10.203   1.297  1.00  0.00     0.031 C 
BRANCH  11  12
HETATM   12  C8  UNL     1      12.795   9.055   2.033  1.00  0.00     0.164 C 
BRANCH  12  13
HETATM   13  O1  UNL     1      12.646   7.823   1.400  1.00  0.00    -0.401 OA
ATOM     14  H1  UNL     1      13.284   7.646   0.719  1.00  0.00     0.209 HD
ENDBRANCH  12  13
ENDBRANCH  11  12
ENDBRANCH  10  11
ENDBRANCH   3  10
BRANCH   1  15
HETATM   15  C2  UNL     1       7.813   7.720   0.583  1.00  0.00     0.037 C 
HETATM   16  C1  UNL     1       8.997   6.870   0.239  1.00  0.00     0.010 C 
ENDBRANCH   1  15
BRANCH   6  17
HETATM   17  O2  UNL     1       5.912   9.727   0.665  1.00  0.00    -0.359 OA
ATOM     18  H2  UNL     1       5.211  10.252   1.034  1.00  0.00     0.217 HD
ENDBRANCH   6  17
BRANCH   8  19
HETATM   19  C14 UNL     1       7.305  14.940   2.179  1.00  0.00    -0.024 C 
HETATM   20  C15 UNL     1       8.171  15.352   3.326  1.00  0.00     0.017 C 
HETATM   21  C16 UNL     1       5.917  14.666   2.755  1.00  0.00     0.017 C 
HETATM   22  C17 UNL     1       7.178  16.039   1.186  1.00  0.00     0.017 C 
ENDBRANCH   8  19
TORSDOF 7
ENDMDL
MODEL 5
REMARK VINA RESULT: -6.091616873      2.039      5.310
REMARK  7 active torsions:
REMARK  status: ('A' for Active; 'I' for Inactive)
REMARK    1  A    between atoms: C2_2  and  C3_3 
REMARK    2  A    between atoms: C5_5  and  C6_6 
REMARK    3  A    between atoms: C6_6  and  C7_7 
REMARK    4  A    between atoms: C7_7  and  C8_8 
REMARK    5  A    between atoms: C8_8  and  O1_9 
REMARK    6  A    between atoms: C11_13  and  O2_14 
REMARK    7  A    between atoms: C13_17  and  C14_18 
ROOT
HETATM    1  C3  UNL     1       8.878   9.595   3.113  1.00  0.00    -0.024 A 
HETATM    2  C4  UNL     1       8.452  10.815   3.568  1.00  0.00     0.020 A 
HETATM    3  C5  UNL     1       7.700  11.700   2.759  1.00  0.00    -0.023 A 
HETATM    4  C9  UNL     1       7.373  11.344   1.469  1.00  0.00     0.084 A 
HETATM    5  C10 UNL     1       7.811  10.109   1.024  1.00  0.00     0.012 A 
HETATM    6  C11 UNL     1       8.546   9.254   1.822  1.00  0.00     0.081 A 
HETATM    7  C12 UNL     1       7.322   9.961  -0.369  1.00  0.00     0.077 C 
HETATM    8  C13 UNL     1       7.012  11.374  -0.751  1.00  0.00     0.140 C 
HETATM    9  O3  UNL     1       6.661  11.969   0.448  1.00  0.00    -0.344 OA
ENDROOT
BRANCH   3  10
HETATM   10  C6  UNL     1       7.334  13.025   3.295  1.00  0.00     0.043 C 
BRANCH  10  11
HETATM   11  C7  UNL     1       8.102  14.178   2.776  1.00  0.00     0.031 C 
BRANCH  11  12
HETATM   12  C8  UNL     1       7.400  15.225   2.002  1.00  0.00     0.164 C 
BRANCH  12  13
HETATM   13  O1  UNL     1       7.027  14.847   0.714  1.00  0.00    -0.401 OA
ATOM     14  H1  UNL     1       7.439  15.345   0.018  1.00  0.00     0.209 HD
ENDBRANCH  12  13
ENDBRANCH  11  12
ENDBRANCH  10  11
ENDBRANCH   3  10
BRANCH   1  15
HETATM   15  C2  UNL     1       9.669   8.695   3.958  1.00  0.00     0.037 C 
HETATM   16  C1  UNL     1      11.131   9.019   3.981  1.00  0.00     0.010 C 
ENDBRANCH   1  15
BRANCH   6  17
HETATM   17  O2  UNL     1       8.987   8.010   1.367  1.00  0.00    -0.359 OA
ATOM     18  H2  UNL     1       8.410   7.270   1.517  1.00  0.00     0.217 HD
ENDBRANCH   6  17
BRANCH   8  19
HETATM   19  C14 UNL     1       5.961  11.487  -1.819  1.00  0.00    -0.024 C 
HETATM   20  C15 UNL     1       6.227  10.681  -3.051  1.00  0.00     0.017 C 
HETATM   21  C16 UNL     1       5.919  12.950  -2.256  1.00  0.00     0.017 C 
HETATM   22  C17 UNL     1       4.636  11.146  -1.236  1.00  0.00     0.017 C 
ENDBRANCH   8  19
TORSDOF 7
ENDMDL
