MODEL 1
REMARK VINA RESULT: -7.497218795      0.000      0.000
REMARK  7 active torsions:
REMARK  status: ('A' for Active; 'I' for Inactive)
REMARK    1  A    between atoms: C2_2  and  O1_4 
REMARK    2  A    between atoms: C2_2  and  C4_6 
REMARK    3  A    between atoms: C4_6  and  O2_7 
REMARK    4  A    between atoms: O2_7  and  C5_8 
REMARK    5  A    between atoms: C7_10  and  C8_11 
REMARK    6  A    between atoms: C8_11  and  C9_12 
REMARK    7  A    between atoms: C9_12  and  N1_13 
ROOT
HETATM    1  C5  UNL     1      10.467   9.975   2.726  1.00  0.00     0.130 C 
HETATM    2  C6  UNL     1       9.118   9.838   3.395  1.00  0.00     0.039 C 
HETATM    3  C7  UNL     1       8.230  10.920   2.864  1.00  0.00     0.008 C 
HETATM    4  C10 UNL     1       8.104  10.961   1.383  1.00  0.00    -0.039 C 
HETATM    5  C11 UNL     1       7.318  12.228   1.034  1.00  0.00     0.015 C 
HETATM    6  C12 UNL     1       7.405   9.827   0.733  1.00  0.00     0.010 C 
HETATM    7  C13 UNL     1       8.088   8.519   0.760  1.00  0.00     0.002 C 
HETATM    8  C14 UNL     1       9.548   8.512   0.968  1.00  0.00     0.012 C 
HETATM    9  C15 UNL     1      10.219   9.794   1.229  1.00  0.00    -0.017 C 
HETATM   10  C16 UNL     1      11.598   9.855   0.571  1.00  0.00     0.018 C 
HETATM   11  C17 UNL     1       9.489  11.023   0.779  1.00  0.00     0.021 C 
ENDROOT
BRANCH   1  12
HETATM   12  O2  UNL     1      11.407   9.115   3.214  1.00  0.00    -0.382 OA
BRANCH  12  13
HETATM   13  C4  UNL     1      12.033   9.701   4.311  1.00  0.00     0.205 C 
BRANCH  13  14
HETATM   14  C2  UNL     1      13.534   9.582   4.250  1.00  0.00     0.072 C 
HETATM   15  C1  UNL     1      14.032  10.185   2.972  1.00  0.00     0.047 C 
HETATM   16  C3  UNL     1      14.195  10.214   5.456  1.00  0.00     0.047 C 
BRANCH  14  17
HETATM   17  O1  UNL     1      13.845   8.223   4.258  1.00  0.00    -0.388 OA
ATOM     18  H1  UNL     1      13.085   7.737   4.557  1.00  0.00     0.210 HD
ENDBRANCH  14  17
ENDBRANCH  13  14
ENDBRANCH  12  13
ENDBRANCH   1  12
BRANCH   3  19
HETATM   19  C8  UNL     1       6.940  10.975   3.582  1.00  0.00     0.109 C 
BRANCH  19  20
HETATM   20  C9  UNL     1       6.571  12.033   4.291  1.00  0.00    -0.077 C 
BRANCH  20  21
HETATM   21  N1  UNL     1       6.068  12.928   5.047  1.00  0.00    -0.370 N 
ATOM     22  H12 UNL     1       5.433  12.212   5.401  1.00  0.00     0.165 HD
ATOM     23  H11 UNL     1       5.776  13.744   5.583  1.00  0.00     0.165 HD
ENDBRANCH  20  21
ENDBRANCH  19  20
ENDBRANCH   3  19
TORSDOF 7
ENDMDL
MODEL 2
REMARK VINA RESULT: -7.408027840      1.743      2.609
REMARK  7 active torsions:
REMARK  status: ('A' for Active; 'I' for Inactive)
REMARK    1  A    between atoms: C2_2  and  O1_4 
REMARK    2  A    between atoms: C2_2  and  C4_6 
REMARK    3  A    between atoms: C4_6  and  O2_7 
REMARK    4  A    between atoms: O2_7  and  C5_8 
REMARK    5  A    between atoms: C7_10  and  C8_11 
REMARK    6  A    between atoms: C8_11  and  C9_12 
REMARK    7  A    between atoms: C9_12  and  N1_13 
ROOT
HETATM    1  C5  UNL     1       9.907  10.165   0.827  1.00  0.00     0.130 C 
HETATM    2  C6  UNL     1       9.856  11.431   1.652  1.00  0.00     0.039 C 
HETATM    3  C7  UNL     1       8.461  11.968   1.582  1.00  0.00     0.008 C 
HETATM    4  C10 UNL     1       7.396  11.010   1.984  1.00  0.00    -0.039 C 
HETATM    5  C11 UNL     1       6.052  11.675   1.671  1.00  0.00     0.015 C 
HETATM    6  C12 UNL     1       7.356  10.605   3.409  1.00  0.00     0.010 C 
HETATM    7  C13 UNL     1       8.466   9.762   3.895  1.00  0.00     0.002 C 
HETATM    8  C14 UNL     1       9.236   9.001   2.894  1.00  0.00     0.012 C 
HETATM    9  C15 UNL     1       8.916   9.197   1.472  1.00  0.00    -0.017 C 
HETATM   10  C16 UNL     1       9.034   7.894   0.680  1.00  0.00     0.018 C 
HETATM   11  C17 UNL     1       7.552   9.743   1.174  1.00  0.00     0.021 C 
ENDROOT
BRANCH   1  12
HETATM   12  O2  UNL     1      11.161   9.639   0.714  1.00  0.00    -0.382 OA
BRANCH  12  13
HETATM   13  C4  UNL     1      12.026  10.345   1.546  1.00  0.00     0.205 C 
BRANCH  13  14
HETATM   14  C2  UNL     1      12.955   9.441   2.314  1.00  0.00     0.072 C 
HETATM   15  C1  UNL     1      14.328  10.039   2.338  1.00  0.00     0.047 C 
HETATM   16  C3  UNL     1      12.443   9.170   3.712  1.00  0.00     0.047 C 
BRANCH  14  17
HETATM   17  O1  UNL     1      13.006   8.224   1.636  1.00  0.00    -0.388 OA
ATOM     18  H1  UNL     1      13.451   7.587   2.183  1.00  0.00     0.210 HD
ENDBRANCH  14  17
ENDBRANCH  13  14
ENDBRANCH  12  13
ENDBRANCH   1  12
BRANCH   3  19
HETATM   19  C8  UNL     1       8.349  13.297   2.218  1.00  0.00     0.109 C 
BRANCH  19  20
HETATM   20  C9  UNL     1       7.767  14.323   1.613  1.00  0.00    -0.077 C 
BRANCH  20  21
HETATM   21  N1  UNL     1       7.049  15.273   1.158  1.00  0.00    -0.370 N 
ATOM     22  H12 UNL     1       6.357  14.569   0.899  1.00  0.00     0.165 HD
ATOM     23  H11 UNL     1       6.598  16.131   0.843  1.00  0.00     0.165 HD
ENDBRANCH  20  21
ENDBRANCH  19  20
ENDBRANCH   3  19
TORSDOF 7
ENDMDL
MODEL 3
REMARK VINA RESULT: -7.237315973      0.725      1.067
REMARK  7 active torsions:
REMARK  status: ('A' for Active; 'I' for Inactive)
REMARK    1  A    between atoms: C2_2  and  O1_4 
REMARK    2  A    between atoms: C2_2  and  C4_6 
REMARK    3  A    between atoms: C4_6  and  O2_7 
REMARK    4  A    between atoms: O2_7  and  C5_8 
REMARK    5  A    between atoms: C7_10  and  C8_11 
REMARK    6  A    between atoms: C8_11  and  C9_12 
REMARK    7  A    between atoms: C9_12  and  N1_13 
ROOT
HETATM    1  C5  UNL     1      10.404   9.767   2.736  1.00  0.00     0.130 C 
HETATM    2  C6  UNL     1       9.033   9.680   3.367  1.00  0.00     0.039 C 
HETATM    3  C7  UNL     1       8.230  10.846   2.882  1.00  0.00     0.008 C 
HETATM    4  C10 UNL     1       8.144  10.980   1.403  1.00  0.00    -0.039 C 
HETATM    5  C11 UNL     1       7.450  12.314   1.112  1.00  0.00     0.015 C 
HETATM    6  C12 UNL     1       7.390   9.933   0.673  1.00  0.00     0.010 C 
HETATM    7  C13 UNL     1       7.987   8.584   0.638  1.00  0.00     0.002 C 
HETATM    8  C14 UNL     1       9.438   8.470   0.877  1.00  0.00     0.012 C 
HETATM    9  C15 UNL     1      10.183   9.688   1.227  1.00  0.00    -0.017 C 
HETATM   10  C16 UNL     1      11.579   9.696   0.603  1.00  0.00     0.018 C 
HETATM   11  C17 UNL     1       9.545  10.986   0.834  1.00  0.00     0.021 C 
ENDROOT
BRANCH   1  12
HETATM   12  O2  UNL     1      11.274   8.820   3.193  1.00  0.00    -0.382 OA
BRANCH  12  13
HETATM   13  C4  UNL     1      11.987   9.342   4.270  1.00  0.00     0.205 C 
BRANCH  13  14
HETATM   14  C2  UNL     1      13.414   9.671   3.911  1.00  0.00     0.072 C 
HETATM   15  C1  UNL     1      14.235   9.762   5.161  1.00  0.00     0.047 C 
HETATM   16  C3  UNL     1      13.993   8.665   2.939  1.00  0.00     0.047 C 
BRANCH  14  17
HETATM   17  O1  UNL     1      13.409  10.915   3.284  1.00  0.00    -0.388 OA
ATOM     18  H1  UNL     1      13.588  10.793   2.359  1.00  0.00     0.210 HD
ENDBRANCH  14  17
ENDBRANCH  13  14
ENDBRANCH  12  13
ENDBRANCH   1  12
BRANCH   3  19
HETATM   19  C8  UNL     1       6.928  10.945   3.573  1.00  0.00     0.109 C 
BRANCH  19  20
HETATM   20  C9  UNL     1       6.581  12.015   4.277  1.00  0.00    -0.077 C 
BRANCH  20  21
HETATM   21  N1  UNL     1       6.094  12.925   5.023  1.00  0.00    -0.370 N 
ATOM     22  H12 UNL     1       5.556  12.195   5.491  1.00  0.00     0.165 HD
ATOM     23  H11 UNL     1       5.799  13.757   5.534  1.00  0.00     0.165 HD
ENDBRANCH  20  21
ENDBRANCH  19  20
ENDBRANCH   3  19
TORSDOF 7
ENDMDL
MODEL 4
REMARK VINA RESULT: -7.197173682      1.202      1.407
REMARK  7 active torsions:
REMARK  status: ('A' for Active; 'I' for Inactive)
REMARK    1  A    between atoms: C2_2  and  O1_4 
REMARK    2  A    between atoms: C2_2  and  C4_6 
REMARK    3  A    between atoms: C4_6  and  O2_7 
REMARK    4  A    between atoms: O2_7  and  C5_8 
REMARK    5  A    between atoms: C7_10  and  C8_11 
REMARK    6  A    between atoms: C8_11  and  C9_12 
REMARK    7  A    between atoms: C9_12  and  N1_13 
ROOT
HETATM    1  C5  UNL     1       9.998  10.146   2.654  1.00  0.00     0.130 C 
HETATM    2  C6  UNL     1       8.647  10.200   3.332  1.00  0.00     0.039 C 
HETATM    3  C7  UNL     1       8.110  11.588   3.175  1.00  0.00     0.008 C 
HETATM    4  C10 UNL     1       8.038  12.081   1.773  1.00  0.00    -0.039 C 
HETATM    5  C11 UNL     1       7.646  13.560   1.836  1.00  0.00     0.015 C 
HETATM    6  C12 UNL     1       7.068  11.415   0.872  1.00  0.00     0.010 C 
HETATM    7  C13 UNL     1       7.358  10.018   0.495  1.00  0.00     0.002 C 
HETATM    8  C14 UNL     1       8.752   9.552   0.611  1.00  0.00     0.012 C 
HETATM    9  C15 UNL     1       9.748  10.472   1.182  1.00  0.00    -0.017 C 
HETATM   10  C16 UNL     1      11.106  10.337   0.491  1.00  0.00     0.018 C 
HETATM   11  C17 UNL     1       9.400  11.930   1.135  1.00  0.00     0.021 C 
ENDROOT
BRANCH   1  12
HETATM   12  O2  UNL     1      10.648   8.959   2.829  1.00  0.00    -0.382 OA
BRANCH  12  13
HETATM   13  C4  UNL     1      11.538   9.082   3.892  1.00  0.00     0.205 C 
BRANCH  13  14
HETATM   14  C2  UNL     1      12.977   9.091   3.442  1.00  0.00     0.072 C 
HETATM   15  C1  UNL     1      13.093   8.383   2.128  1.00  0.00     0.047 C 
HETATM   16  C3  UNL     1      13.531  10.497   3.366  1.00  0.00     0.047 C 
BRANCH  14  17
HETATM   17  O1  UNL     1      13.715   8.393   4.396  1.00  0.00    -0.388 OA
ATOM     18  H1  UNL     1      14.238   9.012   4.892  1.00  0.00     0.210 HD
ENDBRANCH  14  17
ENDBRANCH  13  14
ENDBRANCH  12  13
ENDBRANCH   1  12
BRANCH   3  19
HETATM   19  C8  UNL     1       6.869  11.789   3.950  1.00  0.00     0.109 C 
BRANCH  19  20
HETATM   20  C9  UNL     1       5.728  11.195   3.625  1.00  0.00    -0.077 C 
BRANCH  20  21
HETATM   21  N1  UNL     1       4.557  10.815   3.298  1.00  0.00    -0.370 N 
ATOM     22  H12 UNL     1       4.972  10.388   2.470  1.00  0.00     0.165 HD
ATOM     23  H11 UNL     1       3.571  10.585   3.175  1.00  0.00     0.165 HD
ENDBRANCH  20  21
ENDBRANCH  19  20
ENDBRANCH   3  19
TORSDOF 7
ENDMDL
MODEL 5
REMARK VINA RESULT: -7.182995972      1.934      2.984
REMARK  7 active torsions:
REMARK  status: ('A' for Active; 'I' for Inactive)
REMARK    1  A    between atoms: C2_2  and  O1_4 
REMARK    2  A    between atoms: C2_2  and  C4_6 
REMARK    3  A    between atoms: C4_6  and  O2_7 
REMARK    4  A    between atoms: O2_7  and  C5_8 
REMARK    5  A    between atoms: C7_10  and  C8_11 
REMARK    6  A    between atoms: C8_11  and  C9_12 
REMARK    7  A    between atoms: C9_12  and  N1_13 
ROOT
HETATM    1  C5  UNL     1       9.450  10.675   1.060  1.00  0.00     0.130 C 
HETATM    2  C6  UNL     1       8.770  12.025   1.029  1.00  0.00     0.039 C 
HETATM    3  C7  UNL     1       7.894  12.069  -0.183  1.00  0.00     0.008 C 
HETATM    4  C10 UNL     1       6.910  10.959  -0.291  1.00  0.00    -0.039 C 
HETATM    5  C11 UNL     1       6.247  11.077  -1.666  1.00  0.00     0.015 C 
HETATM    6  C12 UNL     1       5.819  10.925   0.713  1.00  0.00     0.010 C 
HETATM    7  C13 UNL     1       6.201  10.614   2.104  1.00  0.00     0.002 C 
HETATM    8  C14 UNL     1       7.477   9.906   2.321  1.00  0.00     0.012 C 
HETATM    9  C15 UNL     1       8.331   9.638   1.155  1.00  0.00    -0.017 C 
HETATM   10  C16 UNL     1       9.031   8.283   1.267  1.00  0.00     0.018 C 
HETATM   11  C17 UNL     1       7.647   9.644  -0.178  1.00  0.00     0.021 C 
ENDROOT
BRANCH   1  12
HETATM   12  O2  UNL     1      10.371  10.552   2.059  1.00  0.00    -0.382 OA
BRANCH  12  13
HETATM   13  C4  UNL     1      11.647  10.549   1.502  1.00  0.00     0.205 C 
BRANCH  13  14
HETATM   14  C2  UNL     1      12.568   9.562   2.174  1.00  0.00     0.072 C 
HETATM   15  C1  UNL     1      13.935  10.160   2.297  1.00  0.00     0.047 C 
HETATM   16  C3  UNL     1      12.031   9.122   3.518  1.00  0.00     0.047 C 
BRANCH  14  17
HETATM   17  O1  UNL     1      12.640   8.437   1.355  1.00  0.00    -0.388 OA
ATOM     18  H1  UNL     1      11.765   8.214   1.062  1.00  0.00     0.210 HD
ENDBRANCH  14  17
ENDBRANCH  13  14
ENDBRANCH  12  13
ENDBRANCH   1  12
BRANCH   3  19
HETATM   19  C8  UNL     1       7.315  13.412  -0.396  1.00  0.00     0.109 C 
BRANCH  19  20
HETATM   20  C9  UNL     1       7.072  14.244   0.609  1.00  0.00    -0.077 C 
BRANCH  20  21
HETATM   21  N1  UNL     1       6.973  15.167   1.481  1.00  0.00    -0.370 N 
ATOM     22  H12 UNL     1       6.187  15.533   0.943  1.00  0.00     0.165 HD
ATOM     23  H11 UNL     1       7.022  15.833   2.252  1.00  0.00     0.165 HD
ENDBRANCH  20  21
ENDBRANCH  19  20
ENDBRANCH   3  19
TORSDOF 7
ENDMDL
