MODEL 1
REMARK VINA RESULT: -6.893548679      0.000      0.000
REMARK  3 active torsions:
REMARK  status: ('A' for Active; 'I' for Inactive)
REMARK    1  A    between atoms: C3_3  and  N1_4 
REMARK    2  A    between atoms: C5_9  and  N2_10 
REMARK    3  A    between atoms: N2_10  and  C6_13 
ROOT
HETATM    1  C1  UNL     1     -39.429 -14.445   3.722  1.00  0.00     0.014 C 
HETATM    2  C2  UNL     1     -38.724 -15.019   4.913  1.00  0.00     0.043 C 
HETATM    3  C3  UNL     1     -39.540 -15.258   6.143  1.00  0.00     0.191 C 
HETATM    4  C4  UNL     1     -39.013 -13.959   6.710  1.00  0.00     0.066 C 
HETATM    5  C5  UNL     1     -37.938 -13.967   5.677  1.00  0.00     0.194 C 
ENDROOT
BRANCH   5   6
HETATM    6  N2  UNL     1     -36.645 -14.439   6.059  1.00  0.00    -0.066 N 
ATOM      7  H22 UNL     1     -36.672 -14.838   6.997  1.00  0.00     0.278 HD
ATOM      8  H21 UNL     1     -36.396 -15.272   5.525  1.00  0.00     0.278 HD
BRANCH   6   9
HETATM    9  C6  UNL     1     -35.606 -13.445   5.961  1.00  0.00     0.186 C 
HETATM   10  C7  UNL     1     -36.027 -12.204   6.642  1.00  0.00     0.033 C 
HETATM   11  C8  UNL     1     -34.951 -11.158   6.758  1.00  0.00     0.002 C 
HETATM   12  C9  UNL     1     -33.576 -11.696   6.476  1.00  0.00     0.000 C 
HETATM   13  C10 UNL     1     -33.412 -13.035   7.108  1.00  0.00     0.002 C 
HETATM   14  C11 UNL     1     -34.329 -14.045   6.479  1.00  0.00     0.033 C 
ENDBRANCH   6   9
ENDBRANCH   5   6
BRANCH   3  15
HETATM   15  N1  UNL     1     -40.974 -15.176   5.996  1.00  0.00    -0.075 N 
ATOM     16  H13 UNL     1     -41.267 -14.200   6.034  1.00  0.00     0.274 HD
ATOM     17  H12 UNL     1     -41.233 -15.412   5.038  1.00  0.00     0.274 HD
ATOM     18  H11 UNL     1     -41.534 -15.726   6.647  1.00  0.00     0.274 HD
ENDBRANCH   3  15
TORSDOF 3
ENDMDL
MODEL 2
REMARK VINA RESULT: -6.792493628      1.943      5.674
REMARK  3 active torsions:
REMARK  status: ('A' for Active; 'I' for Inactive)
REMARK    1  A    between atoms: C3_3  and  N1_4 
REMARK    2  A    between atoms: C5_9  and  N2_10 
REMARK    3  A    between atoms: N2_10  and  C6_13 
ROOT
HETATM    1  C1  UNL     1     -34.338 -10.495   6.431  1.00  0.00     0.014 C 
HETATM    2  C2  UNL     1     -34.370 -11.795   7.173  1.00  0.00     0.043 C 
HETATM    3  C3  UNL     1     -33.059 -12.367   7.610  1.00  0.00     0.191 C 
HETATM    4  C4  UNL     1     -33.092 -13.284   6.408  1.00  0.00     0.066 C 
HETATM    5  C5  UNL     1     -34.543 -12.983   6.244  1.00  0.00     0.194 C 
ENDROOT
BRANCH   5   6
HETATM    6  N2  UNL     1     -35.486 -13.928   6.754  1.00  0.00    -0.066 N 
ATOM      7  H22 UNL     1     -35.051 -14.845   6.862  1.00  0.00     0.278 HD
ATOM      8  H21 UNL     1     -35.705 -13.724   7.729  1.00  0.00     0.278 HD
BRANCH   6   9
HETATM    9  C6  UNL     1     -36.694 -14.031   5.974  1.00  0.00     0.186 C 
HETATM   10  C7  UNL     1     -37.234 -15.403   6.056  1.00  0.00     0.033 C 
HETATM   11  C8  UNL     1     -38.589 -15.580   5.426  1.00  0.00     0.002 C 
HETATM   12  C9  UNL     1     -39.282 -14.276   5.145  1.00  0.00     0.000 C 
HETATM   13  C10 UNL     1     -39.085 -13.338   6.286  1.00  0.00     0.002 C 
HETATM   14  C11 UNL     1     -37.640 -12.954   6.426  1.00  0.00     0.033 C 
ENDBRANCH   6   9
ENDBRANCH   5   6
BRANCH   3  15
HETATM   15  N1  UNL     1     -31.911 -11.496   7.523  1.00  0.00    -0.075 N 
ATOM     16  H13 UNL     1     -32.153 -10.574   7.887  1.00  0.00     0.274 HD
ATOM     17  H12 UNL     1     -31.210 -11.787   8.204  1.00  0.00     0.274 HD
ATOM     18  H11 UNL     1     -31.478 -11.398   6.606  1.00  0.00     0.274 HD
ENDBRANCH   3  15
TORSDOF 3
ENDMDL
MODEL 3
REMARK VINA RESULT: -6.610189003      1.250      2.252
REMARK  3 active torsions:
REMARK  status: ('A' for Active; 'I' for Inactive)
REMARK    1  A    between atoms: C3_3  and  N1_4 
REMARK    2  A    between atoms: C5_9  and  N2_10 
REMARK    3  A    between atoms: N2_10  and  C6_13 
ROOT
HETATM    1  C1  UNL     1     -38.759 -12.927   6.519  1.00  0.00     0.014 C 
HETATM    2  C2  UNL     1     -37.736 -13.615   5.667  1.00  0.00     0.043 C 
HETATM    3  C3  UNL     1     -38.079 -14.976   5.151  1.00  0.00     0.191 C 
HETATM    4  C4  UNL     1     -37.254 -15.575   6.268  1.00  0.00     0.066 C 
HETATM    5  C5  UNL     1     -36.627 -14.241   6.493  1.00  0.00     0.194 C 
ENDROOT
BRANCH   5   6
HETATM    6  N2  UNL     1     -35.338 -14.003   5.925  1.00  0.00    -0.066 N 
ATOM      7  H22 UNL     1     -34.862 -14.885   5.733  1.00  0.00     0.278 HD
ATOM      8  H21 UNL     1     -35.426 -13.644   4.974  1.00  0.00     0.278 HD
BRANCH   6   9
HETATM    9  C6  UNL     1     -34.500 -13.137   6.716  1.00  0.00     0.186 C 
HETATM   10  C7  UNL     1     -33.077 -13.413   6.433  1.00  0.00     0.033 C 
HETATM   11  C8  UNL     1     -32.114 -12.448   7.070  1.00  0.00     0.002 C 
HETATM   12  C9  UNL     1     -32.781 -11.200   7.577  1.00  0.00     0.000 C 
HETATM   13  C10 UNL     1     -33.798 -10.731   6.594  1.00  0.00     0.002 C 
HETATM   14  C11 UNL     1     -34.925 -11.717   6.472  1.00  0.00     0.033 C 
ENDBRANCH   6   9
ENDBRANCH   5   6
BRANCH   3  15
HETATM   15  N1  UNL     1     -39.454 -15.394   5.285  1.00  0.00    -0.075 N 
ATOM     16  H13 UNL     1     -39.916 -15.345   4.377  1.00  0.00     0.274 HD
ATOM     17  H12 UNL     1     -39.491 -16.398   5.459  1.00  0.00     0.274 HD
ATOM     18  H11 UNL     1     -40.016 -14.905   5.982  1.00  0.00     0.274 HD
ENDBRANCH   3  15
TORSDOF 3
ENDMDL
MODEL 4
REMARK VINA RESULT: -6.497262457      1.428      5.515
REMARK  3 active torsions:
REMARK  status: ('A' for Active; 'I' for Inactive)
REMARK    1  A    between atoms: C3_3  and  N1_4 
REMARK    2  A    between atoms: C5_9  and  N2_10 
REMARK    3  A    between atoms: N2_10  and  C6_13 
ROOT
HETATM    1  C1  UNL     1     -34.981 -11.213   6.295  1.00  0.00     0.014 C 
HETATM    2  C2  UNL     1     -35.193 -12.539   6.959  1.00  0.00     0.043 C 
HETATM    3  C3  UNL     1     -34.003 -13.434   7.097  1.00  0.00     0.191 C 
HETATM    4  C4  UNL     1     -34.471 -14.197   5.879  1.00  0.00     0.066 C 
HETATM    5  C5  UNL     1     -35.812 -13.559   6.020  1.00  0.00     0.194 C 
ENDROOT
BRANCH   5   6
HETATM    6  N2  UNL     1     -36.848 -14.311   6.655  1.00  0.00    -0.066 N 
ATOM      7  H22 UNL     1     -36.603 -15.301   6.689  1.00  0.00     0.278 HD
ATOM      8  H21 UNL     1     -36.878 -14.106   7.654  1.00  0.00     0.278 HD
BRANCH   6   9
HETATM    9  C6  UNL     1     -38.150 -14.132   6.062  1.00  0.00     0.186 C 
HETATM   10  C7  UNL     1     -38.142 -14.620   4.668  1.00  0.00     0.033 C 
HETATM   11  C8  UNL     1     -39.494 -14.647   4.007  1.00  0.00     0.002 C 
HETATM   12  C9  UNL     1     -40.628 -14.508   4.983  1.00  0.00     0.000 C 
HETATM   13  C10 UNL     1     -40.355 -15.321   6.201  1.00  0.00     0.002 C 
HETATM   14  C11 UNL     1     -39.167 -14.788   6.952  1.00  0.00     0.033 C 
ENDBRANCH   6   9
ENDBRANCH   5   6
BRANCH   3  15
HETATM   15  N1  UNL     1     -32.713 -12.843   6.833  1.00  0.00    -0.075 N 
ATOM     16  H13 UNL     1     -32.811 -12.105   6.135  1.00  0.00     0.274 HD
ATOM     17  H12 UNL     1     -32.415 -12.298   7.641  1.00  0.00     0.274 HD
ATOM     18  H11 UNL     1     -31.966 -13.479   6.554  1.00  0.00     0.274 HD
ENDBRANCH   3  15
TORSDOF 3
ENDMDL
MODEL 5
REMARK VINA RESULT: -6.491425729      0.743      1.574
REMARK  3 active torsions:
REMARK  status: ('A' for Active; 'I' for Inactive)
REMARK    1  A    between atoms: C3_3  and  N1_4 
REMARK    2  A    between atoms: C5_9  and  N2_10 
REMARK    3  A    between atoms: N2_10  and  C6_13 
ROOT
HETATM    1  C1  UNL     1     -40.048 -13.439   4.221  1.00  0.00     0.014 C 
HETATM    2  C2  UNL     1     -39.160 -14.559   4.669  1.00  0.00     0.043 C 
HETATM    3  C3  UNL     1     -39.780 -15.630   5.508  1.00  0.00     0.191 C 
HETATM    4  C4  UNL     1     -39.210 -14.957   6.736  1.00  0.00     0.066 C 
HETATM    5  C5  UNL     1     -38.299 -14.170   5.857  1.00  0.00     0.194 C 
ENDROOT
BRANCH   5   6
HETATM    6  N2  UNL     1     -36.951 -14.622   5.712  1.00  0.00    -0.066 N 
ATOM      7  H22 UNL     1     -36.889 -15.625   5.888  1.00  0.00     0.278 HD
ATOM      8  H21 UNL     1     -36.671 -14.601   4.732  1.00  0.00     0.278 HD
BRANCH   6   9
HETATM    9  C6  UNL     1     -36.002 -13.906   6.526  1.00  0.00     0.186 C 
HETATM   10  C7  UNL     1     -34.627 -14.186   6.065  1.00  0.00     0.033 C 
HETATM   11  C8  UNL     1     -33.563 -13.352   6.727  1.00  0.00     0.002 C 
HETATM   12  C9  UNL     1     -34.119 -12.168   7.466  1.00  0.00     0.000 C 
HETATM   13  C10 UNL     1     -35.203 -11.531   6.666  1.00  0.00     0.002 C 
HETATM   14  C11 UNL     1     -36.382 -12.452   6.524  1.00  0.00     0.033 C 
ENDBRANCH   6   9
ENDBRANCH   5   6
BRANCH   3  15
HETATM   15  N1  UNL     1     -41.222 -15.641   5.585  1.00  0.00    -0.075 N 
ATOM     16  H13 UNL     1     -41.607 -15.035   4.861  1.00  0.00     0.274 HD
ATOM     17  H12 UNL     1     -41.574 -16.547   5.279  1.00  0.00     0.274 HD
ATOM     18  H11 UNL     1     -41.634 -15.400   6.486  1.00  0.00     0.274 HD
ENDBRANCH   3  15
TORSDOF 3
ENDMDL
