MODEL 1
REMARK VINA RESULT: -5.986448878      0.000      0.000
REMARK  5 active torsions:
REMARK  status: ('A' for Active; 'I' for Inactive)
REMARK    1  A    between atoms: C2_2  and  N1_3 
REMARK    2  A    between atoms: C2_2  and  C8_14 
REMARK    3  A    between atoms: N1_3  and  C3_5 
REMARK    4  A    between atoms: C5_7  and  C6_8 
REMARK    5  A    between atoms: C6_8  and  N2_9 
ROOT
HETATM    1  C3  UNL     1     -35.632 -13.370   6.012  1.00  0.00     0.082 A 
HETATM    2  C4  UNL     1     -34.319 -14.059   6.130  1.00  0.00     0.031 A 
HETATM    3  C5  UNL     1     -33.776 -13.007   7.039  1.00  0.00     0.015 A 
HETATM    4  C7  UNL     1     -35.124 -12.289   6.886  1.00  0.00     0.031 A 
ENDROOT
BRANCH   1   5
HETATM    5  N1  UNL     1     -36.837 -14.046   6.355  1.00  0.00    -0.391 N 
ATOM      6  H1  UNL     1     -36.807 -14.996   6.725  1.00  0.00     0.159 HD
BRANCH   5   7
HETATM    7  C2  UNL     1     -38.075 -13.385   6.177  1.00  0.00    -0.014 C 
HETATM    8  C1  UNL     1     -38.516 -12.248   6.983  1.00  0.00     0.064 C 
BRANCH   7   9
HETATM    9  C8  UNL     1     -39.156 -14.311   5.660  1.00  0.00    -0.013 C 
HETATM   10  C9  UNL     1     -39.871 -14.990   6.797  1.00  0.00     0.021 C 
HETATM   11  C10 UNL     1     -38.501 -15.427   4.832  1.00  0.00     0.021 C 
HETATM   12  C11 UNL     1     -40.112 -13.572   4.776  1.00  0.00     0.021 C 
ENDBRANCH   7   9
ENDBRANCH   5   7
ENDBRANCH   1   5
BRANCH   3  13
HETATM   13  C6  UNL     1     -32.686 -12.135   6.500  1.00  0.00     0.234 C 
BRANCH  13  14
HETATM   14  N2  UNL     1     -31.430 -12.574   7.098  1.00  0.00    -0.079 N 
ATOM     15  H23 UNL     1     -31.123 -11.971   7.862  1.00  0.00     0.274 HD
ATOM     16  H22 UNL     1     -31.527 -13.435   7.636  1.00  0.00     0.274 HD
ATOM     17  H21 UNL     1     -30.740 -12.649   6.351  1.00  0.00     0.274 HD
ENDBRANCH  13  14
ENDBRANCH   3  13
TORSDOF 5
ENDMDL
MODEL 2
REMARK VINA RESULT: -5.893800843      0.984      1.314
REMARK  5 active torsions:
REMARK  status: ('A' for Active; 'I' for Inactive)
REMARK    1  A    between atoms: C2_2  and  N1_3 
REMARK    2  A    between atoms: C2_2  and  C8_14 
REMARK    3  A    between atoms: N1_3  and  C3_5 
REMARK    4  A    between atoms: C5_7  and  C6_8 
REMARK    5  A    between atoms: C6_8  and  N2_9 
ROOT
HETATM    1  C3  UNL     1     -35.638 -12.816   6.176  1.00  0.00     0.082 A 
HETATM    2  C4  UNL     1     -34.494 -13.488   6.849  1.00  0.00     0.031 A 
HETATM    3  C5  UNL     1     -33.850 -12.187   7.196  1.00  0.00     0.015 A 
HETATM    4  C7  UNL     1     -35.020 -11.504   6.473  1.00  0.00     0.031 A 
ENDROOT
BRANCH   1   5
HETATM    5  N1  UNL     1     -36.974 -13.076   6.591  1.00  0.00    -0.391 N 
ATOM      6  H1  UNL     1     -37.552 -12.325   6.969  1.00  0.00     0.159 HD
BRANCH   5   7
HETATM    7  C2  UNL     1     -37.492 -14.388   6.472  1.00  0.00    -0.014 C 
HETATM    8  C1  UNL     1     -36.670 -15.567   6.207  1.00  0.00     0.064 C 
BRANCH   7   9
HETATM    9  C8  UNL     1     -38.903 -14.404   5.922  1.00  0.00    -0.013 C 
HETATM   10  C9  UNL     1     -39.823 -15.179   6.827  1.00  0.00     0.021 C 
HETATM   11  C10 UNL     1     -38.903 -15.138   4.573  1.00  0.00     0.021 C 
HETATM   12  C11 UNL     1     -39.403 -13.011   5.698  1.00  0.00     0.021 C 
ENDBRANCH   7   9
ENDBRANCH   5   7
ENDBRANCH   1   5
BRANCH   3  13
HETATM   13  C6  UNL     1     -32.571 -11.849   6.497  1.00  0.00     0.234 C 
BRANCH  13  14
HETATM   14  N2  UNL     1     -31.500 -12.596   7.146  1.00  0.00    -0.079 N 
ATOM     15  H23 UNL     1     -31.838 -13.212   7.886  1.00  0.00     0.274 HD
ATOM     16  H22 UNL     1     -31.098 -13.315   6.545  1.00  0.00     0.274 HD
ATOM     17  H21 UNL     1     -30.808 -11.923   7.476  1.00  0.00     0.274 HD
ENDBRANCH  13  14
ENDBRANCH   3  13
TORSDOF 5
ENDMDL
MODEL 3
REMARK VINA RESULT: -5.659489503      2.074      3.148
REMARK  5 active torsions:
REMARK  status: ('A' for Active; 'I' for Inactive)
REMARK    1  A    between atoms: C2_2  and  N1_3 
REMARK    2  A    between atoms: C2_2  and  C8_14 
REMARK    3  A    between atoms: N1_3  and  C3_5 
REMARK    4  A    between atoms: C5_7  and  C6_8 
REMARK    5  A    between atoms: C6_8  and  N2_9 
ROOT
HETATM    1  C3  UNL     1     -37.794 -14.898   5.652  1.00  0.00     0.082 A 
HETATM    2  C4  UNL     1     -36.724 -15.677   6.331  1.00  0.00     0.031 A 
HETATM    3  C5  UNL     1     -36.021 -14.440   6.782  1.00  0.00     0.015 A 
HETATM    4  C7  UNL     1     -37.114 -13.646   6.052  1.00  0.00     0.031 A 
ENDROOT
BRANCH   1   5
HETATM    5  N1  UNL     1     -39.161 -15.099   5.993  1.00  0.00    -0.391 N 
ATOM      6  H1  UNL     1     -39.462 -15.048   6.966  1.00  0.00     0.159 HD
BRANCH   5   7
HETATM    7  C2  UNL     1     -40.098 -15.368   4.967  1.00  0.00    -0.014 C 
HETATM    8  C1  UNL     1     -40.084 -14.715   3.659  1.00  0.00     0.064 C 
BRANCH   7   9
HETATM    9  C8  UNL     1     -41.452 -15.770   5.512  1.00  0.00    -0.013 C 
HETATM   10  C9  UNL     1     -42.001 -16.956   4.765  1.00  0.00     0.021 C 
HETATM   11  C10 UNL     1     -42.443 -14.619   5.284  1.00  0.00     0.021 C 
HETATM   12  C11 UNL     1     -41.375 -16.038   6.983  1.00  0.00     0.021 C 
ENDBRANCH   7   9
ENDBRANCH   5   7
ENDBRANCH   1   5
BRANCH   3  13
HETATM   13  C6  UNL     1     -34.694 -14.142   6.160  1.00  0.00     0.234 C 
BRANCH  13  14
HETATM   14  N2  UNL     1     -33.871 -13.481   7.165  1.00  0.00    -0.079 N 
ATOM     15  H23 UNL     1     -33.130 -14.082   7.529  1.00  0.00     0.274 HD
ATOM     16  H22 UNL     1     -33.273 -12.754   6.773  1.00  0.00     0.274 HD
ATOM     17  H21 UNL     1     -34.492 -13.132   7.895  1.00  0.00     0.274 HD
ENDBRANCH  13  14
ENDBRANCH   3  13
TORSDOF 5
ENDMDL
MODEL 4
REMARK VINA RESULT: -5.650414139      2.056      2.919
REMARK  5 active torsions:
REMARK  status: ('A' for Active; 'I' for Inactive)
REMARK    1  A    between atoms: C2_2  and  N1_3 
REMARK    2  A    between atoms: C2_2  and  C8_14 
REMARK    3  A    between atoms: N1_3  and  C3_5 
REMARK    4  A    between atoms: C5_7  and  C6_8 
REMARK    5  A    between atoms: C6_8  and  N2_9 
ROOT
HETATM    1  C3  UNL     1     -37.795 -14.865   5.669  1.00  0.00     0.082 A 
HETATM    2  C4  UNL     1     -36.725 -15.661   6.328  1.00  0.00     0.031 A 
HETATM    3  C5  UNL     1     -36.012 -14.435   6.793  1.00  0.00     0.015 A 
HETATM    4  C7  UNL     1     -37.105 -13.624   6.084  1.00  0.00     0.031 A 
ENDROOT
BRANCH   1   5
HETATM    5  N1  UNL     1     -39.161 -15.063   6.017  1.00  0.00    -0.391 N 
ATOM      6  H1  UNL     1     -39.457 -15.012   6.991  1.00  0.00     0.159 HD
BRANCH   5   7
HETATM    7  C2  UNL     1     -40.103 -15.332   4.995  1.00  0.00    -0.014 C 
HETATM    8  C1  UNL     1     -40.069 -14.711   3.672  1.00  0.00     0.064 C 
BRANCH   7   9
HETATM    9  C8  UNL     1     -41.469 -15.684   5.546  1.00  0.00    -0.013 C 
HETATM   10  C9  UNL     1     -41.391 -15.996   7.016  1.00  0.00     0.021 C 
HETATM   11  C10 UNL     1     -41.970 -16.961   4.858  1.00  0.00     0.021 C 
HETATM   12  C11 UNL     1     -42.451 -14.588   5.272  1.00  0.00     0.021 C 
ENDBRANCH   7   9
ENDBRANCH   5   7
ENDBRANCH   1   5
BRANCH   3  13
HETATM   13  C6  UNL     1     -34.687 -14.135   6.166  1.00  0.00     0.234 C 
BRANCH  13  14
HETATM   14  N2  UNL     1     -33.862 -13.472   7.169  1.00  0.00    -0.079 N 
ATOM     15  H23 UNL     1     -33.990 -13.855   8.106  1.00  0.00     0.274 HD
ATOM     16  H22 UNL     1     -32.870 -13.686   7.070  1.00  0.00     0.274 HD
ATOM     17  H21 UNL     1     -34.057 -12.471   7.120  1.00  0.00     0.274 HD
ENDBRANCH  13  14
ENDBRANCH   3  13
TORSDOF 5
ENDMDL
MODEL 5
REMARK VINA RESULT: -5.628934064      2.110      3.174
REMARK  5 active torsions:
REMARK  status: ('A' for Active; 'I' for Inactive)
REMARK    1  A    between atoms: C2_2  and  N1_3 
REMARK    2  A    between atoms: C2_2  and  C8_14 
REMARK    3  A    between atoms: N1_3  and  C3_5 
REMARK    4  A    between atoms: C5_7  and  C6_8 
REMARK    5  A    between atoms: C6_8  and  N2_9 
ROOT
HETATM    1  C3  UNL     1     -37.867 -14.910   5.624  1.00  0.00     0.082 A 
HETATM    2  C4  UNL     1     -36.790 -15.700   6.280  1.00  0.00     0.031 A 
HETATM    3  C5  UNL     1     -36.089 -14.470   6.754  1.00  0.00     0.015 A 
HETATM    4  C7  UNL     1     -37.190 -13.665   6.048  1.00  0.00     0.031 A 
ENDROOT
BRANCH   1   5
HETATM    5  N1  UNL     1     -39.231 -15.124   5.968  1.00  0.00    -0.391 N 
ATOM      6  H1  UNL     1     -39.538 -15.035   6.937  1.00  0.00     0.159 HD
BRANCH   5   7
HETATM    7  C2  UNL     1     -40.157 -15.459   4.952  1.00  0.00    -0.014 C 
HETATM    8  C1  UNL     1     -40.103 -14.924   3.592  1.00  0.00     0.064 C 
BRANCH   7   9
HETATM    9  C8  UNL     1     -41.530 -15.779   5.503  1.00  0.00    -0.013 C 
HETATM   10  C9  UNL     1     -42.459 -14.605   5.345  1.00  0.00     0.021 C 
HETATM   11  C10 UNL     1     -41.414 -16.039   7.012  1.00  0.00     0.021 C 
HETATM   12  C11 UNL     1     -42.089 -17.009   4.857  1.00  0.00     0.021 C 
ENDBRANCH   7   9
ENDBRANCH   5   7
ENDBRANCH   1   5
BRANCH   3  13
HETATM   13  C6  UNL     1     -34.767 -14.153   6.131  1.00  0.00     0.234 C 
BRANCH  13  14
HETATM   14  N2  UNL     1     -33.939 -13.515   7.148  1.00  0.00    -0.079 N 
ATOM     15  H23 UNL     1     -34.423 -13.401   8.039  1.00  0.00     0.274 HD
ATOM     16  H22 UNL     1     -33.185 -14.116   7.480  1.00  0.00     0.274 HD
ATOM     17  H21 UNL     1     -33.602 -12.632   6.765  1.00  0.00     0.274 HD
ENDBRANCH  13  14
ENDBRANCH   3  13
TORSDOF 5
ENDMDL
