MODEL 1
REMARK VINA RESULT: -6.948730783      0.000      0.000
REMARK  7 active torsions:
REMARK  status: ('A' for Active; 'I' for Inactive)
REMARK    1  A    between atoms: C2_2  and  C3_3 
REMARK    2  A    between atoms: C3_3  and  O1_4 
REMARK    3  A    between atoms: O1_4  and  C4_5 
REMARK    4  A    between atoms: C7_8  and  C8_9 
REMARK    5  A    between atoms: C9_12  and  C10_13 
REMARK    6  A    between atoms: C13_16  and  O3_17 
REMARK    7  A    between atoms: C14_19  and  O4_20 
ROOT
HETATM    1  C8  UNL     1      -4.527   2.220   8.515  1.00  0.00     0.278 C 
HETATM    2  N1  UNL     1      -5.507   2.368   7.456  1.00  0.00    -0.060 NA
HETATM    3  O2  UNL     1      -6.630   1.933   8.073  1.00  0.00    -0.246 OA
HETATM    4  C9  UNL     1      -6.249   1.042   9.054  1.00  0.00     0.320 C 
HETATM    5  O5  UNL     1      -4.861   0.971   9.027  1.00  0.00    -0.328 OA
ENDROOT
BRANCH   1   6
HETATM    6  C7  UNL     1      -3.145   2.325   8.052  1.00  0.00    -0.011 A 
HETATM    7  C6  UNL     1      -2.202   1.464   8.558  1.00  0.00     0.014 A 
HETATM    8  C5  UNL     1      -0.869   1.514   8.157  1.00  0.00     0.037 A 
HETATM    9  C4  UNL     1      -0.480   2.467   7.212  1.00  0.00     0.069 A 
HETATM   10  C18 UNL     1      -1.418   3.335   6.696  1.00  0.00     0.037 A 
HETATM   11  C17 UNL     1      -2.727   3.252   7.121  1.00  0.00     0.014 A 
BRANCH   9  12
HETATM   12  O1  UNL     1       0.852   2.488   6.835  1.00  0.00    -0.348 OA
BRANCH  12  13
HETATM   13  C3  UNL     1       1.856   3.147   7.553  1.00  0.00     0.202 C 
BRANCH  13  14
HETATM   14  C2  UNL     1       2.702   2.145   8.235  1.00  0.00    -0.011 C 
HETATM   15  C1  UNL     1       2.734   0.903   7.787  1.00  0.00     0.009 C 
ENDBRANCH  13  14
ENDBRANCH  12  13
ENDBRANCH   9  12
ENDBRANCH   1   6
BRANCH   4  16
HETATM   16  C10 UNL     1      -6.870  -0.277   8.740  1.00  0.00     0.001 A 
HETATM   17  C11 UNL     1      -7.670  -0.907   9.671  1.00  0.00     0.015 A 
HETATM   18  C12 UNL     1      -8.268  -2.122   9.438  1.00  0.00     0.040 A 
HETATM   19  C13 UNL     1      -8.053  -2.741   8.208  1.00  0.00     0.099 A 
HETATM   20  C14 UNL     1      -7.259  -2.144   7.251  1.00  0.00     0.102 A 
HETATM   21  C16 UNL     1      -6.679  -0.921   7.531  1.00  0.00     0.051 A 
BRANCH  19  22
HETATM   22  O3  UNL     1      -8.641  -3.972   7.933  1.00  0.00    -0.358 OA
ATOM     23  H3  UNL     1      -8.163  -4.629   7.439  1.00  0.00     0.217 HD
ENDBRANCH  19  22
BRANCH  20  24
HETATM   24  O4  UNL     1      -7.083  -2.810   6.045  1.00  0.00    -0.353 OA
HETATM   25  C15 UNL     1      -7.736  -2.280   4.915  1.00  0.00     0.210 C 
ENDBRANCH  20  24
ENDBRANCH   4  16
TORSDOF 7
ENDMDL
MODEL 2
REMARK VINA RESULT: -6.829616392      1.056      1.999
REMARK  7 active torsions:
REMARK  status: ('A' for Active; 'I' for Inactive)
REMARK    1  A    between atoms: C2_2  and  C3_3 
REMARK    2  A    between atoms: C3_3  and  O1_4 
REMARK    3  A    between atoms: O1_4  and  C4_5 
REMARK    4  A    between atoms: C7_8  and  C8_9 
REMARK    5  A    between atoms: C9_12  and  C10_13 
REMARK    6  A    between atoms: C13_16  and  O3_17 
REMARK    7  A    between atoms: C14_19  and  O4_20 
ROOT
HETATM    1  C8  UNL     1      -3.904   2.381   8.195  1.00  0.00     0.278 C 
HETATM    2  N1  UNL     1      -4.719   2.832   7.083  1.00  0.00    -0.060 NA
HETATM    3  O2  UNL     1      -5.958   2.497   7.510  1.00  0.00    -0.246 OA
HETATM    4  C9  UNL     1      -5.829   1.426   8.369  1.00  0.00     0.320 C 
HETATM    5  O5  UNL     1      -4.471   1.140   8.466  1.00  0.00    -0.328 OA
ENDROOT
BRANCH   1   6
HETATM    6  C7  UNL     1      -2.475   2.330   7.892  1.00  0.00    -0.011 A 
HETATM    7  C6  UNL     1      -1.690   1.395   8.522  1.00  0.00     0.014 A 
HETATM    8  C5  UNL     1      -0.323   1.296   8.275  1.00  0.00     0.037 A 
HETATM    9  C4  UNL     1       0.267   2.173   7.361  1.00  0.00     0.069 A 
HETATM   10  C18 UNL     1      -0.512   3.115   6.722  1.00  0.00     0.037 A 
HETATM   11  C17 UNL     1      -1.862   3.178   6.996  1.00  0.00     0.014 A 
BRANCH   9  12
HETATM   12  O1  UNL     1       1.628   2.047   7.139  1.00  0.00    -0.348 OA
BRANCH  12  13
HETATM   13  C3  UNL     1       2.551   1.694   8.129  1.00  0.00     0.202 C 
BRANCH  13  14
HETATM   14  C2  UNL     1       3.124   2.922   8.719  1.00  0.00    -0.011 C 
HETATM   15  C1  UNL     1       3.144   4.038   8.013  1.00  0.00     0.009 C 
ENDBRANCH  13  14
ENDBRANCH  12  13
ENDBRANCH   9  12
ENDBRANCH   1   6
BRANCH   4  16
HETATM   16  C10 UNL     1      -6.588   0.281   7.789  1.00  0.00     0.001 A 
HETATM   17  C11 UNL     1      -6.964   0.298   6.462  1.00  0.00     0.015 A 
HETATM   18  C12 UNL     1      -7.664  -0.727   5.872  1.00  0.00     0.040 A 
HETATM   19  C13 UNL     1      -8.007  -1.829   6.653  1.00  0.00     0.099 A 
HETATM   20  C14 UNL     1      -7.650  -1.885   7.985  1.00  0.00     0.102 A 
HETATM   21  C16 UNL     1      -6.946  -0.829   8.533  1.00  0.00     0.051 A 
BRANCH  19  22
HETATM   22  O3  UNL     1      -8.716  -2.889   6.095  1.00  0.00    -0.358 OA
ATOM     23  H3  UNL     1      -9.665  -2.907   6.144  1.00  0.00     0.217 HD
ENDBRANCH  19  22
BRANCH  20  24
HETATM   24  O4  UNL     1      -8.021  -3.009   8.711  1.00  0.00    -0.353 OA
HETATM   25  C15 UNL     1      -7.877  -2.948  10.111  1.00  0.00     0.210 C 
ENDBRANCH  20  24
ENDBRANCH   4  16
TORSDOF 7
ENDMDL
MODEL 3
REMARK VINA RESULT: -6.756200443      1.449      1.995
REMARK  7 active torsions:
REMARK  status: ('A' for Active; 'I' for Inactive)
REMARK    1  A    between atoms: C2_2  and  C3_3 
REMARK    2  A    between atoms: C3_3  and  O1_4 
REMARK    3  A    between atoms: O1_4  and  C4_5 
REMARK    4  A    between atoms: C7_8  and  C8_9 
REMARK    5  A    between atoms: C9_12  and  C10_13 
REMARK    6  A    between atoms: C13_16  and  O3_17 
REMARK    7  A    between atoms: C14_19  and  O4_20 
ROOT
HETATM    1  C8  UNL     1      -3.813   2.519   8.026  1.00  0.00     0.278 C 
HETATM    2  N1  UNL     1      -4.505   2.931   6.819  1.00  0.00    -0.060 NA
HETATM    3  O2  UNL     1      -5.795   2.714   7.167  1.00  0.00    -0.246 OA
HETATM    4  C9  UNL     1      -5.809   1.710   8.112  1.00  0.00     0.320 C 
HETATM    5  O5  UNL     1      -4.487   1.345   8.342  1.00  0.00    -0.328 OA
ENDROOT
BRANCH   1   6
HETATM    6  C7  UNL     1      -2.373   2.350   7.846  1.00  0.00    -0.011 A 
HETATM    7  C6  UNL     1      -1.706   3.174   6.972  1.00  0.00     0.014 A 
HETATM    8  C5  UNL     1      -0.334   3.063   6.757  1.00  0.00     0.037 A 
HETATM    9  C4  UNL     1       0.384   2.084   7.451  1.00  0.00     0.069 A 
HETATM   10  C18 UNL     1      -0.275   1.253   8.331  1.00  0.00     0.037 A 
HETATM   11  C17 UNL     1      -1.634   1.397   8.513  1.00  0.00     0.014 A 
BRANCH   9  12
HETATM   12  O1  UNL     1       1.746   2.001   7.214  1.00  0.00    -0.348 OA
BRANCH  12  13
HETATM   13  C3  UNL     1       2.698   1.758   8.210  1.00  0.00     0.202 C 
BRANCH  13  14
HETATM   14  C2  UNL     1       3.208   3.048   8.719  1.00  0.00    -0.011 C 
HETATM   15  C1  UNL     1       3.217   4.106   7.926  1.00  0.00     0.009 C 
ENDBRANCH  13  14
ENDBRANCH  12  13
ENDBRANCH   9  12
ENDBRANCH   1   6
BRANCH   4  16
HETATM   16  C10 UNL     1      -6.602   0.574   7.560  1.00  0.00     0.001 A 
HETATM   17  C11 UNL     1      -6.899  -0.515   8.353  1.00  0.00     0.015 A 
HETATM   18  C12 UNL     1      -7.626  -1.590   7.900  1.00  0.00     0.040 A 
HETATM   19  C13 UNL     1      -8.079  -1.575   6.582  1.00  0.00     0.099 A 
HETATM   20  C14 UNL     1      -7.802  -0.505   5.757  1.00  0.00     0.102 A 
HETATM   21  C16 UNL     1      -7.068   0.554   6.258  1.00  0.00     0.051 A 
BRANCH  19  22
HETATM   22  O3  UNL     1      -8.817  -2.644   6.084  1.00  0.00    -0.358 OA
ATOM     23  H3  UNL     1      -9.634  -2.896   6.501  1.00  0.00     0.217 HD
ENDBRANCH  19  22
BRANCH  20  24
HETATM   24  O4  UNL     1      -8.281  -0.548   4.454  1.00  0.00    -0.353 OA
HETATM   25  C15 UNL     1      -8.364   0.674   3.757  1.00  0.00     0.210 C 
ENDBRANCH  20  24
ENDBRANCH   4  16
TORSDOF 7
ENDMDL
MODEL 4
REMARK VINA RESULT: -6.739816944      0.706      1.824
REMARK  7 active torsions:
REMARK  status: ('A' for Active; 'I' for Inactive)
REMARK    1  A    between atoms: C2_2  and  C3_3 
REMARK    2  A    between atoms: C3_3  and  O1_4 
REMARK    3  A    between atoms: O1_4  and  C4_5 
REMARK    4  A    between atoms: C7_8  and  C8_9 
REMARK    5  A    between atoms: C9_12  and  C10_13 
REMARK    6  A    between atoms: C13_16  and  O3_17 
REMARK    7  A    between atoms: C14_19  and  O4_20 
ROOT
HETATM    1  C8  UNL     1      -4.477   2.201   8.532  1.00  0.00     0.278 C 
HETATM    2  N1  UNL     1      -5.466   2.438   7.497  1.00  0.00    -0.060 NA
HETATM    3  O2  UNL     1      -6.589   1.978   8.094  1.00  0.00    -0.246 OA
HETATM    4  C9  UNL     1      -6.213   1.015   9.007  1.00  0.00     0.320 C 
HETATM    5  O5  UNL     1      -4.827   0.925   8.959  1.00  0.00    -0.328 OA
ENDROOT
BRANCH   1   6
HETATM    6  C7  UNL     1      -3.098   2.316   8.063  1.00  0.00    -0.011 A 
HETATM    7  C6  UNL     1      -2.146   1.464   8.566  1.00  0.00     0.014 A 
HETATM    8  C5  UNL     1      -0.816   1.524   8.159  1.00  0.00     0.037 A 
HETATM    9  C4  UNL     1      -0.439   2.478   7.210  1.00  0.00     0.069 A 
HETATM   10  C18 UNL     1      -1.386   3.338   6.697  1.00  0.00     0.037 A 
HETATM   11  C17 UNL     1      -2.693   3.245   7.129  1.00  0.00     0.014 A 
BRANCH   9  12
HETATM   12  O1  UNL     1       0.891   2.510   6.827  1.00  0.00    -0.348 OA
BRANCH  12  13
HETATM   13  C3  UNL     1       1.900   3.144   7.560  1.00  0.00     0.202 C 
BRANCH  13  14
HETATM   14  C2  UNL     1       2.752   2.119   8.199  1.00  0.00    -0.011 C 
HETATM   15  C1  UNL     1       2.721   0.875   7.757  1.00  0.00     0.009 C 
ENDBRANCH  13  14
ENDBRANCH  12  13
ENDBRANCH   9  12
ENDBRANCH   1   6
BRANCH   4  16
HETATM   16  C10 UNL     1      -6.858  -0.269   8.608  1.00  0.00     0.001 A 
HETATM   17  C11 UNL     1      -6.884  -0.651   7.283  1.00  0.00     0.015 A 
HETATM   18  C12 UNL     1      -7.463  -1.822   6.857  1.00  0.00     0.040 A 
HETATM   19  C13 UNL     1      -8.050  -2.656   7.807  1.00  0.00     0.099 A 
HETATM   20  C14 UNL     1      -8.046  -2.309   9.143  1.00  0.00     0.102 A 
HETATM   21  C16 UNL     1      -7.450  -1.121   9.524  1.00  0.00     0.051 A 
BRANCH  19  22
HETATM   22  O3  UNL     1      -8.647  -3.850   7.417  1.00  0.00    -0.358 OA
ATOM     23  H3  UNL     1      -9.589  -3.958   7.487  1.00  0.00     0.217 HD
ENDBRANCH  19  22
BRANCH  20  24
HETATM   24  O4  UNL     1      -8.645  -3.181  10.043  1.00  0.00    -0.353 OA
HETATM   25  C15 UNL     1      -7.793  -3.953  10.857  1.00  0.00     0.210 C 
ENDBRANCH  20  24
ENDBRANCH   4  16
TORSDOF 7
ENDMDL
MODEL 5
REMARK VINA RESULT: -6.623579063      3.286      5.175
REMARK  7 active torsions:
REMARK  status: ('A' for Active; 'I' for Inactive)
REMARK    1  A    between atoms: C2_2  and  C3_3 
REMARK    2  A    between atoms: C3_3  and  O1_4 
REMARK    3  A    between atoms: O1_4  and  C4_5 
REMARK    4  A    between atoms: C7_8  and  C8_9 
REMARK    5  A    between atoms: C9_12  and  C10_13 
REMARK    6  A    between atoms: C13_16  and  O3_17 
REMARK    7  A    between atoms: C14_19  and  O4_20 
ROOT
HETATM    1  C8  UNL     1      -1.451   4.875   4.243  1.00  0.00     0.278 C 
HETATM    2  N1  UNL     1      -1.603   3.886   3.193  1.00  0.00    -0.060 NA
HETATM    3  O2  UNL     1      -2.880   4.107   2.805  1.00  0.00    -0.246 OA
HETATM    4  C9  UNL     1      -3.562   4.626   3.886  1.00  0.00     0.320 C 
HETATM    5  O5  UNL     1      -2.651   4.733   4.931  1.00  0.00    -0.328 OA
ENDROOT
BRANCH   1   6
HETATM    6  C7  UNL     1      -0.262   4.674   5.069  1.00  0.00    -0.011 A 
HETATM    7  C6  UNL     1      -0.249   3.650   5.985  1.00  0.00     0.014 A 
HETATM    8  C5  UNL     1       0.853   3.406   6.801  1.00  0.00     0.037 A 
HETATM    9  C4  UNL     1       1.978   4.228   6.685  1.00  0.00     0.069 A 
HETATM   10  C18 UNL     1       1.976   5.258   5.769  1.00  0.00     0.037 A 
HETATM   11  C17 UNL     1       0.863   5.464   4.981  1.00  0.00     0.014 A 
BRANCH   9  12
HETATM   12  O1  UNL     1       3.056   3.958   7.511  1.00  0.00    -0.348 OA
BRANCH  12  13
HETATM   13  C3  UNL     1       3.000   3.095   8.611  1.00  0.00     0.202 C 
BRANCH  13  14
HETATM   14  C2  UNL     1       3.538   1.776   8.220  1.00  0.00    -0.011 C 
HETATM   15  C1  UNL     1       2.712   0.828   7.812  1.00  0.00     0.009 C 
ENDBRANCH  13  14
ENDBRANCH  12  13
ENDBRANCH   9  12
ENDBRANCH   1   6
BRANCH   4  16
HETATM   16  C10 UNL     1      -4.670   3.686   4.221  1.00  0.00     0.001 A 
HETATM   17  C11 UNL     1      -5.303   2.975   3.224  1.00  0.00     0.015 A 
HETATM   18  C12 UNL     1      -6.329   2.095   3.472  1.00  0.00     0.040 A 
HETATM   19  C13 UNL     1      -6.746   1.919   4.790  1.00  0.00     0.099 A 
HETATM   20  C14 UNL     1      -6.138   2.612   5.817  1.00  0.00     0.102 A 
HETATM   21  C16 UNL     1      -5.110   3.485   5.518  1.00  0.00     0.051 A 
BRANCH  19  22
HETATM   22  O3  UNL     1      -7.781   1.038   5.085  1.00  0.00    -0.358 OA
ATOM     23  H3  UNL     1      -8.554   1.345   5.546  1.00  0.00     0.217 HD
ENDBRANCH  19  22
BRANCH  20  24
HETATM   24  O4  UNL     1      -6.597   2.393   7.110  1.00  0.00    -0.353 OA
HETATM   25  C15 UNL     1      -5.780   1.624   7.962  1.00  0.00     0.210 C 
ENDBRANCH  20  24
ENDBRANCH   4  16
TORSDOF 7
ENDMDL
