MODEL 1
REMARK VINA RESULT: -7.341656323      0.000      0.000
REMARK  7 active torsions:
REMARK  status: ('A' for Active; 'I' for Inactive)
REMARK    1  A    between atoms: C2_2  and  C3_3 
REMARK    2  A    between atoms: C3_3  and  C4_4 
REMARK    3  A    between atoms: C3_3  and  N1_6 
REMARK    4  A    between atoms: N1_6  and  C6_8 
REMARK    5  A    between atoms: C7_11  and  N3_12 
REMARK    6  A    between atoms: N3_12  and  C8_14 
REMARK    7  A    between atoms: C14_22  and  N5_23 
ROOT
HETATM    1  C6  UNL     1       0.178   3.287   6.525  1.00  0.00     0.707 A 
HETATM    2  N2  UNL     1      -0.037   4.176   5.557  1.00  0.00    -0.021 N 
ATOM      3  H2  UNL     1       0.743   4.554   5.019  1.00  0.00     0.203 HD
HETATM    4  C7  UNL     1      -1.293   4.568   5.299  1.00  0.00     0.707 A 
HETATM    5  N4  UNL     1      -2.350   4.101   5.977  1.00  0.00    -0.021 N 
ATOM      6  H4  UNL     1      -3.297   4.413   5.765  1.00  0.00     0.203 HD
HETATM    7  C14 UNL     1      -2.110   3.203   6.951  1.00  0.00     0.709 A 
HETATM    8  N6  UNL     1      -0.845   2.801   7.217  1.00  0.00    -0.021 N 
ATOM      9  H6  UNL     1      -0.677   2.120   7.956  1.00  0.00     0.203 HD
ENDROOT
BRANCH   4  10
HETATM   10  N3  UNL     1      -1.501   5.512   4.270  1.00  0.00    -0.220 N 
ATOM     11  H3  UNL     1      -1.744   6.468   4.530  1.00  0.00     0.178 HD
BRANCH  10  12
HETATM   12  C8  UNL     1      -1.385   5.187   2.864  1.00  0.00     0.099 C 
HETATM   13  C9  UNL     1      -1.507   3.700   2.657  1.00  0.00     0.026 C 
HETATM   14  C10 UNL     1      -0.266   3.121   2.010  1.00  0.00     0.002 C 
HETATM   15  C11 UNL     1       0.058   3.813   0.729  1.00  0.00     0.000 C 
HETATM   16  C12 UNL     1       0.251   5.270   0.969  1.00  0.00     0.002 C 
HETATM   17  C13 UNL     1      -0.070   5.725   2.367  1.00  0.00     0.026 C 
ENDBRANCH  10  12
ENDBRANCH   4  10
BRANCH   1  18
HETATM   18  N1  UNL     1       1.370   2.903   6.781  1.00  0.00    -0.221 N 
ATOM     19  H1  UNL     1       1.753   2.107   6.271  1.00  0.00     0.178 HD
BRANCH  18  20
HETATM   20  C3  UNL     1       2.195   3.563   7.774  1.00  0.00     0.098 C 
BRANCH  20  21
HETATM   21  C2  UNL     1       3.083   2.505   8.392  1.00  0.00     0.021 C 
HETATM   22  C1  UNL     1       2.640   1.156   7.851  1.00  0.00     0.007 C 
ENDBRANCH  20  21
BRANCH  20  23
HETATM   23  C4  UNL     1       3.083   4.574   7.079  1.00  0.00     0.021 C 
HETATM   24  C5  UNL     1       4.487   4.560   7.617  1.00  0.00     0.007 C 
ENDBRANCH  20  23
ENDBRANCH  18  20
ENDBRANCH   1  18
BRANCH   7  25
HETATM   25  N5  UNL     1      -3.223   2.705   7.670  1.00  0.00    -0.217 N 
HETATM   26  C15 UNL     1      -4.576   3.155   7.503  1.00  0.00     0.141 C 
HETATM   27  C16 UNL     1      -5.401   2.458   8.539  1.00  0.00     0.022 C 
HETATM   28  C17 UNL     1      -4.610   1.231   8.894  1.00  0.00     0.022 C 
HETATM   29  C18 UNL     1      -3.178   1.674   8.682  1.00  0.00     0.141 C 
ENDBRANCH   7  25
TORSDOF 7
ENDMDL
MODEL 2
REMARK VINA RESULT: -6.923980360      0.677      1.209
REMARK  7 active torsions:
REMARK  status: ('A' for Active; 'I' for Inactive)
REMARK    1  A    between atoms: C2_2  and  C3_3 
REMARK    2  A    between atoms: C3_3  and  C4_4 
REMARK    3  A    between atoms: C3_3  and  N1_6 
REMARK    4  A    between atoms: N1_6  and  C6_8 
REMARK    5  A    between atoms: C7_11  and  N3_12 
REMARK    6  A    between atoms: N3_12  and  C8_14 
REMARK    7  A    between atoms: C14_22  and  N5_23 
ROOT
HETATM    1  C6  UNL     1       0.566   3.266   6.481  1.00  0.00     0.707 A 
HETATM    2  N2  UNL     1       0.400   3.962   5.357  1.00  0.00    -0.021 N 
ATOM      3  H2  UNL     1       1.208   4.261   4.811  1.00  0.00     0.203 HD
HETATM    4  C7  UNL     1      -0.843   4.263   4.955  1.00  0.00     0.707 A 
HETATM    5  N4  UNL     1      -1.934   3.892   5.638  1.00  0.00    -0.021 N 
ATOM      6  H4  UNL     1      -2.870   4.132   5.315  1.00  0.00     0.203 HD
HETATM    7  C14 UNL     1      -1.743   3.189   6.771  1.00  0.00     0.709 A 
HETATM    8  N6  UNL     1      -0.492   2.880   7.184  1.00  0.00    -0.021 N 
ATOM      9  H6  UNL     1      -0.361   2.347   8.042  1.00  0.00     0.203 HD
ENDROOT
BRANCH   4  10
HETATM   10  N3  UNL     1      -0.999   5.001   3.762  1.00  0.00    -0.220 N 
ATOM     11  H3  UNL     1      -1.848   5.554   3.640  1.00  0.00     0.178 HD
BRANCH  10  12
HETATM   12  C8  UNL     1      -0.011   5.011   2.703  1.00  0.00     0.099 C 
HETATM   13  C9  UNL     1      -0.122   6.275   1.893  1.00  0.00     0.026 C 
HETATM   14  C10 UNL     1      -0.422   5.983   0.437  1.00  0.00     0.002 C 
HETATM   15  C11 UNL     1       0.586   5.057  -0.155  1.00  0.00     0.000 C 
HETATM   16  C12 UNL     1       0.625   3.783   0.614  1.00  0.00     0.002 C 
HETATM   17  C13 UNL     1      -0.213   3.777   1.865  1.00  0.00     0.026 C 
ENDBRANCH  10  12
ENDBRANCH   4  10
BRANCH   1  18
HETATM   18  N1  UNL     1       1.745   2.970   6.877  1.00  0.00    -0.221 N 
ATOM     19  H1  UNL     1       2.195   2.133   6.506  1.00  0.00     0.178 HD
BRANCH  18  20
HETATM   20  C3  UNL     1       2.463   3.787   7.836  1.00  0.00     0.098 C 
BRANCH  20  21
HETATM   21  C2  UNL     1       3.396   2.869   8.594  1.00  0.00     0.021 C 
HETATM   22  C1  UNL     1       3.077   1.442   8.182  1.00  0.00     0.007 C 
ENDBRANCH  20  21
BRANCH  20  23
HETATM   23  C4  UNL     1       3.306   4.797   7.085  1.00  0.00     0.021 C 
HETATM   24  C5  UNL     1       4.745   4.771   7.520  1.00  0.00     0.007 C 
ENDBRANCH  20  23
ENDBRANCH  18  20
ENDBRANCH   1  18
BRANCH   7  25
HETATM   25  N5  UNL     1      -2.892   2.794   7.496  1.00  0.00    -0.217 N 
HETATM   26  C15 UNL     1      -4.209   3.330   7.303  1.00  0.00     0.141 C 
HETATM   27  C16 UNL     1      -5.088   2.726   8.354  1.00  0.00     0.022 C 
HETATM   28  C17 UNL     1      -4.386   1.460   8.755  1.00  0.00     0.022 C 
HETATM   29  C18 UNL     1      -2.926   1.796   8.541  1.00  0.00     0.141 C 
ENDBRANCH   7  25
TORSDOF 7
ENDMDL
MODEL 3
REMARK VINA RESULT: -6.605446585      1.157      1.937
REMARK  7 active torsions:
REMARK  status: ('A' for Active; 'I' for Inactive)
REMARK    1  A    between atoms: C2_2  and  C3_3 
REMARK    2  A    between atoms: C3_3  and  C4_4 
REMARK    3  A    between atoms: C3_3  and  N1_6 
REMARK    4  A    between atoms: N1_6  and  C6_8 
REMARK    5  A    between atoms: C7_11  and  N3_12 
REMARK    6  A    between atoms: N3_12  and  C8_14 
REMARK    7  A    between atoms: C14_22  and  N5_23 
ROOT
HETATM    1  C6  UNL     1       0.222   3.431   6.008  1.00  0.00     0.707 A 
HETATM    2  N2  UNL     1       0.151   3.798   4.729  1.00  0.00    -0.021 N 
ATOM      3  H2  UNL     1       0.982   3.777   4.138  1.00  0.00     0.203 HD
HETATM    4  C7  UNL     1      -1.029   4.196   4.230  1.00  0.00     0.707 A 
HETATM    5  N4  UNL     1      -2.147   4.242   4.967  1.00  0.00    -0.021 N 
ATOM      6  H4  UNL     1      -3.033   4.549   4.567  1.00  0.00     0.203 HD
HETATM    7  C14 UNL     1      -2.052   3.866   6.256  1.00  0.00     0.709 A 
HETATM    8  N6  UNL     1      -0.866   3.462   6.767  1.00  0.00    -0.021 N 
ATOM      9  H6  UNL     1      -0.808   3.179   7.745  1.00  0.00     0.203 HD
ENDROOT
BRANCH   4  10
HETATM   10  N3  UNL     1      -1.084   4.582   2.874  1.00  0.00    -0.220 N 
ATOM     11  H3  UNL     1      -2.000   4.705   2.440  1.00  0.00     0.178 HD
BRANCH  10  12
HETATM   12  C8  UNL     1       0.097   4.812   2.068  1.00  0.00     0.099 C 
HETATM   13  C9  UNL     1       0.047   6.180   1.441  1.00  0.00     0.026 C 
HETATM   14  C10 UNL     1       0.080   6.106  -0.071  1.00  0.00     0.002 C 
HETATM   15  C11 UNL     1       1.266   5.341  -0.556  1.00  0.00     0.000 C 
HETATM   16  C12 UNL     1       1.255   3.966   0.014  1.00  0.00     0.002 C 
HETATM   17  C13 UNL     1       0.180   3.717   1.038  1.00  0.00     0.026 C 
ENDBRANCH  10  12
ENDBRANCH   4  10
BRANCH   1  18
HETATM   18  N1  UNL     1       1.339   3.048   6.497  1.00  0.00    -0.221 N 
ATOM     19  H1  UNL     1       2.124   2.885   5.867  1.00  0.00     0.178 HD
BRANCH  18  20
HETATM   20  C3  UNL     1       1.525   2.837   7.919  1.00  0.00     0.098 C 
BRANCH  20  21
HETATM   21  C2  UNL     1       1.496   1.343   8.157  1.00  0.00     0.021 C 
HETATM   22  C1  UNL     1       2.836   0.779   7.716  1.00  0.00     0.007 C 
ENDBRANCH  20  21
BRANCH  20  23
HETATM   23  C4  UNL     1       2.894   3.349   8.315  1.00  0.00     0.021 C 
HETATM   24  C5  UNL     1       3.353   4.480   7.437  1.00  0.00     0.007 C 
ENDBRANCH  20  23
ENDBRANCH  18  20
ENDBRANCH   1  18
BRANCH   7  25
HETATM   25  N5  UNL     1      -3.231   3.912   7.038  1.00  0.00    -0.217 N 
HETATM   26  C15 UNL     1      -3.741   2.820   7.818  1.00  0.00     0.141 C 
HETATM   27  C16 UNL     1      -5.059   3.259   8.377  1.00  0.00     0.022 C 
HETATM   28  C17 UNL     1      -4.998   4.760   8.362  1.00  0.00     0.022 C 
HETATM   29  C18 UNL     1      -4.106   5.054   7.175  1.00  0.00     0.141 C 
ENDBRANCH   7  25
TORSDOF 7
ENDMDL
MODEL 4
REMARK VINA RESULT: -6.463004918      0.737      1.587
REMARK  7 active torsions:
REMARK  status: ('A' for Active; 'I' for Inactive)
REMARK    1  A    between atoms: C2_2  and  C3_3 
REMARK    2  A    between atoms: C3_3  and  C4_4 
REMARK    3  A    between atoms: C3_3  and  N1_6 
REMARK    4  A    between atoms: N1_6  and  C6_8 
REMARK    5  A    between atoms: C7_11  and  N3_12 
REMARK    6  A    between atoms: N3_12  and  C8_14 
REMARK    7  A    between atoms: C14_22  and  N5_23 
ROOT
HETATM    1  C6  UNL     1       0.390   3.229   6.377  1.00  0.00     0.707 A 
HETATM    2  N2  UNL     1       0.177   3.894   5.242  1.00  0.00    -0.021 N 
ATOM      3  H2  UNL     1       0.959   4.157   4.643  1.00  0.00     0.203 HD
HETATM    4  C7  UNL     1      -1.080   4.211   4.900  1.00  0.00     0.707 A 
HETATM    5  N4  UNL     1      -2.139   3.886   5.654  1.00  0.00    -0.021 N 
ATOM      6  H4  UNL     1      -3.087   4.138   5.375  1.00  0.00     0.203 HD
HETATM    7  C14 UNL     1      -1.900   3.215   6.797  1.00  0.00     0.709 A 
HETATM    8  N6  UNL     1      -0.635   2.891   7.149  1.00  0.00    -0.021 N 
ATOM      9  H6  UNL     1      -0.467   2.381   8.016  1.00  0.00     0.203 HD
ENDROOT
BRANCH   4  10
HETATM   10  N3  UNL     1      -1.287   4.915   3.694  1.00  0.00    -0.220 N 
ATOM     11  H3  UNL     1      -2.224   5.263   3.489  1.00  0.00     0.178 HD
BRANCH  10  12
HETATM   12  C8  UNL     1      -0.232   5.167   2.735  1.00  0.00     0.099 C 
HETATM   13  C9  UNL     1      -0.126   6.640   2.445  1.00  0.00     0.026 C 
HETATM   14  C10 UNL     1      -0.355   6.941   0.978  1.00  0.00     0.002 C 
HETATM   15  C11 UNL     1       0.570   6.159   0.107  1.00  0.00     0.000 C 
HETATM   16  C12 UNL     1       0.394   4.701   0.354  1.00  0.00     0.002 C 
HETATM   17  C13 UNL     1      -0.526   4.362   1.497  1.00  0.00     0.026 C 
ENDBRANCH  10  12
ENDBRANCH   4  10
BRANCH   1  18
HETATM   18  N1  UNL     1       1.583   2.919   6.716  1.00  0.00    -0.221 N 
ATOM     19  H1  UNL     1       2.103   2.255   6.142  1.00  0.00     0.178 HD
BRANCH  18  20
HETATM   20  C3  UNL     1       2.220   3.480   7.892  1.00  0.00     0.098 C 
BRANCH  20  21
HETATM   21  C2  UNL     1       2.746   2.322   8.710  1.00  0.00     0.021 C 
HETATM   22  C1  UNL     1       2.683   1.076   7.843  1.00  0.00     0.007 C 
ENDBRANCH  20  21
BRANCH  20  23
HETATM   23  C4  UNL     1       3.401   4.320   7.454  1.00  0.00     0.021 C 
HETATM   24  C5  UNL     1       3.017   5.348   6.426  1.00  0.00     0.007 C 
ENDBRANCH  20  23
ENDBRANCH  18  20
ENDBRANCH   1  18
BRANCH   7  25
HETATM   25  N5  UNL     1      -3.016   2.870   7.597  1.00  0.00    -0.217 N 
HETATM   26  C15 UNL     1      -3.046   1.789   8.540  1.00  0.00     0.141 C 
HETATM   27  C16 UNL     1      -4.445   1.705   9.067  1.00  0.00     0.022 C 
HETATM   28  C17 UNL     1      -5.022   3.072   8.833  1.00  0.00     0.022 C 
HETATM   29  C18 UNL     1      -4.295   3.543   7.592  1.00  0.00     0.141 C 
ENDBRANCH   7  25
TORSDOF 7
ENDMDL
MODEL 5
REMARK VINA RESULT: -6.461787742      1.663      2.525
REMARK  7 active torsions:
REMARK  status: ('A' for Active; 'I' for Inactive)
REMARK    1  A    between atoms: C2_2  and  C3_3 
REMARK    2  A    between atoms: C3_3  and  C4_4 
REMARK    3  A    between atoms: C3_3  and  N1_6 
REMARK    4  A    between atoms: N1_6  and  C6_8 
REMARK    5  A    between atoms: C7_11  and  N3_12 
REMARK    6  A    between atoms: N3_12  and  C8_14 
REMARK    7  A    between atoms: C14_22  and  N5_23 
ROOT
HETATM    1  C6  UNL     1      -0.169   3.012   6.682  1.00  0.00     0.707 A 
HETATM    2  N2  UNL     1      -0.384   3.834   5.656  1.00  0.00    -0.021 N 
ATOM      3  H2  UNL     1       0.393   4.156   5.079  1.00  0.00     0.203 HD
HETATM    4  C7  UNL     1      -1.638   4.231   5.392  1.00  0.00     0.707 A 
HETATM    5  N4  UNL     1      -2.690   3.835   6.121  1.00  0.00    -0.021 N 
ATOM      6  H4  UNL     1      -3.635   4.151   5.903  1.00  0.00     0.203 HD
HETATM    7  C14 UNL     1      -2.449   3.005   7.153  1.00  0.00     0.709 A 
HETATM    8  N6  UNL     1      -1.187   2.598   7.425  1.00  0.00    -0.021 N 
ATOM      9  H6  UNL     1      -1.018   1.968   8.208  1.00  0.00     0.203 HD
ENDROOT
BRANCH   4  10
HETATM   10  N3  UNL     1      -1.847   5.102   4.301  1.00  0.00    -0.220 N 
ATOM     11  H3  UNL     1      -2.254   4.722   3.447  1.00  0.00     0.178 HD
BRANCH  10  12
HETATM   12  C8  UNL     1      -1.512   6.511   4.339  1.00  0.00     0.099 C 
HETATM   13  C9  UNL     1      -0.030   6.703   4.155  1.00  0.00     0.026 C 
HETATM   14  C10 UNL     1       0.595   7.404   5.343  1.00  0.00     0.002 C 
HETATM   15  C11 UNL     1      -0.079   8.704   5.630  1.00  0.00     0.000 C 
HETATM   16  C12 UNL     1      -1.529   8.481   5.885  1.00  0.00     0.002 C 
HETATM   17  C13 UNL     1      -2.002   7.072   5.647  1.00  0.00     0.026 C 
ENDBRANCH  10  12
ENDBRANCH   4  10
BRANCH   1  18
HETATM   18  N1  UNL     1       1.021   2.623   6.944  1.00  0.00    -0.221 N 
ATOM     19  H1  UNL     1       1.358   1.753   6.533  1.00  0.00     0.178 HD
BRANCH  18  20
HETATM   20  C3  UNL     1       1.905   3.380   7.809  1.00  0.00     0.098 C 
BRANCH  20  21
HETATM   21  C2  UNL     1       2.929   2.411   8.359  1.00  0.00     0.021 C 
HETATM   22  C1  UNL     1       2.615   1.037   7.792  1.00  0.00     0.007 C 
ENDBRANCH  20  21
BRANCH  20  23
HETATM   23  C4  UNL     1       2.636   4.414   6.978  1.00  0.00     0.021 C 
HETATM   24  C5  UNL     1       4.035   4.654   7.473  1.00  0.00     0.007 C 
ENDBRANCH  20  23
ENDBRANCH  18  20
ENDBRANCH   1  18
BRANCH   7  25
HETATM   25  N5  UNL     1      -3.557   2.583   7.925  1.00  0.00    -0.217 N 
HETATM   26  C15 UNL     1      -4.878   3.137   7.836  1.00  0.00     0.141 C 
HETATM   27  C16 UNL     1      -5.700   2.490   8.907  1.00  0.00     0.022 C 
HETATM   28  C17 UNL     1      -4.987   1.201   9.205  1.00  0.00     0.022 C 
HETATM   29  C18 UNL     1      -3.539   1.536   8.922  1.00  0.00     0.141 C 
ENDBRANCH   7  25
TORSDOF 7
ENDMDL
