MODEL 1
REMARK VINA RESULT: -7.070528247      0.000      0.000
REMARK  8 active torsions:
REMARK  status: ('A' for Active; 'I' for Inactive)
REMARK    1  A    between atoms: N1_1  and  C1_5 
REMARK    2  A    between atoms: C5_9  and  C6_10 
REMARK    3  A    between atoms: C6_10  and  O1_11 
REMARK    4  A    between atoms: O1_11  and  N2_12 
REMARK    5  A    between atoms: N2_12  and  O2_13 
REMARK    6  A    between atoms: N2_12  and  C7_15 
REMARK    7  A    between atoms: C10_18  and  O3_19 
REMARK    8  A    between atoms: O3_19  and  C11_20 
ROOT
HETATM    1  N2  UNL     1      -4.534   1.999   8.986  1.00  0.00    -0.127 N 
ENDROOT
BRANCH   1   2
HETATM    2  O1  UNL     1      -5.436   1.031   8.617  1.00  0.00    -0.250 OA
BRANCH   2   3
HETATM    3  C6  UNL     1      -6.259   1.225   7.512  1.00  0.00     0.245 C 
BRANCH   3   4
HETATM    4  C5  UNL     1      -7.182   0.155   7.183  1.00  0.00     0.179 C 
HETATM    5  C1  UNL     1      -7.620  -0.037   5.752  1.00  0.00     0.252 C 
HETATM    6  C2  UNL     1      -8.803  -0.701   6.470  1.00  0.00     0.220 C 
HETATM    7  C3  UNL     1      -8.184  -1.917   7.108  1.00  0.00     0.038 C 
HETATM    8  N3  UNL     1      -8.590   0.315   7.501  1.00  0.00    -0.056 N 
HETATM    9  C4  UNL     1      -6.889  -1.246   7.621  1.00  0.00     0.045 C 
ATOM     10  H32 UNL     1      -9.055   1.223   7.475  1.00  0.00     0.278 HD
ATOM     11  H31 UNL     1      -8.950   0.212   8.449  1.00  0.00     0.278 HD
BRANCH   5  12
HETATM   12  N1  UNL     1      -6.898  -1.062   5.024  1.00  0.00    -0.070 N 
ATOM     13  H13 UNL     1      -6.751  -1.907   5.577  1.00  0.00     0.274 HD
ATOM     14  H12 UNL     1      -7.454  -1.481   4.279  1.00  0.00     0.274 HD
ATOM     15  H11 UNL     1      -6.026  -0.658   4.684  1.00  0.00     0.274 HD
ENDBRANCH   5  12
ENDBRANCH   3   4
ENDBRANCH   2   3
ENDBRANCH   1   2
BRANCH   1  16
HETATM   16  O2  UNL     1      -4.861   2.721   9.948  1.00  0.00    -0.263 OA
ATOM     17  H2  UNL     1      -5.758   3.034   9.955  1.00  0.00     0.247 HD
ENDBRANCH   1  16
BRANCH   1  18
HETATM   18  C7  UNL     1      -3.296   2.200   8.340  1.00  0.00     0.088 A 
HETATM   19  C8  UNL     1      -2.174   1.454   8.629  1.00  0.00     0.037 A 
HETATM   20  C9  UNL     1      -0.963   1.657   7.990  1.00  0.00     0.039 A 
HETATM   21  C10 UNL     1      -0.881   2.650   7.026  1.00  0.00     0.076 A 
HETATM   22  C17 UNL     1      -1.979   3.414   6.710  1.00  0.00     0.039 A 
HETATM   23  C18 UNL     1      -3.168   3.174   7.375  1.00  0.00     0.037 A 
BRANCH  21  24
HETATM   24  O3  UNL     1       0.303   2.896   6.357  1.00  0.00    -0.311 OA
BRANCH  24  25
HETATM   25  C11 UNL     1       1.486   2.867   7.102  1.00  0.00     0.076 A 
HETATM   26  C12 UNL     1       2.054   1.680   7.519  1.00  0.00     0.037 A 
HETATM   27  C13 UNL     1       3.230   1.648   8.261  1.00  0.00     0.003 A 
HETATM   28  C14 UNL     1       3.868   2.817   8.604  1.00  0.00     0.000 A 
HETATM   29  C15 UNL     1       3.305   4.008   8.189  1.00  0.00     0.003 A 
HETATM   30  C16 UNL     1       2.132   4.035   7.450  1.00  0.00     0.037 A 
ENDBRANCH  24  25
ENDBRANCH  21  24
ENDBRANCH   1  18
TORSDOF 8
ENDMDL
MODEL 2
REMARK VINA RESULT: -6.929629357      1.070      1.614
REMARK  8 active torsions:
REMARK  status: ('A' for Active; 'I' for Inactive)
REMARK    1  A    between atoms: N1_1  and  C1_5 
REMARK    2  A    between atoms: C5_9  and  C6_10 
REMARK    3  A    between atoms: C6_10  and  O1_11 
REMARK    4  A    between atoms: O1_11  and  N2_12 
REMARK    5  A    between atoms: N2_12  and  O2_13 
REMARK    6  A    between atoms: N2_12  and  C7_15 
REMARK    7  A    between atoms: C10_18  and  O3_19 
REMARK    8  A    between atoms: O3_19  and  C11_20 
ROOT
HETATM    1  N2  UNL     1      -4.436   1.852   9.097  1.00  0.00    -0.127 N 
ENDROOT
BRANCH   1   2
HETATM    2  O1  UNL     1      -5.698   2.031   8.586  1.00  0.00    -0.250 OA
BRANCH   2   3
HETATM    3  C6  UNL     1      -6.203   1.143   7.639  1.00  0.00     0.245 C 
BRANCH   3   4
HETATM    4  C5  UNL     1      -6.979   0.024   8.136  1.00  0.00     0.179 C 
HETATM    5  C1  UNL     1      -8.472   0.166   8.299  1.00  0.00     0.252 C 
HETATM    6  C2  UNL     1      -8.215  -0.963   9.305  1.00  0.00     0.220 C 
HETATM    7  C3  UNL     1      -7.784  -2.113   8.434  1.00  0.00     0.038 C 
HETATM    8  N3  UNL     1      -6.942  -0.287   9.555  1.00  0.00    -0.056 N 
HETATM    9  C4  UNL     1      -6.853  -1.320   7.488  1.00  0.00     0.045 C 
ATOM     10  H32 UNL     1      -6.840   0.435  10.268  1.00  0.00     0.278 HD
ATOM     11  H31 UNL     1      -6.150  -0.760   9.989  1.00  0.00     0.278 HD
BRANCH   5  12
HETATM   12  N1  UNL     1      -9.260  -0.370   7.207  1.00  0.00    -0.070 N 
ATOM     13  H13 UNL     1     -10.092  -0.865   7.528  1.00  0.00     0.274 HD
ATOM     14  H12 UNL     1      -9.731   0.356   6.668  1.00  0.00     0.274 HD
ATOM     15  H11 UNL     1      -8.653  -0.954   6.632  1.00  0.00     0.274 HD
ENDBRANCH   5  12
ENDBRANCH   3   4
ENDBRANCH   2   3
ENDBRANCH   1   2
BRANCH   1  16
HETATM   16  O2  UNL     1      -4.367   1.404  10.258  1.00  0.00    -0.263 OA
ATOM     17  H2  UNL     1      -3.516   1.450  10.678  1.00  0.00     0.247 HD
ENDBRANCH   1  16
BRANCH   1  18
HETATM   18  C7  UNL     1      -3.255   2.147   8.382  1.00  0.00     0.088 A 
HETATM   19  C8  UNL     1      -3.184   3.148   7.439  1.00  0.00     0.037 A 
HETATM   20  C9  UNL     1      -2.021   3.431   6.743  1.00  0.00     0.039 A 
HETATM   21  C10 UNL     1      -0.890   2.675   7.008  1.00  0.00     0.076 A 
HETATM   22  C17 UNL     1      -0.922   1.668   7.943  1.00  0.00     0.039 A 
HETATM   23  C18 UNL     1      -2.107   1.423   8.614  1.00  0.00     0.037 A 
BRANCH  21  24
HETATM   24  O3  UNL     1       0.298   2.914   6.343  1.00  0.00    -0.311 OA
BRANCH  24  25
HETATM   25  C11 UNL     1       1.478   2.880   7.093  1.00  0.00     0.076 A 
HETATM   26  C12 UNL     1       2.040   1.690   7.512  1.00  0.00     0.037 A 
HETATM   27  C13 UNL     1       3.212   1.654   8.258  1.00  0.00     0.003 A 
HETATM   28  C14 UNL     1       3.853   2.821   8.605  1.00  0.00     0.000 A 
HETATM   29  C15 UNL     1       3.296   4.014   8.189  1.00  0.00     0.003 A 
HETATM   30  C16 UNL     1       2.126   4.045   7.445  1.00  0.00     0.037 A 
ENDBRANCH  24  25
ENDBRANCH  21  24
ENDBRANCH   1  18
TORSDOF 8
ENDMDL
MODEL 3
REMARK VINA RESULT: -6.830894435      1.141      1.939
REMARK  8 active torsions:
REMARK  status: ('A' for Active; 'I' for Inactive)
REMARK    1  A    between atoms: N1_1  and  C1_5 
REMARK    2  A    between atoms: C5_9  and  C6_10 
REMARK    3  A    between atoms: C6_10  and  O1_11 
REMARK    4  A    between atoms: O1_11  and  N2_12 
REMARK    5  A    between atoms: N2_12  and  O2_13 
REMARK    6  A    between atoms: N2_12  and  C7_15 
REMARK    7  A    between atoms: C10_18  and  O3_19 
REMARK    8  A    between atoms: O3_19  and  C11_20 
ROOT
HETATM    1  N2  UNL     1      -4.467   1.890   9.065  1.00  0.00    -0.127 N 
ENDROOT
BRANCH   1   2
HETATM    2  O1  UNL     1      -5.441   1.037   8.610  1.00  0.00    -0.250 OA
BRANCH   2   3
HETATM    3  C6  UNL     1      -6.666   1.538   8.177  1.00  0.00     0.245 C 
BRANCH   3   4
HETATM    4  C5  UNL     1      -7.002   1.338   6.781  1.00  0.00     0.179 C 
HETATM    5  C1  UNL     1      -8.451   1.317   6.360  1.00  0.00     0.252 C 
HETATM    6  C2  UNL     1      -7.841   0.506   5.208  1.00  0.00     0.220 C 
HETATM    7  C3  UNL     1      -6.989   1.516   4.485  1.00  0.00     0.038 C 
HETATM    8  N3  UNL     1      -6.911   0.002   6.218  1.00  0.00    -0.056 N 
HETATM    9  C4  UNL     1      -6.373   2.196   5.729  1.00  0.00     0.045 C 
ATOM     10  H32 UNL     1      -7.105  -0.836   6.767  1.00  0.00     0.278 HD
ATOM     11  H31 UNL     1      -6.018  -0.425   5.971  1.00  0.00     0.278 HD
BRANCH   5  12
HETATM   12  N1  UNL     1      -8.948   2.567   5.820  1.00  0.00    -0.070 N 
ATOM     13  H13 UNL     1      -8.618   3.380   6.340  1.00  0.00     0.274 HD
ATOM     14  H12 UNL     1      -8.530   2.801   4.920  1.00  0.00     0.274 HD
ATOM     15  H11 UNL     1      -9.966   2.515   5.778  1.00  0.00     0.274 HD
ENDBRANCH   5  12
ENDBRANCH   3   4
ENDBRANCH   2   3
ENDBRANCH   1   2
BRANCH   1  16
HETATM   16  O2  UNL     1      -4.675   2.430  10.169  1.00  0.00    -0.263 OA
ATOM     17  H2  UNL     1      -4.696   3.380  10.178  1.00  0.00     0.247 HD
ENDBRANCH   1  16
BRANCH   1  18
HETATM   18  C7  UNL     1      -3.280   2.171   8.355  1.00  0.00     0.088 A 
HETATM   19  C8  UNL     1      -3.199   3.159   7.398  1.00  0.00     0.037 A 
HETATM   20  C9  UNL     1      -2.030   3.427   6.706  1.00  0.00     0.039 A 
HETATM   21  C10 UNL     1      -0.904   2.671   6.989  1.00  0.00     0.076 A 
HETATM   22  C17 UNL     1      -0.946   1.677   7.938  1.00  0.00     0.039 A 
HETATM   23  C18 UNL     1      -2.136   1.446   8.604  1.00  0.00     0.037 A 
BRANCH  21  24
HETATM   24  O3  UNL     1       0.289   2.896   6.329  1.00  0.00    -0.311 OA
BRANCH  24  25
HETATM   25  C11 UNL     1       1.463   2.875   7.089  1.00  0.00     0.076 A 
HETATM   26  C12 UNL     1       2.037   1.691   7.510  1.00  0.00     0.037 A 
HETATM   27  C13 UNL     1       3.203   1.668   8.266  1.00  0.00     0.003 A 
HETATM   28  C14 UNL     1       3.827   2.841   8.620  1.00  0.00     0.000 A 
HETATM   29  C15 UNL     1       3.259   4.028   8.202  1.00  0.00     0.003 A 
HETATM   30  C16 UNL     1       2.095   4.047   7.448  1.00  0.00     0.037 A 
ENDBRANCH  24  25
ENDBRANCH  21  24
ENDBRANCH   1  18
TORSDOF 8
ENDMDL
MODEL 4
REMARK VINA RESULT: -6.818050281      2.152      2.904
REMARK  8 active torsions:
REMARK  status: ('A' for Active; 'I' for Inactive)
REMARK    1  A    between atoms: N1_1  and  C1_5 
REMARK    2  A    between atoms: C5_9  and  C6_10 
REMARK    3  A    between atoms: C6_10  and  O1_11 
REMARK    4  A    between atoms: O1_11  and  N2_12 
REMARK    5  A    between atoms: N2_12  and  O2_13 
REMARK    6  A    between atoms: N2_12  and  C7_15 
REMARK    7  A    between atoms: C10_18  and  O3_19 
REMARK    8  A    between atoms: O3_19  and  C11_20 
ROOT
HETATM    1  N2  UNL     1      -4.757   3.633   7.952  1.00  0.00    -0.127 N 
ENDROOT
BRANCH   1   2
HETATM    2  O1  UNL     1      -5.905   3.479   7.215  1.00  0.00    -0.250 OA
BRANCH   2   3
HETATM    3  C6  UNL     1      -6.171   2.270   6.577  1.00  0.00     0.245 C 
BRANCH   3   4
HETATM    4  C5  UNL     1      -6.443   2.324   5.154  1.00  0.00     0.179 C 
HETATM    5  C1  UNL     1      -7.786   2.814   4.670  1.00  0.00     0.252 C 
HETATM    6  C2  UNL     1      -7.376   1.964   3.460  1.00  0.00     0.220 C 
HETATM    7  C3  UNL     1      -6.194   2.708   2.896  1.00  0.00     0.038 C 
HETATM    8  N3  UNL     1      -6.736   1.091   4.443  1.00  0.00    -0.056 N 
HETATM    9  C4  UNL     1      -5.494   3.030   4.237  1.00  0.00     0.045 C 
ATOM     10  H32 UNL     1      -7.227   0.313   4.883  1.00  0.00     0.278 HD
ATOM     11  H31 UNL     1      -6.008   0.424   4.187  1.00  0.00     0.278 HD
BRANCH   5  12
HETATM   12  N1  UNL     1      -7.818   4.203   4.258  1.00  0.00    -0.070 N 
ATOM     13  H13 UNL     1      -6.908   4.658   4.338  1.00  0.00     0.274 HD
ATOM     14  H12 UNL     1      -7.937   4.312   3.251  1.00  0.00     0.274 HD
ATOM     15  H11 UNL     1      -8.543   4.679   4.793  1.00  0.00     0.274 HD
ENDBRANCH   5  12
ENDBRANCH   3   4
ENDBRANCH   2   3
ENDBRANCH   1   2
BRANCH   1  16
HETATM   16  O2  UNL     1      -4.907   3.899   9.161  1.00  0.00    -0.263 OA
ATOM     17  H2  UNL     1      -4.141   4.227   9.618  1.00  0.00     0.247 HD
ENDBRANCH   1  16
BRANCH   1  18
HETATM   18  C7  UNL     1      -3.460   3.507   7.412  1.00  0.00     0.088 A 
HETATM   19  C8  UNL     1      -2.971   4.352   6.438  1.00  0.00     0.037 A 
HETATM   20  C9  UNL     1      -1.697   4.222   5.914  1.00  0.00     0.039 A 
HETATM   21  C10 UNL     1      -0.886   3.202   6.388  1.00  0.00     0.076 A 
HETATM   22  C17 UNL     1      -1.338   2.340   7.360  1.00  0.00     0.039 A 
HETATM   23  C18 UNL     1      -2.619   2.510   7.854  1.00  0.00     0.037 A 
BRANCH  21  24
HETATM   24  O3  UNL     1       0.395   3.026   5.901  1.00  0.00    -0.311 OA
BRANCH  24  25
HETATM   25  C11 UNL     1       1.440   2.982   6.829  1.00  0.00     0.076 A 
HETATM   26  C12 UNL     1       1.834   1.801   7.426  1.00  0.00     0.037 A 
HETATM   27  C13 UNL     1       2.873   1.755   8.349  1.00  0.00     0.003 A 
HETATM   28  C14 UNL     1       3.545   2.902   8.698  1.00  0.00     0.000 A 
HETATM   29  C15 UNL     1       3.156   4.087   8.104  1.00  0.00     0.003 A 
HETATM   30  C16 UNL     1       2.119   4.128   7.184  1.00  0.00     0.037 A 
ENDBRANCH  24  25
ENDBRANCH  21  24
ENDBRANCH   1  18
TORSDOF 8
ENDMDL
MODEL 5
REMARK VINA RESULT: -6.800454836      1.038      1.772
REMARK  8 active torsions:
REMARK  status: ('A' for Active; 'I' for Inactive)
REMARK    1  A    between atoms: N1_1  and  C1_5 
REMARK    2  A    between atoms: C5_9  and  C6_10 
REMARK    3  A    between atoms: C6_10  and  O1_11 
REMARK    4  A    between atoms: O1_11  and  N2_12 
REMARK    5  A    between atoms: N2_12  and  O2_13 
REMARK    6  A    between atoms: N2_12  and  C7_15 
REMARK    7  A    between atoms: C10_18  and  O3_19 
REMARK    8  A    between atoms: O3_19  and  C11_20 
ROOT
HETATM    1  N2  UNL     1      -4.765   3.536   8.110  1.00  0.00    -0.127 N 
ENDROOT
BRANCH   1   2
HETATM    2  O1  UNL     1      -5.926   3.326   7.407  1.00  0.00    -0.250 OA
BRANCH   2   3
HETATM    3  C6  UNL     1      -5.993   2.316   6.451  1.00  0.00     0.245 C 
BRANCH   3   4
HETATM    4  C5  UNL     1      -6.923   1.232   6.704  1.00  0.00     0.179 C 
HETATM    5  C1  UNL     1      -7.569   0.519   5.543  1.00  0.00     0.252 C 
HETATM    6  C2  UNL     1      -8.607   0.219   6.632  1.00  0.00     0.220 C 
HETATM    7  C3  UNL     1      -7.862  -0.677   7.586  1.00  0.00     0.038 C 
HETATM    8  N3  UNL     1      -8.270   1.546   7.148  1.00  0.00    -0.056 N 
HETATM    9  C4  UNL     1      -6.524   0.099   7.597  1.00  0.00     0.045 C 
ATOM     10  H32 UNL     1      -8.760   2.388   6.846  1.00  0.00     0.278 HD
ATOM     11  H31 UNL     1      -8.477   1.826   8.106  1.00  0.00     0.278 HD
BRANCH   5  12
HETATM   12  N1  UNL     1      -6.937  -0.730   5.163  1.00  0.00    -0.070 N 
ATOM     13  H13 UNL     1      -6.134  -0.958   5.750  1.00  0.00     0.274 HD
ATOM     14  H12 UNL     1      -7.508  -1.544   5.388  1.00  0.00     0.274 HD
ATOM     15  H11 UNL     1      -6.698  -0.679   4.173  1.00  0.00     0.274 HD
ENDBRANCH   5  12
ENDBRANCH   3   4
ENDBRANCH   2   3
ENDBRANCH   1   2
BRANCH   1  16
HETATM   16  O2  UNL     1      -4.893   3.839   9.312  1.00  0.00    -0.263 OA
ATOM     17  H2  UNL     1      -5.118   4.744   9.498  1.00  0.00     0.247 HD
ENDBRANCH   1  16
BRANCH   1  18
HETATM   18  C7  UNL     1      -3.478   3.427   7.542  1.00  0.00     0.088 A 
HETATM   19  C8  UNL     1      -3.018   4.282   6.565  1.00  0.00     0.037 A 
HETATM   20  C9  UNL     1      -1.753   4.168   6.014  1.00  0.00     0.039 A 
HETATM   21  C10 UNL     1      -0.923   3.153   6.464  1.00  0.00     0.076 A 
HETATM   22  C17 UNL     1      -1.347   2.281   7.440  1.00  0.00     0.039 A 
HETATM   23  C18 UNL     1      -2.619   2.435   7.961  1.00  0.00     0.037 A 
BRANCH  21  24
HETATM   24  O3  UNL     1       0.349   2.993   5.950  1.00  0.00    -0.311 OA
BRANCH  24  25
HETATM   25  C11 UNL     1       1.414   2.957   6.855  1.00  0.00     0.076 A 
HETATM   26  C12 UNL     1       2.096   4.101   7.222  1.00  0.00     0.037 A 
HETATM   27  C13 UNL     1       3.156   4.068   8.121  1.00  0.00     0.003 A 
HETATM   28  C14 UNL     1       3.559   2.877   8.679  1.00  0.00     0.000 A 
HETATM   29  C15 UNL     1       2.881   1.730   8.317  1.00  0.00     0.003 A 
HETATM   30  C16 UNL     1       1.824   1.767   7.419  1.00  0.00     0.037 A 
ENDBRANCH  24  25
ENDBRANCH  21  24
ENDBRANCH   1  18
TORSDOF 8
ENDMDL
