MODEL 1
REMARK VINA RESULT: -5.874438008      0.000      0.000
REMARK  7 active torsions:
REMARK  status: ('A' for Active; 'I' for Inactive)
REMARK    1  A    between atoms: C2_2  and  N1_3 
REMARK    2  A    between atoms: N1_3  and  N2_5 
REMARK    3  A    between atoms: N3_7  and  C4_9 
REMARK    4  A    between atoms: C7_17  and  N7_18 
REMARK    5  A    between atoms: N7_18  and  C8_20 
REMARK    6  A    between atoms: C11_23  and  O1_24 
REMARK    7  A    between atoms: O1_24  and  C12_25 
ROOT
HETATM    1  C4  UNL     1      -5.252   2.294   9.094  1.00  0.00     0.135 A 
HETATM    2  C5  UNL     1      -6.064   2.861  10.052  1.00  0.00     0.149 A 
HETATM    3  N4  UNL     1      -7.202   3.616   9.668  1.00  0.00    -0.080 NA
HETATM    4  N5  UNL     1      -5.796   2.714  11.365  1.00  0.00    -0.339 N 
ATOM      5  H5  UNL     1      -6.415   3.144  12.053  1.00  0.00     0.167 HD
HETATM    6  C6  UNL     1      -4.732   2.013  11.788  1.00  0.00     0.183 A 
HETATM    7  N6  UNL     1      -3.942   1.464  10.852  1.00  0.00    -0.337 N 
ATOM      8  H6  UNL     1      -3.132   0.932  11.169  1.00  0.00     0.168 HD
HETATM    9  C7  UNL     1      -4.141   1.564   9.534  1.00  0.00     0.138 A 
ENDROOT
BRANCH   9  10
HETATM   10  N7  UNL     1      -3.382   1.043   8.653  1.00  0.00    -0.340 N 
ATOM     11  H7  UNL     1      -3.723   0.204   8.182  1.00  0.00     0.167 HD
BRANCH  10  12
HETATM   12  C8  UNL     1      -2.104   1.527   8.269  1.00  0.00     0.033 A 
HETATM   13  C9  UNL     1      -1.978   2.601   7.417  1.00  0.00     0.032 A 
HETATM   14  C10 UNL     1      -0.714   3.031   7.074  1.00  0.00     0.039 A 
HETATM   15  C11 UNL     1       0.450   2.458   7.526  1.00  0.00     0.069 A 
HETATM   16  C15 UNL     1       0.311   1.379   8.382  1.00  0.00     0.039 A 
HETATM   17  C16 UNL     1      -0.940   0.921   8.748  1.00  0.00     0.032 A 
BRANCH  15  18
HETATM   18  O1  UNL     1       1.724   2.871   7.196  1.00  0.00    -0.347 OA
BRANCH  18  19
HETATM   19  C12 UNL     1       2.496   3.828   7.846  1.00  0.00     0.120 C 
HETATM   20  C13 UNL     1       3.579   3.169   8.678  1.00  0.00     0.040 C 
HETATM   21  C14 UNL     1       3.112   4.715   6.770  1.00  0.00     0.040 C 
ENDBRANCH  18  19
ENDBRANCH  15  18
ENDBRANCH  10  12
ENDBRANCH   9  10
BRANCH   1  22
HETATM   22  N3  UNL     1      -5.524   2.439   7.730  1.00  0.00    -0.280 N 
HETATM   23  N2  UNL     1      -6.331   1.784   7.059  1.00  0.00    -0.245 N 
ATOM     24  H2  UNL     1      -6.388   2.037   6.072  1.00  0.00     0.208 HD
ATOM     25  H3  UNL     1      -5.001   3.162   7.237  1.00  0.00     0.189 HD
BRANCH  23  26
HETATM   26  N1  UNL     1      -7.162   0.762   7.457  1.00  0.00    -0.318 N 
HETATM   27  C3  UNL     1      -8.574   1.049   7.680  1.00  0.00     0.172 C 
BRANCH  26  28
HETATM   28  C2  UNL     1      -6.620  -0.568   7.641  1.00  0.00     0.139 C 
HETATM   29  C1  UNL     1      -7.009  -1.485   6.510  1.00  0.00     0.028 C 
ENDBRANCH  26  28
ENDBRANCH  23  26
ENDBRANCH   1  22
TORSDOF 7
ENDMDL
MODEL 2
REMARK VINA RESULT: -5.751657250      1.717      3.608
REMARK  7 active torsions:
REMARK  status: ('A' for Active; 'I' for Inactive)
REMARK    1  A    between atoms: C2_2  and  N1_3 
REMARK    2  A    between atoms: N1_3  and  N2_5 
REMARK    3  A    between atoms: N3_7  and  C4_9 
REMARK    4  A    between atoms: C7_17  and  N7_18 
REMARK    5  A    between atoms: N7_18  and  C8_20 
REMARK    6  A    between atoms: C11_23  and  O1_24 
REMARK    7  A    between atoms: O1_24  and  C12_25 
ROOT
HETATM    1  C4  UNL     1      -6.173   1.190   7.581  1.00  0.00     0.135 A 
HETATM    2  C5  UNL     1      -7.152   0.735   6.724  1.00  0.00     0.149 A 
HETATM    3  N4  UNL     1      -7.882  -0.442   7.032  1.00  0.00    -0.080 NA
HETATM    4  N5  UNL     1      -7.434   1.392   5.580  1.00  0.00    -0.339 N 
ATOM      5  H5  UNL     1      -8.164   1.033   4.965  1.00  0.00     0.167 HD
HETATM    6  C6  UNL     1      -6.774   2.508   5.235  1.00  0.00     0.183 A 
HETATM    7  N6  UNL     1      -5.821   2.947   6.071  1.00  0.00    -0.337 N 
ATOM      8  H6  UNL     1      -5.317   3.795   5.811  1.00  0.00     0.168 HD
HETATM    9  C7  UNL     1      -5.484   2.354   7.221  1.00  0.00     0.138 A 
ENDROOT
BRANCH   9  10
HETATM   10  N7  UNL     1      -4.574   2.776   8.005  1.00  0.00    -0.340 N 
ATOM     11  H7  UNL     1      -4.875   3.282   8.839  1.00  0.00     0.167 HD
BRANCH  10  12
HETATM   12  C8  UNL     1      -3.177   2.603   7.822  1.00  0.00     0.033 A 
HETATM   13  C9  UNL     1      -2.489   1.617   8.492  1.00  0.00     0.032 A 
HETATM   14  C10 UNL     1      -1.133   1.492   8.280  1.00  0.00     0.039 A 
HETATM   15  C11 UNL     1      -0.402   2.293   7.436  1.00  0.00     0.069 A 
HETATM   16  C15 UNL     1      -1.104   3.282   6.769  1.00  0.00     0.039 A 
HETATM   17  C16 UNL     1      -2.464   3.436   6.956  1.00  0.00     0.032 A 
BRANCH  15  18
HETATM   18  O1  UNL     1       0.954   2.188   7.209  1.00  0.00    -0.347 OA
BRANCH  18  19
HETATM   19  C12 UNL     1       1.954   1.969   8.151  1.00  0.00     0.120 C 
HETATM   20  C13 UNL     1       2.843   0.815   7.729  1.00  0.00     0.040 C 
HETATM   21  C14 UNL     1       2.761   3.257   8.258  1.00  0.00     0.040 C 
ENDBRANCH  18  19
ENDBRANCH  15  18
ENDBRANCH  10  12
ENDBRANCH   9  10
BRANCH   1  22
HETATM   22  N3  UNL     1      -5.877   0.516   8.770  1.00  0.00    -0.280 N 
HETATM   23  N2  UNL     1      -6.422   0.673   9.869  1.00  0.00    -0.245 N 
ATOM     24  H2  UNL     1      -6.065   0.087  10.624  1.00  0.00     0.208 HD
ATOM     25  H3  UNL     1      -5.131  -0.178   8.726  1.00  0.00     0.189 HD
BRANCH  23  26
HETATM   26  N1  UNL     1      -7.445   1.527  10.217  1.00  0.00    -0.318 N 
HETATM   27  C3  UNL     1      -8.817   1.036  10.174  1.00  0.00     0.172 C 
BRANCH  26  28
HETATM   28  C2  UNL     1      -7.136   2.883  10.618  1.00  0.00     0.139 C 
HETATM   29  C1  UNL     1      -5.872   2.944  11.436  1.00  0.00     0.028 C 
ENDBRANCH  26  28
ENDBRANCH  23  26
ENDBRANCH   1  22
TORSDOF 7
ENDMDL
MODEL 3
REMARK VINA RESULT: -5.719365516      1.953      3.312
REMARK  7 active torsions:
REMARK  status: ('A' for Active; 'I' for Inactive)
REMARK    1  A    between atoms: C2_2  and  N1_3 
REMARK    2  A    between atoms: N1_3  and  N2_5 
REMARK    3  A    between atoms: N3_7  and  C4_9 
REMARK    4  A    between atoms: C7_17  and  N7_18 
REMARK    5  A    between atoms: N7_18  and  C8_20 
REMARK    6  A    between atoms: C11_23  and  O1_24 
REMARK    7  A    between atoms: O1_24  and  C12_25 
ROOT
HETATM    1  C4  UNL     1      -6.196   2.055   6.638  1.00  0.00     0.135 A 
HETATM    2  C5  UNL     1      -7.156   1.139   6.267  1.00  0.00     0.149 A 
HETATM    3  N4  UNL     1      -7.937   1.354   5.102  1.00  0.00    -0.080 NA
HETATM    4  N5  UNL     1      -7.374   0.027   6.998  1.00  0.00    -0.339 N 
ATOM      5  H5  UNL     1      -8.091  -0.634   6.699  1.00  0.00     0.167 HD
HETATM    6  C6  UNL     1      -6.669  -0.228   8.111  1.00  0.00     0.183 A 
HETATM    7  N6  UNL     1      -5.736   0.667   8.470  1.00  0.00    -0.337 N 
ATOM      8  H6  UNL     1      -5.199   0.477   9.316  1.00  0.00     0.168 HD
HETATM    9  C7  UNL     1      -5.460   1.791   7.799  1.00  0.00     0.138 A 
ENDROOT
BRANCH   9  10
HETATM   10  N7  UNL     1      -4.576   2.637   8.152  1.00  0.00    -0.340 N 
ATOM     11  H7  UNL     1      -4.896   3.456   8.669  1.00  0.00     0.167 HD
BRANCH  10  12
HETATM   12  C8  UNL     1      -3.184   2.540   7.888  1.00  0.00     0.033 A 
HETATM   13  C9  UNL     1      -2.570   3.387   6.993  1.00  0.00     0.032 A 
HETATM   14  C10 UNL     1      -1.217   3.251   6.771  1.00  0.00     0.039 A 
HETATM   15  C11 UNL     1      -0.420   2.315   7.386  1.00  0.00     0.069 A 
HETATM   16  C15 UNL     1      -1.048   1.469   8.283  1.00  0.00     0.039 A 
HETATM   17  C16 UNL     1      -2.403   1.578   8.531  1.00  0.00     0.032 A 
BRANCH  15  18
HETATM   18  O1  UNL     1       0.935   2.160   7.179  1.00  0.00    -0.347 OA
BRANCH  18  19
HETATM   19  C12 UNL     1       1.915   1.934   8.140  1.00  0.00     0.120 C 
HETATM   20  C13 UNL     1       2.822   0.792   7.721  1.00  0.00     0.040 C 
HETATM   21  C14 UNL     1       2.710   3.226   8.284  1.00  0.00     0.040 C 
ENDBRANCH  18  19
ENDBRANCH  15  18
ENDBRANCH  10  12
ENDBRANCH   9  10
BRANCH   1  22
HETATM   22  N3  UNL     1      -5.961   3.209   5.885  1.00  0.00    -0.280 N 
HETATM   23  N2  UNL     1      -6.555   4.291   5.976  1.00  0.00    -0.245 N 
ATOM     24  H2  UNL     1      -6.241   5.019   5.335  1.00  0.00     0.208 HD
ATOM     25  H3  UNL     1      -5.221   3.153   5.185  1.00  0.00     0.189 HD
BRANCH  23  26
HETATM   26  N1  UNL     1      -7.581   4.649   6.821  1.00  0.00    -0.318 N 
HETATM   27  C3  UNL     1      -8.956   4.527   6.352  1.00  0.00     0.172 C 
BRANCH  26  28
HETATM   28  C2  UNL     1      -7.273   5.133   8.151  1.00  0.00     0.139 C 
HETATM   29  C1  UNL     1      -7.882   4.255   9.213  1.00  0.00     0.028 C 
ENDBRANCH  26  28
ENDBRANCH  23  26
ENDBRANCH   1  22
TORSDOF 7
ENDMDL
MODEL 4
REMARK VINA RESULT: -5.672440071      1.502      2.289
REMARK  7 active torsions:
REMARK  status: ('A' for Active; 'I' for Inactive)
REMARK    1  A    between atoms: C2_2  and  N1_3 
REMARK    2  A    between atoms: N1_3  and  N2_5 
REMARK    3  A    between atoms: N3_7  and  C4_9 
REMARK    4  A    between atoms: C7_17  and  N7_18 
REMARK    5  A    between atoms: N7_18  and  C8_20 
REMARK    6  A    between atoms: C11_23  and  O1_24 
REMARK    7  A    between atoms: O1_24  and  C12_25 
ROOT
HETATM    1  C4  UNL     1      -5.700   2.587   9.984  1.00  0.00     0.135 A 
HETATM    2  C5  UNL     1      -6.319   3.298  10.989  1.00  0.00     0.149 A 
HETATM    3  N4  UNL     1      -6.936   2.617  12.070  1.00  0.00    -0.080 NA
HETATM    4  N5  UNL     1      -6.356   4.646  10.965  1.00  0.00    -0.339 N 
ATOM      5  H5  UNL     1      -6.821   5.146  11.722  1.00  0.00     0.167 HD
HETATM    6  C6  UNL     1      -5.793   5.343   9.966  1.00  0.00     0.183 A 
HETATM    7  N6  UNL     1      -5.192   4.647   8.988  1.00  0.00    -0.337 N 
ATOM      8  H6  UNL     1      -4.764   5.174   8.227  1.00  0.00     0.168 HD
HETATM    9  C7  UNL     1      -5.113   3.313   8.941  1.00  0.00     0.138 A 
ENDROOT
BRANCH   9  10
HETATM   10  N7  UNL     1      -4.544   2.662   8.005  1.00  0.00    -0.340 N 
ATOM     11  H7  UNL     1      -5.149   2.196   7.329  1.00  0.00     0.167 HD
BRANCH  10  12
HETATM   12  C8  UNL     1      -3.143   2.529   7.822  1.00  0.00     0.033 A 
HETATM   13  C9  UNL     1      -2.428   1.561   8.491  1.00  0.00     0.032 A 
HETATM   14  C10 UNL     1      -1.069   1.474   8.279  1.00  0.00     0.039 A 
HETATM   15  C11 UNL     1      -0.360   2.296   7.436  1.00  0.00     0.069 A 
HETATM   16  C15 UNL     1      -1.090   3.266   6.769  1.00  0.00     0.039 A 
HETATM   17  C16 UNL     1      -2.454   3.381   6.956  1.00  0.00     0.032 A 
BRANCH  15  18
HETATM   18  O1  UNL     1       0.998   2.229   7.208  1.00  0.00    -0.347 OA
BRANCH  18  19
HETATM   19  C12 UNL     1       2.001   2.006   8.146  1.00  0.00     0.120 C 
HETATM   20  C13 UNL     1       2.855   0.818   7.745  1.00  0.00     0.040 C 
HETATM   21  C14 UNL     1       2.844   3.274   8.212  1.00  0.00     0.040 C 
ENDBRANCH  18  19
ENDBRANCH  15  18
ENDBRANCH  10  12
ENDBRANCH   9  10
BRANCH   1  22
HETATM   22  N3  UNL     1      -5.655   1.190  10.002  1.00  0.00    -0.280 N 
HETATM   23  N2  UNL     1      -6.518   0.412   9.575  1.00  0.00    -0.245 N 
ATOM     24  H2  UNL     1      -6.305  -0.580   9.679  1.00  0.00     0.208 HD
ATOM     25  H3  UNL     1      -4.822   0.766  10.411  1.00  0.00     0.189 HD
BRANCH  23  26
HETATM   26  N1  UNL     1      -7.725   0.699   8.978  1.00  0.00    -0.318 N 
HETATM   27  C3  UNL     1      -8.927   0.733   9.803  1.00  0.00     0.172 C 
BRANCH  26  28
HETATM   28  C2  UNL     1      -7.773   0.962   7.555  1.00  0.00     0.139 C 
HETATM   29  C1  UNL     1      -6.926  -0.016   6.783  1.00  0.00     0.028 C 
ENDBRANCH  26  28
ENDBRANCH  23  26
ENDBRANCH   1  22
TORSDOF 7
ENDMDL
MODEL 5
REMARK VINA RESULT: -5.584679782      1.616      3.577
REMARK  7 active torsions:
REMARK  status: ('A' for Active; 'I' for Inactive)
REMARK    1  A    between atoms: C2_2  and  N1_3 
REMARK    2  A    between atoms: N1_3  and  N2_5 
REMARK    3  A    between atoms: N3_7  and  C4_9 
REMARK    4  A    between atoms: C7_17  and  N7_18 
REMARK    5  A    between atoms: N7_18  and  C8_20 
REMARK    6  A    between atoms: C11_23  and  O1_24 
REMARK    7  A    between atoms: O1_24  and  C12_25 
ROOT
HETATM    1  C4  UNL     1      -6.221   0.913   8.486  1.00  0.00     0.135 A 
HETATM    2  C5  UNL     1      -7.219   0.150   7.920  1.00  0.00     0.149 A 
HETATM    3  N4  UNL     1      -7.826  -0.897   8.661  1.00  0.00    -0.080 NA
HETATM    4  N5  UNL     1      -7.636   0.377   6.658  1.00  0.00    -0.339 N 
ATOM      5  H5  UNL     1      -8.377  -0.203   6.264  1.00  0.00     0.167 HD
HETATM    6  C6  UNL     1      -7.096   1.351   5.908  1.00  0.00     0.183 A 
HETATM    7  N6  UNL     1      -6.124   2.091   6.462  1.00  0.00    -0.337 N 
ATOM      8  H6  UNL     1      -5.710   2.831   5.895  1.00  0.00     0.168 HD
HETATM    9  C7  UNL     1      -5.657   1.928   7.705  1.00  0.00     0.138 A 
ENDROOT
BRANCH   9  10
HETATM   10  N7  UNL     1      -4.729   2.633   8.220  1.00  0.00    -0.340 N 
ATOM     11  H7  UNL     1      -5.008   3.363   8.875  1.00  0.00     0.167 HD
BRANCH  10  12
HETATM   12  C8  UNL     1      -3.340   2.491   7.961  1.00  0.00     0.033 A 
HETATM   13  C9  UNL     1      -2.592   1.531   8.605  1.00  0.00     0.032 A 
HETATM   14  C10 UNL     1      -1.247   1.436   8.320  1.00  0.00     0.039 A 
HETATM   15  C11 UNL     1      -0.584   2.242   7.426  1.00  0.00     0.069 A 
HETATM   16  C15 UNL     1      -1.346   3.203   6.784  1.00  0.00     0.039 A 
HETATM   17  C16 UNL     1      -2.698   3.327   7.045  1.00  0.00     0.032 A 
BRANCH  15  18
HETATM   18  O1  UNL     1       0.759   2.165   7.124  1.00  0.00    -0.347 OA
BRANCH  18  19
HETATM   19  C12 UNL     1       1.827   2.189   8.016  1.00  0.00     0.120 C 
HETATM   20  C13 UNL     1       2.739   0.998   7.791  1.00  0.00     0.040 C 
HETATM   21  C14 UNL     1       2.581   3.493   7.779  1.00  0.00     0.040 C 
ENDBRANCH  18  19
ENDBRANCH  15  18
ENDBRANCH  10  12
ENDBRANCH   9  10
BRANCH   1  22
HETATM   22  N3  UNL     1      -5.784   0.685   9.795  1.00  0.00    -0.280 N 
HETATM   23  N2  UNL     1      -6.269   1.153  10.833  1.00  0.00    -0.245 N 
ATOM     24  H2  UNL     1      -5.809   0.871  11.698  1.00  0.00     0.208 HD
ATOM     25  H3  UNL     1      -4.981   0.068   9.906  1.00  0.00     0.189 HD
BRANCH  23  26
HETATM   26  N1  UNL     1      -7.343   2.001  10.983  1.00  0.00    -0.318 N 
HETATM   27  C3  UNL     1      -8.660   1.431  11.240  1.00  0.00     0.172 C 
BRANCH  26  28
HETATM   28  C2  UNL     1      -7.142   3.432  10.886  1.00  0.00     0.139 C 
HETATM   29  C1  UNL     1      -7.953   4.030   9.766  1.00  0.00     0.028 C 
ENDBRANCH  26  28
ENDBRANCH  23  26
ENDBRANCH   1  22
TORSDOF 7
ENDMDL
