MODEL 1
REMARK VINA RESULT: -6.019533806      0.000      0.000
REMARK  10 active torsions:
REMARK  status: ('A' for Active; 'I' for Inactive)
REMARK    1  A    between atoms: C2_2  and  N1_4 
REMARK    2  A    between atoms: C4_5  and  O1_6 
REMARK    3  A    between atoms: C6_9  and  C7_10 
REMARK    4  A    between atoms: C7_10  and  C8_11 
REMARK    5  A    between atoms: C7_10  and  N3_15 
REMARK    6  A    between atoms: C8_11  and  N2_12 
REMARK    7  A    between atoms: C13_18  and  N4_19 
REMARK    8  A    between atoms: N4_19  and  N5_21 
REMARK    9  A    between atoms: N5_21  and  N6_22 
REMARK   10  A    between atoms: C16_27  and  O2_28 
ROOT
HETATM    1  C7  UNL     1      -0.194   5.090   4.621  1.00  0.00     0.288 C 
ENDROOT
BRANCH   1   2
HETATM    2  C6  UNL     1       0.888   4.642   5.523  1.00  0.00     0.032 A 
HETATM    3  C5  UNL     1       2.110   5.201   5.753  1.00  0.00     0.070 A 
HETATM    4  C4  UNL     1       2.716   4.530   6.832  1.00  0.00     0.145 A 
HETATM    5  N1  UNL     1       1.854   3.597   7.212  1.00  0.00    -0.304 N 
HETATM    6  C16 UNL     1       0.736   3.601   6.478  1.00  0.00     0.153 A 
BRANCH   4   7
HETATM    7  O1  UNL     1       3.985   4.879   7.328  1.00  0.00    -0.346 OA
ATOM      8  H1  UNL     1       4.300   5.675   7.739  1.00  0.00     0.219 HD
ENDBRANCH   4   7
BRANCH   5   9
HETATM    9  C2  UNL     1       2.085   2.620   8.271  1.00  0.00     0.086 C 
HETATM   10  C1  UNL     1       2.507   1.291   7.617  1.00  0.00     0.032 C 
HETATM   11  C3  UNL     1       3.173   2.968   9.224  1.00  0.00     0.032 C 
ENDBRANCH   5   9
BRANCH   6  12
HETATM   12  O2  UNL     1      -0.391   2.802   6.554  1.00  0.00    -0.345 OA
ATOM     13  H2  UNL     1      -1.114   2.812   7.170  1.00  0.00     0.219 HD
ENDBRANCH   6  12
ENDBRANCH   1   2
BRANCH   1  14
HETATM   14  C8  UNL     1       0.226   5.357   3.178  1.00  0.00     0.312 C 
BRANCH  14  15
HETATM   15  N2  UNL     1       0.097   4.152   2.397  1.00  0.00     0.082 N 
HETATM   16  C9  UNL     1       0.257   4.429   0.970  1.00  0.00     0.309 C 
HETATM   17  C10 UNL     1      -1.168   3.515   2.606  1.00  0.00     0.309 C 
ENDBRANCH  14  15
ENDBRANCH   1  14
BRANCH   1  18
HETATM   18  N3  UNL     1      -0.700   6.384   5.120  1.00  0.00     0.099 N 
HETATM   19  C11 UNL     1      -0.035   7.503   4.481  1.00  0.00     0.275 C 
HETATM   20  C12 UNL     1      -0.220   8.748   5.261  1.00  0.00     0.058 C 
HETATM   21  C13 UNL     1      -1.480   8.905   6.012  1.00  0.00     0.117 C 
HETATM   22  C14 UNL     1      -2.337   7.712   6.146  1.00  0.00     0.058 C 
HETATM   23  C15 UNL     1      -2.079   6.608   5.114  1.00  0.00     0.275 C 
BRANCH  21  24
HETATM   24  N4  UNL     1      -1.128   9.407   7.327  1.00  0.00    -0.248 N 
ATOM     25  H4  UNL     1      -1.733   9.162   8.111  1.00  0.00     0.197 HD
BRANCH  24  26
HETATM   26  N5  UNL     1      -0.152  10.104   7.553  1.00  0.00    -0.248 NA
BRANCH  26  27
HETATM   27  N6  UNL     1       0.705  10.787   8.086  1.00  0.00    -0.261 N 
ATOM     28  H62 UNL     1       0.149  11.640   8.034  1.00  0.00     0.193 HD
ATOM     29  H61 UNL     1       1.557  11.118   8.537  1.00  0.00     0.193 HD
ENDBRANCH  26  27
ENDBRANCH  24  26
ENDBRANCH  21  24
ENDBRANCH   1  18
TORSDOF 10
ENDMDL
MODEL 2
REMARK VINA RESULT: -5.931928103      0.873      1.167
REMARK  10 active torsions:
REMARK  status: ('A' for Active; 'I' for Inactive)
REMARK    1  A    between atoms: C2_2  and  N1_4 
REMARK    2  A    between atoms: C4_5  and  O1_6 
REMARK    3  A    between atoms: C6_9  and  C7_10 
REMARK    4  A    between atoms: C7_10  and  C8_11 
REMARK    5  A    between atoms: C7_10  and  N3_15 
REMARK    6  A    between atoms: C8_11  and  N2_12 
REMARK    7  A    between atoms: C13_18  and  N4_19 
REMARK    8  A    between atoms: N4_19  and  N5_21 
REMARK    9  A    between atoms: N5_21  and  N6_22 
REMARK   10  A    between atoms: C16_27  and  O2_28 
ROOT
HETATM    1  C7  UNL     1      -0.246   4.920   4.549  1.00  0.00     0.288 C 
ENDROOT
BRANCH   1   2
HETATM    2  C6  UNL     1       0.843   4.563   5.484  1.00  0.00     0.032 A 
HETATM    3  C5  UNL     1       2.026   5.199   5.719  1.00  0.00     0.070 A 
HETATM    4  C4  UNL     1       2.648   4.596   6.829  1.00  0.00     0.145 A 
HETATM    5  N1  UNL     1       1.834   3.626   7.221  1.00  0.00    -0.304 N 
HETATM    6  C16 UNL     1       0.733   3.544   6.468  1.00  0.00     0.153 A 
BRANCH   4   7
HETATM    7  O1  UNL     1       3.884   5.033   7.337  1.00  0.00    -0.346 OA
ATOM      8  H1  UNL     1       4.637   5.423   6.907  1.00  0.00     0.219 HD
ENDBRANCH   4   7
BRANCH   5   9
HETATM    9  C2  UNL     1       2.101   2.697   8.314  1.00  0.00     0.086 C 
HETATM   10  C1  UNL     1       2.523   1.346   7.705  1.00  0.00     0.032 C 
HETATM   11  C3  UNL     1       3.205   3.095   9.227  1.00  0.00     0.032 C 
ENDBRANCH   5   9
BRANCH   6  12
HETATM   12  O2  UNL     1      -0.348   2.682   6.548  1.00  0.00    -0.345 OA
ATOM     13  H2  UNL     1      -1.197   2.794   6.959  1.00  0.00     0.219 HD
ENDBRANCH   6  12
ENDBRANCH   1   2
BRANCH   1  14
HETATM   14  C8  UNL     1       0.205   5.349   3.156  1.00  0.00     0.312 C 
BRANCH  14  15
HETATM   15  N2  UNL     1       0.151   4.225   2.253  1.00  0.00     0.082 N 
HETATM   16  C9  UNL     1       0.212   4.665   0.860  1.00  0.00     0.309 C 
HETATM   17  C10 UNL     1      -1.036   3.447   2.442  1.00  0.00     0.309 C 
ENDBRANCH  14  15
ENDBRANCH   1  14
BRANCH   1  18
HETATM   18  N3  UNL     1      -0.958   6.089   5.101  1.00  0.00     0.099 N 
HETATM   19  C11 UNL     1      -0.520   7.326   4.481  1.00  0.00     0.275 C 
HETATM   20  C12 UNL     1      -0.900   8.497   5.303  1.00  0.00     0.058 C 
HETATM   21  C13 UNL     1      -2.145   8.407   6.090  1.00  0.00     0.117 C 
HETATM   22  C14 UNL     1      -2.772   7.078   6.208  1.00  0.00     0.058 C 
HETATM   23  C15 UNL     1      -2.353   6.065   5.136  1.00  0.00     0.275 C 
BRANCH  21  24
HETATM   24  N4  UNL     1      -1.848   8.929   7.411  1.00  0.00    -0.248 N 
ATOM     25  H4  UNL     1      -0.873   9.119   7.643  1.00  0.00     0.197 HD
BRANCH  24  26
HETATM   26  N5  UNL     1      -2.694   9.154   8.261  1.00  0.00    -0.248 NA
BRANCH  26  27
HETATM   27  N6  UNL     1      -3.662   9.570   8.873  1.00  0.00    -0.261 N 
ATOM     28  H62 UNL     1      -4.110   8.655   8.915  1.00  0.00     0.193 HD
ATOM     29  H61 UNL     1      -4.336  10.158   9.363  1.00  0.00     0.193 HD
ENDBRANCH  26  27
ENDBRANCH  24  26
ENDBRANCH  21  24
ENDBRANCH   1  18
TORSDOF 10
ENDMDL
MODEL 3
REMARK VINA RESULT: -5.929747747      0.851      1.007
REMARK  10 active torsions:
REMARK  status: ('A' for Active; 'I' for Inactive)
REMARK    1  A    between atoms: C2_2  and  N1_4 
REMARK    2  A    between atoms: C4_5  and  O1_6 
REMARK    3  A    between atoms: C6_9  and  C7_10 
REMARK    4  A    between atoms: C7_10  and  C8_11 
REMARK    5  A    between atoms: C7_10  and  N3_15 
REMARK    6  A    between atoms: C8_11  and  N2_12 
REMARK    7  A    between atoms: C13_18  and  N4_19 
REMARK    8  A    between atoms: N4_19  and  N5_21 
REMARK    9  A    between atoms: N5_21  and  N6_22 
REMARK   10  A    between atoms: C16_27  and  O2_28 
ROOT
HETATM    1  C7  UNL     1      -0.075   5.241   4.476  1.00  0.00     0.288 C 
ENDROOT
BRANCH   1   2
HETATM    2  C6  UNL     1       0.962   4.763   5.415  1.00  0.00     0.032 A 
HETATM    3  C5  UNL     1       2.186   5.295   5.698  1.00  0.00     0.070 A 
HETATM    4  C4  UNL     1       2.734   4.602   6.793  1.00  0.00     0.145 A 
HETATM    5  N1  UNL     1       1.840   3.685   7.131  1.00  0.00    -0.304 N 
HETATM    6  C16 UNL     1       0.752   3.718   6.354  1.00  0.00     0.153 A 
BRANCH   4   7
HETATM    7  O1  UNL     1       3.990   4.921   7.342  1.00  0.00    -0.346 OA
ATOM      8  H1  UNL     1       4.438   4.597   8.114  1.00  0.00     0.219 HD
ENDBRANCH   4   7
BRANCH   5   9
HETATM    9  C2  UNL     1       2.010   2.695   8.190  1.00  0.00     0.086 C 
HETATM   10  C1  UNL     1       2.441   1.366   7.542  1.00  0.00     0.032 C 
HETATM   11  C3  UNL     1       3.059   3.018   9.194  1.00  0.00     0.032 C 
ENDBRANCH   5   9
BRANCH   6  12
HETATM   12  O2  UNL     1      -0.394   2.942   6.380  1.00  0.00    -0.345 OA
ATOM     13  H2  UNL     1      -0.509   2.019   6.573  1.00  0.00     0.219 HD
ENDBRANCH   6  12
ENDBRANCH   1   2
BRANCH   1  14
HETATM   14  C8  UNL     1       0.255   5.068   2.996  1.00  0.00     0.312 C 
BRANCH  14  15
HETATM   15  N2  UNL     1      -0.239   3.798   2.525  1.00  0.00     0.082 N 
HETATM   16  C9  UNL     1      -0.073   3.671   1.078  1.00  0.00     0.309 C 
HETATM   17  C10 UNL     1      -1.621   3.612   2.850  1.00  0.00     0.309 C 
ENDBRANCH  14  15
ENDBRANCH   1  14
BRANCH   1  18
HETATM   18  N3  UNL     1      -0.233   6.695   4.669  1.00  0.00     0.099 N 
HETATM   19  C11 UNL     1      -0.282   7.402   3.403  1.00  0.00     0.275 C 
HETATM   20  C12 UNL     1      -0.012   8.846   3.589  1.00  0.00     0.058 C 
HETATM   21  C13 UNL     1      -0.445   9.467   4.856  1.00  0.00     0.117 C 
HETATM   22  C14 UNL     1      -0.869   8.561   5.939  1.00  0.00     0.058 C 
HETATM   23  C15 UNL     1      -1.269   7.152   5.487  1.00  0.00     0.275 C 
BRANCH  21  24
HETATM   24  N4  UNL     1       0.651  10.300   5.314  1.00  0.00    -0.248 N 
ATOM     25  H4  UNL     1       1.190  10.810   4.614  1.00  0.00     0.197 HD
BRANCH  24  26
HETATM   26  N5  UNL     1       0.968  10.428   6.486  1.00  0.00    -0.248 NA
BRANCH  26  27
HETATM   27  N6  UNL     1       1.478  10.791   7.531  1.00  0.00    -0.261 N 
ATOM     28  H62 UNL     1       2.370  11.020   7.092  1.00  0.00     0.193 HD
ATOM     29  H61 UNL     1       1.657  11.028   8.507  1.00  0.00     0.193 HD
ENDBRANCH  26  27
ENDBRANCH  24  26
ENDBRANCH  21  24
ENDBRANCH   1  18
TORSDOF 10
ENDMDL
MODEL 4
REMARK VINA RESULT: -5.749372966      2.321      4.900
REMARK  10 active torsions:
REMARK  status: ('A' for Active; 'I' for Inactive)
REMARK    1  A    between atoms: C2_2  and  N1_4 
REMARK    2  A    between atoms: C4_5  and  O1_6 
REMARK    3  A    between atoms: C6_9  and  C7_10 
REMARK    4  A    between atoms: C7_10  and  C8_11 
REMARK    5  A    between atoms: C7_10  and  N3_15 
REMARK    6  A    between atoms: C8_11  and  N2_12 
REMARK    7  A    between atoms: C13_18  and  N4_19 
REMARK    8  A    between atoms: N4_19  and  N5_21 
REMARK    9  A    between atoms: N5_21  and  N6_22 
REMARK   10  A    between atoms: C16_27  and  O2_28 
ROOT
HETATM    1  C7  UNL     1      -0.616   5.183   4.922  1.00  0.00     0.288 C 
ENDROOT
BRANCH   1   2
HETATM    2  C6  UNL     1       0.574   4.693   5.651  1.00  0.00     0.032 A 
HETATM    3  C5  UNL     1       1.839   5.199   5.680  1.00  0.00     0.070 A 
HETATM    4  C4  UNL     1       2.576   4.509   6.661  1.00  0.00     0.145 A 
HETATM    5  N1  UNL     1       1.745   3.619   7.184  1.00  0.00    -0.304 N 
HETATM    6  C16 UNL     1       0.528   3.667   6.633  1.00  0.00     0.153 A 
BRANCH   4   7
HETATM    7  O1  UNL     1       3.921   4.805   6.949  1.00  0.00    -0.346 OA
ATOM      8  H1  UNL     1       4.721   4.328   6.764  1.00  0.00     0.219 HD
ENDBRANCH   4   7
BRANCH   5   9
HETATM    9  C2  UNL     1       2.097   2.640   8.208  1.00  0.00     0.086 C 
HETATM   10  C1  UNL     1       2.413   1.304   7.510  1.00  0.00     0.032 C 
HETATM   11  C3  UNL     1       3.302   2.975   9.013  1.00  0.00     0.032 C 
ENDBRANCH   5   9
BRANCH   6  12
HETATM   12  O2  UNL     1      -0.608   2.920   6.895  1.00  0.00    -0.345 OA
ATOM     13  H2  UNL     1      -1.494   3.008   6.564  1.00  0.00     0.219 HD
ENDBRANCH   6  12
ENDBRANCH   1   2
BRANCH   1  14
HETATM   14  C8  UNL     1      -1.946   4.578   5.363  1.00  0.00     0.312 C 
BRANCH  14  15
HETATM   15  N2  UNL     1      -2.655   5.508   6.208  1.00  0.00     0.082 N 
HETATM   16  C9  UNL     1      -3.886   4.915   6.728  1.00  0.00     0.309 C 
HETATM   17  C10 UNL     1      -2.980   6.717   5.513  1.00  0.00     0.309 C 
ENDBRANCH  14  15
ENDBRANCH   1  14
BRANCH   1  18
HETATM   18  N3  UNL     1      -0.472   4.805   3.503  1.00  0.00     0.099 N 
HETATM   19  C11 UNL     1      -1.054   3.503   3.233  1.00  0.00     0.275 C 
HETATM   20  C12 UNL     1      -0.547   2.948   1.958  1.00  0.00     0.058 C 
HETATM   21  C13 UNL     1      -0.211   3.900   0.882  1.00  0.00     0.117 C 
HETATM   22  C14 UNL     1      -0.152   5.329   1.241  1.00  0.00     0.058 C 
HETATM   23  C15 UNL     1      -0.898   5.706   2.525  1.00  0.00     0.275 C 
BRANCH  21  24
HETATM   24  N4  UNL     1       1.063   3.480   0.328  1.00  0.00    -0.248 N 
ATOM     25  H4  UNL     1       1.261   2.480   0.288  1.00  0.00     0.197 HD
BRANCH  24  26
HETATM   26  N5  UNL     1       1.911   4.249  -0.092  1.00  0.00    -0.248 NA
BRANCH  26  27
HETATM   27  N6  UNL     1       2.690   4.868  -0.797  1.00  0.00    -0.261 N 
ATOM     28  H62 UNL     1       2.229   5.763  -0.632  1.00  0.00     0.193 HD
ATOM     29  H61 UNL     1       3.452   5.135  -1.420  1.00  0.00     0.193 HD
ENDBRANCH  26  27
ENDBRANCH  24  26
ENDBRANCH  21  24
ENDBRANCH   1  18
TORSDOF 10
ENDMDL
MODEL 5
REMARK VINA RESULT: -5.702539763      2.506      3.401
REMARK  10 active torsions:
REMARK  status: ('A' for Active; 'I' for Inactive)
REMARK    1  A    between atoms: C2_2  and  N1_4 
REMARK    2  A    between atoms: C4_5  and  O1_6 
REMARK    3  A    between atoms: C6_9  and  C7_10 
REMARK    4  A    between atoms: C7_10  and  C8_11 
REMARK    5  A    between atoms: C7_10  and  N3_15 
REMARK    6  A    between atoms: C8_11  and  N2_12 
REMARK    7  A    between atoms: C13_18  and  N4_19 
REMARK    8  A    between atoms: N4_19  and  N5_21 
REMARK    9  A    between atoms: N5_21  and  N6_22 
REMARK   10  A    between atoms: C16_27  and  O2_28 
ROOT
HETATM    1  C7  UNL     1      -0.155   4.995   4.238  1.00  0.00     0.288 C 
ENDROOT
BRANCH   1   2
HETATM    2  C6  UNL     1       0.867   4.633   5.244  1.00  0.00     0.032 A 
HETATM    3  C5  UNL     1       2.046   5.250   5.542  1.00  0.00     0.070 A 
HETATM    4  C4  UNL     1       2.586   4.654   6.697  1.00  0.00     0.145 A 
HETATM    5  N1  UNL     1       1.730   3.707   7.054  1.00  0.00    -0.304 N 
HETATM    6  C16 UNL     1       0.675   3.633   6.235  1.00  0.00     0.153 A 
BRANCH   4   7
HETATM    7  O1  UNL     1       3.798   5.076   7.274  1.00  0.00    -0.346 OA
ATOM      8  H1  UNL     1       4.292   5.881   7.175  1.00  0.00     0.219 HD
ENDBRANCH   4   7
BRANCH   5   9
HETATM    9  C2  UNL     1       1.910   2.792   8.176  1.00  0.00     0.086 C 
HETATM   10  C1  UNL     1       2.383   1.435   7.620  1.00  0.00     0.032 C 
HETATM   11  C3  UNL     1       2.936   3.205   9.171  1.00  0.00     0.032 C 
ENDBRANCH   5   9
BRANCH   6  12
HETATM   12  O2  UNL     1      -0.426   2.794   6.262  1.00  0.00    -0.345 OA
ATOM     13  H2  UNL     1      -1.195   2.804   6.820  1.00  0.00     0.219 HD
ENDBRANCH   6  12
ENDBRANCH   1   2
BRANCH   1  14
HETATM   14  C8  UNL     1      -0.083   6.431   3.724  1.00  0.00     0.312 C 
BRANCH  14  15
HETATM   15  N2  UNL     1      -0.033   6.435   2.283  1.00  0.00     0.082 N 
HETATM   16  C9  UNL     1      -1.237   7.043   1.716  1.00  0.00     0.309 C 
HETATM   17  C10 UNL     1       0.114   5.114   1.750  1.00  0.00     0.309 C 
ENDBRANCH  14  15
ENDBRANCH   1  14
BRANCH   1  18
HETATM   18  N3  UNL     1      -1.482   4.878   4.871  1.00  0.00     0.099 N 
HETATM   19  C11 UNL     1      -1.880   6.114   5.518  1.00  0.00     0.275 C 
HETATM   20  C12 UNL     1      -2.972   5.880   6.489  1.00  0.00     0.058 C 
HETATM   21  C13 UNL     1      -3.934   4.801   6.191  1.00  0.00     0.117 C 
HETATM   22  C14 UNL     1      -3.589   3.874   5.098  1.00  0.00     0.058 C 
HETATM   23  C15 UNL     1      -2.548   4.401   4.104  1.00  0.00     0.275 C 
BRANCH  21  24
HETATM   24  N4  UNL     1      -4.131   4.059   7.422  1.00  0.00    -0.248 N 
ATOM     25  H4  UNL     1      -4.966   4.256   7.972  1.00  0.00     0.197 HD
BRANCH  24  26
HETATM   26  N5  UNL     1      -3.357   3.212   7.839  1.00  0.00    -0.248 NA
BRANCH  26  27
HETATM   27  N6  UNL     1      -2.838   2.166   8.189  1.00  0.00    -0.261 N 
ATOM     28  H62 UNL     1      -2.658   2.497   9.137  1.00  0.00     0.193 HD
ATOM     29  H61 UNL     1      -2.460   1.219   8.221  1.00  0.00     0.193 HD
ENDBRANCH  26  27
ENDBRANCH  24  26
ENDBRANCH  21  24
ENDBRANCH   1  18
TORSDOF 10
ENDMDL
