MODEL 1
REMARK VINA RESULT: -5.274522815      0.000      0.000
REMARK  4 active torsions:
REMARK  status: ('A' for Active; 'I' for Inactive)
REMARK    1  A    between atoms: C2_2  and  N1_5 
REMARK    2  A    between atoms: C7_8  and  N2_9 
REMARK    3  A    between atoms: N2_9  and  C8_11 
REMARK    4  A    between atoms: C8_11  and  C9_12 
ROOT
HETATM    1  N1  UNL     1       2.071   3.189   6.709  1.00  0.00     0.099 N 
HETATM    2  C5  UNL     1       2.727   4.458   6.854  1.00  0.00     0.275 C 
HETATM    3  C6  UNL     1       2.005   5.454   5.970  1.00  0.00     0.057 C 
HETATM    4  C7  UNL     1       0.918   4.658   5.323  1.00  0.00     0.110 C 
HETATM    5  C12 UNL     1       0.710   3.501   6.323  1.00  0.00     0.298 C 
ENDROOT
BRANCH   4   6
HETATM    6  N2  UNL     1      -0.295   5.307   5.047  1.00  0.00    -0.392 N 
ATOM      7  H2  UNL     1      -0.367   6.304   5.249  1.00  0.00     0.159 HD
BRANCH   6   8
HETATM    8  C8  UNL     1      -1.405   4.656   4.511  1.00  0.00     0.116 C 
BRANCH   8   9
HETATM    9  C9  UNL     1      -1.388   4.319   3.041  1.00  0.00     0.299 C 
HETATM   10  O1  UNL     1      -0.814   5.364   2.305  1.00  0.00    -0.354 OA
HETATM   11  C10 UNL     1       0.215   4.868   1.552  1.00  0.00     0.197 C 
HETATM   12  C11 UNL     1       0.021   3.377   1.582  1.00  0.00     0.197 C 
HETATM   13  O2  UNL     1      -0.633   3.198   2.793  1.00  0.00    -0.354 OA
ENDBRANCH   8   9
ENDBRANCH   6   8
ENDBRANCH   4   6
BRANCH   1  14
HETATM   14  C2  UNL     1       2.134   2.345   7.867  1.00  0.00     0.149 C 
HETATM   15  C1  UNL     1       3.000   1.123   7.702  1.00  0.00     0.048 C 
HETATM   16  C3  UNL     1       2.686   3.152   9.021  1.00  0.00     0.048 C 
HETATM   17  C4  UNL     1       0.764   1.840   8.287  1.00  0.00     0.048 C 
ENDBRANCH   1  14
TORSDOF 4
ENDMDL
MODEL 2
REMARK VINA RESULT: -5.194445642      0.074      1.050
REMARK  4 active torsions:
REMARK  status: ('A' for Active; 'I' for Inactive)
REMARK    1  A    between atoms: C2_2  and  N1_5 
REMARK    2  A    between atoms: C7_8  and  N2_9 
REMARK    3  A    between atoms: N2_9  and  C8_11 
REMARK    4  A    between atoms: C8_11  and  C9_12 
ROOT
HETATM    1  N1  UNL     1       2.050   3.209   6.703  1.00  0.00     0.099 N 
HETATM    2  C5  UNL     1       2.695   4.488   6.802  1.00  0.00     0.275 C 
HETATM    3  C6  UNL     1       1.952   5.451   5.898  1.00  0.00     0.057 C 
HETATM    4  C7  UNL     1       0.864   4.626   5.290  1.00  0.00     0.110 C 
HETATM    5  C12 UNL     1       0.680   3.497   6.327  1.00  0.00     0.298 C 
ENDROOT
BRANCH   4   6
HETATM    6  N2  UNL     1      -0.358   5.254   5.011  1.00  0.00    -0.392 N 
ATOM      7  H2  UNL     1      -0.448   6.249   5.214  1.00  0.00     0.159 HD
BRANCH   6   8
HETATM    8  C8  UNL     1      -1.456   4.586   4.470  1.00  0.00     0.116 C 
BRANCH   8   9
HETATM    9  C9  UNL     1      -1.428   4.250   3.000  1.00  0.00     0.299 C 
HETATM   10  O1  UNL     1      -0.893   5.317   2.264  1.00  0.00    -0.354 OA
HETATM   11  C10 UNL     1       0.153   4.859   1.510  1.00  0.00     0.197 C 
HETATM   12  C11 UNL     1       0.014   3.362   1.540  1.00  0.00     0.197 C 
HETATM   13  O2  UNL     1      -0.632   3.158   2.750  1.00  0.00    -0.354 OA
ENDBRANCH   8   9
ENDBRANCH   6   8
ENDBRANCH   4   6
BRANCH   1  14
HETATM   14  C2  UNL     1       2.136   2.401   7.885  1.00  0.00     0.149 C 
HETATM   15  C1  UNL     1       2.713   3.109   9.084  1.00  0.00     0.048 C 
HETATM   16  C3  UNL     1       0.746   1.930   8.249  1.00  0.00     0.048 C 
HETATM   17  C4  UNL     1       2.990   1.162   7.674  1.00  0.00     0.048 C 
ENDBRANCH   1  14
TORSDOF 4
ENDMDL
MODEL 3
REMARK VINA RESULT: -5.012823388      2.330      3.262
REMARK  4 active torsions:
REMARK  status: ('A' for Active; 'I' for Inactive)
REMARK    1  A    between atoms: C2_2  and  N1_5 
REMARK    2  A    between atoms: C7_8  and  N2_9 
REMARK    3  A    between atoms: N2_9  and  C8_11 
REMARK    4  A    between atoms: C8_11  and  C9_12 
ROOT
HETATM    1  N1  UNL     1       1.865   3.108   6.701  1.00  0.00     0.099 N 
HETATM    2  C5  UNL     1       2.551   4.369   6.726  1.00  0.00     0.275 C 
HETATM    3  C6  UNL     1       1.747   5.349   5.896  1.00  0.00     0.057 C 
HETATM    4  C7  UNL     1       0.581   4.552   5.405  1.00  0.00     0.110 C 
HETATM    5  C12 UNL     1       0.473   3.431   6.462  1.00  0.00     0.298 C 
ENDROOT
BRANCH   4   6
HETATM    6  N2  UNL     1      -0.645   5.212   5.247  1.00  0.00    -0.392 N 
ATOM      7  H2  UNL     1      -0.658   6.230   5.304  1.00  0.00     0.159 HD
BRANCH   6   8
HETATM    8  C8  UNL     1      -1.849   4.546   5.016  1.00  0.00     0.116 C 
BRANCH   8   9
HETATM    9  C9  UNL     1      -3.039   4.918   5.864  1.00  0.00     0.299 C 
HETATM   10  O1  UNL     1      -4.095   4.023   5.647  1.00  0.00    -0.354 OA
HETATM   11  C10 UNL     1      -4.489   3.496   6.847  1.00  0.00     0.197 C 
HETATM   12  C11 UNL     1      -3.858   4.391   7.877  1.00  0.00     0.197 C 
HETATM   13  O2  UNL     1      -2.738   4.858   7.204  1.00  0.00    -0.354 OA
ENDBRANCH   8   9
ENDBRANCH   6   8
ENDBRANCH   4   6
BRANCH   1  14
HETATM   14  C2  UNL     1       2.049   2.302   7.873  1.00  0.00     0.149 C 
HETATM   15  C1  UNL     1       2.959   1.116   7.677  1.00  0.00     0.048 C 
HETATM   16  C3  UNL     1       2.640   3.165   8.964  1.00  0.00     0.048 C 
HETATM   17  C4  UNL     1       0.737   1.746   8.400  1.00  0.00     0.048 C 
ENDBRANCH   1  14
TORSDOF 4
ENDMDL
MODEL 4
REMARK VINA RESULT: -4.956626586      2.168      3.093
REMARK  4 active torsions:
REMARK  status: ('A' for Active; 'I' for Inactive)
REMARK    1  A    between atoms: C2_2  and  N1_5 
REMARK    2  A    between atoms: C7_8  and  N2_9 
REMARK    3  A    between atoms: N2_9  and  C8_11 
REMARK    4  A    between atoms: C8_11  and  C9_12 
ROOT
HETATM    1  N1  UNL     1       1.946   3.187   6.668  1.00  0.00     0.099 N 
HETATM    2  C5  UNL     1       2.519   4.503   6.712  1.00  0.00     0.275 C 
HETATM    3  C6  UNL     1       1.718   5.387   5.779  1.00  0.00     0.057 C 
HETATM    4  C7  UNL     1       0.674   4.480   5.211  1.00  0.00     0.110 C 
HETATM    5  C12 UNL     1       0.561   3.383   6.292  1.00  0.00     0.298 C 
ENDROOT
BRANCH   4   6
HETATM    6  N2  UNL     1      -0.583   5.028   4.920  1.00  0.00    -0.392 N 
ATOM      7  H2  UNL     1      -1.071   4.704   4.085  1.00  0.00     0.159 HD
BRANCH   6   8
HETATM    8  C8  UNL     1      -1.199   5.994   5.715  1.00  0.00     0.116 C 
BRANCH   8   9
HETATM    9  C9  UNL     1      -2.569   5.689   6.268  1.00  0.00     0.299 C 
HETATM   10  O1  UNL     1      -3.439   5.303   5.239  1.00  0.00    -0.354 OA
HETATM   11  C10 UNL     1      -3.985   4.087   5.548  1.00  0.00     0.197 C 
HETATM   12  C11 UNL     1      -3.685   3.900   7.010  1.00  0.00     0.197 C 
HETATM   13  O2  UNL     1      -2.527   4.647   7.163  1.00  0.00    -0.354 OA
ENDBRANCH   8   9
ENDBRANCH   6   8
ENDBRANCH   4   6
BRANCH   1  14
HETATM   14  C2  UNL     1       2.086   2.430   7.878  1.00  0.00     0.149 C 
HETATM   15  C1  UNL     1       2.689   3.198   9.027  1.00  0.00     0.048 C 
HETATM   16  C3  UNL     1       0.717   1.953   8.308  1.00  0.00     0.048 C 
HETATM   17  C4  UNL     1       2.954   1.198   7.690  1.00  0.00     0.048 C 
ENDBRANCH   1  14
TORSDOF 4
ENDMDL
MODEL 5
REMARK VINA RESULT: -4.870700812      1.487      2.154
REMARK  4 active torsions:
REMARK  status: ('A' for Active; 'I' for Inactive)
REMARK    1  A    between atoms: C2_2  and  N1_5 
REMARK    2  A    between atoms: C7_8  and  N2_9 
REMARK    3  A    between atoms: N2_9  and  C8_11 
REMARK    4  A    between atoms: C8_11  and  C9_12 
ROOT
HETATM    1  N1  UNL     1       1.990   3.205   6.661  1.00  0.00     0.099 N 
HETATM    2  C5  UNL     1       2.720   4.437   6.767  1.00  0.00     0.275 C 
HETATM    3  C6  UNL     1       2.024   5.463   5.896  1.00  0.00     0.057 C 
HETATM    4  C7  UNL     1       0.872   4.722   5.297  1.00  0.00     0.110 C 
HETATM    5  C12 UNL     1       0.636   3.588   6.318  1.00  0.00     0.298 C 
ENDROOT
BRANCH   4   6
HETATM    6  N2  UNL     1      -0.312   5.434   5.056  1.00  0.00    -0.392 N 
ATOM      7  H2  UNL     1      -0.643   6.081   5.771  1.00  0.00     0.159 HD
BRANCH   6   8
HETATM    8  C8  UNL     1      -1.059   5.301   3.886  1.00  0.00     0.116 C 
BRANCH   8   9
HETATM    9  C9  UNL     1      -2.118   4.228   3.839  1.00  0.00     0.299 C 
HETATM   10  O1  UNL     1      -2.840   4.198   5.040  1.00  0.00    -0.354 OA
HETATM   11  C10 UNL     1      -4.173   4.324   4.763  1.00  0.00     0.197 C 
HETATM   12  C11 UNL     1      -4.278   4.068   3.284  1.00  0.00     0.197 C 
HETATM   13  O2  UNL     1      -3.027   4.465   2.836  1.00  0.00    -0.354 OA
ENDBRANCH   8   9
ENDBRANCH   6   8
ENDBRANCH   4   6
BRANCH   1  14
HETATM   14  C2  UNL     1       2.048   2.371   7.826  1.00  0.00     0.149 C 
HETATM   15  C1  UNL     1       2.906   1.142   7.671  1.00  0.00     0.048 C 
HETATM   16  C3  UNL     1       2.606   3.184   8.972  1.00  0.00     0.048 C 
HETATM   17  C4  UNL     1       0.674   1.879   8.250  1.00  0.00     0.048 C 
ENDBRANCH   1  14
TORSDOF 4
ENDMDL
