MODEL 1
REMARK VINA RESULT: -5.214833772      0.000      0.000
REMARK  4 active torsions:
REMARK  status: ('A' for Active; 'I' for Inactive)
REMARK    1  A    between atoms: C2_2  and  C3_3 
REMARK    2  A    between atoms: C3_3  and  O1_4 
REMARK    3  A    between atoms: C7_13  and  C9_15 
REMARK    4  A    between atoms: C9_15  and  C10_16 
ROOT
HETATM    1  C10 UNL     1       2.088   4.620   6.721  1.00  0.00     0.202 C 
HETATM    2  C11 UNL     1       3.483   4.741   7.061  1.00  0.00     0.078 C 
HETATM    3  N2  UNL     1       4.613   4.816   7.365  1.00  0.00    -0.196 NA
HETATM    4  C12 UNL     1       1.634   3.245   7.091  1.00  0.00     0.078 C 
HETATM    5  N3  UNL     1       1.300   2.169   7.371  1.00  0.00    -0.196 NA
ENDROOT
BRANCH   1   6
HETATM    6  C9  UNL     1       1.774   4.782   5.293  1.00  0.00     0.078 C 
BRANCH   6   7
HETATM    7  C7  UNL     1       0.573   5.529   4.873  1.00  0.00     0.183 C 
HETATM    8  C3  UNL     1      -0.648   4.686   4.728  1.00  0.00     0.197 C 
HETATM    9  O2  UNL     1      -1.450   5.593   3.937  1.00  0.00    -0.315 OA
HETATM   10  C4  UNL     1      -0.583   5.920   2.920  1.00  0.00     0.222 C 
HETATM   11  C5  UNL     1      -0.889   7.268   2.303  1.00  0.00     0.078 C 
HETATM   12  C6  UNL     1      -0.714   4.906   1.804  1.00  0.00     0.078 C 
HETATM   13  N1  UNL     1       0.739   5.983   3.486  1.00  0.00    -0.030 N 
ATOM     14  H12 UNL     1       1.441   5.462   2.960  1.00  0.00     0.281 HD
ATOM     15  H11 UNL     1       1.186   6.896   3.399  1.00  0.00     0.281 HD
HETATM   16  C8  UNL     1       0.301   6.784   5.663  1.00  0.00     0.052 C 
BRANCH   8  17
HETATM   17  C2  UNL     1      -1.410   4.326   5.944  1.00  0.00     0.066 C 
HETATM   18  C1  UNL     1      -2.899   4.360   5.843  1.00  0.00     0.010 C 
ENDBRANCH   8  17
BRANCH   8  19
HETATM   19  O1  UNL     1      -0.362   3.576   3.945  1.00  0.00    -0.363 OA
ATOM     20  H1  UNL     1      -0.766   3.631   3.087  1.00  0.00     0.213 HD
ENDBRANCH   8  19
ENDBRANCH   6   7
ENDBRANCH   1   6
TORSDOF 4
ENDMDL
MODEL 2
REMARK VINA RESULT: -5.129107982      1.564      1.775
REMARK  4 active torsions:
REMARK  status: ('A' for Active; 'I' for Inactive)
REMARK    1  A    between atoms: C2_2  and  C3_3 
REMARK    2  A    between atoms: C3_3  and  O1_4 
REMARK    3  A    between atoms: C7_13  and  C9_15 
REMARK    4  A    between atoms: C9_15  and  C10_16 
ROOT
HETATM    1  C10 UNL     1       0.731   3.284   7.061  1.00  0.00     0.202 C 
HETATM    2  C11 UNL     1       1.913   2.541   7.417  1.00  0.00     0.078 C 
HETATM    3  N2  UNL     1       2.858   1.925   7.738  1.00  0.00    -0.196 NA
HETATM    4  C12 UNL     1      -0.458   2.567   7.615  1.00  0.00     0.078 C 
HETATM    5  N3  UNL     1      -1.372   1.992   8.040  1.00  0.00    -0.196 NA
ENDROOT
BRANCH   1   6
HETATM    6  C9  UNL     1       0.487   3.419   5.616  1.00  0.00     0.078 C 
BRANCH   6   7
HETATM    7  C7  UNL     1       0.300   4.753   5.012  1.00  0.00     0.183 C 
HETATM    8  C3  UNL     1      -1.124   5.186   4.925  1.00  0.00     0.197 C 
HETATM    9  O2  UNL     1      -0.972   6.249   3.955  1.00  0.00    -0.315 OA
HETATM   10  C4  UNL     1      -0.268   5.617   2.955  1.00  0.00     0.222 C 
HETATM   11  C5  UNL     1       0.549   6.578   2.119  1.00  0.00     0.078 C 
HETATM   12  C6  UNL     1      -1.239   4.951   2.004  1.00  0.00     0.078 C 
HETATM   13  N1  UNL     1       0.641   4.695   3.585  1.00  0.00    -0.030 N 
ATOM     14  H12 UNL     1       0.618   3.755   3.190  1.00  0.00     0.281 HD
ATOM     15  H11 UNL     1       1.624   4.880   3.385  1.00  0.00     0.281 HD
HETATM   16  C8  UNL     1       1.185   5.833   5.580  1.00  0.00     0.052 C 
BRANCH   8  17
HETATM   17  C2  UNL     1      -1.771   5.744   6.132  1.00  0.00     0.066 C 
HETATM   18  C1  UNL     1      -2.972   5.025   6.650  1.00  0.00     0.010 C 
ENDBRANCH   8  17
BRANCH   8  19
HETATM   19  O1  UNL     1      -1.885   4.183   4.342  1.00  0.00    -0.363 OA
ATOM     20  H1  UNL     1      -2.787   4.450   4.212  1.00  0.00     0.213 HD
ENDBRANCH   8  19
ENDBRANCH   6   7
ENDBRANCH   1   6
TORSDOF 4
ENDMDL
MODEL 3
REMARK VINA RESULT: -5.096888386      1.718      2.601
REMARK  4 active torsions:
REMARK  status: ('A' for Active; 'I' for Inactive)
REMARK    1  A    between atoms: C2_2  and  C3_3 
REMARK    2  A    between atoms: C3_3  and  O1_4 
REMARK    3  A    between atoms: C7_13  and  C9_15 
REMARK    4  A    between atoms: C9_15  and  C10_16 
ROOT
HETATM    1  C10 UNL     1       0.952   2.984   6.928  1.00  0.00     0.202 C 
HETATM    2  C11 UNL     1       0.440   2.041   7.890  1.00  0.00     0.078 C 
HETATM    3  N2  UNL     1       0.058   1.268   8.684  1.00  0.00    -0.196 NA
HETATM    4  C12 UNL     1       2.182   3.613   7.499  1.00  0.00     0.078 C 
HETATM    5  N3  UNL     1       3.128   4.101   7.961  1.00  0.00    -0.196 NA
ENDROOT
BRANCH   1   6
HETATM    6  C9  UNL     1       0.046   4.094   6.595  1.00  0.00     0.078 C 
BRANCH   6   7
HETATM    7  C7  UNL     1       0.173   4.800   5.305  1.00  0.00     0.183 C 
HETATM    8  C3  UNL     1      -1.064   5.516   4.880  1.00  0.00     0.197 C 
HETATM    9  O2  UNL     1      -0.742   5.700   3.482  1.00  0.00    -0.315 OA
HETATM   10  C4  UNL     1      -0.390   4.424   3.105  1.00  0.00     0.222 C 
HETATM   11  C5  UNL     1       0.551   4.405   1.919  1.00  0.00     0.078 C 
HETATM   12  C6  UNL     1      -1.629   3.670   2.672  1.00  0.00     0.078 C 
HETATM   13  N1  UNL     1       0.290   3.819   4.219  1.00  0.00    -0.030 N 
ATOM     14  H12 UNL     1      -0.054   2.890   4.461  1.00  0.00     0.281 HD
ATOM     15  H11 UNL     1       1.250   3.536   4.017  1.00  0.00     0.281 HD
HETATM   16  C8  UNL     1       1.399   5.669   5.179  1.00  0.00     0.052 C 
BRANCH   8  17
HETATM   17  C2  UNL     1      -1.357   6.840   5.471  1.00  0.00     0.066 C 
HETATM   18  C1  UNL     1      -2.442   6.899   6.495  1.00  0.00     0.010 C 
ENDBRANCH   8  17
BRANCH   8  19
HETATM   19  O1  UNL     1      -2.152   4.658   4.957  1.00  0.00    -0.363 OA
ATOM     20  H1  UNL     1      -1.887   3.755   5.086  1.00  0.00     0.213 HD
ENDBRANCH   8  19
ENDBRANCH   6   7
ENDBRANCH   1   6
TORSDOF 4
ENDMDL
MODEL 4
REMARK VINA RESULT: -4.979591567      1.418      2.241
REMARK  4 active torsions:
REMARK  status: ('A' for Active; 'I' for Inactive)
REMARK    1  A    between atoms: C2_2  and  C3_3 
REMARK    2  A    between atoms: C3_3  and  O1_4 
REMARK    3  A    between atoms: C7_13  and  C9_15 
REMARK    4  A    between atoms: C9_15  and  C10_16 
ROOT
HETATM    1  C10 UNL     1       1.437   3.975   7.084  1.00  0.00     0.202 C 
HETATM    2  C11 UNL     1       2.831   4.321   7.198  1.00  0.00     0.078 C 
HETATM    3  N2  UNL     1       3.968   4.582   7.322  1.00  0.00    -0.196 NA
HETATM    4  C12 UNL     1       1.244   2.613   7.669  1.00  0.00     0.078 C 
HETATM    5  N3  UNL     1       1.112   1.549   8.115  1.00  0.00    -0.196 NA
ENDROOT
BRANCH   1   6
HETATM    6  C9  UNL     1       0.919   3.904   5.709  1.00  0.00     0.078 C 
BRANCH   6   7
HETATM    7  C7  UNL     1      -0.291   4.657   5.327  1.00  0.00     0.183 C 
HETATM    8  C3  UNL     1      -0.498   4.766   3.854  1.00  0.00     0.197 C 
HETATM    9  O2  UNL     1      -1.448   5.857   3.847  1.00  0.00    -0.315 OA
HETATM   10  C4  UNL     1      -0.811   6.790   4.633  1.00  0.00     0.222 C 
HETATM   11  C5  UNL     1      -1.775   7.749   5.298  1.00  0.00     0.078 C 
HETATM   12  C6  UNL     1       0.098   7.637   3.769  1.00  0.00     0.078 C 
HETATM   13  N1  UNL     1      -0.114   6.074   5.669  1.00  0.00    -0.030 N 
ATOM     14  H12 UNL     1       0.860   6.354   5.785  1.00  0.00     0.281 HD
ATOM     15  H11 UNL     1      -0.415   6.313   6.614  1.00  0.00     0.281 HD
HETATM   16  C8  UNL     1      -1.549   4.237   6.044  1.00  0.00     0.052 C 
BRANCH   8  17
HETATM   17  C2  UNL     1      -1.096   3.621   3.135  1.00  0.00     0.066 C 
HETATM   18  C1  UNL     1      -0.359   3.113   1.940  1.00  0.00     0.010 C 
ENDBRANCH   8  17
BRANCH   8  19
HETATM   19  O1  UNL     1       0.667   5.212   3.248  1.00  0.00    -0.363 OA
ATOM     20  H1  UNL     1       1.401   4.631   3.414  1.00  0.00     0.213 HD
ENDBRANCH   8  19
ENDBRANCH   6   7
ENDBRANCH   1   6
TORSDOF 4
ENDMDL
MODEL 5
REMARK VINA RESULT: -4.870275678      1.274      1.346
REMARK  4 active torsions:
REMARK  status: ('A' for Active; 'I' for Inactive)
REMARK    1  A    between atoms: C2_2  and  C3_3 
REMARK    2  A    between atoms: C3_3  and  O1_4 
REMARK    3  A    between atoms: C7_13  and  C9_15 
REMARK    4  A    between atoms: C9_15  and  C10_16 
ROOT
HETATM    1  C10 UNL     1       1.030   3.966   6.818  1.00  0.00     0.202 C 
HETATM    2  C11 UNL     1       2.440   4.211   6.989  1.00  0.00     0.078 C 
HETATM    3  N2  UNL     1       3.585   4.395   7.162  1.00  0.00    -0.196 NA
HETATM    4  C12 UNL     1       0.675   2.729   7.578  1.00  0.00     0.078 C 
HETATM    5  N3  UNL     1       0.417   1.760   8.162  1.00  0.00    -0.196 NA
ENDROOT
BRANCH   1   6
HETATM    6  C9  UNL     1       0.599   3.729   5.431  1.00  0.00     0.078 C 
BRANCH   6   7
HETATM    7  C7  UNL     1       0.015   4.824   4.633  1.00  0.00     0.183 C 
HETATM    8  C3  UNL     1      -1.106   4.399   3.747  1.00  0.00     0.197 C 
HETATM    9  O2  UNL     1      -1.131   5.542   2.860  1.00  0.00    -0.315 OA
HETATM   10  C4  UNL     1       0.189   5.635   2.485  1.00  0.00     0.222 C 
HETATM   11  C5  UNL     1       0.582   7.038   2.075  1.00  0.00     0.078 C 
HETATM   12  C6  UNL     1       0.428   4.759   1.274  1.00  0.00     0.078 C 
HETATM   13  N1  UNL     1       0.987   5.267   3.625  1.00  0.00    -0.030 N 
ATOM     14  H12 UNL     1       1.714   4.581   3.420  1.00  0.00     0.281 HD
ATOM     15  H11 UNL     1       1.614   6.004   3.949  1.00  0.00     0.281 HD
HETATM   16  C8  UNL     1      -0.325   6.065   5.418  1.00  0.00     0.052 C 
BRANCH   8  17
HETATM   17  C2  UNL     1      -2.453   4.235   4.336  1.00  0.00     0.066 C 
HETATM   18  C1  UNL     1      -3.590   4.055   3.385  1.00  0.00     0.010 C 
ENDBRANCH   8  17
BRANCH   8  19
HETATM   19  O1  UNL     1      -0.724   3.291   3.004  1.00  0.00    -0.363 OA
ATOM     20  H1  UNL     1      -0.082   3.512   2.339  1.00  0.00     0.213 HD
ENDBRANCH   8  19
ENDBRANCH   6   7
ENDBRANCH   1   6
TORSDOF 4
ENDMDL
