MODEL 1
REMARK VINA RESULT: -7.667311335      0.000      0.000
REMARK  17 active torsions:
REMARK  status: ('A' for Active; 'I' for Inactive)
REMARK    1  A    between atoms: N1_2  and  C2_4 
REMARK    2  A    between atoms: C4_6  and  N2_7 
REMARK    3  A    between atoms: N2_7  and  C5_9 
REMARK    4  A    between atoms: C5_9  and  O1_10 
REMARK    5  A    between atoms: C5_9  and  N3_12 
REMARK    6  A    between atoms: N3_12  and  O2_14 
REMARK    7  A    between atoms: C6_17  and  C7_18 
REMARK       I    between atoms: C7_18  and  N4_20 
REMARK    8  A    between atoms: N4_20  and  C8_22 
REMARK    9  A    between atoms: C11_26  and  C12_27 
REMARK       I    between atoms: C12_27  and  N6_29 
REMARK   10  A    between atoms: N6_29  and  C13_31 
REMARK   11  A    between atoms: C13_31  and  C14_32 
REMARK   12  A    between atoms: C13_31  and  C15_35 
REMARK   13  A    between atoms: C15_35  and  O6_36 
REMARK   14  A    between atoms: C15_35  and  N8_38 
REMARK   15  A    between atoms: N8_38  and  C16_40 
REMARK   16  A    between atoms: C16_40  and  C17_41 
REMARK   17  A    between atoms: C16_40  and  C18_44 
ROOT
HETATM    1  C8  UNL     1     -40.292  24.599  -4.268  1.00  0.00     0.109 A 
HETATM    2  C9  UNL     1     -39.517  24.149  -3.242  1.00  0.00     0.076 A 
HETATM    3  C10 UNL     1     -38.332  24.764  -2.816  1.00  0.00     0.067 A 
HETATM    4  N5  UNL     1     -37.574  24.248  -1.744  1.00  0.00    -0.101 NA
HETATM    5  C11 UNL     1     -37.919  25.885  -3.466  1.00  0.00     0.071 A 
HETATM    6  C19 UNL     1     -38.696  26.353  -4.510  1.00  0.00     0.108 A 
HETATM    7  N10 UNL     1     -39.813  25.742  -4.883  1.00  0.00    -0.351 N 
ATOM      8  H10 UNL     1     -40.344  26.134  -5.660  1.00  0.00     0.166 HD
ENDROOT
BRANCH   1   9
HETATM    9  N4  UNL     1     -41.488  24.044  -4.757  1.00  0.00    -0.308 N 
HETATM   10  C7  UNL     1     -42.614  24.766  -5.137  1.00  0.00     0.266 C 
HETATM   11  O3  UNL     1     -42.658  26.003  -5.068  1.00  0.00    -0.267 OA
ATOM     12  H4  UNL     1     -41.533  23.029  -4.840  1.00  0.00     0.170 HD
BRANCH  10  13
HETATM   13  C6  UNL     1     -43.820  24.050  -5.647  1.00  0.00     0.101 A 
HETATM   14  C2  UNL     1     -44.717  24.343  -6.613  1.00  0.00     0.053 A 
HETATM   15  C3  UNL     1     -45.708  23.446  -6.818  1.00  0.00     0.068 A 
HETATM   16  C4  UNL     1     -45.718  22.325  -6.038  1.00  0.00     0.080 A 
HETATM   17  S1  UNL     1     -44.361  22.538  -5.040  1.00  0.00    -0.065 SA
BRANCH  14  18
HETATM   18  N1  UNL     1     -44.643  25.561  -7.404  1.00  0.00    -0.393 N 
HETATM   19  C1  UNL     1     -45.712  25.956  -8.313  1.00  0.00     0.146 C 
ATOM     20  H1  UNL     1     -43.819  26.157  -7.320  1.00  0.00     0.159 HD
ENDBRANCH  14  18
BRANCH  16  21
HETATM   21  N2  UNL     1     -46.661  21.230  -6.067  1.00  0.00    -0.315 N 
ATOM     22  H2  UNL     1     -47.113  20.889  -5.218  1.00  0.00     0.170 HD
BRANCH  21  23
HETATM   23  C5  UNL     1     -46.925  20.654  -7.332  1.00  0.00     0.242 C 
BRANCH  23  24
HETATM   24  O1  UNL     1     -45.962  19.843  -7.900  1.00  0.00    -0.331 OA
ATOM     25  H1  UNL     1     -46.245  19.126  -8.456  1.00  0.00     0.221 HD
ENDBRANCH  23  24
BRANCH  23  26
HETATM   26  N3  UNL     1     -48.019  20.863  -7.955  1.00  0.00    -0.233 N 
ATOM     27  H3  UNL     1     -48.826  20.263  -7.789  1.00  0.00     0.198 HD
BRANCH  26  28
HETATM   28  O2  UNL     1     -48.101  21.899  -8.847  1.00  0.00    -0.287 OA
ATOM     29  H2  UNL     1     -47.697  22.732  -8.635  1.00  0.00     0.244 HD
ENDBRANCH  26  28
ENDBRANCH  23  26
ENDBRANCH  21  23
ENDBRANCH  16  21
ENDBRANCH  10  13
ENDBRANCH   1   9
BRANCH   5  30
HETATM   30  C12 UNL     1     -36.697  26.571  -3.068  1.00  0.00     0.255 C 
HETATM   31  O4  UNL     1     -36.843  27.717  -2.514  1.00  0.00    -0.268 OA
HETATM   32  N6  UNL     1     -35.412  26.043  -3.260  1.00  0.00    -0.340 N 
ATOM     33  H6  UNL     1     -35.279  25.132  -3.698  1.00  0.00     0.163 HD
BRANCH  32  34
HETATM   34  C13 UNL     1     -34.252  26.849  -2.809  1.00  0.00     0.222 C 
BRANCH  34  35
HETATM   35  C14 UNL     1     -33.756  26.346  -1.540  1.00  0.00     0.258 C 
HETATM   36  N7  UNL     1     -33.981  24.989  -1.100  1.00  0.00    -0.060 NA
HETATM   37  O5  UNL     1     -33.100  27.086  -0.776  1.00  0.00    -0.274 OA
ENDBRANCH  34  35
BRANCH  34  38
HETATM   38  C15 UNL     1     -33.363  26.911  -3.991  1.00  0.00     0.246 C 
BRANCH  38  39
HETATM   39  O6  UNL     1     -32.054  27.189  -3.451  1.00  0.00    -0.374 OA
ATOM     40  H6  UNL     1     -31.489  27.262  -4.211  1.00  0.00     0.212 HD
ENDBRANCH  38  39
BRANCH  38  41
HETATM   41  N8  UNL     1     -33.345  25.911  -4.920  1.00  0.00    -0.374 N 
ATOM     42  H8  UNL     1     -33.881  26.030  -5.779  1.00  0.00     0.157 HD
BRANCH  41  43
HETATM   43  C16 UNL     1     -32.619  24.728  -4.738  1.00  0.00     0.271 C 
BRANCH  43  44
HETATM   44  C17 UNL     1     -33.464  23.521  -4.413  1.00  0.00     0.264 C 
HETATM   45  N9  UNL     1     -32.849  22.343  -3.933  1.00  0.00    -0.060 NA
HETATM   46  O7  UNL     1     -34.693  23.558  -4.562  1.00  0.00    -0.274 OA
ENDBRANCH  43  44
BRANCH  43  47
HETATM   47  C18 UNL     1     -31.955  24.441  -6.095  1.00  0.00     0.205 C 
HETATM   48  O8  UNL     1     -32.635  24.182  -7.089  1.00  0.00    -0.646 OA
HETATM   49  O9  UNL     1     -30.587  24.488  -6.133  1.00  0.00    -0.646 OA
ENDBRANCH  43  47
ENDBRANCH  41  43
ENDBRANCH  38  41
ENDBRANCH  34  38
ENDBRANCH  32  34
ENDBRANCH   5  30
TORSDOF 17
ENDMDL
MODEL 2
REMARK VINA RESULT: -7.502888080      1.412      2.073
REMARK  17 active torsions:
REMARK  status: ('A' for Active; 'I' for Inactive)
REMARK    1  A    between atoms: N1_2  and  C2_4 
REMARK    2  A    between atoms: C4_6  and  N2_7 
REMARK    3  A    between atoms: N2_7  and  C5_9 
REMARK    4  A    between atoms: C5_9  and  O1_10 
REMARK    5  A    between atoms: C5_9  and  N3_12 
REMARK    6  A    between atoms: N3_12  and  O2_14 
REMARK    7  A    between atoms: C6_17  and  C7_18 
REMARK       I    between atoms: C7_18  and  N4_20 
REMARK    8  A    between atoms: N4_20  and  C8_22 
REMARK    9  A    between atoms: C11_26  and  C12_27 
REMARK       I    between atoms: C12_27  and  N6_29 
REMARK   10  A    between atoms: N6_29  and  C13_31 
REMARK   11  A    between atoms: C13_31  and  C14_32 
REMARK   12  A    between atoms: C13_31  and  C15_35 
REMARK   13  A    between atoms: C15_35  and  O6_36 
REMARK   14  A    between atoms: C15_35  and  N8_38 
REMARK   15  A    between atoms: N8_38  and  C16_40 
REMARK   16  A    between atoms: C16_40  and  C17_41 
REMARK   17  A    between atoms: C16_40  and  C18_44 
ROOT
HETATM    1  C8  UNL     1     -39.854  25.015  -3.945  1.00  0.00     0.109 A 
HETATM    2  C9  UNL     1     -38.935  24.683  -2.995  1.00  0.00     0.076 A 
HETATM    3  C10 UNL     1     -37.760  25.404  -2.745  1.00  0.00     0.067 A 
HETATM    4  N5  UNL     1     -36.848  25.008  -1.744  1.00  0.00    -0.101 NA
HETATM    5  C11 UNL     1     -37.510  26.510  -3.496  1.00  0.00     0.071 A 
HETATM    6  C19 UNL     1     -38.434  26.858  -4.464  1.00  0.00     0.108 A 
HETATM    7  N10 UNL     1     -39.536  26.149  -4.670  1.00  0.00    -0.351 N 
ATOM      8  H10 UNL     1     -40.181  26.456  -5.399  1.00  0.00     0.166 HD
ENDROOT
BRANCH   1   9
HETATM    9  N4  UNL     1     -41.052  24.350  -4.260  1.00  0.00    -0.308 N 
HETATM   10  C7  UNL     1     -42.224  24.963  -4.688  1.00  0.00     0.266 C 
HETATM   11  O3  UNL     1     -42.313  26.191  -4.828  1.00  0.00    -0.267 OA
ATOM     12  H4  UNL     1     -41.061  23.335  -4.167  1.00  0.00     0.170 HD
BRANCH  10  13
HETATM   13  C6  UNL     1     -43.427  24.134  -4.996  1.00  0.00     0.101 A 
HETATM   14  C2  UNL     1     -44.136  23.245  -4.267  1.00  0.00     0.053 A 
HETATM   15  C3  UNL     1     -45.196  22.666  -4.874  1.00  0.00     0.068 A 
HETATM   16  C4  UNL     1     -45.460  23.025  -6.165  1.00  0.00     0.080 A 
HETATM   17  S1  UNL     1     -44.238  24.153  -6.508  1.00  0.00    -0.065 SA
BRANCH  14  18
HETATM   18  N1  UNL     1     -43.792  22.910  -2.894  1.00  0.00    -0.393 N 
HETATM   19  C1  UNL     1     -42.875  21.824  -2.572  1.00  0.00     0.146 C 
ATOM     20  H1  UNL     1     -44.205  23.452  -2.133  1.00  0.00     0.159 HD
ENDBRANCH  14  18
BRANCH  16  21
HETATM   21  N2  UNL     1     -46.527  22.553  -7.019  1.00  0.00    -0.315 N 
ATOM     22  H2  UNL     1     -47.106  23.197  -7.558  1.00  0.00     0.170 HD
BRANCH  21  23
HETATM   23  C5  UNL     1     -46.726  21.154  -7.069  1.00  0.00     0.242 C 
BRANCH  23  24
HETATM   24  O1  UNL     1     -47.947  20.648  -6.670  1.00  0.00    -0.331 OA
ATOM     25  H1  UNL     1     -48.120  19.723  -6.802  1.00  0.00     0.221 HD
ENDBRANCH  23  24
BRANCH  23  26
HETATM   26  N3  UNL     1     -45.816  20.355  -7.470  1.00  0.00    -0.233 N 
ATOM     27  H3  UNL     1     -44.939  20.275  -6.955  1.00  0.00     0.198 HD
BRANCH  26  28
HETATM   28  O2  UNL     1     -46.024  19.605  -8.597  1.00  0.00    -0.287 OA
ATOM     29  H2  UNL     1     -46.586  19.939  -9.285  1.00  0.00     0.244 HD
ENDBRANCH  26  28
ENDBRANCH  23  26
ENDBRANCH  21  23
ENDBRANCH  16  21
ENDBRANCH  10  13
ENDBRANCH   1   9
BRANCH   5  30
HETATM   30  C12 UNL     1     -36.306  27.302  -3.280  1.00  0.00     0.255 C 
HETATM   31  O4  UNL     1     -36.484  28.519  -2.921  1.00  0.00    -0.268 OA
HETATM   32  N6  UNL     1     -35.007  26.801  -3.445  1.00  0.00    -0.340 N 
ATOM     33  H6  UNL     1     -34.849  25.835  -3.729  1.00  0.00     0.163 HD
BRANCH  32  34
HETATM   34  C13 UNL     1     -33.869  27.718  -3.195  1.00  0.00     0.222 C 
BRANCH  34  35
HETATM   35  C14 UNL     1     -33.546  27.740  -1.779  1.00  0.00     0.258 C 
HETATM   36  N7  UNL     1     -33.301  28.966  -1.057  1.00  0.00    -0.060 NA
HETATM   37  O5  UNL     1     -33.476  26.676  -1.127  1.00  0.00    -0.274 OA
ENDBRANCH  34  35
BRANCH  34  38
HETATM   38  C15 UNL     1     -32.849  27.321  -4.191  1.00  0.00     0.246 C 
BRANCH  38  39
HETATM   39  O6  UNL     1     -31.611  27.274  -3.450  1.00  0.00    -0.374 OA
ATOM     40  H6  UNL     1     -31.035  26.729  -3.975  1.00  0.00     0.212 HD
ENDBRANCH  38  39
BRANCH  38  41
HETATM   41  N8  UNL     1     -33.023  26.229  -4.991  1.00  0.00    -0.374 N 
ATOM     42  H8  UNL     1     -33.633  26.308  -5.804  1.00  0.00     0.157 HD
BRANCH  41  43
HETATM   43  C16 UNL     1     -32.396  25.002  -4.737  1.00  0.00     0.271 C 
BRANCH  43  44
HETATM   44  C17 UNL     1     -33.345  23.866  -4.443  1.00  0.00     0.264 C 
HETATM   45  N9  UNL     1     -32.836  22.624  -4.003  1.00  0.00    -0.060 NA
HETATM   46  O7  UNL     1     -34.566  24.017  -4.584  1.00  0.00    -0.274 OA
ENDBRANCH  43  44
BRANCH  43  47
HETATM   47  C18 UNL     1     -31.668  24.636  -6.040  1.00  0.00     0.205 C 
HETATM   48  O8  UNL     1     -30.438  24.626  -6.096  1.00  0.00    -0.646 OA
HETATM   49  O9  UNL     1     -32.454  24.327  -7.118  1.00  0.00    -0.646 OA
ENDBRANCH  43  47
ENDBRANCH  41  43
ENDBRANCH  38  41
ENDBRANCH  34  38
ENDBRANCH  32  34
ENDBRANCH   5  30
TORSDOF 17
ENDMDL
MODEL 3
REMARK VINA RESULT: -7.443397103      2.412      3.538
REMARK  17 active torsions:
REMARK  status: ('A' for Active; 'I' for Inactive)
REMARK    1  A    between atoms: N1_2  and  C2_4 
REMARK    2  A    between atoms: C4_6  and  N2_7 
REMARK    3  A    between atoms: N2_7  and  C5_9 
REMARK    4  A    between atoms: C5_9  and  O1_10 
REMARK    5  A    between atoms: C5_9  and  N3_12 
REMARK    6  A    between atoms: N3_12  and  O2_14 
REMARK    7  A    between atoms: C6_17  and  C7_18 
REMARK       I    between atoms: C7_18  and  N4_20 
REMARK    8  A    between atoms: N4_20  and  C8_22 
REMARK    9  A    between atoms: C11_26  and  C12_27 
REMARK       I    between atoms: C12_27  and  N6_29 
REMARK   10  A    between atoms: N6_29  and  C13_31 
REMARK   11  A    between atoms: C13_31  and  C14_32 
REMARK   12  A    between atoms: C13_31  and  C15_35 
REMARK   13  A    between atoms: C15_35  and  O6_36 
REMARK   14  A    between atoms: C15_35  and  N8_38 
REMARK   15  A    between atoms: N8_38  and  C16_40 
REMARK   16  A    between atoms: C16_40  and  C17_41 
REMARK   17  A    between atoms: C16_40  and  C18_44 
ROOT
HETATM    1  C8  UNL     1     -38.924  25.480  -3.429  1.00  0.00     0.109 A 
HETATM    2  C9  UNL     1     -38.484  26.722  -3.082  1.00  0.00     0.076 A 
HETATM    3  C10 UNL     1     -37.145  27.042  -2.819  1.00  0.00     0.067 A 
HETATM    4  N5  UNL     1     -36.754  28.350  -2.465  1.00  0.00    -0.101 NA
HETATM    5  C11 UNL     1     -36.216  26.054  -2.914  1.00  0.00     0.071 A 
HETATM    6  C19 UNL     1     -36.649  24.789  -3.266  1.00  0.00     0.108 A 
HETATM    7  N10 UNL     1     -37.927  24.525  -3.507  1.00  0.00    -0.351 N 
ATOM      8  H10 UNL     1     -38.185  23.572  -3.763  1.00  0.00     0.166 HD
ENDROOT
BRANCH   1   9
HETATM    9  N4  UNL     1     -40.242  25.075  -3.707  1.00  0.00    -0.308 N 
HETATM   10  C7  UNL     1     -40.721  23.773  -3.613  1.00  0.00     0.266 C 
HETATM   11  O3  UNL     1     -39.997  22.828  -3.267  1.00  0.00    -0.267 OA
ATOM     12  H4  UNL     1     -40.900  25.796  -4.002  1.00  0.00     0.170 HD
BRANCH  10  13
HETATM   13  C6  UNL     1     -42.150  23.482  -3.931  1.00  0.00     0.101 A 
HETATM   14  C2  UNL     1     -43.082  22.710  -3.330  1.00  0.00     0.053 A 
HETATM   15  C3  UNL     1     -44.307  22.678  -3.902  1.00  0.00     0.068 A 
HETATM   16  C4  UNL     1     -44.499  23.423  -5.029  1.00  0.00     0.080 A 
HETATM   17  S1  UNL     1     -42.984  24.149  -5.275  1.00  0.00    -0.065 SA
BRANCH  14  18
HETATM   18  N1  UNL     1     -42.802  21.941  -2.128  1.00  0.00    -0.393 N 
HETATM   19  C1  UNL     1     -42.560  20.504  -2.172  1.00  0.00     0.146 C 
ATOM     20  H1  UNL     1     -42.773  22.421  -1.228  1.00  0.00     0.159 HD
ENDBRANCH  14  18
BRANCH  16  21
HETATM   21  N2  UNL     1     -45.707  23.554  -5.814  1.00  0.00    -0.315 N 
ATOM     22  H2  UNL     1     -46.019  24.458  -6.169  1.00  0.00     0.170 HD
BRANCH  21  23
HETATM   23  C5  UNL     1     -46.433  22.366  -6.063  1.00  0.00     0.242 C 
BRANCH  23  24
HETATM   24  O1  UNL     1     -47.556  22.109  -5.301  1.00  0.00    -0.331 OA
ATOM     25  H1  UNL     1     -48.324  21.754  -5.733  1.00  0.00     0.221 HD
ENDBRANCH  23  24
BRANCH  23  26
HETATM   26  N3  UNL     1     -46.080  21.535  -6.964  1.00  0.00    -0.233 N 
ATOM     27  H3  UNL     1     -46.460  21.609  -7.908  1.00  0.00     0.198 HD
BRANCH  26  28
HETATM   28  O2  UNL     1     -45.190  20.541  -6.655  1.00  0.00    -0.287 OA
ATOM     29  H2  UNL     1     -44.921  19.927  -7.328  1.00  0.00     0.244 HD
ENDBRANCH  26  28
ENDBRANCH  23  26
ENDBRANCH  21  23
ENDBRANCH  16  21
ENDBRANCH  10  13
ENDBRANCH   1   9
BRANCH   5  30
HETATM   30  C12 UNL     1     -34.808  26.327  -2.656  1.00  0.00     0.255 C 
HETATM   31  O4  UNL     1     -34.092  26.631  -3.675  1.00  0.00    -0.268 OA
HETATM   32  N6  UNL     1     -34.227  26.271  -1.382  1.00  0.00    -0.340 N 
ATOM     33  H6  UNL     1     -34.784  26.032  -0.561  1.00  0.00     0.163 HD
BRANCH  32  34
HETATM   34  C13 UNL     1     -32.780  26.570  -1.261  1.00  0.00     0.222 C 
BRANCH  34  35
HETATM   35  C14 UNL     1     -32.582  27.789  -0.497  1.00  0.00     0.258 C 
HETATM   36  N7  UNL     1     -33.099  29.067  -0.925  1.00  0.00    -0.060 NA
HETATM   37  O5  UNL     1     -31.951  27.767   0.581  1.00  0.00    -0.274 OA
ENDBRANCH  34  35
BRANCH  34  38
HETATM   38  C15 UNL     1     -32.176  25.295  -0.810  1.00  0.00     0.246 C 
BRANCH  38  39
HETATM   39  O6  UNL     1     -33.054  24.821   0.233  1.00  0.00    -0.374 OA
ATOM     40  H6  UNL     1     -32.525  24.215   0.737  1.00  0.00     0.212 HD
ENDBRANCH  38  39
BRANCH  38  41
HETATM   41  N8  UNL     1     -31.840  24.315  -1.698  1.00  0.00    -0.374 N 
ATOM     42  H8  UNL     1     -31.862  23.344  -1.389  1.00  0.00     0.157 HD
BRANCH  41  43
HETATM   43  C16 UNL     1     -31.464  24.593  -3.019  1.00  0.00     0.271 C 
BRANCH  43  44
HETATM   44  C17 UNL     1     -30.003  24.356  -3.314  1.00  0.00     0.264 C 
HETATM   45  N9  UNL     1     -29.215  25.407  -3.834  1.00  0.00    -0.060 NA
HETATM   46  O7  UNL     1     -29.492  23.249  -3.101  1.00  0.00    -0.274 OA
ENDBRANCH  43  44
BRANCH  43  47
HETATM   47  C18 UNL     1     -32.250  23.597  -3.887  1.00  0.00     0.205 C 
HETATM   48  O8  UNL     1     -32.982  22.751  -3.373  1.00  0.00    -0.646 OA
HETATM   49  O9  UNL     1     -32.091  23.704  -5.243  1.00  0.00    -0.646 OA
ENDBRANCH  43  47
ENDBRANCH  41  43
ENDBRANCH  38  41
ENDBRANCH  34  38
ENDBRANCH  32  34
ENDBRANCH   5  30
TORSDOF 17
ENDMDL
MODEL 4
REMARK VINA RESULT: -7.394023887      3.112      4.970
REMARK  17 active torsions:
REMARK  status: ('A' for Active; 'I' for Inactive)
REMARK    1  A    between atoms: N1_2  and  C2_4 
REMARK    2  A    between atoms: C4_6  and  N2_7 
REMARK    3  A    between atoms: N2_7  and  C5_9 
REMARK    4  A    between atoms: C5_9  and  O1_10 
REMARK    5  A    between atoms: C5_9  and  N3_12 
REMARK    6  A    between atoms: N3_12  and  O2_14 
REMARK    7  A    between atoms: C6_17  and  C7_18 
REMARK       I    between atoms: C7_18  and  N4_20 
REMARK    8  A    between atoms: N4_20  and  C8_22 
REMARK    9  A    between atoms: C11_26  and  C12_27 
REMARK       I    between atoms: C12_27  and  N6_29 
REMARK   10  A    between atoms: N6_29  and  C13_31 
REMARK   11  A    between atoms: C13_31  and  C14_32 
REMARK   12  A    between atoms: C13_31  and  C15_35 
REMARK   13  A    between atoms: C15_35  and  O6_36 
REMARK   14  A    between atoms: C15_35  and  N8_38 
REMARK   15  A    between atoms: N8_38  and  C16_40 
REMARK   16  A    between atoms: C16_40  and  C17_41 
REMARK   17  A    between atoms: C16_40  and  C18_44 
ROOT
HETATM    1  C8  UNL     1     -38.620  25.330  -2.879  1.00  0.00     0.109 A 
HETATM    2  C9  UNL     1     -38.166  26.611  -2.784  1.00  0.00     0.076 A 
HETATM    3  C10 UNL     1     -36.824  26.962  -2.584  1.00  0.00     0.067 A 
HETATM    4  N5  UNL     1     -36.417  28.311  -2.495  1.00  0.00    -0.101 NA
HETATM    5  C11 UNL     1     -35.906  25.964  -2.477  1.00  0.00     0.071 A 
HETATM    6  C19 UNL     1     -36.353  24.660  -2.571  1.00  0.00     0.108 A 
HETATM    7  N10 UNL     1     -37.634  24.368  -2.761  1.00  0.00    -0.351 N 
ATOM      8  H10 UNL     1     -37.903  23.386  -2.823  1.00  0.00     0.166 HD
ENDROOT
BRANCH   1   9
HETATM    9  N4  UNL     1     -39.942  24.893  -3.077  1.00  0.00    -0.308 N 
HETATM   10  C7  UNL     1     -40.319  23.785  -3.827  1.00  0.00     0.266 C 
HETATM   11  O3  UNL     1     -39.491  23.069  -4.408  1.00  0.00    -0.267 OA
ATOM     12  H4  UNL     1     -40.684  25.434  -2.634  1.00  0.00     0.170 HD
BRANCH  10  13
HETATM   13  C6  UNL     1     -41.763  23.427  -3.950  1.00  0.00     0.101 A 
HETATM   14  C2  UNL     1     -42.563  22.597  -3.246  1.00  0.00     0.053 A 
HETATM   15  C3  UNL     1     -43.854  22.514  -3.640  1.00  0.00     0.068 A 
HETATM   16  C4  UNL     1     -44.239  23.271  -4.708  1.00  0.00     0.080 A 
HETATM   17  S1  UNL     1     -42.811  24.079  -5.144  1.00  0.00    -0.065 SA
BRANCH  14  18
HETATM   18  N1  UNL     1     -42.079  21.817  -2.117  1.00  0.00    -0.393 N 
HETATM   19  C1  UNL     1     -42.465  20.426  -1.919  1.00  0.00     0.146 C 
ATOM     20  H1  UNL     1     -41.450  22.257  -1.444  1.00  0.00     0.159 HD
ENDBRANCH  14  18
BRANCH  16  21
HETATM   21  N2  UNL     1     -45.551  23.357  -5.311  1.00  0.00    -0.315 N 
ATOM     22  H2  UNL     1     -46.094  24.220  -5.293  1.00  0.00     0.170 HD
BRANCH  21  23
HETATM   23  C5  UNL     1     -46.043  22.183  -5.927  1.00  0.00     0.242 C 
BRANCH  23  24
HETATM   24  O1  UNL     1     -47.284  21.710  -5.547  1.00  0.00    -0.331 OA
ATOM     25  H1  UNL     1     -47.439  20.773  -5.572  1.00  0.00     0.221 HD
ENDBRANCH  23  24
BRANCH  23  26
HETATM   26  N3  UNL     1     -45.377  21.556  -6.816  1.00  0.00    -0.233 N 
ATOM     27  H3  UNL     1     -45.345  21.903  -7.774  1.00  0.00     0.198 HD
BRANCH  26  28
HETATM   28  O2  UNL     1     -44.705  20.412  -6.475  1.00  0.00    -0.287 OA
ATOM     29  H2  UNL     1     -44.794  19.637  -7.016  1.00  0.00     0.244 HD
ENDBRANCH  26  28
ENDBRANCH  23  26
ENDBRANCH  21  23
ENDBRANCH  16  21
ENDBRANCH  10  13
ENDBRANCH   1   9
BRANCH   5  30
HETATM   30  C12 UNL     1     -34.496  26.267  -2.272  1.00  0.00     0.255 C 
HETATM   31  O4  UNL     1     -33.778  26.374  -3.328  1.00  0.00    -0.268 OA
HETATM   32  N6  UNL     1     -33.914  26.440  -1.008  1.00  0.00    -0.340 N 
ATOM     33  H6  UNL     1     -34.472  26.360  -0.158  1.00  0.00     0.163 HD
BRANCH  32  34
HETATM   34  C13 UNL     1     -32.465  26.743  -0.943  1.00  0.00     0.222 C 
BRANCH  34  35
HETATM   35  C14 UNL     1     -32.246  28.005  -0.259  1.00  0.00     0.258 C 
HETATM   36  N7  UNL     1     -31.109  28.238   0.600  1.00  0.00    -0.060 NA
HETATM   37  O5  UNL     1     -33.050  28.952  -0.401  1.00  0.00    -0.274 OA
ENDBRANCH  34  35
BRANCH  34  38
HETATM   38  C15 UNL     1     -31.849  25.496  -0.432  1.00  0.00     0.246 C 
BRANCH  38  39
HETATM   39  O6  UNL     1     -30.428  25.705  -0.572  1.00  0.00    -0.374 OA
ATOM     40  H6  UNL     1     -30.082  24.856  -0.822  1.00  0.00     0.212 HD
ENDBRANCH  38  39
BRANCH  38  41
HETATM   41  N8  UNL     1     -32.187  24.985   0.787  1.00  0.00    -0.374 N 
ATOM     42  H8  UNL     1     -32.995  24.367   0.853  1.00  0.00     0.157 HD
BRANCH  41  43
HETATM   43  C16 UNL     1     -31.466  25.278   1.952  1.00  0.00     0.271 C 
BRANCH  43  44
HETATM   44  C17 UNL     1     -32.322  25.559   3.161  1.00  0.00     0.264 C 
HETATM   45  N9  UNL     1     -31.744  26.150   4.307  1.00  0.00    -0.060 NA
HETATM   46  O7  UNL     1     -33.528  25.278   3.154  1.00  0.00    -0.274 OA
ENDBRANCH  43  44
BRANCH  43  47
HETATM   47  C18 UNL     1     -30.667  24.003   2.271  1.00  0.00     0.205 C 
HETATM   48  O8  UNL     1     -29.897  23.516   1.443  1.00  0.00    -0.646 OA
HETATM   49  O9  UNL     1     -30.859  23.450   3.509  1.00  0.00    -0.646 OA
ENDBRANCH  43  47
ENDBRANCH  41  43
ENDBRANCH  38  41
ENDBRANCH  34  38
ENDBRANCH  32  34
ENDBRANCH   5  30
TORSDOF 17
ENDMDL
MODEL 5
REMARK VINA RESULT: -7.310063933      3.252      5.180
REMARK  17 active torsions:
REMARK  status: ('A' for Active; 'I' for Inactive)
REMARK    1  A    between atoms: N1_2  and  C2_4 
REMARK    2  A    between atoms: C4_6  and  N2_7 
REMARK    3  A    between atoms: N2_7  and  C5_9 
REMARK    4  A    between atoms: C5_9  and  O1_10 
REMARK    5  A    between atoms: C5_9  and  N3_12 
REMARK    6  A    between atoms: N3_12  and  O2_14 
REMARK    7  A    between atoms: C6_17  and  C7_18 
REMARK       I    between atoms: C7_18  and  N4_20 
REMARK    8  A    between atoms: N4_20  and  C8_22 
REMARK    9  A    between atoms: C11_26  and  C12_27 
REMARK       I    between atoms: C12_27  and  N6_29 
REMARK   10  A    between atoms: N6_29  and  C13_31 
REMARK   11  A    between atoms: C13_31  and  C14_32 
REMARK   12  A    between atoms: C13_31  and  C15_35 
REMARK   13  A    between atoms: C15_35  and  O6_36 
REMARK   14  A    between atoms: C15_35  and  N8_38 
REMARK   15  A    between atoms: N8_38  and  C16_40 
REMARK   16  A    between atoms: C16_40  and  C17_41 
REMARK   17  A    between atoms: C16_40  and  C18_44 
ROOT
HETATM    1  C8  UNL     1     -38.683  25.229  -2.748  1.00  0.00     0.109 A 
HETATM    2  C9  UNL     1     -38.148  26.482  -2.746  1.00  0.00     0.076 A 
HETATM    3  C10 UNL     1     -36.794  26.764  -2.516  1.00  0.00     0.067 A 
HETATM    4  N5  UNL     1     -36.301  28.085  -2.528  1.00  0.00    -0.101 NA
HETATM    5  C11 UNL     1     -35.951  25.723  -2.276  1.00  0.00     0.071 A 
HETATM    6  C19 UNL     1     -36.482  24.446  -2.276  1.00  0.00     0.108 A 
HETATM    7  N10 UNL     1     -37.770  24.221  -2.499  1.00  0.00    -0.351 N 
ATOM      8  H10 UNL     1     -38.103  23.257  -2.486  1.00  0.00     0.166 HD
ENDROOT
BRANCH   1   9
HETATM    9  N4  UNL     1     -40.022  24.861  -2.968  1.00  0.00    -0.308 N 
HETATM   10  C7  UNL     1     -40.445  23.796  -3.756  1.00  0.00     0.266 C 
HETATM   11  O3  UNL     1     -39.647  23.061  -4.354  1.00  0.00    -0.267 OA
ATOM     12  H4  UNL     1     -40.742  25.421  -2.512  1.00  0.00     0.170 HD
BRANCH  10  13
HETATM   13  C6  UNL     1     -41.903  23.510  -3.900  1.00  0.00     0.101 A 
HETATM   14  C2  UNL     1     -42.753  22.719  -3.208  1.00  0.00     0.053 A 
HETATM   15  C3  UNL     1     -44.040  22.701  -3.620  1.00  0.00     0.068 A 
HETATM   16  C4  UNL     1     -44.373  23.478  -4.692  1.00  0.00     0.080 A 
HETATM   17  S1  UNL     1     -42.901  24.214  -5.106  1.00  0.00    -0.065 SA
BRANCH  14  18
HETATM   18  N1  UNL     1     -42.323  21.916  -2.074  1.00  0.00    -0.393 N 
HETATM   19  C1  UNL     1     -42.520  20.472  -2.034  1.00  0.00     0.146 C 
ATOM     20  H1  UNL     1     -41.871  22.376  -1.284  1.00  0.00     0.159 HD
ENDBRANCH  14  18
BRANCH  16  21
HETATM   21  N2  UNL     1     -45.670  23.629  -5.312  1.00  0.00    -0.315 N 
ATOM     22  H2  UNL     1     -46.119  24.541  -5.401  1.00  0.00     0.170 HD
BRANCH  21  23
HETATM   23  C5  UNL     1     -46.286  22.449  -5.790  1.00  0.00     0.242 C 
BRANCH  23  24
HETATM   24  O1  UNL     1     -47.450  22.021  -5.182  1.00  0.00    -0.331 OA
ATOM     25  H1  UNL     1     -47.408  21.274  -4.597  1.00  0.00     0.221 HD
ENDBRANCH  23  24
BRANCH  23  26
HETATM   26  N3  UNL     1     -45.798  21.775  -6.757  1.00  0.00    -0.233 N 
ATOM     27  H3  UNL     1     -45.865  22.127  -7.712  1.00  0.00     0.198 HD
BRANCH  26  28
HETATM   28  O2  UNL     1     -45.184  20.577  -6.505  1.00  0.00    -0.287 OA
ATOM     29  H2  UNL     1     -44.338  20.566  -6.074  1.00  0.00     0.244 HD
ENDBRANCH  26  28
ENDBRANCH  23  26
ENDBRANCH  21  23
ENDBRANCH  16  21
ENDBRANCH  10  13
ENDBRANCH   1   9
BRANCH   5  30
HETATM   30  C12 UNL     1     -34.533  25.953  -2.033  1.00  0.00     0.255 C 
HETATM   31  O4  UNL     1     -33.733  25.607  -2.972  1.00  0.00    -0.268 OA
HETATM   32  N6  UNL     1     -34.029  26.518  -0.854  1.00  0.00    -0.340 N 
ATOM     33  H6  UNL     1     -34.654  26.800  -0.098  1.00  0.00     0.163 HD
BRANCH  32  34
HETATM   34  C13 UNL     1     -32.562  26.694  -0.736  1.00  0.00     0.222 C 
BRANCH  34  35
HETATM   35  C14 UNL     1     -32.249  28.064  -0.371  1.00  0.00     0.258 C 
HETATM   36  N7  UNL     1     -30.957  28.458   0.138  1.00  0.00    -0.060 NA
HETATM   37  O5  UNL     1     -33.106  28.966  -0.495  1.00  0.00    -0.274 OA
ENDBRANCH  34  35
BRANCH  34  38
HETATM   38  C15 UNL     1     -32.123  25.570   0.122  1.00  0.00     0.246 C 
BRANCH  38  39
HETATM   39  O6  UNL     1     -31.585  24.595  -0.797  1.00  0.00    -0.374 OA
ATOM     40  H6  UNL     1     -32.200  23.872  -0.770  1.00  0.00     0.212 HD
ENDBRANCH  38  39
BRANCH  38  41
HETATM   41  N8  UNL     1     -31.314  25.774   1.203  1.00  0.00    -0.374 N 
ATOM     42  H8  UNL     1     -30.603  26.503   1.152  1.00  0.00     0.157 HD
BRANCH  41  43
HETATM   43  C16 UNL     1     -31.425  25.022   2.378  1.00  0.00     0.271 C 
BRANCH  43  44
HETATM   44  C17 UNL     1     -30.408  23.915   2.508  1.00  0.00     0.264 C 
HETATM   45  N9  UNL     1     -30.087  23.404   3.786  1.00  0.00    -0.060 NA
HETATM   46  O7  UNL     1     -29.856  23.450   1.502  1.00  0.00    -0.274 OA
ENDBRANCH  43  44
BRANCH  43  47
HETATM   47  C18 UNL     1     -31.144  26.007   3.524  1.00  0.00     0.205 C 
HETATM   48  O8  UNL     1     -30.216  26.812   3.453  1.00  0.00    -0.646 OA
HETATM   49  O9  UNL     1     -31.973  25.937   4.613  1.00  0.00    -0.646 OA
ENDBRANCH  43  47
ENDBRANCH  41  43
ENDBRANCH  38  41
ENDBRANCH  34  38
ENDBRANCH  32  34
ENDBRANCH   5  30
TORSDOF 17
ENDMDL
