MODEL 1
REMARK VINA RESULT: -7.731720644      0.000      0.000
REMARK  22 active torsions:
REMARK  status: ('A' for Active; 'I' for Inactive)
REMARK    1  A    between atoms: N1_1  and  C1_5 
REMARK    2  A    between atoms: C1_5  and  O1_6 
REMARK    3  A    between atoms: C1_5  and  C2_8 
REMARK    4  A    between atoms: C3_9  and  O2_10 
REMARK    5  A    between atoms: C4_14  and  C5_15 
REMARK    6  A    between atoms: C5_15  and  O3_16 
REMARK    7  A    between atoms: C5_15  and  O4_18 
REMARK    8  A    between atoms: C7_21  and  N3_22 
REMARK    9  A    between atoms: N3_22  and  C8_23 
REMARK   10  A    between atoms: C8_23  and  C9_24 
REMARK   11  A    between atoms: C8_23  and  C24_52 
REMARK   12  A    between atoms: C9_24  and  O5_25 
REMARK   13  A    between atoms: O5_25  and  C10_26 
REMARK   14  A    between atoms: C10_26  and  N4_27 
REMARK   15  A    between atoms: C10_26  and  C11_31 
REMARK   16  A    between atoms: C14_34  and  C15_35 
REMARK   17  A    between atoms: C15_35  and  N5_36 
REMARK   18  A    between atoms: N5_36  and  C16_38 
REMARK   19  A    between atoms: C17_39  and  O6_40 
REMARK   20  A    between atoms: C22_48  and  O9_49 
REMARK   21  A    between atoms: C24_52  and  O10_53 
REMARK   22  A    between atoms: C24_52  and  O11_55 
ROOT
HETATM    1  C8  UNL     1     -39.872  23.787  -4.590  1.00  0.00     0.241 C 
ENDROOT
BRANCH   1   2
HETATM    2  N3  UNL     1     -41.217  23.823  -4.460  1.00  0.00    -0.435 NA
BRANCH   2   3
HETATM    3  C7  UNL     1     -42.399  24.022  -4.711  1.00  0.00     0.117 A 
HETATM    4  C2  UNL     1     -43.416  23.431  -3.949  1.00  0.00     0.088 A 
HETATM    5  C3  UNL     1     -44.711  23.712  -4.271  1.00  0.00     0.154 A 
HETATM    6  N2  UNL     1     -45.053  24.521  -5.297  1.00  0.00    -0.336 N 
HETATM    7  C4  UNL     1     -44.134  25.098  -6.042  1.00  0.00     0.069 A 
ATOM      8  H2  UNL     1     -46.039  24.688  -5.498  1.00  0.00     0.168 HD
HETATM    9  C6  UNL     1     -42.801  24.845  -5.742  1.00  0.00     0.075 A 
BRANCH   4  10
HETATM   10  C1  UNL     1     -43.156  22.502  -2.779  1.00  0.00     0.358 C 
BRANCH  10  11
HETATM   11  N1  UNL     1     -42.331  21.375  -3.384  1.00  0.00    -0.049 N 
ATOM     12  H13 UNL     1     -41.371  21.272  -3.057  1.00  0.00     0.277 HD
ATOM     13  H12 UNL     1     -42.581  20.421  -3.123  1.00  0.00     0.277 HD
ATOM     14  H11 UNL     1     -42.466  21.642  -4.359  1.00  0.00     0.277 HD
ENDBRANCH  10  11
BRANCH  10  15
HETATM   15  O1  UNL     1     -42.081  23.119  -2.050  1.00  0.00    -0.366 OA
ATOM     16  H1  UNL     1     -42.548  23.913  -1.819  1.00  0.00     0.212 HD
ENDBRANCH  10  15
ENDBRANCH   4  10
BRANCH   5  17
HETATM   17  O2  UNL     1     -45.745  23.127  -3.486  1.00  0.00    -0.345 OA
ATOM     18  H2  UNL     1     -46.639  23.188  -3.800  1.00  0.00     0.219 HD
ENDBRANCH   5  17
BRANCH   7  19
HETATM   19  C5  UNL     1     -44.506  26.029  -7.173  1.00  0.00     0.305 C 
BRANCH  19  20
HETATM   20  O3  UNL     1     -43.352  26.249  -7.984  1.00  0.00    -0.366 OA
ATOM     21  H3  UNL     1     -43.601  26.777  -8.732  1.00  0.00     0.213 HD
ENDBRANCH  19  20
BRANCH  19  22
HETATM   22  O4  UNL     1     -45.430  25.480  -8.010  1.00  0.00    -0.366 OA
ATOM     23  H4  UNL     1     -45.973  26.138  -8.427  1.00  0.00     0.213 HD
ENDBRANCH  19  22
ENDBRANCH   7  19
ENDBRANCH   2   3
ENDBRANCH   1   2
BRANCH   1  24
HETATM   24  C9  UNL     1     -39.127  25.093  -4.179  1.00  0.00     0.215 C 
BRANCH  24  25
HETATM   25  O5  UNL     1     -39.019  25.107  -2.791  1.00  0.00    -0.352 OA
BRANCH  25  26
HETATM   26  C10 UNL     1     -38.640  26.419  -2.331  1.00  0.00     0.353 C 
BRANCH  26  27
HETATM   27  N4  UNL     1     -39.035  27.351  -3.315  1.00  0.00    -0.049 N 
ATOM     28  H43 UNL     1     -40.044  27.497  -3.339  1.00  0.00     0.277 HD
ATOM     29  H42 UNL     1     -38.764  28.307  -3.084  1.00  0.00     0.277 HD
ATOM     30  H41 UNL     1     -38.659  27.038  -4.210  1.00  0.00     0.277 HD
ENDBRANCH  26  27
BRANCH  26  31
HETATM   31  C11 UNL     1     -37.109  26.287  -2.350  1.00  0.00    -0.000 A 
HETATM   32  C12 UNL     1     -36.349  27.316  -2.840  1.00  0.00     0.012 A 
HETATM   33  C13 UNL     1     -34.963  27.315  -2.773  1.00  0.00     0.016 A 
HETATM   34  C14 UNL     1     -34.401  26.216  -2.183  1.00  0.00     0.012 A 
HETATM   35  C22 UNL     1     -35.148  25.132  -1.678  1.00  0.00     0.077 A 
HETATM   36  C23 UNL     1     -36.517  25.212  -1.782  1.00  0.00     0.049 A 
BRANCH  34  37
HETATM   37  C15 UNL     1     -32.999  26.232  -1.643  1.00  0.00     0.102 C 
BRANCH  37  38
HETATM   38  N5  UNL     1     -32.036  25.549  -2.387  1.00  0.00    -0.359 N 
ATOM     39  H5  UNL     1     -31.245  25.144  -1.887  1.00  0.00     0.165 HD
BRANCH  38  40
HETATM   40  C16 UNL     1     -32.088  25.381  -3.806  1.00  0.00     0.120 A 
HETATM   41  C17 UNL     1     -31.766  26.285  -4.673  1.00  0.00     0.147 A 
HETATM   42  C18 UNL     1     -31.811  26.095  -6.152  1.00  0.00     0.207 A 
HETATM   43  O7  UNL     1     -31.484  27.006  -6.942  1.00  0.00    -0.285 OA
HETATM   44  C19 UNL     1     -32.268  24.755  -6.587  1.00  0.00     0.062 A 
HETATM   45  C20 UNL     1     -32.598  23.802  -5.753  1.00  0.00     0.061 A 
HETATM   46  C21 UNL     1     -32.532  24.039  -4.321  1.00  0.00     0.201 A 
HETATM   47  O8  UNL     1     -32.827  23.172  -3.473  1.00  0.00    -0.286 OA
BRANCH  41  48
HETATM   48  O6  UNL     1     -31.354  27.524  -4.260  1.00  0.00    -0.355 OA
ATOM     49  H6  UNL     1     -30.948  28.124  -4.874  1.00  0.00     0.218 HD
ENDBRANCH  41  48
ENDBRANCH  38  40
ENDBRANCH  37  38
ENDBRANCH  34  37
BRANCH  35  50
HETATM   50  O9  UNL     1     -34.460  24.062  -1.139  1.00  0.00    -0.360 OA
ATOM     51  H9  UNL     1     -34.952  23.416  -0.645  1.00  0.00     0.217 HD
ENDBRANCH  35  50
ENDBRANCH  26  31
ENDBRANCH  25  26
ENDBRANCH  24  25
ENDBRANCH   1  24
BRANCH   1  52
HETATM   52  C24 UNL     1     -39.036  22.659  -4.029  1.00  0.00     0.291 C 
BRANCH  52  53
HETATM   53  O10 UNL     1     -39.437  22.218  -2.803  1.00  0.00    -0.368 OA
ATOM     54  H10 UNL     1     -40.379  22.193  -2.687  1.00  0.00     0.212 HD
ENDBRANCH  52  53
BRANCH  52  55
HETATM   55  O11 UNL     1     -37.668  22.901  -4.108  1.00  0.00    -0.368 OA
ATOM     56  H11 UNL     1     -37.241  22.908  -3.260  1.00  0.00     0.212 HD
ENDBRANCH  52  55
ENDBRANCH   1  52
TORSDOF 22
ENDMDL
MODEL 2
REMARK VINA RESULT: -7.692377224      2.642      4.327
REMARK  22 active torsions:
REMARK  status: ('A' for Active; 'I' for Inactive)
REMARK    1  A    between atoms: N1_1  and  C1_5 
REMARK    2  A    between atoms: C1_5  and  O1_6 
REMARK    3  A    between atoms: C1_5  and  C2_8 
REMARK    4  A    between atoms: C3_9  and  O2_10 
REMARK    5  A    between atoms: C4_14  and  C5_15 
REMARK    6  A    between atoms: C5_15  and  O3_16 
REMARK    7  A    between atoms: C5_15  and  O4_18 
REMARK    8  A    between atoms: C7_21  and  N3_22 
REMARK    9  A    between atoms: N3_22  and  C8_23 
REMARK   10  A    between atoms: C8_23  and  C9_24 
REMARK   11  A    between atoms: C8_23  and  C24_52 
REMARK   12  A    between atoms: C9_24  and  O5_25 
REMARK   13  A    between atoms: O5_25  and  C10_26 
REMARK   14  A    between atoms: C10_26  and  N4_27 
REMARK   15  A    between atoms: C10_26  and  C11_31 
REMARK   16  A    between atoms: C14_34  and  C15_35 
REMARK   17  A    between atoms: C15_35  and  N5_36 
REMARK   18  A    between atoms: N5_36  and  C16_38 
REMARK   19  A    between atoms: C17_39  and  O6_40 
REMARK   20  A    between atoms: C22_48  and  O9_49 
REMARK   21  A    between atoms: C24_52  and  O10_53 
REMARK   22  A    between atoms: C24_52  and  O11_55 
ROOT
HETATM    1  C8  UNL     1     -39.793  24.114  -4.158  1.00  0.00     0.241 C 
ENDROOT
BRANCH   1   2
HETATM    2  N3  UNL     1     -41.125  23.929  -4.302  1.00  0.00    -0.435 NA
BRANCH   2   3
HETATM    3  C7  UNL     1     -42.284  24.093  -4.663  1.00  0.00     0.117 A 
HETATM    4  C2  UNL     1     -43.346  23.449  -4.016  1.00  0.00     0.088 A 
HETATM    5  C3  UNL     1     -44.614  23.692  -4.455  1.00  0.00     0.154 A 
HETATM    6  N2  UNL     1     -44.885  24.514  -5.492  1.00  0.00    -0.336 N 
HETATM    7  C4  UNL     1     -43.921  25.140  -6.132  1.00  0.00     0.069 A 
ATOM      8  H2  UNL     1     -45.853  24.652  -5.784  1.00  0.00     0.168 HD
HETATM    9  C6  UNL     1     -42.615  24.926  -5.710  1.00  0.00     0.075 A 
BRANCH   4  10
HETATM   10  C1  UNL     1     -43.166  22.501  -2.846  1.00  0.00     0.358 C 
BRANCH  10  11
HETATM   11  N1  UNL     1     -42.304  21.381  -3.412  1.00  0.00    -0.049 N 
ATOM     12  H13 UNL     1     -41.407  21.208  -2.960  1.00  0.00     0.277 HD
ATOM     13  H12 UNL     1     -42.626  20.424  -3.265  1.00  0.00     0.277 HD
ATOM     14  H11 UNL     1     -42.285  21.724  -4.373  1.00  0.00     0.277 HD
ENDBRANCH  10  11
BRANCH  10  15
HETATM   15  O1  UNL     1     -42.141  23.103  -2.037  1.00  0.00    -0.366 OA
ATOM     16  H1  UNL     1     -41.497  23.196  -2.729  1.00  0.00     0.212 HD
ENDBRANCH  10  15
ENDBRANCH   4  10
BRANCH   5  17
HETATM   17  O2  UNL     1     -45.696  23.054  -3.787  1.00  0.00    -0.345 OA
ATOM     18  H2  UNL     1     -46.526  22.975  -4.243  1.00  0.00     0.219 HD
ENDBRANCH   5  17
BRANCH   7  19
HETATM   19  C5  UNL     1     -44.217  26.086  -7.274  1.00  0.00     0.305 C 
BRANCH  19  20
HETATM   20  O3  UNL     1     -43.008  26.328  -7.993  1.00  0.00    -0.366 OA
ATOM     21  H3  UNL     1     -43.141  27.068  -8.573  1.00  0.00     0.213 HD
ENDBRANCH  19  20
BRANCH  19  22
HETATM   22  O4  UNL     1     -45.069  25.541  -8.186  1.00  0.00    -0.366 OA
ATOM     23  H4  UNL     1     -44.773  25.676  -9.079  1.00  0.00     0.213 HD
ENDBRANCH  19  22
ENDBRANCH   7  19
ENDBRANCH   2   3
ENDBRANCH   1   2
BRANCH   1  24
HETATM   24  C9  UNL     1     -39.375  25.480  -3.533  1.00  0.00     0.215 C 
BRANCH  24  25
HETATM   25  O5  UNL     1     -38.014  25.658  -3.763  1.00  0.00    -0.352 OA
BRANCH  25  26
HETATM   26  C10 UNL     1     -37.586  26.941  -3.266  1.00  0.00     0.353 C 
BRANCH  26  27
HETATM   27  N4  UNL     1     -37.442  27.806  -4.373  1.00  0.00    -0.049 N 
ATOM     28  H43 UNL     1     -38.309  27.927  -4.896  1.00  0.00     0.277 HD
ATOM     29  H42 UNL     1     -37.311  28.780  -4.099  1.00  0.00     0.277 HD
ATOM     30  H41 UNL     1     -36.679  27.450  -4.949  1.00  0.00     0.277 HD
ENDBRANCH  26  27
BRANCH  26  31
HETATM   31  C11 UNL     1     -36.194  26.579  -2.727  1.00  0.00    -0.000 A 
HETATM   32  C12 UNL     1     -35.209  27.530  -2.708  1.00  0.00     0.012 A 
HETATM   33  C13 UNL     1     -33.970  27.309  -2.123  1.00  0.00     0.016 A 
HETATM   34  C14 UNL     1     -33.795  26.074  -1.562  1.00  0.00     0.012 A 
HETATM   35  C22 UNL     1     -34.779  25.064  -1.572  1.00  0.00     0.077 A 
HETATM   36  C23 UNL     1     -35.980  25.366  -2.171  1.00  0.00     0.049 A 
BRANCH  34  37
HETATM   37  C15 UNL     1     -32.729  25.808  -0.538  1.00  0.00     0.102 C 
BRANCH  37  38
HETATM   38  N5  UNL     1     -33.109  25.920   0.801  1.00  0.00    -0.359 N 
ATOM     39  H5  UNL     1     -34.105  25.908   1.017  1.00  0.00     0.165 HD
BRANCH  38  40
HETATM   40  C16 UNL     1     -32.190  26.051   1.888  1.00  0.00     0.120 A 
HETATM   41  C17 UNL     1     -31.789  25.081   2.642  1.00  0.00     0.147 A 
HETATM   42  C18 UNL     1     -30.818  25.226   3.766  1.00  0.00     0.207 A 
HETATM   43  O7  UNL     1     -30.465  24.248   4.460  1.00  0.00    -0.285 OA
HETATM   44  C19 UNL     1     -30.323  26.605   3.978  1.00  0.00     0.062 A 
HETATM   45  C20 UNL     1     -30.690  27.622   3.240  1.00  0.00     0.061 A 
HETATM   46  C21 UNL     1     -31.635  27.424   2.154  1.00  0.00     0.201 A 
HETATM   47  O8  UNL     1     -32.021  28.349   1.411  1.00  0.00    -0.286 OA
BRANCH  41  48
HETATM   48  O6  UNL     1     -32.261  23.810   2.444  1.00  0.00    -0.355 OA
ATOM     49  H6  UNL     1     -31.673  23.066   2.498  1.00  0.00     0.218 HD
ENDBRANCH  41  48
ENDBRANCH  38  40
ENDBRANCH  37  38
ENDBRANCH  34  37
BRANCH  35  50
HETATM   50  O9  UNL     1     -34.466  23.843  -1.005  1.00  0.00    -0.360 OA
ATOM     51  H9  UNL     1     -33.684  23.396  -1.306  1.00  0.00     0.217 HD
ENDBRANCH  35  50
ENDBRANCH  26  31
ENDBRANCH  25  26
ENDBRANCH  24  25
ENDBRANCH   1  24
BRANCH   1  52
HETATM   52  C24 UNL     1     -38.900  23.086  -3.501  1.00  0.00     0.291 C 
BRANCH  52  53
HETATM   53  O10 UNL     1     -37.783  22.775  -4.216  1.00  0.00    -0.368 OA
ATOM     54  H10 UNL     1     -37.351  23.523  -4.611  1.00  0.00     0.212 HD
ENDBRANCH  52  53
BRANCH  52  55
HETATM   55  O11 UNL     1     -39.594  21.969  -3.047  1.00  0.00    -0.368 OA
ATOM     56  H11 UNL     1     -40.038  22.116  -2.220  1.00  0.00     0.212 HD
ENDBRANCH  52  55
ENDBRANCH   1  52
TORSDOF 22
ENDMDL
MODEL 3
REMARK VINA RESULT: -7.608574267      3.069      5.305
REMARK  22 active torsions:
REMARK  status: ('A' for Active; 'I' for Inactive)
REMARK    1  A    between atoms: N1_1  and  C1_5 
REMARK    2  A    between atoms: C1_5  and  O1_6 
REMARK    3  A    between atoms: C1_5  and  C2_8 
REMARK    4  A    between atoms: C3_9  and  O2_10 
REMARK    5  A    between atoms: C4_14  and  C5_15 
REMARK    6  A    between atoms: C5_15  and  O3_16 
REMARK    7  A    between atoms: C5_15  and  O4_18 
REMARK    8  A    between atoms: C7_21  and  N3_22 
REMARK    9  A    between atoms: N3_22  and  C8_23 
REMARK   10  A    between atoms: C8_23  and  C9_24 
REMARK   11  A    between atoms: C8_23  and  C24_52 
REMARK   12  A    between atoms: C9_24  and  O5_25 
REMARK   13  A    between atoms: O5_25  and  C10_26 
REMARK   14  A    between atoms: C10_26  and  N4_27 
REMARK   15  A    between atoms: C10_26  and  C11_31 
REMARK   16  A    between atoms: C14_34  and  C15_35 
REMARK   17  A    between atoms: C15_35  and  N5_36 
REMARK   18  A    between atoms: N5_36  and  C16_38 
REMARK   19  A    between atoms: C17_39  and  O6_40 
REMARK   20  A    between atoms: C22_48  and  O9_49 
REMARK   21  A    between atoms: C24_52  and  O10_53 
REMARK   22  A    between atoms: C24_52  and  O11_55 
ROOT
HETATM    1  C8  UNL     1     -39.777  27.379  -5.186  1.00  0.00     0.241 C 
ENDROOT
BRANCH   1   2
HETATM    2  N3  UNL     1     -40.068  26.225  -4.545  1.00  0.00    -0.435 NA
BRANCH   2   3
HETATM    3  C7  UNL     1     -40.519  25.108  -4.319  1.00  0.00     0.117 A 
HETATM    4  C2  UNL     1     -39.703  24.078  -3.833  1.00  0.00     0.088 A 
HETATM    5  C3  UNL     1     -40.274  22.865  -3.582  1.00  0.00     0.154 A 
HETATM    6  N2  UNL     1     -41.584  22.613  -3.796  1.00  0.00    -0.336 N 
HETATM    7  C4  UNL     1     -42.389  23.547  -4.253  1.00  0.00     0.069 A 
ATOM      8  H2  UNL     1     -41.954  21.684  -3.599  1.00  0.00     0.168 HD
HETATM    9  C6  UNL     1     -41.849  24.801  -4.513  1.00  0.00     0.075 A 
BRANCH   4  10
HETATM   10  C1  UNL     1     -38.220  24.240  -3.560  1.00  0.00     0.358 C 
BRANCH  10  11
HETATM   11  N1  UNL     1     -38.067  23.809  -2.108  1.00  0.00    -0.049 N 
ATOM     12  H13 UNL     1     -37.357  23.107  -1.902  1.00  0.00     0.277 HD
ATOM     13  H12 UNL     1     -37.665  24.487  -1.460  1.00  0.00     0.277 HD
ATOM     14  H11 UNL     1     -39.042  23.544  -1.962  1.00  0.00     0.277 HD
ENDBRANCH  10  11
BRANCH  10  15
HETATM   15  O1  UNL     1     -37.608  23.077  -4.142  1.00  0.00    -0.366 OA
ATOM     16  H1  UNL     1     -38.327  22.855  -4.722  1.00  0.00     0.212 HD
ENDBRANCH  10  15
ENDBRANCH   4  10
BRANCH   5  17
HETATM   17  O2  UNL     1     -39.451  21.823  -3.070  1.00  0.00    -0.345 OA
ATOM     18  H2  UNL     1     -39.403  21.006  -3.553  1.00  0.00     0.219 HD
ENDBRANCH   5  17
BRANCH   7  19
HETATM   19  C5  UNL     1     -43.862  23.284  -4.466  1.00  0.00     0.305 C 
BRANCH  19  20
HETATM   20  O3  UNL     1     -44.022  21.961  -4.976  1.00  0.00    -0.366 OA
ATOM     21  H3  UNL     1     -44.326  22.014  -5.874  1.00  0.00     0.213 HD
ENDBRANCH  19  20
BRANCH  19  22
HETATM   22  O4  UNL     1     -44.563  23.302  -3.298  1.00  0.00    -0.366 OA
ATOM     23  H4  UNL     1     -45.002  22.477  -3.131  1.00  0.00     0.213 HD
ENDBRANCH  19  22
ENDBRANCH   7  19
ENDBRANCH   2   3
ENDBRANCH   1   2
BRANCH   1  24
HETATM   24  C9  UNL     1     -38.902  28.386  -4.379  1.00  0.00     0.215 C 
BRANCH  24  25
HETATM   25  O5  UNL     1     -37.707  27.751  -4.054  1.00  0.00    -0.352 OA
BRANCH  25  26
HETATM   26  C10 UNL     1     -36.705  28.722  -3.697  1.00  0.00     0.353 C 
BRANCH  26  27
HETATM   27  N4  UNL     1     -36.233  29.314  -4.888  1.00  0.00    -0.049 N 
ATOM     28  H43 UNL     1     -36.506  28.794  -5.723  1.00  0.00     0.277 HD
ATOM     29  H42 UNL     1     -36.710  30.188  -5.111  1.00  0.00     0.277 HD
ATOM     30  H41 UNL     1     -35.223  29.423  -4.803  1.00  0.00     0.277 HD
ENDBRANCH  26  27
BRANCH  26  31
HETATM   31  C11 UNL     1     -35.616  27.800  -3.128  1.00  0.00    -0.000 A 
HETATM   32  C12 UNL     1     -34.324  28.249  -3.049  1.00  0.00     0.012 A 
HETATM   33  C13 UNL     1     -33.317  27.519  -2.435  1.00  0.00     0.016 A 
HETATM   34  C14 UNL     1     -33.698  26.315  -1.909  1.00  0.00     0.012 A 
HETATM   35  C22 UNL     1     -35.014  25.812  -1.980  1.00  0.00     0.077 A 
HETATM   36  C23 UNL     1     -35.952  26.600  -2.604  1.00  0.00     0.049 A 
BRANCH  34  37
HETATM   37  C15 UNL     1     -32.884  25.610  -0.863  1.00  0.00     0.102 C 
BRANCH  37  38
HETATM   38  N5  UNL     1     -33.308  25.754   0.459  1.00  0.00    -0.359 N 
ATOM     39  H5  UNL     1     -34.304  25.656   0.655  1.00  0.00     0.165 HD
BRANCH  38  40
HETATM   40  C16 UNL     1     -32.436  26.029   1.558  1.00  0.00     0.120 A 
HETATM   41  C17 UNL     1     -32.052  25.163   2.437  1.00  0.00     0.147 A 
HETATM   42  C18 UNL     1     -31.129  25.458   3.572  1.00  0.00     0.207 A 
HETATM   43  O7  UNL     1     -30.791  24.577   4.391  1.00  0.00    -0.285 OA
HETATM   44  C19 UNL     1     -30.662  26.862   3.636  1.00  0.00     0.062 A 
HETATM   45  C20 UNL     1     -31.012  27.777   2.768  1.00  0.00     0.061 A 
HETATM   46  C21 UNL     1     -31.910  27.435   1.679  1.00  0.00     0.201 A 
HETATM   47  O8  UNL     1     -32.278  28.257   0.816  1.00  0.00    -0.286 OA
BRANCH  41  48
HETATM   48  O6  UNL     1     -32.498  23.870   2.375  1.00  0.00    -0.355 OA
ATOM     49  H6  UNL     1     -32.116  23.259   1.756  1.00  0.00     0.218 HD
ENDBRANCH  41  48
ENDBRANCH  38  40
ENDBRANCH  37  38
ENDBRANCH  34  37
BRANCH  35  50
HETATM   50  O9  UNL     1     -35.264  24.564  -1.443  1.00  0.00    -0.360 OA
ATOM     51  H9  UNL     1     -35.985  24.476  -0.831  1.00  0.00     0.217 HD
ENDBRANCH  35  50
ENDBRANCH  26  31
ENDBRANCH  25  26
ENDBRANCH  24  25
ENDBRANCH   1  24
BRANCH   1  52
HETATM   52  C24 UNL     1     -39.221  27.405  -6.592  1.00  0.00     0.291 C 
BRANCH  52  53
HETATM   53  O10 UNL     1     -38.413  26.351  -6.895  1.00  0.00    -0.368 OA
ATOM     54  H10 UNL     1     -37.841  26.081  -6.187  1.00  0.00     0.212 HD
ENDBRANCH  52  53
BRANCH  52  55
HETATM   55  O11 UNL     1     -38.677  28.637  -6.941  1.00  0.00    -0.368 OA
ATOM     56  H11 UNL     1     -38.702  28.805  -7.876  1.00  0.00     0.212 HD
ENDBRANCH  52  55
ENDBRANCH   1  52
TORSDOF 22
ENDMDL
MODEL 4
REMARK VINA RESULT: -7.506898273      2.640      4.024
REMARK  22 active torsions:
REMARK  status: ('A' for Active; 'I' for Inactive)
REMARK    1  A    between atoms: N1_1  and  C1_5 
REMARK    2  A    between atoms: C1_5  and  O1_6 
REMARK    3  A    between atoms: C1_5  and  C2_8 
REMARK    4  A    between atoms: C3_9  and  O2_10 
REMARK    5  A    between atoms: C4_14  and  C5_15 
REMARK    6  A    between atoms: C5_15  and  O3_16 
REMARK    7  A    between atoms: C5_15  and  O4_18 
REMARK    8  A    between atoms: C7_21  and  N3_22 
REMARK    9  A    between atoms: N3_22  and  C8_23 
REMARK   10  A    between atoms: C8_23  and  C9_24 
REMARK   11  A    between atoms: C8_23  and  C24_52 
REMARK   12  A    between atoms: C9_24  and  O5_25 
REMARK   13  A    between atoms: O5_25  and  C10_26 
REMARK   14  A    between atoms: C10_26  and  N4_27 
REMARK   15  A    between atoms: C10_26  and  C11_31 
REMARK   16  A    between atoms: C14_34  and  C15_35 
REMARK   17  A    between atoms: C15_35  and  N5_36 
REMARK   18  A    between atoms: N5_36  and  C16_38 
REMARK   19  A    between atoms: C17_39  and  O6_40 
REMARK   20  A    between atoms: C22_48  and  O9_49 
REMARK   21  A    between atoms: C24_52  and  O10_53 
REMARK   22  A    between atoms: C24_52  and  O11_55 
ROOT
HETATM    1  C8  UNL     1     -39.891  24.099  -4.202  1.00  0.00     0.241 C 
ENDROOT
BRANCH   1   2
HETATM    2  N3  UNL     1     -41.223  23.922  -4.345  1.00  0.00    -0.435 NA
BRANCH   2   3
HETATM    3  C7  UNL     1     -42.379  24.084  -4.717  1.00  0.00     0.117 A 
HETATM    4  C2  UNL     1     -43.446  23.434  -4.084  1.00  0.00     0.088 A 
HETATM    5  C3  UNL     1     -44.711  23.676  -4.536  1.00  0.00     0.154 A 
HETATM    6  N2  UNL     1     -44.973  24.502  -5.572  1.00  0.00    -0.336 N 
HETATM    7  C4  UNL     1     -44.005  25.134  -6.199  1.00  0.00     0.069 A 
ATOM      8  H2  UNL     1     -45.938  24.638  -5.873  1.00  0.00     0.168 HD
HETATM    9  C6  UNL     1     -42.702  24.922  -5.764  1.00  0.00     0.075 A 
BRANCH   4  10
HETATM   10  C1  UNL     1     -43.275  22.481  -2.917  1.00  0.00     0.358 C 
BRANCH  10  11
HETATM   11  N1  UNL     1     -42.413  21.362  -3.483  1.00  0.00    -0.049 N 
ATOM     12  H13 UNL     1     -41.422  21.368  -3.240  1.00  0.00     0.277 HD
ATOM     13  H12 UNL     1     -42.557  20.425  -3.105  1.00  0.00     0.277 HD
ATOM     14  H11 UNL     1     -42.655  21.512  -4.462  1.00  0.00     0.277 HD
ENDBRANCH  10  11
BRANCH  10  15
HETATM   15  O1  UNL     1     -42.254  23.078  -2.099  1.00  0.00    -0.366 OA
ATOM     16  H1  UNL     1     -42.745  23.066  -1.286  1.00  0.00     0.212 HD
ENDBRANCH  10  15
ENDBRANCH   4  10
BRANCH   5  17
HETATM   17  O2  UNL     1     -45.797  23.030  -3.882  1.00  0.00    -0.345 OA
ATOM     18  H2  UNL     1     -46.009  23.292  -2.994  1.00  0.00     0.219 HD
ENDBRANCH   5  17
BRANCH   7  19
HETATM   19  C5  UNL     1     -44.291  26.084  -7.339  1.00  0.00     0.305 C 
BRANCH  19  20
HETATM   20  O3  UNL     1     -43.078  26.321  -8.053  1.00  0.00    -0.366 OA
ATOM     21  H3  UNL     1     -43.237  26.182  -8.979  1.00  0.00     0.213 HD
ENDBRANCH  19  20
BRANCH  19  22
HETATM   22  O4  UNL     1     -45.143  25.546  -8.256  1.00  0.00    -0.366 OA
ATOM     23  H4  UNL     1     -45.525  26.207  -8.821  1.00  0.00     0.213 HD
ENDBRANCH  19  22
ENDBRANCH   7  19
ENDBRANCH   2   3
ENDBRANCH   1   2
BRANCH   1  24
HETATM   24  C9  UNL     1     -39.465  25.448  -3.545  1.00  0.00     0.215 C 
BRANCH  24  25
HETATM   25  O5  UNL     1     -38.109  25.637  -3.795  1.00  0.00    -0.352 OA
BRANCH  25  26
HETATM   26  C10 UNL     1     -37.682  26.920  -3.298  1.00  0.00     0.353 C 
BRANCH  26  27
HETATM   27  N4  UNL     1     -37.564  27.792  -4.402  1.00  0.00    -0.049 N 
ATOM     28  H43 UNL     1     -37.767  27.335  -5.291  1.00  0.00     0.277 HD
ATOM     29  H42 UNL     1     -38.306  28.491  -4.435  1.00  0.00     0.277 HD
ATOM     30  H41 UNL     1     -36.632  28.205  -4.374  1.00  0.00     0.277 HD
ENDBRANCH  26  27
BRANCH  26  31
HETATM   31  C11 UNL     1     -36.279  26.566  -2.784  1.00  0.00    -0.000 A 
HETATM   32  C12 UNL     1     -35.284  27.506  -2.836  1.00  0.00     0.012 A 
HETATM   33  C13 UNL     1     -34.030  27.296  -2.279  1.00  0.00     0.016 A 
HETATM   34  C14 UNL     1     -33.851  26.085  -1.669  1.00  0.00     0.012 A 
HETATM   35  C22 UNL     1     -34.845  25.087  -1.606  1.00  0.00     0.077 A 
HETATM   36  C23 UNL     1     -36.060  25.376  -2.182  1.00  0.00     0.049 A 
BRANCH  34  37
HETATM   37  C15 UNL     1     -32.758  25.852  -0.666  1.00  0.00     0.102 C 
BRANCH  37  38
HETATM   38  N5  UNL     1     -33.141  25.816   0.676  1.00  0.00    -0.359 N 
ATOM     39  H5  UNL     1     -34.060  25.436   0.900  1.00  0.00     0.165 HD
BRANCH  38  40
HETATM   40  C16 UNL     1     -32.326  26.276   1.756  1.00  0.00     0.120 A 
HETATM   41  C17 UNL     1     -31.839  27.468   1.864  1.00  0.00     0.147 A 
HETATM   42  C18 UNL     1     -31.000  27.942   3.003  1.00  0.00     0.207 A 
HETATM   43  O7  UNL     1     -30.558  29.111   3.054  1.00  0.00    -0.285 OA
HETATM   44  C19 UNL     1     -30.745  26.922   4.046  1.00  0.00     0.062 A 
HETATM   45  C20 UNL     1     -31.220  25.704   3.992  1.00  0.00     0.061 A 
HETATM   46  C21 UNL     1     -32.035  25.295   2.861  1.00  0.00     0.201 A 
HETATM   47  O8  UNL     1     -32.523  24.152   2.751  1.00  0.00    -0.286 OA
BRANCH  41  48
HETATM   48  O6  UNL     1     -32.071  28.401   0.888  1.00  0.00    -0.355 OA
ATOM     49  H6  UNL     1     -32.827  28.321   0.319  1.00  0.00     0.218 HD
ENDBRANCH  41  48
ENDBRANCH  38  40
ENDBRANCH  37  38
ENDBRANCH  34  37
BRANCH  35  50
HETATM   50  O9  UNL     1     -34.528  23.889  -0.995  1.00  0.00    -0.360 OA
ATOM     51  H9  UNL     1     -34.514  23.103  -1.529  1.00  0.00     0.217 HD
ENDBRANCH  35  50
ENDBRANCH  26  31
ENDBRANCH  25  26
ENDBRANCH  24  25
ENDBRANCH   1  24
BRANCH   1  52
HETATM   52  C24 UNL     1     -38.999  23.052  -3.575  1.00  0.00     0.291 C 
BRANCH  52  53
HETATM   53  O10 UNL     1     -37.917  22.711  -4.330  1.00  0.00    -0.368 OA
ATOM     54  H10 UNL     1     -37.996  21.873  -4.770  1.00  0.00     0.212 HD
ENDBRANCH  52  53
BRANCH  52  55
HETATM   55  O11 UNL     1     -39.702  21.953  -3.090  1.00  0.00    -0.368 OA
ATOM     56  H11 UNL     1     -39.167  21.370  -2.565  1.00  0.00     0.212 HD
ENDBRANCH  52  55
ENDBRANCH   1  52
TORSDOF 22
ENDMDL
MODEL 5
REMARK VINA RESULT: -7.392366817      2.648      4.036
REMARK  22 active torsions:
REMARK  status: ('A' for Active; 'I' for Inactive)
REMARK    1  A    between atoms: N1_1  and  C1_5 
REMARK    2  A    between atoms: C1_5  and  O1_6 
REMARK    3  A    between atoms: C1_5  and  C2_8 
REMARK    4  A    between atoms: C3_9  and  O2_10 
REMARK    5  A    between atoms: C4_14  and  C5_15 
REMARK    6  A    between atoms: C5_15  and  O3_16 
REMARK    7  A    between atoms: C5_15  and  O4_18 
REMARK    8  A    between atoms: C7_21  and  N3_22 
REMARK    9  A    between atoms: N3_22  and  C8_23 
REMARK   10  A    between atoms: C8_23  and  C9_24 
REMARK   11  A    between atoms: C8_23  and  C24_52 
REMARK   12  A    between atoms: C9_24  and  O5_25 
REMARK   13  A    between atoms: O5_25  and  C10_26 
REMARK   14  A    between atoms: C10_26  and  N4_27 
REMARK   15  A    between atoms: C10_26  and  C11_31 
REMARK   16  A    between atoms: C14_34  and  C15_35 
REMARK   17  A    between atoms: C15_35  and  N5_36 
REMARK   18  A    between atoms: N5_36  and  C16_38 
REMARK   19  A    between atoms: C17_39  and  O6_40 
REMARK   20  A    between atoms: C22_48  and  O9_49 
REMARK   21  A    between atoms: C24_52  and  O10_53 
REMARK   22  A    between atoms: C24_52  and  O11_55 
ROOT
HETATM    1  C8  UNL     1     -39.616  24.211  -3.819  1.00  0.00     0.241 C 
ENDROOT
BRANCH   1   2
HETATM    2  N3  UNL     1     -40.941  24.045  -4.031  1.00  0.00    -0.435 NA
BRANCH   2   3
HETATM    3  C7  UNL     1     -42.064  24.182  -4.500  1.00  0.00     0.117 A 
HETATM    4  C2  UNL     1     -43.158  23.468  -3.993  1.00  0.00     0.088 A 
HETATM    5  C3  UNL     1     -44.385  23.685  -4.548  1.00  0.00     0.154 A 
HETATM    6  N2  UNL     1     -44.585  24.545  -5.570  1.00  0.00    -0.336 N 
HETATM    7  C4  UNL     1     -43.590  25.237  -6.081  1.00  0.00     0.069 A 
ATOM      8  H2  UNL     1     -45.524  24.660  -5.952  1.00  0.00     0.168 HD
HETATM    9  C6  UNL     1     -42.324  25.052  -5.538  1.00  0.00     0.075 A 
BRANCH   4  10
HETATM   10  C1  UNL     1     -43.055  22.473  -2.854  1.00  0.00     0.358 C 
BRANCH  10  11
HETATM   11  N1  UNL     1     -42.135  21.389  -3.398  1.00  0.00    -0.049 N 
ATOM     12  H13 UNL     1     -41.215  21.680  -3.729  1.00  0.00     0.277 HD
ATOM     13  H12 UNL     1     -41.745  20.727  -2.726  1.00  0.00     0.277 HD
ATOM     14  H11 UNL     1     -42.786  21.021  -4.092  1.00  0.00     0.277 HD
ENDBRANCH  10  11
BRANCH  10  15
HETATM   15  O1  UNL     1     -42.106  23.051  -1.942  1.00  0.00    -0.366 OA
ATOM     16  H1  UNL     1     -42.245  23.955  -2.199  1.00  0.00     0.212 HD
ENDBRANCH  10  15
ENDBRANCH   4  10
BRANCH   5  17
HETATM   17  O2  UNL     1     -45.500  22.974  -4.022  1.00  0.00    -0.345 OA
ATOM     18  H2  UNL     1     -46.273  22.879  -4.566  1.00  0.00     0.219 HD
ENDBRANCH   5  17
BRANCH   7  19
HETATM   19  C5  UNL     1     -43.809  26.225  -7.204  1.00  0.00     0.305 C 
BRANCH  19  20
HETATM   20  O3  UNL     1     -42.572  26.425  -7.886  1.00  0.00    -0.366 OA
ATOM     21  H3  UNL     1     -42.179  27.232  -7.574  1.00  0.00     0.213 HD
ENDBRANCH  19  20
BRANCH  19  22
HETATM   22  O4  UNL     1     -44.663  25.746  -8.151  1.00  0.00    -0.366 OA
ATOM     23  H4  UNL     1     -45.108  26.443  -8.618  1.00  0.00     0.213 HD
ENDBRANCH  19  22
ENDBRANCH   7  19
ENDBRANCH   2   3
ENDBRANCH   1   2
BRANCH   1  24
HETATM   24  C9  UNL     1     -39.236  25.389  -2.870  1.00  0.00     0.215 C 
BRANCH  24  25
HETATM   25  O5  UNL     1     -37.860  25.345  -2.663  1.00  0.00    -0.352 OA
BRANCH  25  26
HETATM   26  C10 UNL     1     -37.299  26.669  -2.750  1.00  0.00     0.353 C 
BRANCH  26  27
HETATM   27  N4  UNL     1     -37.480  27.129  -4.072  1.00  0.00    -0.049 N 
ATOM     28  H43 UNL     1     -38.235  27.809  -4.155  1.00  0.00     0.277 HD
ATOM     29  H42 UNL     1     -36.720  27.731  -4.389  1.00  0.00     0.277 HD
ATOM     30  H41 UNL     1     -37.615  26.314  -4.670  1.00  0.00     0.277 HD
ENDBRANCH  26  27
BRANCH  26  31
HETATM   31  C11 UNL     1     -35.812  26.355  -2.526  1.00  0.00    -0.000 A 
HETATM   32  C12 UNL     1     -34.913  27.383  -2.420  1.00  0.00     0.012 A 
HETATM   33  C13 UNL     1     -33.579  27.176  -2.096  1.00  0.00     0.016 A 
HETATM   34  C14 UNL     1     -33.217  25.874  -1.887  1.00  0.00     0.012 A 
HETATM   35  C22 UNL     1     -34.109  24.787  -1.999  1.00  0.00     0.077 A 
HETATM   36  C23 UNL     1     -35.414  25.079  -2.322  1.00  0.00     0.049 A 
BRANCH  34  37
HETATM   37  C15 UNL     1     -31.976  25.505  -1.127  1.00  0.00     0.102 C 
BRANCH  37  38
HETATM   38  N5  UNL     1     -32.162  24.974   0.151  1.00  0.00    -0.359 N 
ATOM     39  H5  UNL     1     -33.033  24.481   0.341  1.00  0.00     0.165 HD
BRANCH  38  40
HETATM   40  C16 UNL     1     -31.207  25.078   1.210  1.00  0.00     0.120 A 
HETATM   41  C17 UNL     1     -30.233  24.253   1.415  1.00  0.00     0.147 A 
HETATM   42  C18 UNL     1     -29.234  24.379   2.516  1.00  0.00     0.207 A 
HETATM   43  O7  UNL     1     -28.310  23.549   2.663  1.00  0.00    -0.285 OA
HETATM   44  C19 UNL     1     -29.434  25.551   3.398  1.00  0.00     0.062 A 
HETATM   45  C20 UNL     1     -30.397  26.421   3.231  1.00  0.00     0.061 A 
HETATM   46  C21 UNL     1     -31.341  26.254   2.140  1.00  0.00     0.201 A 
HETATM   47  O8  UNL     1     -32.277  27.049   1.921  1.00  0.00    -0.286 OA
BRANCH  41  48
HETATM   48  O6  UNL     1     -30.063  23.166   0.600  1.00  0.00    -0.355 OA
ATOM     49  H6  UNL     1     -30.807  22.629   0.355  1.00  0.00     0.218 HD
ENDBRANCH  41  48
ENDBRANCH  38  40
ENDBRANCH  37  38
ENDBRANCH  34  37
BRANCH  35  50
HETATM   50  O9  UNL     1     -33.612  23.513  -1.800  1.00  0.00    -0.360 OA
ATOM     51  H9  UNL     1     -33.240  23.056  -2.545  1.00  0.00     0.217 HD
ENDBRANCH  35  50
ENDBRANCH  26  31
ENDBRANCH  25  26
ENDBRANCH  24  25
ENDBRANCH   1  24
BRANCH   1  52
HETATM   52  C24 UNL     1     -38.712  23.068  -3.416  1.00  0.00     0.291 C 
BRANCH  52  53
HETATM   53  O10 UNL     1     -37.778  22.735  -4.351  1.00  0.00    -0.368 OA
ATOM     54  H10 UNL     1     -37.973  23.046  -5.226  1.00  0.00     0.212 HD
ENDBRANCH  52  53
BRANCH  52  55
HETATM   55  O11 UNL     1     -39.407  21.971  -2.915  1.00  0.00    -0.368 OA
ATOM     56  H11 UNL     1     -39.221  21.798  -2.000  1.00  0.00     0.212 HD
ENDBRANCH  52  55
ENDBRANCH   1  52
TORSDOF 22
ENDMDL
