MODEL 1
REMARK VINA RESULT: -8.550118602      0.000      0.000
REMARK  7 active torsions:
REMARK  status: ('A' for Active; 'I' for Inactive)
REMARK    1  A    between atoms: C3_6  and  N3_7 
REMARK       I    between atoms: N3_7  and  C4_9 
REMARK    2  A    between atoms: C4_9  and  O2_11 
REMARK    3  A    between atoms: O2_11  and  C5_12 
REMARK    4  A    between atoms: C12_19  and  C13_20 
REMARK    5  A    between atoms: C13_20  and  C14_21 
REMARK    6  A    between atoms: C14_21  and  C15_22 
REMARK    7  A    between atoms: C22_30  and  C23_31 
ROOT
HETATM    1  C5  UNL     1      10.409 161.290  31.735  1.00  0.00     0.097 C 
HETATM    2  C6  UNL     1       9.712 160.560  32.858  1.00  0.00     0.044 C 
HETATM    3  C7  UNL     1       8.332 160.136  32.458  1.00  0.00     0.035 C 
HETATM    4  C8  UNL     1       7.748 160.827  31.278  1.00  0.00     0.122 C 
HETATM    5  C9  UNL     1       6.928 162.033  31.628  1.00  0.00     0.036 C 
HETATM    6  C10 UNL     1       7.696 163.337  31.593  1.00  0.00    -0.011 C 
HETATM    7  C11 UNL     1       7.867 163.900  30.234  1.00  0.00     0.009 C 
HETATM    8  C12 UNL     1       9.252 164.283  29.846  1.00  0.00    -0.014 C 
HETATM    9  C18 UNL     1      10.332 163.369  30.326  1.00  0.00     0.012 C 
HETATM   10  C19 UNL     1      10.167 162.764  31.680  1.00  0.00     0.024 C 
HETATM   11  C20 UNL     1       8.942 163.244  32.412  1.00  0.00     0.012 C 
HETATM   12  O3  UNL     1       8.622 161.129  30.263  1.00  0.00    -0.383 OA
HETATM   13  C21 UNL     1       9.847 160.580  30.483  1.00  0.00     0.207 C 
ENDROOT
BRANCH   1  14
HETATM   14  O2  UNL     1      11.780 160.956  31.714  1.00  0.00    -0.290 OA
BRANCH  14  15
HETATM   15  C4  UNL     1      12.454 160.449  30.605  1.00  0.00     0.366 C 
HETATM   16  N3  UNL     1      12.869 161.265  29.532  1.00  0.00    -0.299 N 
ATOM     17  H3  UNL     1      12.649 162.259  29.609  1.00  0.00     0.171 HD
HETATM   18  O1  UNL     1      12.665 159.227  30.624  1.00  0.00    -0.238 OA
BRANCH  16  19
HETATM   19  C3  UNL     1      13.549 160.869  28.373  1.00  0.00     0.089 A 
HETATM   20  C2  UNL     1      14.892 161.074  28.155  1.00  0.00     0.139 A 
HETATM   21  N2  UNL     1      15.142 160.544  26.922  1.00  0.00    -0.307 N 
HETATM   22  N1  UNL     1      14.041 160.051  26.419  1.00  0.00    -0.289 N 
ATOM     23  H2  UNL     1      16.053 160.535  26.462  1.00  0.00     0.186 HD
HETATM   24  C1  UNL     1      13.908 159.397  25.110  1.00  0.00     0.178 C 
HETATM   25  C22 UNL     1      13.001 160.220  27.277  1.00  0.00     0.155 A 
BRANCH  25  26
HETATM   26  C23 UNL     1      11.619 159.790  27.042  1.00  0.00     0.230 C 
HETATM   27  O4  UNL     1      11.269 158.662  27.511  1.00  0.00    -0.643 OA
HETATM   28  O5  UNL     1      10.689 160.534  26.349  1.00  0.00    -0.643 OA
ENDBRANCH  25  26
ENDBRANCH  16  19
ENDBRANCH  14  15
ENDBRANCH   1  14
BRANCH   8  29
HETATM   29  C13 UNL     1       9.625 165.700  30.157  1.00  0.00     0.005 C 
BRANCH  29  30
HETATM   30  C14 UNL     1      10.902 165.902  30.894  1.00  0.00     0.005 C 
BRANCH  30  31
HETATM   31  C15 UNL     1      10.815 166.872  32.044  1.00  0.00    -0.014 A 
HETATM   32  C16 UNL     1       9.533 166.803  32.816  1.00  0.00     0.005 A 
HETATM   33  C17 UNL     1      10.744 166.298  33.467  1.00  0.00     0.005 A 
ENDBRANCH  30  31
ENDBRANCH  29  30
ENDBRANCH   8  29
TORSDOF 7
ENDMDL
MODEL 2
REMARK VINA RESULT: -8.522328876      5.466      6.938
REMARK  7 active torsions:
REMARK  status: ('A' for Active; 'I' for Inactive)
REMARK    1  A    between atoms: C3_6  and  N3_7 
REMARK       I    between atoms: N3_7  and  C4_9 
REMARK    2  A    between atoms: C4_9  and  O2_11 
REMARK    3  A    between atoms: O2_11  and  C5_12 
REMARK    4  A    between atoms: C12_19  and  C13_20 
REMARK    5  A    between atoms: C13_20  and  C14_21 
REMARK    6  A    between atoms: C14_21  and  C15_22 
REMARK    7  A    between atoms: C22_30  and  C23_31 
ROOT
HETATM    1  C5  UNL     1      13.308 160.044  33.815  1.00  0.00     0.097 C 
HETATM    2  C6  UNL     1      12.689 158.677  33.980  1.00  0.00     0.044 C 
HETATM    3  C7  UNL     1      11.721 158.380  32.877  1.00  0.00     0.035 C 
HETATM    4  C8  UNL     1      11.228 159.550  32.102  1.00  0.00     0.122 C 
HETATM    5  C9  UNL     1       9.950 160.130  32.631  1.00  0.00     0.036 C 
HETATM    6  C10 UNL     1      10.145 161.277  33.600  1.00  0.00    -0.011 C 
HETATM    7  C11 UNL     1      10.418 162.577  32.949  1.00  0.00     0.009 C 
HETATM    8  C12 UNL     1      11.600 163.332  33.447  1.00  0.00    -0.014 C 
HETATM    9  C18 UNL     1      12.792 162.503  33.797  1.00  0.00     0.012 C 
HETATM   10  C19 UNL     1      12.543 161.173  34.426  1.00  0.00     0.024 C 
HETATM   11  C20 UNL     1      11.088 160.895  34.694  1.00  0.00     0.012 C 
HETATM   12  O3  UNL     1      12.142 160.548  31.873  1.00  0.00    -0.383 OA
HETATM   13  C21 UNL     1      13.388 160.184  32.278  1.00  0.00     0.207 C 
ENDROOT
BRANCH   1  14
HETATM   14  O2  UNL     1      14.661 160.017  34.213  1.00  0.00    -0.290 OA
BRANCH  14  15
HETATM   15  C4  UNL     1      15.537 158.961  33.969  1.00  0.00     0.366 C 
HETATM   16  N3  UNL     1      15.495 157.757  34.702  1.00  0.00    -0.299 N 
ATOM     17  H3  UNL     1      14.783 157.697  35.431  1.00  0.00     0.171 HD
HETATM   18  O1  UNL     1      16.358 159.151  33.059  1.00  0.00    -0.238 OA
BRANCH  16  19
HETATM   19  C3  UNL     1      16.320 156.634  34.547  1.00  0.00     0.089 A 
HETATM   20  C2  UNL     1      16.816 156.201  33.339  1.00  0.00     0.139 A 
HETATM   21  N2  UNL     1      17.559 155.094  33.632  1.00  0.00    -0.307 N 
HETATM   22  N1  UNL     1      17.524 154.862  34.918  1.00  0.00    -0.289 N 
ATOM     23  H2  UNL     1      18.066 154.531  32.948  1.00  0.00     0.186 HD
HETATM   24  C1  UNL     1      18.200 153.761  35.615  1.00  0.00     0.178 C 
HETATM   25  C22 UNL     1      16.763 155.792  35.554  1.00  0.00     0.155 A 
BRANCH  25  26
HETATM   26  C23 UNL     1      16.502 155.842  36.995  1.00  0.00     0.230 C 
HETATM   27  O4  UNL     1      16.893 156.874  37.626  1.00  0.00    -0.643 OA
HETATM   28  O5  UNL     1      15.862 154.844  37.697  1.00  0.00    -0.643 OA
ENDBRANCH  25  26
ENDBRANCH  16  19
ENDBRANCH  14  15
ENDBRANCH   1  14
BRANCH   8  29
HETATM   29  C13 UNL     1      11.313 164.289  34.563  1.00  0.00     0.005 C 
BRANCH  29  30
HETATM   30  C14 UNL     1      12.493 164.807  35.309  1.00  0.00     0.005 C 
BRANCH  30  31
HETATM   31  C15 UNL     1      12.409 164.641  36.805  1.00  0.00    -0.014 A 
HETATM   32  C16 UNL     1      13.133 163.442  37.336  1.00  0.00     0.005 A 
HETATM   33  C17 UNL     1      13.709 164.759  37.616  1.00  0.00     0.005 A 
ENDBRANCH  30  31
ENDBRANCH  29  30
ENDBRANCH   8  29
TORSDOF 7
ENDMDL
MODEL 3
REMARK VINA RESULT: -8.334119748      2.919      5.524
REMARK  7 active torsions:
REMARK  status: ('A' for Active; 'I' for Inactive)
REMARK    1  A    between atoms: C3_6  and  N3_7 
REMARK       I    between atoms: N3_7  and  C4_9 
REMARK    2  A    between atoms: C4_9  and  O2_11 
REMARK    3  A    between atoms: O2_11  and  C5_12 
REMARK    4  A    between atoms: C12_19  and  C13_20 
REMARK    5  A    between atoms: C13_20  and  C14_21 
REMARK    6  A    between atoms: C14_21  and  C15_22 
REMARK    7  A    between atoms: C22_30  and  C23_31 
ROOT
HETATM    1  C5  UNL     1      10.409 163.587  30.312  1.00  0.00     0.097 C 
HETATM    2  C6  UNL     1       9.082 164.220  29.967  1.00  0.00     0.044 C 
HETATM    3  C7  UNL     1       9.065 165.676  30.317  1.00  0.00     0.035 C 
HETATM    4  C8  UNL     1      10.106 166.133  31.276  1.00  0.00     0.122 C 
HETATM    5  C9  UNL     1       9.660 166.114  32.708  1.00  0.00     0.036 C 
HETATM    6  C10 UNL     1      10.011 164.841  33.449  1.00  0.00    -0.011 C 
HETATM    7  C11 UNL     1      11.410 164.789  33.928  1.00  0.00     0.009 C 
HETATM    8  C12 UNL     1      12.182 163.562  33.586  1.00  0.00    -0.014 C 
HETATM    9  C18 UNL     1      11.925 162.998  32.227  1.00  0.00     0.012 C 
HETATM   10  C19 UNL     1      10.527 163.068  31.708  1.00  0.00     0.024 C 
HETATM   11  C20 UNL     1       9.544 163.639  32.695  1.00  0.00     0.012 C 
HETATM   12  O3  UNL     1      11.337 165.539  31.156  1.00  0.00    -0.383 OA
HETATM   13  C21 UNL     1      11.401 164.744  30.055  1.00  0.00     0.207 C 
ENDROOT
BRANCH   1  14
HETATM   14  O2  UNL     1      10.760 162.630  29.337  1.00  0.00    -0.290 OA
BRANCH  14  15
HETATM   15  C4  UNL     1       9.953 161.561  28.952  1.00  0.00     0.366 C 
HETATM   16  N3  UNL     1       9.722 160.448  29.786  1.00  0.00    -0.299 N 
ATOM     17  H3  UNL     1      10.179 160.464  30.698  1.00  0.00     0.171 HD
HETATM   18  O1  UNL     1       9.452 161.654  27.822  1.00  0.00    -0.238 OA
BRANCH  16  19
HETATM   19  C3  UNL     1       8.935 159.322  29.507  1.00  0.00     0.089 A 
HETATM   20  C2  UNL     1       9.187 158.436  28.485  1.00  0.00     0.139 A 
HETATM   21  N2  UNL     1       8.195 157.502  28.565  1.00  0.00    -0.307 N 
HETATM   22  N1  UNL     1       7.395 157.788  29.559  1.00  0.00    -0.289 N 
ATOM     23  H2  UNL     1       8.094 156.700  27.942  1.00  0.00     0.186 HD
HETATM   24  C1  UNL     1       6.212 157.017  29.963  1.00  0.00     0.178 C 
HETATM   25  C22 UNL     1       7.801 158.918  30.194  1.00  0.00     0.155 A 
BRANCH  25  26
HETATM   26  C23 UNL     1       7.142 159.533  31.350  1.00  0.00     0.230 C 
HETATM   27  O4  UNL     1       6.969 160.792  31.325  1.00  0.00    -0.643 OA
HETATM   28  O5  UNL     1       6.703 158.829  32.450  1.00  0.00    -0.643 OA
ENDBRANCH  25  26
ENDBRANCH  16  19
ENDBRANCH  14  15
ENDBRANCH   1  14
BRANCH   8  29
HETATM   29  C13 UNL     1      12.106 162.466  34.604  1.00  0.00     0.005 C 
BRANCH  29  30
HETATM   30  C14 UNL     1      12.424 161.094  34.121  1.00  0.00     0.005 C 
BRANCH  30  31
HETATM   31  C15 UNL     1      11.370 160.061  34.434  1.00  0.00    -0.014 A 
HETATM   32  C16 UNL     1       9.968 160.587  34.428  1.00  0.00     0.005 A 
HETATM   33  C17 UNL     1      10.364 159.703  33.330  1.00  0.00     0.005 A 
ENDBRANCH  30  31
ENDBRANCH  29  30
ENDBRANCH   8  29
TORSDOF 7
ENDMDL
MODEL 4
REMARK VINA RESULT: -8.270903941      3.005      4.516
REMARK  7 active torsions:
REMARK  status: ('A' for Active; 'I' for Inactive)
REMARK    1  A    between atoms: C3_6  and  N3_7 
REMARK       I    between atoms: N3_7  and  C4_9 
REMARK    2  A    between atoms: C4_9  and  O2_11 
REMARK    3  A    between atoms: O2_11  and  C5_12 
REMARK    4  A    between atoms: C12_19  and  C13_20 
REMARK    5  A    between atoms: C13_20  and  C14_21 
REMARK    6  A    between atoms: C14_21  and  C15_22 
REMARK    7  A    between atoms: C22_30  and  C23_31 
ROOT
HETATM    1  C5  UNL     1      12.949 160.073  32.766  1.00  0.00     0.097 C 
HETATM    2  C6  UNL     1      14.061 159.457  33.581  1.00  0.00     0.044 C 
HETATM    3  C7  UNL     1      13.635 159.224  34.997  1.00  0.00     0.035 C 
HETATM    4  C8  UNL     1      12.438 159.979  35.455  1.00  0.00     0.122 C 
HETATM    5  C9  UNL     1      12.763 161.290  36.108  1.00  0.00     0.036 C 
HETATM    6  C10 UNL     1      12.737 162.475  35.166  1.00  0.00    -0.011 C 
HETATM    7  C11 UNL     1      11.379 162.996  34.890  1.00  0.00     0.009 C 
HETATM    8  C12 UNL     1      11.019 163.181  33.458  1.00  0.00    -0.014 C 
HETATM    9  C18 UNL     1      11.527 162.130  32.526  1.00  0.00     0.012 C 
HETATM   10  C19 UNL     1      12.880 161.565  32.800  1.00  0.00     0.024 C 
HETATM   11  C20 UNL     1      13.583 162.217  33.962  1.00  0.00     0.012 C 
HETATM   12  O3  UNL     1      11.441 160.147  34.528  1.00  0.00    -0.383 OA
HETATM   13  C21 UNL     1      11.690 159.436  33.395  1.00  0.00     0.207 C 
ENDROOT
BRANCH   1  14
HETATM   14  O2  UNL     1      12.960 159.552  31.455  1.00  0.00    -0.290 OA
BRANCH  14  15
HETATM   15  C4  UNL     1      11.915 158.830  30.882  1.00  0.00     0.366 C 
HETATM   16  N3  UNL     1      10.871 159.448  30.164  1.00  0.00    -0.299 N 
ATOM     17  H3  UNL     1      10.918 160.464  30.084  1.00  0.00     0.171 HD
HETATM   18  O1  UNL     1      11.966 157.602  31.046  1.00  0.00    -0.238 OA
BRANCH  16  19
HETATM   19  C3  UNL     1       9.775 158.828  29.549  1.00  0.00     0.089 A 
HETATM   20  C2  UNL     1       8.641 158.421  30.215  1.00  0.00     0.139 A 
HETATM   21  N2  UNL     1       7.837 157.874  29.258  1.00  0.00    -0.307 N 
HETATM   22  N1  UNL     1       8.427 157.939  28.092  1.00  0.00    -0.289 N 
ATOM     23  H2  UNL     1       6.914 157.475  29.426  1.00  0.00     0.186 HD
HETATM   24  C1  UNL     1       7.878 157.454  26.819  1.00  0.00     0.178 C 
HETATM   25  C22 UNL     1       9.647 158.526  28.202  1.00  0.00     0.155 A 
BRANCH  25  26
HETATM   26  C23 UNL     1      10.585 158.763  27.100  1.00  0.00     0.230 C 
HETATM   27  O4  UNL     1      11.697 158.149  27.135  1.00  0.00    -0.643 OA
HETATM   28  O5  UNL     1      10.330 159.604  26.040  1.00  0.00    -0.643 OA
ENDBRANCH  25  26
ENDBRANCH  16  19
ENDBRANCH  14  15
ENDBRANCH   1  14
BRANCH   8  29
HETATM   29  C13 UNL     1      11.328 164.535  32.899  1.00  0.00     0.005 C 
BRANCH  29  30
HETATM   30  C14 UNL     1      10.160 165.392  32.559  1.00  0.00     0.005 C 
BRANCH  30  31
HETATM   31  C15 UNL     1      10.164 165.924  31.148  1.00  0.00    -0.014 A 
HETATM   32  C16 UNL     1      10.688 164.963  30.126  1.00  0.00     0.005 A 
HETATM   33  C17 UNL     1       9.251 165.241  30.118  1.00  0.00     0.005 A 
ENDBRANCH  30  31
ENDBRANCH  29  30
ENDBRANCH   8  29
TORSDOF 7
ENDMDL
MODEL 5
REMARK VINA RESULT: -8.259081049      1.392      4.008
REMARK  7 active torsions:
REMARK  status: ('A' for Active; 'I' for Inactive)
REMARK    1  A    between atoms: C3_6  and  N3_7 
REMARK       I    between atoms: N3_7  and  C4_9 
REMARK    2  A    between atoms: C4_9  and  O2_11 
REMARK    3  A    between atoms: O2_11  and  C5_12 
REMARK    4  A    between atoms: C12_19  and  C13_20 
REMARK    5  A    between atoms: C13_20  and  C14_21 
REMARK    6  A    between atoms: C14_21  and  C15_22 
REMARK    7  A    between atoms: C22_30  and  C23_31 
ROOT
HETATM    1  C5  UNL     1      11.465 163.064  31.112  1.00  0.00     0.097 C 
HETATM    2  C6  UNL     1      11.912 164.118  30.128  1.00  0.00     0.044 C 
HETATM    3  C7  UNL     1      11.258 165.436  30.407  1.00  0.00     0.035 C 
HETATM    4  C8  UNL     1      10.039 165.397  31.258  1.00  0.00     0.122 C 
HETATM    5  C9  UNL     1       8.761 165.292  30.479  1.00  0.00     0.036 C 
HETATM    6  C10 UNL     1       8.266 163.874  30.288  1.00  0.00    -0.011 C 
HETATM    7  C11 UNL     1       7.550 163.322  31.460  1.00  0.00     0.009 C 
HETATM    8  C12 UNL     1       7.999 161.987  31.942  1.00  0.00    -0.014 C 
HETATM    9  C18 UNL     1       9.472 161.748  31.894  1.00  0.00     0.012 C 
HETATM   10  C19 UNL     1      10.223 162.322  30.738  1.00  0.00     0.024 C 
HETATM   11  C20 UNL     1       9.344 163.006  29.726  1.00  0.00     0.012 C 
HETATM   12  O3  UNL     1      10.047 164.481  32.280  1.00  0.00    -0.383 OA
HETATM   13  C21 UNL     1      11.263 163.886  32.405  1.00  0.00     0.207 C 
ENDROOT
BRANCH   1  14
HETATM   14  O2  UNL     1      12.542 162.209  31.432  1.00  0.00    -0.290 OA
BRANCH  14  15
HETATM   15  C4  UNL     1      13.156 161.340  30.532  1.00  0.00     0.366 C 
HETATM   16  N3  UNL     1      13.650 161.769  29.282  1.00  0.00    -0.299 N 
ATOM     17  H3  UNL     1      13.533 162.760  29.067  1.00  0.00     0.171 HD
HETATM   18  O1  UNL     1      13.240 160.161  30.905  1.00  0.00    -0.238 OA
BRANCH  16  19
HETATM   19  C3  UNL     1      14.281 160.991  28.302  1.00  0.00     0.089 A 
HETATM   20  C2  UNL     1      15.644 160.930  28.123  1.00  0.00     0.139 A 
HETATM   21  N2  UNL     1      15.832 160.071  27.080  1.00  0.00    -0.307 N 
HETATM   22  N1  UNL     1      14.676 159.635  26.649  1.00  0.00    -0.289 N 
ATOM     23  H2  UNL     1      16.739 159.807  26.693  1.00  0.00     0.186 HD
HETATM   24  C1  UNL     1      14.467 158.695  25.540  1.00  0.00     0.178 C 
HETATM   25  C22 UNL     1      13.660 160.173  27.372  1.00  0.00     0.155 A 
BRANCH  25  26
HETATM   26  C23 UNL     1      12.232 159.910  27.168  1.00  0.00     0.230 C 
HETATM   27  O4  UNL     1      11.715 158.946  27.815  1.00  0.00    -0.643 OA
HETATM   28  O5  UNL     1      11.428 160.642  26.323  1.00  0.00    -0.643 OA
ENDBRANCH  25  26
ENDBRANCH  16  19
ENDBRANCH  14  15
ENDBRANCH   1  14
BRANCH   8  29
HETATM   29  C13 UNL     1       7.284 160.822  31.330  1.00  0.00     0.005 C 
BRANCH  29  30
HETATM   30  C14 UNL     1       7.659 159.475  31.841  1.00  0.00     0.005 C 
BRANCH  30  31
HETATM   31  C15 UNL     1       7.998 158.472  30.768  1.00  0.00    -0.014 A 
HETATM   32  C16 UNL     1       8.747 159.040  29.602  1.00  0.00     0.005 A 
HETATM   33  C17 UNL     1       9.481 158.161  30.515  1.00  0.00     0.005 A 
ENDBRANCH  30  31
ENDBRANCH  29  30
ENDBRANCH   8  29
TORSDOF 7
ENDMDL
