MODEL 1
REMARK VINA RESULT: -9.245532464      0.000      0.000
REMARK  8 active torsions:
REMARK  status: ('A' for Active; 'I' for Inactive)
REMARK    1  A    between atoms: C2_2  and  C3_3 
REMARK    2  A    between atoms: C2_2  and  C25_31 
REMARK    3  A    between atoms: C3_3  and  C4_4 
REMARK    4  A    between atoms: C7_7  and  O1_8 
REMARK    5  A    between atoms: O1_8  and  C8_9 
REMARK    6  A    between atoms: C8_9  and  C9_11 
REMARK    7  A    between atoms: C21_24  and  C22_25 
REMARK    8  A    between atoms: C24_28  and  O5_29 
ROOT
HETATM    1  C4  UNL     1      12.408 163.997  36.343  1.00  0.00    -0.019 A 
HETATM    2  C5  UNL     1      12.612 162.658  36.517  1.00  0.00     0.013 A 
HETATM    3  C6  UNL     1      12.466 161.753  35.494  1.00  0.00     0.039 A 
HETATM    4  C7  UNL     1      12.093 162.221  34.225  1.00  0.00     0.095 A 
HETATM    5  C21 UNL     1      11.874 163.558  33.995  1.00  0.00     0.077 A 
HETATM    6  C24 UNL     1      12.031 164.445  35.051  1.00  0.00     0.088 A 
ENDROOT
BRANCH   4   7
HETATM    7  O1  UNL     1      11.962 161.232  33.208  1.00  0.00    -0.277 OA
BRANCH   7   8
HETATM    8  C8  UNL     1      10.825 160.433  33.201  1.00  0.00     0.274 C 
HETATM    9  O2  UNL     1      10.628 159.828  34.312  1.00  0.00    -0.264 OA
BRANCH   8  10
HETATM   10  C9  UNL     1       9.856 160.213  32.125  1.00  0.00     0.061 C 
HETATM   11  C10 UNL     1       8.658 159.515  32.797  1.00  0.00     0.025 C 
HETATM   12  C11 UNL     1       7.501 159.329  31.887  1.00  0.00    -0.008 C 
HETATM   13  C12 UNL     1       7.046 160.675  31.374  1.00  0.00     0.037 C 
HETATM   14  C17 UNL     1       7.991 158.479  30.718  1.00  0.00     0.043 C 
HETATM   15  C13 UNL     1       8.224 161.265  30.626  1.00  0.00     0.124 C 
HETATM   16  C14 UNL     1       9.310 161.558  31.614  1.00  0.00     0.052 C 
HETATM   17  O3  UNL     1       8.650 160.441  29.587  1.00  0.00    -0.374 OA
HETATM   18  C15 UNL     1       9.091 159.217  30.028  1.00  0.00     0.066 C 
HETATM   19  C16 UNL     1       9.497 158.400  28.812  1.00  0.00     0.047 C 
HETATM   20  C18 UNL     1      10.307 159.463  30.926  1.00  0.00     0.000 C 
HETATM   21  C19 UNL     1      11.024 158.175  31.200  1.00  0.00     0.019 C 
HETATM   22  C20 UNL     1      11.208 160.361  30.085  1.00  0.00     0.019 C 
ENDBRANCH   8  10
ENDBRANCH   7   8
ENDBRANCH   4   7
BRANCH   5  23
HETATM   23  C22 UNL     1      11.473 163.974  32.676  1.00  0.00     0.161 C 
HETATM   24  C23 UNL     1      12.136 163.753  31.395  1.00  0.00     0.097 C 
HETATM   25  O4  UNL     1      10.379 164.634  32.609  1.00  0.00    -0.293 OA
ENDBRANCH   5  23
BRANCH   6  26
HETATM   26  O5  UNL     1      11.847 165.752  34.940  1.00  0.00    -0.359 OA
ATOM     27  H5  UNL     1      11.165 166.013  34.332  1.00  0.00     0.217 HD
ENDBRANCH   6  26
BRANCH   1  28
HETATM   28  C3  UNL     1      12.542 165.019  37.404  1.00  0.00     0.086 C 
BRANCH  28  29
HETATM   29  C2  UNL     1      13.900 165.533  37.599  1.00  0.00     0.013 C 
HETATM   30  C1  UNL     1      14.932 164.831  37.191  1.00  0.00     0.026 C 
BRANCH  29  31
HETATM   31  C25 UNL     1      14.129 166.802  38.230  1.00  0.00     0.204 C 
HETATM   32  O6  UNL     1      13.230 167.353  38.893  1.00  0.00    -0.644 OA
HETATM   33  O7  UNL     1      15.347 167.432  38.110  1.00  0.00    -0.644 OA
ENDBRANCH  29  31
ENDBRANCH  28  29
ENDBRANCH   1  28
TORSDOF 8
ENDMDL
MODEL 2
REMARK VINA RESULT: -9.145856686      1.511      2.738
REMARK  8 active torsions:
REMARK  status: ('A' for Active; 'I' for Inactive)
REMARK    1  A    between atoms: C2_2  and  C3_3 
REMARK    2  A    between atoms: C2_2  and  C25_31 
REMARK    3  A    between atoms: C3_3  and  C4_4 
REMARK    4  A    between atoms: C7_7  and  O1_8 
REMARK    5  A    between atoms: O1_8  and  C8_9 
REMARK    6  A    between atoms: C8_9  and  C9_11 
REMARK    7  A    between atoms: C21_24  and  C22_25 
REMARK    8  A    between atoms: C24_28  and  O5_29 
ROOT
HETATM    1  C4  UNL     1      12.544 164.007  36.204  1.00  0.00    -0.019 A 
HETATM    2  C5  UNL     1      12.112 164.607  35.057  1.00  0.00     0.013 A 
HETATM    3  C6  UNL     1      11.942 163.915  33.883  1.00  0.00     0.039 A 
HETATM    4  C7  UNL     1      12.222 162.540  33.862  1.00  0.00     0.095 A 
HETATM    5  C21 UNL     1      12.661 161.885  34.989  1.00  0.00     0.077 A 
HETATM    6  C24 UNL     1      12.821 162.616  36.158  1.00  0.00     0.088 A 
ENDROOT
BRANCH   4   7
HETATM    7  O1  UNL     1      12.022 161.880  32.615  1.00  0.00    -0.277 OA
BRANCH   7   8
HETATM    8  C8  UNL     1      10.737 161.469  32.280  1.00  0.00     0.274 C 
HETATM    9  O2  UNL     1       9.846 161.886  33.100  1.00  0.00    -0.264 OA
BRANCH   8  10
HETATM   10  C9  UNL     1      10.292 160.658  31.145  1.00  0.00     0.061 C 
HETATM   11  C10 UNL     1      11.098 159.347  31.245  1.00  0.00     0.025 C 
HETATM   12  C11 UNL     1      10.684 158.328  30.249  1.00  0.00    -0.008 C 
HETATM   13  C12 UNL     1       9.221 158.006  30.441  1.00  0.00     0.037 C 
HETATM   14  C17 UNL     1      10.893 158.947  28.871  1.00  0.00     0.043 C 
HETATM   15  C13 UNL     1       8.468 159.303  30.220  1.00  0.00     0.124 C 
HETATM   16  C14 UNL     1       8.821 160.246  31.328  1.00  0.00     0.052 C 
HETATM   17  O3  UNL     1       8.712 159.841  28.959  1.00  0.00    -0.374 OA
HETATM   18  C15 UNL     1      10.033 160.163  28.766  1.00  0.00     0.066 C 
HETATM   19  C16 UNL     1      10.181 160.708  27.354  1.00  0.00     0.047 C 
HETATM   20  C18 UNL     1      10.395 161.247  29.787  1.00  0.00     0.000 C 
HETATM   21  C19 UNL     1      11.718 161.864  29.448  1.00  0.00     0.019 C 
HETATM   22  C20 UNL     1       9.301 162.295  29.613  1.00  0.00     0.019 C 
ENDBRANCH   8  10
ENDBRANCH   7   8
ENDBRANCH   4   7
BRANCH   5  23
HETATM   23  C22 UNL     1      12.951 160.478  34.899  1.00  0.00     0.161 C 
HETATM   24  C23 UNL     1      12.034 159.345  34.856  1.00  0.00     0.097 C 
HETATM   25  O4  UNL     1      14.192 160.169  34.849  1.00  0.00    -0.293 OA
ENDBRANCH   5  23
BRANCH   6  26
HETATM   26  O5  UNL     1      13.235 162.087  37.298  1.00  0.00    -0.359 OA
ATOM     27  H5  UNL     1      13.990 161.514  37.227  1.00  0.00     0.217 HD
ENDBRANCH   6  26
BRANCH   1  28
HETATM   28  C3  UNL     1      12.753 164.699  37.495  1.00  0.00     0.086 C 
BRANCH  28  29
HETATM   29  C2  UNL     1      14.021 165.422  37.610  1.00  0.00     0.013 C 
HETATM   30  C1  UNL     1      15.122 164.899  37.122  1.00  0.00     0.026 C 
BRANCH  29  31
HETATM   31  C25 UNL     1      14.087 166.707  38.248  1.00  0.00     0.204 C 
HETATM   32  O6  UNL     1      13.128 167.130  38.922  1.00  0.00    -0.644 OA
HETATM   33  O7  UNL     1      15.210 167.493  38.124  1.00  0.00    -0.644 OA
ENDBRANCH  29  31
ENDBRANCH  28  29
ENDBRANCH   1  28
TORSDOF 8
ENDMDL
MODEL 3
REMARK VINA RESULT: -9.101078832      1.873      2.932
REMARK  8 active torsions:
REMARK  status: ('A' for Active; 'I' for Inactive)
REMARK    1  A    between atoms: C2_2  and  C3_3 
REMARK    2  A    between atoms: C2_2  and  C25_31 
REMARK    3  A    between atoms: C3_3  and  C4_4 
REMARK    4  A    between atoms: C7_7  and  O1_8 
REMARK    5  A    between atoms: O1_8  and  C8_9 
REMARK    6  A    between atoms: C8_9  and  C9_11 
REMARK    7  A    between atoms: C21_24  and  C22_25 
REMARK    8  A    between atoms: C24_28  and  O5_29 
ROOT
HETATM    1  C4  UNL     1      11.761 164.230  34.544  1.00  0.00    -0.019 A 
HETATM    2  C5  UNL     1      12.405 163.142  34.030  1.00  0.00     0.013 A 
HETATM    3  C6  UNL     1      12.413 162.858  32.686  1.00  0.00     0.039 A 
HETATM    4  C7  UNL     1      11.734 163.717  31.810  1.00  0.00     0.095 A 
HETATM    5  C21 UNL     1      11.068 164.827  32.273  1.00  0.00     0.077 A 
HETATM    6  C24 UNL     1      11.082 165.084  33.637  1.00  0.00     0.088 A 
ENDROOT
BRANCH   4   7
HETATM    7  O1  UNL     1      11.783 163.369  30.429  1.00  0.00    -0.277 OA
BRANCH   7   8
HETATM    8  C8  UNL     1      12.127 162.067  30.085  1.00  0.00     0.274 C 
HETATM    9  O2  UNL     1      13.393 161.879  30.032  1.00  0.00    -0.264 OA
BRANCH   8  10
HETATM   10  C9  UNL     1      11.257 160.926  29.795  1.00  0.00     0.061 C 
HETATM   11  C10 UNL     1      11.965 159.708  30.419  1.00  0.00     0.025 C 
HETATM   12  C11 UNL     1      11.162 158.463  30.349  1.00  0.00    -0.008 C 
HETATM   13  C12 UNL     1       9.849 158.673  31.066  1.00  0.00     0.037 C 
HETATM   14  C17 UNL     1      10.897 158.191  28.871  1.00  0.00     0.043 C 
HETATM   15  C13 UNL     1       9.145 159.803  30.341  1.00  0.00     0.124 C 
HETATM   16  C14 UNL     1       9.928 161.061  30.559  1.00  0.00     0.052 C 
HETATM   17  O3  UNL     1       8.951 159.518  28.992  1.00  0.00    -0.374 OA
HETATM   18  C15 UNL     1      10.130 159.344  28.311  1.00  0.00     0.066 C 
HETATM   19  C16 UNL     1       9.792 159.009  26.868  1.00  0.00     0.047 C 
HETATM   20  C18 UNL     1      10.899 160.667  28.378  1.00  0.00     0.000 C 
HETATM   21  C19 UNL     1      12.045 160.655  27.413  1.00  0.00     0.019 C 
HETATM   22  C20 UNL     1       9.879 161.707  27.922  1.00  0.00     0.019 C 
ENDBRANCH   8  10
ENDBRANCH   7   8
ENDBRANCH   4   7
BRANCH   5  23
HETATM   23  C22 UNL     1      10.373 165.659  31.326  1.00  0.00     0.161 C 
HETATM   24  C23 UNL     1       9.182 165.367  30.536  1.00  0.00     0.097 C 
HETATM   25  O4  UNL     1      10.866 166.827  31.146  1.00  0.00    -0.293 OA
ENDBRANCH   5  23
BRANCH   6  26
HETATM   26  O5  UNL     1      10.476 166.123  34.190  1.00  0.00    -0.359 OA
ATOM     27  H5  UNL     1      10.736 166.971  33.849  1.00  0.00     0.217 HD
ENDBRANCH   6  26
BRANCH   1  28
HETATM   28  C3  UNL     1      11.711 164.585  35.979  1.00  0.00     0.086 C 
BRANCH  28  29
HETATM   29  C2  UNL     1      12.834 164.090  36.778  1.00  0.00     0.013 C 
HETATM   30  C1  UNL     1      12.950 162.804  37.021  1.00  0.00     0.026 C 
BRANCH  29  31
HETATM   31  C25 UNL     1      13.824 164.987  37.304  1.00  0.00     0.204 C 
HETATM   32  O6  UNL     1      15.036 164.712  37.223  1.00  0.00    -0.644 OA
HETATM   33  O7  UNL     1      13.449 166.166  37.908  1.00  0.00    -0.644 OA
ENDBRANCH  29  31
ENDBRANCH  28  29
ENDBRANCH   1  28
TORSDOF 8
ENDMDL
MODEL 4
REMARK VINA RESULT: -9.016244491      3.201      8.001
REMARK  8 active torsions:
REMARK  status: ('A' for Active; 'I' for Inactive)
REMARK    1  A    between atoms: C2_2  and  C3_3 
REMARK    2  A    between atoms: C2_2  and  C25_31 
REMARK    3  A    between atoms: C3_3  and  C4_4 
REMARK    4  A    between atoms: C7_7  and  O1_8 
REMARK    5  A    between atoms: O1_8  and  C8_9 
REMARK    6  A    between atoms: C8_9  and  C9_11 
REMARK    7  A    between atoms: C21_24  and  C22_25 
REMARK    8  A    between atoms: C24_28  and  O5_29 
ROOT
HETATM    1  C4  UNL     1      11.464 160.447  27.757  1.00  0.00    -0.019 A 
HETATM    2  C5  UNL     1      12.731 160.235  28.219  1.00  0.00     0.013 A 
HETATM    3  C6  UNL     1      13.286 160.993  29.220  1.00  0.00     0.039 A 
HETATM    4  C7  UNL     1      12.523 162.025  29.788  1.00  0.00     0.095 A 
HETATM    5  C21 UNL     1      11.243 162.283  29.360  1.00  0.00     0.077 A 
HETATM    6  C24 UNL     1      10.713 161.496  28.347  1.00  0.00     0.088 A 
ENDROOT
BRANCH   4   7
HETATM    7  O1  UNL     1      13.156 162.772  30.824  1.00  0.00    -0.277 OA
BRANCH   7   8
HETATM    8  C8  UNL     1      13.592 162.098  31.958  1.00  0.00     0.274 C 
HETATM    9  O2  UNL     1      14.792 161.663  31.854  1.00  0.00    -0.264 OA
BRANCH   8  10
HETATM   10  C9  UNL     1      12.881 161.840  33.212  1.00  0.00     0.061 C 
HETATM   11  C10 UNL     1      13.934 162.035  34.321  1.00  0.00     0.025 C 
HETATM   12  C11 UNL     1      13.366 161.950  35.689  1.00  0.00    -0.008 C 
HETATM   13  C12 UNL     1      12.297 163.003  35.853  1.00  0.00     0.037 C 
HETATM   14  C17 UNL     1      12.741 160.564  35.823  1.00  0.00     0.043 C 
HETATM   15  C13 UNL     1      11.235 162.697  34.816  1.00  0.00     0.124 C 
HETATM   16  C14 UNL     1      11.822 162.929  33.459  1.00  0.00     0.052 C 
HETATM   17  O3  UNL     1      10.715 161.413  34.964  1.00  0.00    -0.374 OA
HETATM   18  C15 UNL     1      11.663 160.434  34.797  1.00  0.00     0.066 C 
HETATM   19  C16 UNL     1      10.989 159.089  35.012  1.00  0.00     0.047 C 
HETATM   20  C18 UNL     1      12.183 160.538  33.360  1.00  0.00     0.000 C 
HETATM   21  C19 UNL     1      12.992 159.327  33.008  1.00  0.00     0.019 C 
HETATM   22  C20 UNL     1      10.916 160.552  32.512  1.00  0.00     0.019 C 
ENDBRANCH   8  10
ENDBRANCH   7   8
ENDBRANCH   4   7
BRANCH   5  23
HETATM   23  C22 UNL     1      10.518 163.369  29.969  1.00  0.00     0.161 C 
HETATM   24  C23 UNL     1      10.850 164.788  30.021  1.00  0.00     0.097 C 
HETATM   25  O4  UNL     1       9.425 163.049  30.552  1.00  0.00    -0.293 OA
ENDBRANCH   5  23
BRANCH   6  26
HETATM   26  O5  UNL     1       9.492 161.657  27.861  1.00  0.00    -0.359 OA
ATOM     27  H5  UNL     1       8.879 162.091  28.444  1.00  0.00     0.217 HD
ENDBRANCH   6  26
BRANCH   1  28
HETATM   28  C3  UNL     1      10.814 159.670  26.679  1.00  0.00     0.086 C 
BRANCH  28  29
HETATM   29  C2  UNL     1      10.186 158.419  27.111  1.00  0.00     0.013 C 
HETATM   30  C1  UNL     1      10.932 157.417  27.518  1.00  0.00     0.026 C 
BRANCH  29  31
HETATM   31  C25 UNL     1       8.759 158.264  27.103  1.00  0.00     0.204 C 
HETATM   32  O6  UNL     1       8.121 158.211  28.172  1.00  0.00    -0.644 OA
HETATM   33  O7  UNL     1       8.072 158.169  25.914  1.00  0.00    -0.644 OA
ENDBRANCH  29  31
ENDBRANCH  28  29
ENDBRANCH   1  28
TORSDOF 8
ENDMDL
MODEL 5
REMARK VINA RESULT: -8.809331880      3.131      7.872
REMARK  8 active torsions:
REMARK  status: ('A' for Active; 'I' for Inactive)
REMARK    1  A    between atoms: C2_2  and  C3_3 
REMARK    2  A    between atoms: C2_2  and  C25_31 
REMARK    3  A    between atoms: C3_3  and  C4_4 
REMARK    4  A    between atoms: C7_7  and  O1_8 
REMARK    5  A    between atoms: O1_8  and  C8_9 
REMARK    6  A    between atoms: C8_9  and  C9_11 
REMARK    7  A    between atoms: C21_24  and  C22_25 
REMARK    8  A    between atoms: C24_28  and  O5_29 
ROOT
HETATM    1  C4  UNL     1      10.545 158.666  29.680  1.00  0.00    -0.019 A 
HETATM    2  C5  UNL     1      11.581 159.154  30.421  1.00  0.00     0.013 A 
HETATM    3  C6  UNL     1      11.387 159.963  31.514  1.00  0.00     0.039 A 
HETATM    4  C7  UNL     1      10.076 160.300  31.881  1.00  0.00     0.095 A 
HETATM    5  C21 UNL     1       8.995 159.837  31.169  1.00  0.00     0.077 A 
HETATM    6  C24 UNL     1       9.228 159.021  30.071  1.00  0.00     0.088 A 
ENDROOT
BRANCH   4   7
HETATM    7  O1  UNL     1       9.943 161.139  33.025  1.00  0.00    -0.277 OA
BRANCH   7   8
HETATM    8  C8  UNL     1      10.729 162.282  33.105  1.00  0.00     0.274 C 
HETATM    9  O2  UNL     1      11.830 162.093  33.731  1.00  0.00    -0.264 OA
BRANCH   8  10
HETATM   10  C9  UNL     1      10.469 163.623  32.576  1.00  0.00     0.061 C 
HETATM   11  C10 UNL     1       8.943 163.810  32.683  1.00  0.00     0.025 C 
HETATM   12  C11 UNL     1       8.494 165.176  32.318  1.00  0.00    -0.008 C 
HETATM   13  C12 UNL     1       9.164 166.182  33.223  1.00  0.00     0.037 C 
HETATM   14  C17 UNL     1       8.933 165.415  30.876  1.00  0.00     0.043 C 
HETATM   15  C13 UNL     1      10.655 166.033  32.993  1.00  0.00     0.124 C 
HETATM   16  C14 UNL     1      11.077 164.690  33.503  1.00  0.00     0.052 C 
HETATM   17  O3  UNL     1      11.001 166.234  31.659  1.00  0.00    -0.374 OA
HETATM   18  C15 UNL     1      10.422 165.319  30.816  1.00  0.00     0.066 C 
HETATM   19  C16 UNL     1      10.844 165.656  29.396  1.00  0.00     0.047 C 
HETATM   20  C18 UNL     1      10.951 163.935  31.207  1.00  0.00     0.000 C 
HETATM   21  C19 UNL     1      10.607 162.926  30.154  1.00  0.00     0.019 C 
HETATM   22  C20 UNL     1      12.465 164.118  31.241  1.00  0.00     0.019 C 
ENDBRANCH   8  10
ENDBRANCH   7   8
ENDBRANCH   4   7
BRANCH   5  23
HETATM   23  C22 UNL     1       7.675 160.235  31.583  1.00  0.00     0.161 C 
HETATM   24  C23 UNL     1       7.015 161.530  31.455  1.00  0.00     0.097 C 
HETATM   25  O4  UNL     1       6.972 159.326  32.148  1.00  0.00    -0.293 OA
ENDBRANCH   5  23
BRANCH   6  26
HETATM   26  O5  UNL     1       8.262 158.519  29.316  1.00  0.00    -0.359 OA
ATOM     27  H5  UNL     1       8.072 157.599  29.462  1.00  0.00     0.217 HD
ENDBRANCH   6  26
BRANCH   1  28
HETATM   28  C3  UNL     1      10.689 157.797  28.491  1.00  0.00     0.086 C 
BRANCH  28  29
HETATM   29  C2  UNL     1      11.104 158.488  27.268  1.00  0.00     0.013 C 
HETATM   30  C1  UNL     1      12.247 158.183  26.697  1.00  0.00     0.026 C 
BRANCH  29  31
HETATM   31  C25 UNL     1      10.279 159.500  26.670  1.00  0.00     0.204 C 
HETATM   32  O6  UNL     1      10.778 160.563  26.257  1.00  0.00    -0.644 OA
HETATM   33  O7  UNL     1       8.921 159.312  26.547  1.00  0.00    -0.644 OA
ENDBRANCH  29  31
ENDBRANCH  28  29
ENDBRANCH   1  28
TORSDOF 8
ENDMDL
