MODEL 1
REMARK VINA RESULT: -7.886513367      0.000      0.000
REMARK  8 active torsions:
REMARK  status: ('A' for Active; 'I' for Inactive)
REMARK    1  A    between atoms: C4_6  and  C5_7 
REMARK    2  A    between atoms: C7_9  and  N2_10 
REMARK       I    between atoms: N2_10  and  C8_11 
REMARK    3  A    between atoms: C8_11  and  C9_13 
REMARK    4  A    between atoms: C9_13  and  C10_15 
REMARK    5  A    between atoms: C10_15  and  C11_17 
REMARK    6  A    between atoms: C11_17  and  N4_18 
REMARK    7  A    between atoms: C11_17  and  O3_22 
REMARK    8  A    between atoms: C12_26  and  C13_27 
ROOT
HETATM    1  C5  UNL     1     -24.711   5.296  11.662  1.00  0.00     0.065 A 
HETATM    2  C6  UNL     1     -24.569   4.059  12.184  1.00  0.00     0.096 A 
HETATM    3  C7  UNL     1     -24.851   3.794  13.557  1.00  0.00     0.187 A 
HETATM    4  N5  UNL     1     -25.258   4.876  14.309  1.00  0.00    -0.313 N 
ATOM      5  H5  UNL     1     -25.461   4.742  15.300  1.00  0.00     0.170 HD
HETATM    6  C12 UNL     1     -25.396   6.115  13.768  1.00  0.00     0.193 A 
HETATM    7  N6  UNL     1     -25.135   6.328  12.480  1.00  0.00    -0.337 N 
ATOM      8  H6  UNL     1     -25.250   7.264  12.092  1.00  0.00     0.167 HD
ENDROOT
BRANCH   3   9
HETATM    9  N2  UNL     1     -24.970   2.703  13.946  1.00  0.00    -0.345 NA
HETATM   10  C8  UNL     1     -25.060   1.456  14.498  1.00  0.00     0.369 C 
HETATM   11  O1  UNL     1     -25.071   0.422  13.855  1.00  0.00    -0.247 OA
BRANCH  10  12
HETATM   12  C9  UNL     1     -25.201   1.489  16.027  1.00  0.00     0.278 C 
HETATM   13  O2  UNL     1     -24.265   1.907  16.668  1.00  0.00    -0.279 OA
BRANCH  12  14
HETATM   14  C10 UNL     1     -26.446   1.055  16.625  1.00  0.00     0.136 C 
HETATM   15  N3  UNL     1     -26.460  -0.202  17.277  1.00  0.00    -0.098 NA
BRANCH  14  16
HETATM   16  C11 UNL     1     -27.367   2.105  17.140  1.00  0.00     0.369 C 
BRANCH  16  17
HETATM   17  N4  UNL     1     -27.256   3.341  16.375  1.00  0.00    -0.048 N 
ATOM     18  H43 UNL     1     -27.945   3.376  15.623  1.00  0.00     0.277 HD
ATOM     19  H42 UNL     1     -27.573   4.145  16.917  1.00  0.00     0.277 HD
ATOM     20  H41 UNL     1     -26.311   3.481  16.020  1.00  0.00     0.277 HD
ENDBRANCH  16  17
BRANCH  16  21
HETATM   21  O3  UNL     1     -26.935   2.462  18.454  1.00  0.00    -0.365 OA
ATOM     22  H3  UNL     1     -27.623   2.221  19.064  1.00  0.00     0.212 HD
ENDBRANCH  16  21
ENDBRANCH  14  16
ENDBRANCH  12  14
ENDBRANCH  10  12
ENDBRANCH   3   9
BRANCH   1  23
HETATM   23  C4  UNL     1     -24.598   5.600  10.238  1.00  0.00     0.063 A 
HETATM   24  C3  UNL     1     -25.241   6.714   9.666  1.00  0.00     0.080 A 
HETATM   25  C2  UNL     1     -25.084   6.950   8.318  1.00  0.00     0.103 A 
HETATM   26  N1  UNL     1     -25.689   8.041   7.886  1.00  0.00    -0.381 N 
HETATM   27  N8  UNL     1     -24.345   6.166   7.529  1.00  0.00    -0.339 N 
HETATM   28  C1  UNL     1     -25.668   8.475   6.528  1.00  0.00     0.147 C 
ATOM     29  H1  UNL     1     -26.201   8.607   8.563  1.00  0.00     0.160 HD
HETATM   30  C14 UNL     1     -23.684   5.046   8.077  1.00  0.00     0.182 A 
ATOM     31  H8  UNL     1     -24.258   6.376   6.534  1.00  0.00     0.168 HD
HETATM   32  N7  UNL     1     -23.894   4.899   9.386  1.00  0.00    -0.350 N 
ATOM     33  H7  UNL     1     -23.420   4.096   9.798  1.00  0.00     0.166 HD
ENDBRANCH   1  23
BRANCH   6  34
HETATM   34  C13 UNL     1     -25.889   7.209  14.677  1.00  0.00     0.449 C 
HETATM   35  F1  UNL     1     -26.726   6.657  15.626  1.00  0.00    -0.163 F 
HETATM   36  F2  UNL     1     -24.838   7.774  15.376  1.00  0.00    -0.163 F 
HETATM   37  F3  UNL     1     -26.583   8.171  13.983  1.00  0.00    -0.163 F 
ENDBRANCH   6  34
TORSDOF 8
ENDMDL
MODEL 2
REMARK VINA RESULT: -7.633928343      0.921      1.641
REMARK  8 active torsions:
REMARK  status: ('A' for Active; 'I' for Inactive)
REMARK    1  A    between atoms: C4_6  and  C5_7 
REMARK    2  A    between atoms: C7_9  and  N2_10 
REMARK       I    between atoms: N2_10  and  C8_11 
REMARK    3  A    between atoms: C8_11  and  C9_13 
REMARK    4  A    between atoms: C9_13  and  C10_15 
REMARK    5  A    between atoms: C10_15  and  C11_17 
REMARK    6  A    between atoms: C11_17  and  N4_18 
REMARK    7  A    between atoms: C11_17  and  O3_22 
REMARK    8  A    between atoms: C12_26  and  C13_27 
ROOT
HETATM    1  C5  UNL     1     -24.653   5.375  11.646  1.00  0.00     0.065 A 
HETATM    2  C6  UNL     1     -24.484   4.153  12.194  1.00  0.00     0.096 A 
HETATM    3  C7  UNL     1     -24.926   3.863  13.518  1.00  0.00     0.187 A 
HETATM    4  N5  UNL     1     -25.517   4.907  14.198  1.00  0.00    -0.313 N 
ATOM      5  H5  UNL     1     -25.841   4.755  15.154  1.00  0.00     0.170 HD
HETATM    6  C12 UNL     1     -25.680   6.131  13.633  1.00  0.00     0.193 A 
HETATM    7  N6  UNL     1     -25.266   6.367  12.390  1.00  0.00    -0.337 N 
ATOM      8  H6  UNL     1     -25.402   7.292  11.982  1.00  0.00     0.167 HD
ENDROOT
BRANCH   3   9
HETATM    9  N2  UNL     1     -25.010   2.765  13.897  1.00  0.00    -0.345 NA
HETATM   10  C8  UNL     1     -25.057   1.510  14.438  1.00  0.00     0.369 C 
HETATM   11  O1  UNL     1     -25.039   0.483  13.785  1.00  0.00    -0.247 OA
BRANCH  10  12
HETATM   12  C9  UNL     1     -25.189   1.525  15.967  1.00  0.00     0.278 C 
HETATM   13  O2  UNL     1     -24.258   1.953  16.608  1.00  0.00    -0.279 OA
BRANCH  12  14
HETATM   14  C10 UNL     1     -26.423   1.061  16.568  1.00  0.00     0.136 C 
HETATM   15  N3  UNL     1     -26.419  -0.220  17.172  1.00  0.00    -0.098 NA
BRANCH  14  16
HETATM   16  C11 UNL     1     -27.341   2.086  17.136  1.00  0.00     0.369 C 
BRANCH  16  17
HETATM   17  N4  UNL     1     -27.262   3.345  16.405  1.00  0.00    -0.048 N 
ATOM     18  H43 UNL     1     -26.314   3.526  16.078  1.00  0.00     0.277 HD
ATOM     19  H42 UNL     1     -27.732   3.280  15.501  1.00  0.00     0.277 HD
ATOM     20  H41 UNL     1     -27.621   4.123  16.957  1.00  0.00     0.277 HD
ENDBRANCH  16  17
BRANCH  16  21
HETATM   21  O3  UNL     1     -26.880   2.409  18.449  1.00  0.00    -0.365 OA
ATOM     22  H3  UNL     1     -27.635   2.652  18.972  1.00  0.00     0.212 HD
ENDBRANCH  16  21
ENDBRANCH  14  16
ENDBRANCH  12  14
ENDBRANCH  10  12
ENDBRANCH   3   9
BRANCH   1  23
HETATM   23  C4  UNL     1     -24.374   5.690  10.248  1.00  0.00     0.063 A 
HETATM   24  C3  UNL     1     -23.233   5.192   9.591  1.00  0.00     0.080 A 
HETATM   25  C2  UNL     1     -23.035   5.518   8.268  1.00  0.00     0.103 A 
HETATM   26  N1  UNL     1     -21.961   4.968   7.730  1.00  0.00    -0.381 N 
HETATM   27  N8  UNL     1     -23.881   6.288   7.579  1.00  0.00    -0.339 N 
HETATM   28  C1  UNL     1     -21.557   5.174   6.378  1.00  0.00     0.147 C 
ATOM     29  H1  UNL     1     -21.388   4.361   8.315  1.00  0.00     0.160 HD
HETATM   30  C14 UNL     1     -25.036   6.796   8.211  1.00  0.00     0.182 A 
ATOM     31  H8  UNL     1     -23.693   6.507   6.600  1.00  0.00     0.168 HD
HETATM   32  N7  UNL     1     -25.144   6.427   9.488  1.00  0.00    -0.350 N 
ATOM     33  H7  UNL     1     -25.976   6.783   9.957  1.00  0.00     0.166 HD
ENDBRANCH   1  23
BRANCH   6  34
HETATM   34  C13 UNL     1     -26.378   7.181  14.457  1.00  0.00     0.449 C 
HETATM   35  F1  UNL     1     -26.826   6.603  15.628  1.00  0.00    -0.163 F 
HETATM   36  F2  UNL     1     -25.493   8.174  14.835  1.00  0.00    -0.163 F 
HETATM   37  F3  UNL     1     -27.454   7.717  13.791  1.00  0.00    -0.163 F 
ENDBRANCH   6  34
TORSDOF 8
ENDMDL
MODEL 3
REMARK VINA RESULT: -7.604114317      1.610      1.869
REMARK  8 active torsions:
REMARK  status: ('A' for Active; 'I' for Inactive)
REMARK    1  A    between atoms: C4_6  and  C5_7 
REMARK    2  A    between atoms: C7_9  and  N2_10 
REMARK       I    between atoms: N2_10  and  C8_11 
REMARK    3  A    between atoms: C8_11  and  C9_13 
REMARK    4  A    between atoms: C9_13  and  C10_15 
REMARK    5  A    between atoms: C10_15  and  C11_17 
REMARK    6  A    between atoms: C11_17  and  N4_18 
REMARK    7  A    between atoms: C11_17  and  O3_22 
REMARK    8  A    between atoms: C12_26  and  C13_27 
ROOT
HETATM    1  C5  UNL     1     -25.327   6.651  11.019  1.00  0.00     0.065 A 
HETATM    2  C6  UNL     1     -25.066   5.410  11.482  1.00  0.00     0.096 A 
HETATM    3  C7  UNL     1     -25.174   5.094  12.869  1.00  0.00     0.187 A 
HETATM    4  N5  UNL     1     -25.542   6.133  13.696  1.00  0.00    -0.313 N 
ATOM      5  H5  UNL     1     -25.623   5.963  14.699  1.00  0.00     0.170 HD
HETATM    6  C12 UNL     1     -25.802   7.377  13.215  1.00  0.00     0.193 A 
HETATM    7  N6  UNL     1     -25.703   7.637  11.914  1.00  0.00    -0.337 N 
ATOM      8  H6  UNL     1     -25.906   8.576  11.572  1.00  0.00     0.167 HD
ENDROOT
BRANCH   3   9
HETATM    9  N2  UNL     1     -25.195   3.988  13.234  1.00  0.00    -0.345 NA
HETATM   10  C8  UNL     1     -25.218   2.730  13.768  1.00  0.00     0.369 C 
HETATM   11  O1  UNL     1     -24.759   1.745  13.219  1.00  0.00    -0.247 OA
BRANCH  10  12
HETATM   12  C9  UNL     1     -25.936   2.671  15.124  1.00  0.00     0.278 C 
HETATM   13  O2  UNL     1     -26.695   3.572  15.398  1.00  0.00    -0.279 OA
BRANCH  12  14
HETATM   14  C10 UNL     1     -25.702   1.536  15.992  1.00  0.00     0.136 C 
HETATM   15  N3  UNL     1     -24.368   1.277  16.391  1.00  0.00    -0.098 NA
BRANCH  14  16
HETATM   16  C11 UNL     1     -26.788   1.153  16.935  1.00  0.00     0.369 C 
BRANCH  16  17
HETATM   17  N4  UNL     1     -26.812   2.018  18.108  1.00  0.00    -0.048 N 
ATOM     18  H43 UNL     1     -26.405   2.931  17.906  1.00  0.00     0.277 HD
ATOM     19  H42 UNL     1     -27.762   2.314  18.332  1.00  0.00     0.277 HD
ATOM     20  H41 UNL     1     -26.360   1.578  18.910  1.00  0.00     0.277 HD
ENDBRANCH  16  17
BRANCH  16  21
HETATM   21  O3  UNL     1     -26.481  -0.142  17.456  1.00  0.00    -0.365 OA
ATOM     22  H3  UNL     1     -27.301  -0.584  17.642  1.00  0.00     0.212 HD
ENDBRANCH  16  21
ENDBRANCH  14  16
ENDBRANCH  12  14
ENDBRANCH  10  12
ENDBRANCH   3   9
BRANCH   1  23
HETATM   23  C4  UNL     1     -25.395   6.998   9.603  1.00  0.00     0.063 A 
HETATM   24  C3  UNL     1     -26.211   8.045   9.135  1.00  0.00     0.080 A 
HETATM   25  C2  UNL     1     -26.219   8.327   7.787  1.00  0.00     0.103 A 
HETATM   26  N1  UNL     1     -26.981   9.353   7.454  1.00  0.00    -0.381 N 
HETATM   27  N8  UNL     1     -25.484   7.650   6.903  1.00  0.00    -0.339 N 
HETATM   28  C1  UNL     1     -27.147   9.817   6.116  1.00  0.00     0.147 C 
ATOM     29  H1  UNL     1     -27.480   9.842   8.197  1.00  0.00     0.160 HD
HETATM   30  C14 UNL     1     -24.651   6.599   7.345  1.00  0.00     0.182 A 
ATOM     31  H8  UNL     1     -25.523   7.890   5.912  1.00  0.00     0.168 HD
HETATM   32  N7  UNL     1     -24.708   6.399   8.662  1.00  0.00    -0.350 N 
ATOM     33  H7  UNL     1     -24.110   5.645   8.997  1.00  0.00     0.166 HD
ENDBRANCH   1  23
BRANCH   6  34
HETATM   34  C13 UNL     1     -26.239   8.420  14.209  1.00  0.00     0.449 C 
HETATM   35  F1  UNL     1     -25.691   8.121  15.440  1.00  0.00    -0.163 F 
HETATM   36  F2  UNL     1     -25.743   9.664  13.862  1.00  0.00    -0.163 F 
HETATM   37  F3  UNL     1     -27.607   8.461  14.334  1.00  0.00    -0.163 F 
ENDBRANCH   6  34
TORSDOF 8
ENDMDL
MODEL 4
REMARK VINA RESULT: -7.590494774      3.363      3.935
REMARK  8 active torsions:
REMARK  status: ('A' for Active; 'I' for Inactive)
REMARK    1  A    between atoms: C4_6  and  C5_7 
REMARK    2  A    between atoms: C7_9  and  N2_10 
REMARK       I    between atoms: N2_10  and  C8_11 
REMARK    3  A    between atoms: C8_11  and  C9_13 
REMARK    4  A    between atoms: C9_13  and  C10_15 
REMARK    5  A    between atoms: C10_15  and  C11_17 
REMARK    6  A    between atoms: C11_17  and  N4_18 
REMARK    7  A    between atoms: C11_17  and  O3_22 
REMARK    8  A    between atoms: C12_26  and  C13_27 
ROOT
HETATM    1  C5  UNL     1     -21.549   5.622  12.785  1.00  0.00     0.065 A 
HETATM    2  C6  UNL     1     -22.343   4.545  12.962  1.00  0.00     0.096 A 
HETATM    3  C7  UNL     1     -23.520   4.611  13.764  1.00  0.00     0.187 A 
HETATM    4  N5  UNL     1     -23.781   5.830  14.353  1.00  0.00    -0.313 N 
ATOM      5  H5  UNL     1     -24.605   5.929  14.946  1.00  0.00     0.170 HD
HETATM    6  C12 UNL     1     -22.971   6.905  14.166  1.00  0.00     0.193 A 
HETATM    7  N6  UNL     1     -21.885   6.814  13.402  1.00  0.00    -0.337 N 
ATOM      8  H6  UNL     1     -21.293   7.633  13.270  1.00  0.00     0.167 HD
ENDROOT
BRANCH   3   9
HETATM    9  N2  UNL     1     -24.329   3.774  13.717  1.00  0.00    -0.345 NA
HETATM   10  C8  UNL     1     -25.261   2.776  13.772  1.00  0.00     0.369 C 
HETATM   11  O1  UNL     1     -25.528   2.037  12.842  1.00  0.00    -0.247 OA
BRANCH  10  12
HETATM   12  C9  UNL     1     -25.986   2.711  15.124  1.00  0.00     0.278 C 
HETATM   13  O2  UNL     1     -26.755   3.604  15.393  1.00  0.00    -0.279 OA
BRANCH  12  14
HETATM   14  C10 UNL     1     -25.744   1.579  15.995  1.00  0.00     0.136 C 
HETATM   15  N3  UNL     1     -24.411   1.343  16.411  1.00  0.00    -0.098 NA
BRANCH  14  16
HETATM   16  C11 UNL     1     -26.835   1.179  16.925  1.00  0.00     0.369 C 
BRANCH  16  17
HETATM   17  N4  UNL     1     -26.892   2.048  18.095  1.00  0.00    -0.048 N 
ATOM     18  H43 UNL     1     -26.196   1.781  18.791  1.00  0.00     0.277 HD
ATOM     19  H42 UNL     1     -26.550   2.984  17.879  1.00  0.00     0.277 HD
ATOM     20  H41 UNL     1     -27.829   2.076  18.497  1.00  0.00     0.277 HD
ENDBRANCH  16  17
BRANCH  16  21
HETATM   21  O3  UNL     1     -26.510  -0.108  17.455  1.00  0.00    -0.365 OA
ATOM     22  H3  UNL     1     -25.894   0.016  18.167  1.00  0.00     0.212 HD
ENDBRANCH  16  21
ENDBRANCH  14  16
ENDBRANCH  12  14
ENDBRANCH  10  12
ENDBRANCH   3   9
BRANCH   1  23
HETATM   23  C4  UNL     1     -20.427   5.666  11.852  1.00  0.00     0.063 A 
HETATM   24  C3  UNL     1     -20.480   5.024  10.600  1.00  0.00     0.080 A 
HETATM   25  C2  UNL     1     -19.391   5.115   9.763  1.00  0.00     0.103 A 
HETATM   26  N1  UNL     1     -19.554   4.518   8.596  1.00  0.00    -0.381 N 
HETATM   27  N8  UNL     1     -18.284   5.788  10.087  1.00  0.00    -0.339 N 
HETATM   28  C1  UNL     1     -18.556   4.477   7.579  1.00  0.00     0.147 C 
ATOM     29  H1  UNL     1     -20.446   4.059   8.412  1.00  0.00     0.160 HD
HETATM   30  C14 UNL     1     -18.206   6.446  11.333  1.00  0.00     0.182 A 
ATOM     31  H8  UNL     1     -17.498   5.827   9.437  1.00  0.00     0.168 HD
HETATM   32  N7  UNL     1     -19.306   6.304  12.074  1.00  0.00    -0.350 N 
ATOM     33  H7  UNL     1     -19.266   6.777  12.977  1.00  0.00     0.166 HD
ENDBRANCH   1  23
BRANCH   6  34
HETATM   34  C13 UNL     1     -23.381   8.196  14.824  1.00  0.00     0.449 C 
HETATM   35  F1  UNL     1     -24.498   7.966  15.601  1.00  0.00    -0.163 F 
HETATM   36  F2  UNL     1     -22.396   8.636  15.691  1.00  0.00    -0.163 F 
HETATM   37  F3  UNL     1     -23.681   9.166  13.898  1.00  0.00    -0.163 F 
ENDBRANCH   6  34
TORSDOF 8
ENDMDL
MODEL 5
REMARK VINA RESULT: -7.527499518      3.493      4.515
REMARK  8 active torsions:
REMARK  status: ('A' for Active; 'I' for Inactive)
REMARK    1  A    between atoms: C4_6  and  C5_7 
REMARK    2  A    between atoms: C7_9  and  N2_10 
REMARK       I    between atoms: N2_10  and  C8_11 
REMARK    3  A    between atoms: C8_11  and  C9_13 
REMARK    4  A    between atoms: C9_13  and  C10_15 
REMARK    5  A    between atoms: C10_15  and  C11_17 
REMARK    6  A    between atoms: C11_17  and  N4_18 
REMARK    7  A    between atoms: C11_17  and  O3_22 
REMARK    8  A    between atoms: C12_26  and  C13_27 
ROOT
HETATM    1  C5  UNL     1     -23.588   7.133  14.277  1.00  0.00     0.065 A 
HETATM    2  C6  UNL     1     -23.666   5.796  14.446  1.00  0.00     0.096 A 
HETATM    3  C7  UNL     1     -24.923   5.124  14.496  1.00  0.00     0.187 A 
HETATM    4  N5  UNL     1     -26.040   5.925  14.378  1.00  0.00    -0.313 N 
ATOM      5  H5  UNL     1     -26.964   5.495  14.418  1.00  0.00     0.170 HD
HETATM    6  C12 UNL     1     -25.944   7.270  14.209  1.00  0.00     0.193 A 
HETATM    7  N6  UNL     1     -24.755   7.865  14.156  1.00  0.00    -0.337 N 
ATOM      8  H6  UNL     1     -24.704   8.875  14.023  1.00  0.00     0.167 HD
ENDROOT
BRANCH   3   9
HETATM    9  N2  UNL     1     -24.991   3.966  14.390  1.00  0.00    -0.345 NA
HETATM   10  C8  UNL     1     -25.013   2.600  14.362  1.00  0.00     0.369 C 
HETATM   11  O1  UNL     1     -25.053   1.937  13.342  1.00  0.00    -0.247 OA
BRANCH  10  12
HETATM   12  C9  UNL     1     -25.037   1.976  15.765  1.00  0.00     0.278 C 
HETATM   13  O2  UNL     1     -24.058   2.117  16.460  1.00  0.00    -0.279 OA
BRANCH  12  14
HETATM   14  C10 UNL     1     -26.231   1.282  16.202  1.00  0.00     0.136 C 
HETATM   15  N3  UNL     1     -26.135  -0.113  16.431  1.00  0.00    -0.098 NA
BRANCH  14  16
HETATM   16  C11 UNL     1     -27.212   2.046  17.021  1.00  0.00     0.369 C 
BRANCH  16  17
HETATM   17  N4  UNL     1     -26.767   2.188  18.402  1.00  0.00    -0.048 N 
ATOM     18  H43 UNL     1     -26.458   3.140  18.597  1.00  0.00     0.277 HD
ATOM     19  H42 UNL     1     -27.551   2.139  19.053  1.00  0.00     0.277 HD
ATOM     20  H41 UNL     1     -26.045   1.507  18.637  1.00  0.00     0.277 HD
ENDBRANCH  16  17
BRANCH  16  21
HETATM   21  O3  UNL     1     -28.408   1.269  17.112  1.00  0.00    -0.365 OA
ATOM     22  H3  UNL     1     -29.113   1.848  17.375  1.00  0.00     0.212 HD
ENDBRANCH  16  21
ENDBRANCH  14  16
ENDBRANCH  12  14
ENDBRANCH  10  12
ENDBRANCH   3   9
BRANCH   1  23
HETATM   23  C4  UNL     1     -22.340   7.857  14.055  1.00  0.00     0.063 A 
HETATM   24  C3  UNL     1     -21.949   8.929  14.880  1.00  0.00     0.080 A 
HETATM   25  C2  UNL     1     -20.753   9.561  14.622  1.00  0.00     0.103 A 
HETATM   26  N1  UNL     1     -20.455  10.523  15.477  1.00  0.00    -0.381 N 
HETATM   27  N8  UNL     1     -19.946   9.201  13.622  1.00  0.00    -0.339 N 
HETATM   28  C1  UNL     1     -19.273  11.317  15.397  1.00  0.00     0.147 C 
ATOM     29  H1  UNL     1     -21.108  10.710  16.237  1.00  0.00     0.160 HD
HETATM   30  C14 UNL     1     -20.310   8.126  12.782  1.00  0.00     0.182 A 
ATOM     31  H8  UNL     1     -19.070   9.700  13.464  1.00  0.00     0.168 HD
HETATM   32  N7  UNL     1     -21.481   7.576  13.108  1.00  0.00    -0.350 N 
ATOM     33  H7  UNL     1     -21.756   6.795  12.513  1.00  0.00     0.166 HD
ENDBRANCH   1  23
BRANCH   6  34
HETATM   34  C13 UNL     1     -27.231   8.034  14.047  1.00  0.00     0.449 C 
HETATM   35  F1  UNL     1     -26.988   9.160  13.286  1.00  0.00    -0.163 F 
HETATM   36  F2  UNL     1     -28.158   7.287  13.342  1.00  0.00    -0.163 F 
HETATM   37  F3  UNL     1     -27.746   8.426  15.260  1.00  0.00    -0.163 F 
ENDBRANCH   6  34
TORSDOF 8
ENDMDL
