MODEL 1
REMARK VINA RESULT: -7.519449808      0.000      0.000
REMARK  7 active torsions:
REMARK  status: ('A' for Active; 'I' for Inactive)
REMARK    1  A    between atoms: C2_2  and  N1_3 
REMARK    2  A    between atoms: C2_2  and  C13_25 
REMARK    3  A    between atoms: C2_2  and  C14_32 
REMARK    4  A    between atoms: N1_3  and  C3_5 
REMARK    5  A    between atoms: C7_11  and  C8_12 
REMARK    6  A    between atoms: C9_13  and  N3_14 
REMARK       I    between atoms: C13_25  and  N6_27 
REMARK    7  A    between atoms: N6_27  and  N7_29 
ROOT
HETATM    1  C3  UNL     1     -25.186   7.141  12.861  1.00  0.00     0.112 A 
HETATM    2  N2  UNL     1     -25.112   8.410  12.440  1.00  0.00    -0.352 N 
ATOM      3  H2  UNL     1     -24.547   8.606  11.613  1.00  0.00     0.166 HD
HETATM    4  C4  UNL     1     -25.724   9.432  13.025  1.00  0.00     0.089 A 
HETATM    5  C5  UNL     1     -26.505   9.213  14.154  1.00  0.00     0.018 A 
HETATM    6  C6  UNL     1     -26.599   7.925  14.612  1.00  0.00     0.016 A 
HETATM    7  C7  UNL     1     -25.933   6.858  13.971  1.00  0.00     0.009 A 
ENDROOT
BRANCH   1   8
HETATM    8  N1  UNL     1     -24.609   6.158  12.030  1.00  0.00    -0.351 N 
ATOM      9  H1  UNL     1     -25.215   5.575  11.453  1.00  0.00     0.162 HD
BRANCH   8  10
HETATM   10  C2  UNL     1     -23.148   5.954  11.977  1.00  0.00     0.209 C 
HETATM   11  C1  UNL     1     -22.563   7.199  11.369  1.00  0.00     0.059 C 
BRANCH  10  12
HETATM   12  C13 UNL     1     -22.572   5.751  13.312  1.00  0.00     0.272 C 
HETATM   13  O4  UNL     1     -21.998   6.744  13.869  1.00  0.00    -0.269 OA
HETATM   14  N6  UNL     1     -22.588   4.565  14.047  1.00  0.00    -0.274 N 
ATOM     15  H6  UNL     1     -23.041   3.754  13.625  1.00  0.00     0.189 HD
BRANCH  14  16
HETATM   16  N7  UNL     1     -22.029   4.406  15.316  1.00  0.00    -0.343 N 
ATOM     17  H72 UNL     1     -22.245   5.130  16.001  1.00  0.00     0.176 HD
ATOM     18  H71 UNL     1     -21.431   3.629  15.596  1.00  0.00     0.176 HD
ENDBRANCH  14  16
ENDBRANCH  10  12
BRANCH  10  19
HETATM   19  C14 UNL     1     -22.870   4.764  11.064  1.00  0.00     0.421 C 
HETATM   20  F1  UNL     1     -23.768   3.755  11.207  1.00  0.00    -0.168 F 
HETATM   21  F2  UNL     1     -21.581   4.361  11.272  1.00  0.00    -0.168 F 
HETATM   22  F3  UNL     1     -22.938   5.167   9.726  1.00  0.00    -0.168 F 
ENDBRANCH  10  19
ENDBRANCH   8  10
ENDBRANCH   1   8
BRANCH   7  23
HETATM   23  C8  UNL     1     -25.979   5.582  14.656  1.00  0.00     0.034 C 
HETATM   24  C9  UNL     1     -26.156   4.388  14.213  1.00  0.00     0.122 C 
BRANCH  24  25
HETATM   25  N3  UNL     1     -26.180   3.236  15.027  1.00  0.00    -0.214 N 
HETATM   26  N4  UNL     1     -26.964   3.123  16.071  1.00  0.00    -0.251 N 
HETATM   27  C10 UNL     1     -26.986   2.003  16.858  1.00  0.00     0.328 A 
ATOM     28  H4  UNL     1     -27.582   3.900  16.306  1.00  0.00     0.191 HD
HETATM   29  O1  UNL     1     -27.763   1.947  17.854  1.00  0.00    -0.261 OA
HETATM   30  C11 UNL     1     -26.151   0.956  16.540  1.00  0.00     0.319 A 
HETATM   31  O2  UNL     1     -26.168  -0.082  17.266  1.00  0.00    -0.262 OA
HETATM   32  N5  UNL     1     -25.350   1.078  15.470  1.00  0.00    -0.269 N 
HETATM   33  C12 UNL     1     -25.360   2.180  14.735  1.00  0.00     0.348 A 
ATOM     34  H5  UNL     1     -24.724   0.313  15.220  1.00  0.00     0.174 HD
HETATM   35  O3  UNL     1     -24.589   2.262  13.728  1.00  0.00    -0.245 OA
ENDBRANCH  24  25
ENDBRANCH   7  23
TORSDOF 7
ENDMDL
MODEL 2
REMARK VINA RESULT: -7.493737852      1.086      1.728
REMARK  7 active torsions:
REMARK  status: ('A' for Active; 'I' for Inactive)
REMARK    1  A    between atoms: C2_2  and  N1_3 
REMARK    2  A    between atoms: C2_2  and  C13_25 
REMARK    3  A    between atoms: C2_2  and  C14_32 
REMARK    4  A    between atoms: N1_3  and  C3_5 
REMARK    5  A    between atoms: C7_11  and  C8_12 
REMARK    6  A    between atoms: C9_13  and  N3_14 
REMARK       I    between atoms: C13_25  and  N6_27 
REMARK    7  A    between atoms: N6_27  and  N7_29 
ROOT
HETATM    1  C3  UNL     1     -25.299   7.076  12.998  1.00  0.00     0.112 A 
HETATM    2  N2  UNL     1     -25.245   8.353  12.598  1.00  0.00    -0.352 N 
ATOM      3  H2  UNL     1     -24.773   8.556  11.716  1.00  0.00     0.166 HD
HETATM    4  C4  UNL     1     -25.763   9.373  13.270  1.00  0.00     0.089 A 
HETATM    5  C5  UNL     1     -26.415   9.144  14.476  1.00  0.00     0.018 A 
HETATM    6  C6  UNL     1     -26.485   7.847  14.914  1.00  0.00     0.016 A 
HETATM    7  C7  UNL     1     -25.921   6.782  14.179  1.00  0.00     0.009 A 
ENDROOT
BRANCH   1   8
HETATM    8  N1  UNL     1     -24.843   6.101  12.086  1.00  0.00    -0.351 N 
ATOM      9  H1  UNL     1     -25.509   5.664  11.449  1.00  0.00     0.162 HD
BRANCH   8  10
HETATM   10  C2  UNL     1     -23.423   5.700  12.032  1.00  0.00     0.209 C 
HETATM   11  C1  UNL     1     -22.618   6.969  12.070  1.00  0.00     0.059 C 
BRANCH  10  12
HETATM   12  C13 UNL     1     -23.047   4.854  13.171  1.00  0.00     0.272 C 
HETATM   13  O4  UNL     1     -23.504   3.665  13.205  1.00  0.00    -0.269 OA
HETATM   14  N6  UNL     1     -22.227   5.223  14.239  1.00  0.00    -0.274 N 
ATOM     15  H6  UNL     1     -21.847   6.170  14.237  1.00  0.00     0.189 HD
BRANCH  14  16
HETATM   16  N7  UNL     1     -21.889   4.393  15.308  1.00  0.00    -0.343 N 
ATOM     17  H72 UNL     1     -21.151   3.709  15.137  1.00  0.00     0.176 HD
ATOM     18  H71 UNL     1     -22.323   4.425  16.230  1.00  0.00     0.176 HD
ENDBRANCH  14  16
ENDBRANCH  10  12
BRANCH  10  19
HETATM   19  C14 UNL     1     -23.184   4.987  10.705  1.00  0.00     0.421 C 
HETATM   20  F1  UNL     1     -24.168   4.110  10.381  1.00  0.00    -0.168 F 
HETATM   21  F2  UNL     1     -21.948   4.404  10.753  1.00  0.00    -0.168 F 
HETATM   22  F3  UNL     1     -23.130   5.922   9.666  1.00  0.00    -0.168 F 
ENDBRANCH  10  19
ENDBRANCH   8  10
ENDBRANCH   1   8
BRANCH   7  23
HETATM   23  C8  UNL     1     -25.918   5.492  14.838  1.00  0.00     0.034 C 
HETATM   24  C9  UNL     1     -26.656   4.452  14.668  1.00  0.00     0.122 C 
BRANCH  24  25
HETATM   25  N3  UNL     1     -26.525   3.258  15.410  1.00  0.00    -0.214 N 
HETATM   26  N4  UNL     1     -25.739   2.278  15.039  1.00  0.00    -0.251 N 
HETATM   27  C10 UNL     1     -25.613   1.122  15.761  1.00  0.00     0.328 A 
ATOM     28  H4  UNL     1     -25.200   2.380  14.179  1.00  0.00     0.191 HD
HETATM   29  O1  UNL     1     -24.839   0.206  15.357  1.00  0.00    -0.261 OA
HETATM   30  C11 UNL     1     -26.341   0.984  16.921  1.00  0.00     0.319 A 
HETATM   31  O2  UNL     1     -26.227  -0.084  17.592  1.00  0.00    -0.262 OA
HETATM   32  N5  UNL     1     -27.145   1.992  17.295  1.00  0.00    -0.269 N 
HETATM   33  C12 UNL     1     -27.237   3.095  16.566  1.00  0.00     0.348 A 
ATOM     34  H5  UNL     1     -27.692   1.908  18.151  1.00  0.00     0.174 HD
HETATM   35  O3  UNL     1     -28.008   4.030  16.950  1.00  0.00    -0.245 OA
ENDBRANCH  24  25
ENDBRANCH   7  23
TORSDOF 7
ENDMDL
MODEL 3
REMARK VINA RESULT: -7.237821740      2.881      4.431
REMARK  7 active torsions:
REMARK  status: ('A' for Active; 'I' for Inactive)
REMARK    1  A    between atoms: C2_2  and  N1_3 
REMARK    2  A    between atoms: C2_2  and  C13_25 
REMARK    3  A    between atoms: C2_2  and  C14_32 
REMARK    4  A    between atoms: N1_3  and  C3_5 
REMARK    5  A    between atoms: C7_11  and  C8_12 
REMARK    6  A    between atoms: C9_13  and  N3_14 
REMARK       I    between atoms: C13_25  and  N6_27 
REMARK    7  A    between atoms: N6_27  and  N7_29 
ROOT
HETATM    1  C3  UNL     1     -23.862   6.822  12.313  1.00  0.00     0.112 A 
HETATM    2  N2  UNL     1     -23.226   7.549  11.385  1.00  0.00    -0.352 N 
ATOM      3  H2  UNL     1     -23.680   8.400  11.053  1.00  0.00     0.166 HD
HETATM    4  C4  UNL     1     -22.044   7.237  10.868  1.00  0.00     0.089 A 
HETATM    5  C5  UNL     1     -21.388   6.087  11.292  1.00  0.00     0.018 A 
HETATM    6  C6  UNL     1     -22.015   5.321  12.239  1.00  0.00     0.016 A 
HETATM    7  C7  UNL     1     -23.274   5.675  12.769  1.00  0.00     0.009 A 
ENDROOT
BRANCH   1   8
HETATM    8  N1  UNL     1     -25.030   7.382  12.872  1.00  0.00    -0.351 N 
ATOM      9  H1  UNL     1     -25.941   7.105  12.505  1.00  0.00     0.162 HD
BRANCH   8  10
HETATM   10  C2  UNL     1     -24.964   8.360  13.977  1.00  0.00     0.209 C 
HETATM   11  C1  UNL     1     -23.671   8.102  14.700  1.00  0.00     0.059 C 
BRANCH  10  12
HETATM   12  C13 UNL     1     -24.977   9.744  13.488  1.00  0.00     0.272 C 
HETATM   13  O4  UNL     1     -25.782  10.033  12.543  1.00  0.00    -0.269 OA
HETATM   14  N6  UNL     1     -24.187  10.793  13.959  1.00  0.00    -0.274 N 
ATOM     15  H6  UNL     1     -23.533  10.590  14.716  1.00  0.00     0.189 HD
BRANCH  14  16
HETATM   16  N7  UNL     1     -24.225  12.100  13.472  1.00  0.00    -0.343 N 
ATOM     17  H72 UNL     1     -23.334  12.504  13.183  1.00  0.00     0.176 HD
ATOM     18  H71 UNL     1     -25.070  12.666  13.388  1.00  0.00     0.176 HD
ENDBRANCH  14  16
ENDBRANCH  10  12
BRANCH  10  19
HETATM   19  C14 UNL     1     -26.134   8.089  14.917  1.00  0.00     0.421 C 
HETATM   20  F1  UNL     1     -26.642   9.214  15.482  1.00  0.00    -0.168 F 
HETATM   21  F2  UNL     1     -25.731   7.166  15.842  1.00  0.00    -0.168 F 
HETATM   22  F3  UNL     1     -27.184   7.493  14.210  1.00  0.00    -0.168 F 
ENDBRANCH  10  19
ENDBRANCH   8  10
ENDBRANCH   1   8
BRANCH   7  23
HETATM   23  C8  UNL     1     -23.896   4.692  13.632  1.00  0.00     0.034 C 
HETATM   24  C9  UNL     1     -24.969   3.996  13.489  1.00  0.00     0.122 C 
BRANCH  24  25
HETATM   25  N3  UNL     1     -25.446   3.071  14.442  1.00  0.00    -0.214 N 
HETATM   26  N4  UNL     1     -24.937   1.872  14.581  1.00  0.00    -0.251 N 
HETATM   27  C10 UNL     1     -25.402   0.978  15.508  1.00  0.00     0.328 A 
ATOM     28  H4  UNL     1     -24.165   1.594  13.976  1.00  0.00     0.191 HD
HETATM   29  O1  UNL     1     -24.873  -0.168  15.600  1.00  0.00    -0.261 OA
HETATM   30  C11 UNL     1     -26.444   1.354  16.324  1.00  0.00     0.319 A 
HETATM   31  O2  UNL     1     -26.877   0.529  17.182  1.00  0.00    -0.262 OA
HETATM   32  N5  UNL     1     -26.961   2.584  16.176  1.00  0.00    -0.269 N 
HETATM   33  C12 UNL     1     -26.482   3.419  15.266  1.00  0.00     0.348 A 
ATOM     34  H5  UNL     1     -27.735   2.879  16.771  1.00  0.00     0.174 HD
HETATM   35  O3  UNL     1     -26.995   4.576  15.153  1.00  0.00    -0.245 OA
ENDBRANCH  24  25
ENDBRANCH   7  23
TORSDOF 7
ENDMDL
MODEL 4
REMARK VINA RESULT: -7.180435847      1.672      2.379
REMARK  7 active torsions:
REMARK  status: ('A' for Active; 'I' for Inactive)
REMARK    1  A    between atoms: C2_2  and  N1_3 
REMARK    2  A    between atoms: C2_2  and  C13_25 
REMARK    3  A    between atoms: C2_2  and  C14_32 
REMARK    4  A    between atoms: N1_3  and  C3_5 
REMARK    5  A    between atoms: C7_11  and  C8_12 
REMARK    6  A    between atoms: C9_13  and  N3_14 
REMARK       I    between atoms: C13_25  and  N6_27 
REMARK    7  A    between atoms: N6_27  and  N7_29 
ROOT
HETATM    1  C3  UNL     1     -25.263   6.891  12.741  1.00  0.00     0.112 A 
HETATM    2  N2  UNL     1     -25.112   8.147  12.302  1.00  0.00    -0.352 N 
ATOM      3  H2  UNL     1     -24.828   8.281  11.331  1.00  0.00     0.166 HD
HETATM    4  C4  UNL     1     -25.307   9.230  13.044  1.00  0.00     0.089 A 
HETATM    5  C5  UNL     1     -25.696   9.096  14.371  1.00  0.00     0.018 A 
HETATM    6  C6  UNL     1     -25.856   7.823  14.852  1.00  0.00     0.016 A 
HETATM    7  C7  UNL     1     -25.638   6.688  14.040  1.00  0.00     0.009 A 
ENDROOT
BRANCH   1   8
HETATM    8  N1  UNL     1     -25.176   5.863  11.779  1.00  0.00    -0.351 N 
ATOM      9  H1  UNL     1     -25.970   5.688  11.163  1.00  0.00     0.162 HD
BRANCH   8  10
HETATM   10  C2  UNL     1     -23.960   5.036  11.643  1.00  0.00     0.209 C 
HETATM   11  C1  UNL     1     -22.949   5.599  12.604  1.00  0.00     0.059 C 
BRANCH  10  12
HETATM   12  C13 UNL     1     -24.212   3.629  11.976  1.00  0.00     0.272 C 
HETATM   13  O4  UNL     1     -23.416   3.058  12.792  1.00  0.00    -0.269 OA
HETATM   14  N6  UNL     1     -25.250   2.837  11.482  1.00  0.00    -0.274 N 
ATOM     15  H6  UNL     1     -25.903   3.268  10.827  1.00  0.00     0.189 HD
BRANCH  14  16
HETATM   16  N7  UNL     1     -25.462   1.499  11.819  1.00  0.00    -0.343 N 
ATOM     17  H72 UNL     1     -24.740   0.838  11.533  1.00  0.00     0.176 HD
ATOM     18  H71 UNL     1     -26.276   1.148  12.323  1.00  0.00     0.176 HD
ENDBRANCH  14  16
ENDBRANCH  10  12
BRANCH  10  19
HETATM   19  C14 UNL     1     -23.443   5.188  10.216  1.00  0.00     0.421 C 
HETATM   20  F1  UNL     1     -24.162   4.483   9.306  1.00  0.00    -0.168 F 
HETATM   21  F2  UNL     1     -22.115   4.864  10.209  1.00  0.00    -0.168 F 
HETATM   22  F3  UNL     1     -23.515   6.529   9.826  1.00  0.00    -0.168 F 
ENDBRANCH  10  19
ENDBRANCH   8  10
ENDBRANCH   1   8
BRANCH   7  23
HETATM   23  C8  UNL     1     -25.677   5.409  14.720  1.00  0.00     0.034 C 
HETATM   24  C9  UNL     1     -26.546   4.462  14.693  1.00  0.00     0.122 C 
BRANCH  24  25
HETATM   25  N3  UNL     1     -26.436   3.264  15.430  1.00  0.00    -0.214 N 
HETATM   26  N4  UNL     1     -25.574   2.324  15.128  1.00  0.00    -0.251 N 
HETATM   27  C10 UNL     1     -25.469   1.163  15.846  1.00  0.00     0.328 A 
ATOM     28  H4  UNL     1     -24.959   2.461  14.326  1.00  0.00     0.191 HD
HETATM   29  O1  UNL     1     -24.619   0.288  15.511  1.00  0.00    -0.261 OA
HETATM   30  C11 UNL     1     -26.300   0.977  16.928  1.00  0.00     0.319 A 
HETATM   31  O2  UNL     1     -26.205  -0.095  17.595  1.00  0.00    -0.262 OA
HETATM   32  N5  UNL     1     -27.180   1.944  17.232  1.00  0.00    -0.269 N 
HETATM   33  C12 UNL     1     -27.249   3.053  16.509  1.00  0.00     0.348 A 
ATOM     34  H5  UNL     1     -27.804   1.824  18.029  1.00  0.00     0.174 HD
HETATM   35  O3  UNL     1     -28.094   3.948  16.826  1.00  0.00    -0.245 OA
ENDBRANCH  24  25
ENDBRANCH   7  23
TORSDOF 7
ENDMDL
MODEL 5
REMARK VINA RESULT: -7.160090780      1.545      1.875
REMARK  7 active torsions:
REMARK  status: ('A' for Active; 'I' for Inactive)
REMARK    1  A    between atoms: C2_2  and  N1_3 
REMARK    2  A    between atoms: C2_2  and  C13_25 
REMARK    3  A    between atoms: C2_2  and  C14_32 
REMARK    4  A    between atoms: N1_3  and  C3_5 
REMARK    5  A    between atoms: C7_11  and  C8_12 
REMARK    6  A    between atoms: C9_13  and  N3_14 
REMARK       I    between atoms: C13_25  and  N6_27 
REMARK    7  A    between atoms: N6_27  and  N7_29 
ROOT
HETATM    1  C3  UNL     1     -24.983   7.389  13.110  1.00  0.00     0.112 A 
HETATM    2  N2  UNL     1     -25.033   8.659  12.686  1.00  0.00    -0.352 N 
ATOM      3  H2  UNL     1     -24.265   8.997  12.105  1.00  0.00     0.166 HD
HETATM    4  C4  UNL     1     -26.012   9.508  12.970  1.00  0.00     0.089 A 
HETATM    5  C5  UNL     1     -27.079   9.091  13.758  1.00  0.00     0.018 A 
HETATM    6  C6  UNL     1     -27.057   7.798  14.210  1.00  0.00     0.016 A 
HETATM    7  C7  UNL     1     -25.999   6.918  13.895  1.00  0.00     0.009 A 
ENDROOT
BRANCH   1   8
HETATM    8  N1  UNL     1     -23.957   6.579  12.582  1.00  0.00    -0.351 N 
ATOM      9  H1  UNL     1     -24.146   6.009  11.757  1.00  0.00     0.162 HD
BRANCH   8  10
HETATM   10  C2  UNL     1     -22.614   6.538  13.196  1.00  0.00     0.209 C 
HETATM   11  C1  UNL     1     -22.763   7.086  14.588  1.00  0.00     0.059 C 
BRANCH  10  12
HETATM   12  C13 UNL     1     -22.084   5.172  13.267  1.00  0.00     0.272 C 
HETATM   13  O4  UNL     1     -22.192   4.549  14.374  1.00  0.00    -0.269 OA
HETATM   14  N6  UNL     1     -21.462   4.471  12.232  1.00  0.00    -0.274 N 
ATOM     15  H6  UNL     1     -21.362   4.946  11.334  1.00  0.00     0.189 HD
BRANCH  14  16
HETATM   16  N7  UNL     1     -20.968   3.170  12.334  1.00  0.00    -0.343 N 
ATOM     17  H72 UNL     1     -19.993   3.075  12.616  1.00  0.00     0.176 HD
ATOM     18  H71 UNL     1     -21.509   2.326  12.148  1.00  0.00     0.176 HD
ENDBRANCH  14  16
ENDBRANCH  10  12
BRANCH  10  19
HETATM   19  C14 UNL     1     -21.698   7.450  12.386  1.00  0.00     0.421 C 
HETATM   20  F1  UNL     1     -21.948   7.417  11.052  1.00  0.00    -0.168 F 
HETATM   21  F2  UNL     1     -20.404   7.132  12.692  1.00  0.00    -0.168 F 
HETATM   22  F3  UNL     1     -21.874   8.779  12.789  1.00  0.00    -0.168 F 
ENDBRANCH  10  19
ENDBRANCH   8  10
ENDBRANCH   1   8
BRANCH   7  23
HETATM   23  C8  UNL     1     -26.017   5.639  14.576  1.00  0.00     0.034 C 
HETATM   24  C9  UNL     1     -26.129   4.440  14.124  1.00  0.00     0.122 C 
BRANCH  24  25
HETATM   25  N3  UNL     1     -26.135   3.285  14.935  1.00  0.00    -0.214 N 
HETATM   26  N4  UNL     1     -26.898   3.167  15.993  1.00  0.00    -0.251 N 
HETATM   27  C10 UNL     1     -26.902   2.045  16.777  1.00  0.00     0.328 A 
ATOM     28  H4  UNL     1     -27.513   3.942  16.243  1.00  0.00     0.191 HD
HETATM   29  O1  UNL     1     -27.660   1.984  17.789  1.00  0.00    -0.261 OA
HETATM   30  C11 UNL     1     -26.072   1.000  16.440  1.00  0.00     0.319 A 
HETATM   31  O2  UNL     1     -26.073  -0.040  17.163  1.00  0.00    -0.262 OA
HETATM   32  N5  UNL     1     -25.292   1.128  15.355  1.00  0.00    -0.269 N 
HETATM   33  C12 UNL     1     -25.319   2.232  14.623  1.00  0.00     0.348 A 
ATOM     34  H5  UNL     1     -24.670   0.364  15.090  1.00  0.00     0.174 HD
HETATM   35  O3  UNL     1     -24.568   2.319  13.602  1.00  0.00    -0.245 OA
ENDBRANCH  24  25
ENDBRANCH   7  23
TORSDOF 7
ENDMDL
