MODEL 1
REMARK VINA RESULT: -7.111341278      0.000      0.000
REMARK  5 active torsions:
REMARK  status: ('A' for Active; 'I' for Inactive)
REMARK    1  A    between atoms: C2_2  and  C4_4 
REMARK    2  A    between atoms: C10_11  and  O2_12 
REMARK    3  A    between atoms: C16_20  and  O4_21 
REMARK    4  A    between atoms: O4_21  and  C17_22 
REMARK    5  A    between atoms: C17_22  and  C18_23 
ROOT
HETATM    1  C4  UNL     1       5.422  -9.859 -10.458  1.00  0.00    -0.079 C 
HETATM    2  C5  UNL     1       6.354 -10.708 -10.060  1.00  0.00    -0.012 C 
HETATM    3  C6  UNL     1       7.571 -10.918 -10.878  1.00  0.00    -0.001 C 
HETATM    4  C7  UNL     1       7.135 -11.778 -12.075  1.00  0.00     0.022 C 
HETATM    5  C8  UNL     1       8.506 -11.812 -10.083  1.00  0.00     0.182 C 
HETATM    6  O1  UNL     1       9.073 -11.102  -9.125  1.00  0.00    -0.370 OA
HETATM    7  C9  UNL     1      10.273 -10.501  -9.211  1.00  0.00     0.145 C 
HETATM    8  C10 UNL     1      11.367 -11.389  -9.218  1.00  0.00     0.294 C 
HETATM    9  O3  UNL     1      11.592 -11.703 -10.581  1.00  0.00    -0.357 OA
HETATM   10  C11 UNL     1      11.052 -10.688 -11.365  1.00  0.00     0.183 C 
HETATM   11  C12 UNL     1      10.527  -9.688 -10.491  1.00  0.00     0.020 C 
HETATM   12  C13 UNL     1      11.568  -8.606 -10.258  1.00  0.00     0.021 C 
HETATM   13  C14 UNL     1       9.246  -9.024 -10.591  1.00  0.00     0.007 C 
HETATM   14  C15 UNL     1       8.976  -8.639  -9.154  1.00  0.00     0.041 C 
HETATM   15  C16 UNL     1      10.078  -9.328  -8.304  1.00  0.00     0.162 C 
HETATM   16  C21 UNL     1       8.140  -9.661 -11.336  1.00  0.00     0.005 C 
HETATM   17  C22 UNL     1       7.098  -8.599 -11.606  1.00  0.00     0.010 C 
HETATM   18  C23 UNL     1       5.699  -9.154 -11.743  1.00  0.00     0.034 C 
ENDROOT
BRANCH  15  19
HETATM   19  O4  UNL     1       9.413  -9.649  -7.124  1.00  0.00    -0.378 OA
BRANCH  19  20
HETATM   20  C17 UNL     1       9.440  -8.664  -6.170  1.00  0.00     0.229 C 
BRANCH  20  21
HETATM   21  C18 UNL     1       8.140  -8.524  -5.406  1.00  0.00     0.283 C 
HETATM   22  O5  UNL     1       8.222  -7.553  -4.439  1.00  0.00    -0.357 OA
HETATM   23  C19 UNL     1       7.254  -6.606  -4.671  1.00  0.00     0.197 C 
HETATM   24  C20 UNL     1       6.971  -6.778  -6.148  1.00  0.00     0.197 C 
HETATM   25  O6  UNL     1       7.171  -8.129  -6.328  1.00  0.00    -0.357 OA
ENDBRANCH  20  21
ENDBRANCH  19  20
ENDBRANCH  15  19
BRANCH   8  26
HETATM   26  O2  UNL     1      12.556 -11.093  -8.630  1.00  0.00    -0.368 OA
ATOM     27  H2  UNL     1      13.337 -11.618  -8.760  1.00  0.00     0.212 HD
ENDBRANCH   8  26
BRANCH   1  28
HETATM   28  C2  UNL     1       4.169  -9.591  -9.693  1.00  0.00     0.006 C 
HETATM   29  C1  UNL     1       4.363  -9.664  -8.218  1.00  0.00     0.014 C 
HETATM   30  C3  UNL     1       3.029 -10.451 -10.197  1.00  0.00     0.014 C 
ENDBRANCH   1  28
TORSDOF 5
ENDMDL
MODEL 2
REMARK VINA RESULT: -7.040037379      2.828      5.676
REMARK  5 active torsions:
REMARK  status: ('A' for Active; 'I' for Inactive)
REMARK    1  A    between atoms: C2_2  and  C4_4 
REMARK    2  A    between atoms: C10_11  and  O2_12 
REMARK    3  A    between atoms: C16_20  and  O4_21 
REMARK    4  A    between atoms: O4_21  and  C17_22 
REMARK    5  A    between atoms: C17_22  and  C18_23 
ROOT
HETATM    1  C4  UNL     1       7.849  -7.854  -6.486  1.00  0.00    -0.079 C 
HETATM    2  C5  UNL     1       8.755  -7.910  -7.447  1.00  0.00    -0.012 C 
HETATM    3  C6  UNL     1       9.268  -9.218  -7.914  1.00  0.00    -0.001 C 
HETATM    4  C7  UNL     1      10.231  -9.711  -6.821  1.00  0.00     0.022 C 
HETATM    5  C8  UNL     1      10.157  -8.956  -9.118  1.00  0.00     0.182 C 
HETATM    6  O1  UNL     1       9.399  -8.693 -10.166  1.00  0.00    -0.370 OA
HETATM    7  C9  UNL     1       9.004  -9.594 -11.083  1.00  0.00     0.145 C 
HETATM    8  C10 UNL     1      10.035 -10.052 -11.927  1.00  0.00     0.294 C 
HETATM    9  O3  UNL     1      10.588 -11.181 -11.274  1.00  0.00    -0.357 OA
HETATM   10  C11 UNL     1       9.638 -11.693 -10.393  1.00  0.00     0.183 C 
HETATM   11  C12 UNL     1       8.447 -10.916 -10.530  1.00  0.00     0.020 C 
HETATM   12  C13 UNL     1       7.509 -11.578 -11.526  1.00  0.00     0.021 C 
HETATM   13  C14 UNL     1       7.624 -10.384  -9.467  1.00  0.00     0.007 C 
HETATM   14  C15 UNL     1       6.984  -9.187 -10.132  1.00  0.00     0.041 C 
HETATM   15  C16 UNL     1       7.688  -9.024 -11.507  1.00  0.00     0.162 C 
HETATM   16  C21 UNL     1       8.197 -10.179  -8.121  1.00  0.00     0.005 C 
HETATM   17  C22 UNL     1       7.047 -10.005  -7.154  1.00  0.00     0.010 C 
HETATM   18  C23 UNL     1       7.402  -9.171  -5.945  1.00  0.00     0.034 C 
ENDROOT
BRANCH  15  19
HETATM   19  O4  UNL     1       7.719  -7.643 -11.685  1.00  0.00    -0.378 OA
BRANCH  19  20
HETATM   20  C17 UNL     1       7.809  -7.241 -12.993  1.00  0.00     0.229 C 
BRANCH  20  21
HETATM   21  C18 UNL     1       9.190  -6.758 -13.386  1.00  0.00     0.283 C 
HETATM   22  O5  UNL     1       9.718  -7.507 -14.407  1.00  0.00    -0.357 OA
HETATM   23  C19 UNL     1      10.008  -6.681 -15.466  1.00  0.00     0.197 C 
HETATM   24  C20 UNL     1       9.095  -5.498 -15.221  1.00  0.00     0.197 C 
HETATM   25  O6  UNL     1       9.044  -5.449 -13.845  1.00  0.00    -0.357 OA
ENDBRANCH  20  21
ENDBRANCH  19  20
ENDBRANCH  15  19
BRANCH   8  26
HETATM   26  O2  UNL     1       9.831 -10.356 -13.237  1.00  0.00    -0.368 OA
ATOM     27  H2  UNL     1      10.430 -10.898 -13.737  1.00  0.00     0.212 HD
ENDBRANCH   8  26
BRANCH   1  28
HETATM   28  C2  UNL     1       7.282  -6.579  -5.959  1.00  0.00     0.006 C 
HETATM   29  C1  UNL     1       7.377  -6.471  -4.476  1.00  0.00     0.014 C 
HETATM   30  C3  UNL     1       5.885  -6.341  -6.495  1.00  0.00     0.014 C 
ENDBRANCH   1  28
TORSDOF 5
ENDMDL
MODEL 3
REMARK VINA RESULT: -6.875546977      2.665      5.446
REMARK  5 active torsions:
REMARK  status: ('A' for Active; 'I' for Inactive)
REMARK    1  A    between atoms: C2_2  and  C4_4 
REMARK    2  A    between atoms: C10_11  and  O2_12 
REMARK    3  A    between atoms: C16_20  and  O4_21 
REMARK    4  A    between atoms: O4_21  and  C17_22 
REMARK    5  A    between atoms: C17_22  and  C18_23 
ROOT
HETATM    1  C4  UNL     1       7.622  -7.748  -6.493  1.00  0.00    -0.079 C 
HETATM    2  C5  UNL     1       8.659  -7.879  -7.302  1.00  0.00    -0.012 C 
HETATM    3  C6  UNL     1       9.204  -9.223  -7.606  1.00  0.00    -0.001 C 
HETATM    4  C7  UNL     1       9.981  -9.659  -6.352  1.00  0.00     0.022 C 
HETATM    5  C8  UNL     1      10.268  -9.053  -8.676  1.00  0.00     0.182 C 
HETATM    6  O1  UNL     1       9.680  -8.847  -9.840  1.00  0.00    -0.370 OA
HETATM    7  C9  UNL     1       9.404  -9.800 -10.749  1.00  0.00     0.145 C 
HETATM    8  C10 UNL     1      10.538 -10.327 -11.399  1.00  0.00     0.294 C 
HETATM    9  O3  UNL     1      10.959 -11.419 -10.601  1.00  0.00    -0.357 OA
HETATM   10  C11 UNL     1       9.877 -11.859  -9.844  1.00  0.00     0.183 C 
HETATM   11  C12 UNL     1       8.739 -11.074 -10.205  1.00  0.00     0.020 C 
HETATM   12  C13 UNL     1       7.943 -11.785 -11.287  1.00  0.00     0.021 C 
HETATM   13  C14 UNL     1       7.780 -10.462  -9.312  1.00  0.00     0.007 C 
HETATM   14  C15 UNL     1       7.276  -9.301 -10.138  1.00  0.00     0.041 C 
HETATM   15  C16 UNL     1       8.180  -9.238 -11.399  1.00  0.00     0.162 C 
HETATM   16  C21 UNL     1       8.152 -10.179  -7.910  1.00  0.00     0.005 C 
HETATM   17  C22 UNL     1       6.876  -9.925  -7.140  1.00  0.00     0.010 C 
HETATM   18  C23 UNL     1       7.068  -9.020  -5.944  1.00  0.00     0.034 C 
ENDROOT
BRANCH  15  19
HETATM   19  O4  UNL     1       8.271  -7.872 -11.656  1.00  0.00    -0.378 OA
BRANCH  19  20
HETATM   20  C17 UNL     1       8.635  -7.558 -12.940  1.00  0.00     0.229 C 
BRANCH  20  21
HETATM   21  C18 UNL     1       7.908  -6.353 -13.500  1.00  0.00     0.283 C 
HETATM   22  O5  UNL     1       7.819  -6.404 -14.869  1.00  0.00    -0.357 OA
HETATM   23  C19 UNL     1       6.495  -6.365 -15.234  1.00  0.00     0.197 C 
HETATM   24  C20 UNL     1       5.793  -6.861 -13.987  1.00  0.00     0.197 C 
HETATM   25  O6  UNL     1       6.611  -6.390 -12.985  1.00  0.00    -0.357 OA
ENDBRANCH  20  21
ENDBRANCH  19  20
ENDBRANCH  15  19
BRANCH   8  26
HETATM   26  O2  UNL     1      10.523 -10.712 -12.703  1.00  0.00    -0.368 OA
ATOM     27  H2  UNL     1      10.453 -11.621 -12.968  1.00  0.00     0.212 HD
ENDBRANCH   8  26
BRANCH   1  28
HETATM   28  C2  UNL     1       7.015  -6.433  -6.137  1.00  0.00     0.006 C 
HETATM   29  C1  UNL     1       7.082  -6.139  -4.678  1.00  0.00     0.014 C 
HETATM   30  C3  UNL     1       5.622  -6.301  -6.718  1.00  0.00     0.014 C 
ENDBRANCH   1  28
TORSDOF 5
ENDMDL
MODEL 4
REMARK VINA RESULT: -6.874389060      2.328      5.435
REMARK  5 active torsions:
REMARK  status: ('A' for Active; 'I' for Inactive)
REMARK    1  A    between atoms: C2_2  and  C4_4 
REMARK    2  A    between atoms: C10_11  and  O2_12 
REMARK    3  A    between atoms: C16_20  and  O4_21 
REMARK    4  A    between atoms: O4_21  and  C17_22 
REMARK    5  A    between atoms: C17_22  and  C18_23 
ROOT
HETATM    1  C4  UNL     1       7.464  -7.902  -6.492  1.00  0.00    -0.079 C 
HETATM    2  C5  UNL     1       8.615  -8.212  -7.064  1.00  0.00    -0.012 C 
HETATM    3  C6  UNL     1       8.948  -9.626  -7.352  1.00  0.00    -0.001 C 
HETATM    4  C7  UNL     1       9.318 -10.259  -6.000  1.00  0.00     0.022 C 
HETATM    5  C8  UNL     1      10.243  -9.637  -8.147  1.00  0.00     0.182 C 
HETATM    6  O1  UNL     1       9.989  -9.272  -9.390  1.00  0.00    -0.370 OA
HETATM    7  C9  UNL     1       9.753 -10.113 -10.413  1.00  0.00     0.145 C 
HETATM    8  C10 UNL     1      10.884 -10.836 -10.842  1.00  0.00     0.294 C 
HETATM    9  O3  UNL     1      10.894 -12.021 -10.065  1.00  0.00    -0.357 OA
HETATM   10  C11 UNL     1       9.602 -12.257  -9.601  1.00  0.00     0.183 C 
HETATM   11  C12 UNL     1       8.749 -11.244 -10.135  1.00  0.00     0.020 C 
HETATM   12  C13 UNL     1       8.104 -11.735 -11.420  1.00  0.00     0.021 C 
HETATM   13  C14 UNL     1       7.746 -10.482  -9.424  1.00  0.00     0.007 C 
HETATM   14  C15 UNL     1       7.677  -9.212 -10.241  1.00  0.00     0.041 C 
HETATM   15  C16 UNL     1       8.842  -9.288 -11.265  1.00  0.00     0.162 C 
HETATM   16  C21 UNL     1       7.832 -10.334  -7.957  1.00  0.00     0.005 C 
HETATM   17  C22 UNL     1       6.485  -9.854  -7.465  1.00  0.00     0.010 C 
HETATM   18  C23 UNL     1       6.566  -9.053  -6.185  1.00  0.00     0.034 C 
ENDROOT
BRANCH  15  19
HETATM   19  O4  UNL     1       9.248  -7.961 -11.381  1.00  0.00    -0.378 OA
BRANCH  19  20
HETATM   20  C17 UNL     1       9.874  -7.660 -12.563  1.00  0.00     0.229 C 
BRANCH  20  21
HETATM   21  C18 UNL     1      11.375  -7.500 -12.433  1.00  0.00     0.283 C 
HETATM   22  O5  UNL     1      12.049  -8.544 -13.016  1.00  0.00    -0.357 OA
HETATM   23  C19 UNL     1      12.890  -8.050 -13.983  1.00  0.00     0.197 C 
HETATM   24  C20 UNL     1      12.255  -6.718 -14.325  1.00  0.00     0.197 C 
HETATM   25  O6  UNL     1      11.717  -6.333 -13.117  1.00  0.00    -0.357 OA
ENDBRANCH  20  21
ENDBRANCH  19  20
ENDBRANCH  15  19
BRANCH   8  26
HETATM   26  O2  UNL     1      11.096 -11.160 -12.145  1.00  0.00    -0.368 OA
ATOM     27  H2  UNL     1      11.738 -11.805 -12.414  1.00  0.00     0.212 HD
ENDBRANCH   8  26
BRANCH   1  28
HETATM   28  C2  UNL     1       7.054  -6.505  -6.169  1.00  0.00     0.006 C 
HETATM   29  C1  UNL     1       7.162  -6.189  -4.716  1.00  0.00     0.014 C 
HETATM   30  C3  UNL     1       5.695  -6.186  -6.757  1.00  0.00     0.014 C 
ENDBRANCH   1  28
TORSDOF 5
ENDMDL
MODEL 5
REMARK VINA RESULT: -6.745649428      2.551      4.564
REMARK  5 active torsions:
REMARK  status: ('A' for Active; 'I' for Inactive)
REMARK    1  A    between atoms: C2_2  and  C4_4 
REMARK    2  A    between atoms: C10_11  and  O2_12 
REMARK    3  A    between atoms: C16_20  and  O4_21 
REMARK    4  A    between atoms: O4_21  and  C17_22 
REMARK    5  A    between atoms: C17_22  and  C18_23 
ROOT
HETATM    1  C4  UNL     1       5.417 -10.464 -11.827  1.00  0.00    -0.079 C 
HETATM    2  C5  UNL     1       6.159 -10.922 -10.834  1.00  0.00    -0.012 C 
HETATM    3  C6  UNL     1       7.310 -10.133 -10.338  1.00  0.00    -0.001 C 
HETATM    4  C7  UNL     1       8.419 -10.290 -11.391  1.00  0.00     0.022 C 
HETATM    5  C8  UNL     1       7.850 -10.838  -9.105  1.00  0.00     0.182 C 
HETATM    6  O1  UNL     1       7.041 -10.608  -8.087  1.00  0.00    -0.370 OA
HETATM    7  C9  UNL     1       7.199  -9.630  -7.177  1.00  0.00     0.145 C 
HETATM    8  C10 UNL     1       8.277  -9.830  -6.293  1.00  0.00     0.294 C 
HETATM    9  O3  UNL     1       9.397  -9.226  -6.917  1.00  0.00    -0.357 OA
HETATM   10  C11 UNL     1       8.939  -8.276  -7.826  1.00  0.00     0.183 C 
HETATM   11  C12 UNL     1       7.514  -8.234  -7.739  1.00  0.00     0.020 C 
HETATM   12  C13 UNL     1       7.087  -7.142  -6.772  1.00  0.00     0.021 C 
HETATM   13  C14 UNL     1       6.571  -8.217  -8.836  1.00  0.00     0.007 C 
HETATM   14  C15 UNL     1       5.341  -8.827  -8.204  1.00  0.00     0.041 C 
HETATM   15  C16 UNL     1       5.779  -9.343  -6.806  1.00  0.00     0.162 C 
HETATM   16  C21 UNL     1       6.971  -8.730 -10.162  1.00  0.00     0.005 C 
HETATM   17  C22 UNL     1       5.961  -8.231 -11.170  1.00  0.00     0.010 C 
HETATM   18  C23 UNL     1       5.819  -9.135 -12.374  1.00  0.00     0.034 C 
ENDROOT
BRANCH  15  19
HETATM   19  O4  UNL     1       5.011 -10.493  -6.639  1.00  0.00    -0.378 OA
BRANCH  19  20
HETATM   20  C17 UNL     1       3.658 -10.274  -6.615  1.00  0.00     0.229 C 
BRANCH  20  21
HETATM   21  C18 UNL     1       2.869 -11.261  -7.451  1.00  0.00     0.283 C 
HETATM   22  O5  UNL     1       2.118 -12.102  -6.669  1.00  0.00    -0.357 OA
HETATM   23  C19 UNL     1       0.796 -11.979  -7.018  1.00  0.00     0.197 C 
HETATM   24  C20 UNL     1       0.748 -10.606  -7.656  1.00  0.00     0.197 C 
HETATM   25  O6  UNL     1       1.993 -10.512  -8.238  1.00  0.00    -0.357 OA
ENDBRANCH  20  21
ENDBRANCH  19  20
ENDBRANCH  15  19
BRANCH   8  26
HETATM   26  O2  UNL     1       8.238  -9.446  -4.989  1.00  0.00    -0.368 OA
ATOM     27  H2  UNL     1       8.738  -8.710  -4.656  1.00  0.00     0.212 HD
ENDBRANCH   8  26
BRANCH   1  28
HETATM   28  C2  UNL     1       4.243 -11.196 -12.385  1.00  0.00     0.006 C 
HETATM   29  C1  UNL     1       3.241 -11.563 -11.345  1.00  0.00     0.014 C 
HETATM   30  C3  UNL     1       4.685 -12.366 -13.239  1.00  0.00     0.014 C 
ENDBRANCH   1  28
TORSDOF 5
ENDMDL
