MODEL 1
REMARK VINA RESULT: -6.378118608      0.000      0.000
REMARK  5 active torsions:
REMARK  status: ('A' for Active; 'I' for Inactive)
REMARK    1  A    between atoms: C8_10  and  S1_11 
REMARK    2  A    between atoms: C11_16  and  C12_17 
REMARK    3  A    between atoms: C13_18  and  C14_19 
REMARK    4  A    between atoms: C17_23  and  O6_24 
REMARK    5  A    between atoms: O6_24  and  C18_25 
ROOT
HETATM    1  C1  UNL     1       6.219 -11.937 -12.859  1.00  0.00     0.015 C 
HETATM    2  C2  UNL     1       6.265 -10.627 -12.951  1.00  0.00    -0.081 C 
HETATM    3  C3  UNL     1       5.514  -9.946 -14.038  1.00  0.00     0.034 C 
HETATM    4  C4  UNL     1       5.790  -8.467 -13.895  1.00  0.00     0.010 C 
HETATM    5  C5  UNL     1       7.236  -8.119 -13.802  1.00  0.00     0.008 C 
HETATM    6  C6  UNL     1       7.319  -6.657 -13.372  1.00  0.00     0.116 C 
HETATM    7  C7  UNL     1       8.755  -6.288 -13.415  1.00  0.00     0.260 C 
HETATM    8  O1  UNL     1       9.232  -5.294 -13.998  1.00  0.00    -0.265 OA
HETATM    9  O2  UNL     1       9.618  -7.159 -12.730  1.00  0.00    -0.298 OA
HETATM   10  C8  UNL     1       9.041  -8.288 -12.072  1.00  0.00     0.278 C 
HETATM   11  C9  UNL     1       8.041  -9.028 -12.888  1.00  0.00     0.012 C 
HETATM   12  C10 UNL     1       8.774  -9.988 -13.798  1.00  0.00     0.020 C 
HETATM   13  C11 UNL     1       7.022  -9.764 -12.033  1.00  0.00     0.048 C 
ENDROOT
BRANCH  13  14
HETATM   14  C12 UNL     1       7.620 -10.455 -10.898  1.00  0.00    -0.018 C 
HETATM   15  C13 UNL     1       7.135 -10.408  -9.679  1.00  0.00     0.004 C 
BRANCH  15  16
HETATM   16  C14 UNL     1       5.901  -9.631  -9.313  1.00  0.00     0.173 C 
HETATM   17  O5  UNL     1       4.772 -10.372  -9.467  1.00  0.00    -0.379 OA
HETATM   18  C15 UNL     1       3.838  -9.857  -8.587  1.00  0.00     0.171 C 
HETATM   19  C16 UNL     1       4.674  -9.660  -7.304  1.00  0.00     0.061 C 
HETATM   20  C17 UNL     1       5.959  -9.139  -7.905  1.00  0.00     0.157 C 
BRANCH  20  21
HETATM   21  O6  UNL     1       7.090  -9.585  -7.288  1.00  0.00    -0.373 OA
BRANCH  21  22
HETATM   22  C18 UNL     1       7.798  -8.698  -6.558  1.00  0.00     0.050 C 
HETATM   23  C19 UNL     1       8.260  -9.406  -5.278  1.00  0.00     0.045 C 
HETATM   24  C20 UNL     1       9.048  -8.269  -7.292  1.00  0.00     0.045 C 
HETATM   25  C21 UNL     1       7.062  -7.454  -6.148  1.00  0.00     0.045 C 
ENDBRANCH  21  22
ENDBRANCH  20  21
ENDBRANCH  15  16
ENDBRANCH  13  14
BRANCH  10  26
HETATM   26  S1  UNL     1      10.388  -9.325 -11.561  1.00  0.00     0.281 S 
HETATM   27  O3  UNL     1      10.869  -8.906  -9.977  1.00  0.00    -0.209 OA
HETATM   28  O4  UNL     1      11.781  -9.009 -12.493  1.00  0.00    -0.209 OA
ENDBRANCH  10  26
TORSDOF 5
ENDMDL
MODEL 2
REMARK VINA RESULT: -6.338259600      2.182      6.980
REMARK  5 active torsions:
REMARK  status: ('A' for Active; 'I' for Inactive)
REMARK    1  A    between atoms: C8_10  and  S1_11 
REMARK    2  A    between atoms: C11_16  and  C12_17 
REMARK    3  A    between atoms: C13_18  and  C14_19 
REMARK    4  A    between atoms: C17_23  and  O6_24 
REMARK    5  A    between atoms: O6_24  and  C18_25 
ROOT
HETATM    1  C1  UNL     1       9.811 -10.916  -8.784  1.00  0.00     0.015 C 
HETATM    2  C2  UNL     1       9.388  -9.785  -8.265  1.00  0.00    -0.081 C 
HETATM    3  C3  UNL     1      10.124  -9.187  -7.121  1.00  0.00     0.034 C 
HETATM    4  C4  UNL     1       9.381  -7.928  -6.737  1.00  0.00     0.010 C 
HETATM    5  C5  UNL     1       7.919  -8.120  -6.524  1.00  0.00     0.008 C 
HETATM    6  C6  UNL     1       7.292  -6.731  -6.439  1.00  0.00     0.116 C 
HETATM    7  C7  UNL     1       5.864  -6.937  -6.094  1.00  0.00     0.260 C 
HETATM    8  O1  UNL     1       5.255  -6.374  -5.162  1.00  0.00    -0.265 OA
HETATM    9  O2  UNL     1       5.176  -7.850  -6.908  1.00  0.00    -0.298 OA
HETATM   10  C8  UNL     1       5.902  -8.477  -7.967  1.00  0.00     0.278 C 
HETATM   11  C9  UNL     1       7.242  -8.987  -7.573  1.00  0.00     0.012 C 
HETATM   12  C10 UNL     1       7.075 -10.350  -6.940  1.00  0.00     0.020 C 
HETATM   13  C11 UNL     1       8.208  -9.050  -8.745  1.00  0.00     0.048 C 
ENDROOT
BRANCH  13  14
HETATM   14  C12 UNL     1       7.603  -9.590  -9.956  1.00  0.00    -0.018 C 
HETATM   15  C13 UNL     1       7.917  -9.189 -11.167  1.00  0.00     0.004 C 
BRANCH  15  16
HETATM   16  C14 UNL     1       8.938  -8.121 -11.443  1.00  0.00     0.173 C 
HETATM   17  O5  UNL     1      10.206  -8.605 -11.378  1.00  0.00    -0.379 OA
HETATM   18  C15 UNL     1      10.979  -7.800 -12.194  1.00  0.00     0.171 C 
HETATM   19  C16 UNL     1      10.085  -7.650 -13.444  1.00  0.00     0.061 C 
HETATM   20  C17 UNL     1       8.734  -7.498 -12.784  1.00  0.00     0.157 C 
BRANCH  20  21
HETATM   21  O6  UNL     1       7.712  -8.112 -13.446  1.00  0.00    -0.373 OA
BRANCH  21  22
HETATM   22  C18 UNL     1       6.819  -7.329 -14.087  1.00  0.00     0.050 C 
HETATM   23  C19 UNL     1       5.955  -8.232 -14.975  1.00  0.00     0.045 C 
HETATM   24  C20 UNL     1       5.884  -6.662 -13.105  1.00  0.00     0.045 C 
HETATM   25  C21 UNL     1       7.401  -6.256 -14.962  1.00  0.00     0.045 C 
ENDBRANCH  21  22
ENDBRANCH  20  21
ENDBRANCH  15  16
ENDBRANCH  13  14
BRANCH  10  26
HETATM   26  S1  UNL     1       4.859  -9.762  -8.610  1.00  0.00     0.281 S 
HETATM   27  O3  UNL     1       4.186  -9.266 -10.099  1.00  0.00    -0.209 OA
HETATM   28  O4  UNL     1       3.492  -9.985  -7.615  1.00  0.00    -0.209 OA
ENDBRANCH  10  26
TORSDOF 5
ENDMDL
MODEL 3
REMARK VINA RESULT: -6.202674032      0.929      1.011
REMARK  5 active torsions:
REMARK  status: ('A' for Active; 'I' for Inactive)
REMARK    1  A    between atoms: C8_10  and  S1_11 
REMARK    2  A    between atoms: C11_16  and  C12_17 
REMARK    3  A    between atoms: C13_18  and  C14_19 
REMARK    4  A    between atoms: C17_23  and  O6_24 
REMARK    5  A    between atoms: O6_24  and  C18_25 
ROOT
HETATM    1  C1  UNL     1       5.757 -11.261 -12.857  1.00  0.00     0.015 C 
HETATM    2  C2  UNL     1       6.302 -10.065 -12.838  1.00  0.00    -0.081 C 
HETATM    3  C3  UNL     1       5.839  -9.038 -13.807  1.00  0.00     0.034 C 
HETATM    4  C4  UNL     1       6.669  -7.799 -13.556  1.00  0.00     0.010 C 
HETATM    5  C5  UNL     1       8.140  -8.041 -13.536  1.00  0.00     0.008 C 
HETATM    6  C6  UNL     1       8.795  -6.776 -12.989  1.00  0.00     0.116 C 
HETATM    7  C7  UNL     1      10.260  -6.980 -13.101  1.00  0.00     0.260 C 
HETATM    8  O1  UNL     1      11.064  -6.186 -13.629  1.00  0.00    -0.265 OA
HETATM    9  O2  UNL     1      10.741  -8.181 -12.556  1.00  0.00    -0.298 OA
HETATM   10  C8  UNL     1       9.793  -9.069 -11.959  1.00  0.00     0.278 C 
HETATM   11  C9  UNL     1       8.560  -9.280 -12.763  1.00  0.00     0.012 C 
HETATM   12  C10 UNL     1       8.835 -10.344 -13.801  1.00  0.00     0.020 C 
HETATM   13  C11 UNL     1       7.364  -9.659 -11.905  1.00  0.00     0.048 C 
ENDROOT
BRANCH  13  14
HETATM   14  C12 UNL     1       7.685 -10.643 -10.879  1.00  0.00    -0.018 C 
HETATM   15  C13 UNL     1       7.101 -10.685  -9.703  1.00  0.00     0.004 C 
BRANCH  15  16
HETATM   16  C14 UNL     1       6.032  -9.717  -9.278  1.00  0.00     0.173 C 
HETATM   17  O5  UNL     1       4.802 -10.295  -9.267  1.00  0.00    -0.379 OA
HETATM   18  C15 UNL     1       4.047  -9.599  -8.342  1.00  0.00     0.171 C 
HETATM   19  C16 UNL     1       5.034  -9.447  -7.164  1.00  0.00     0.061 C 
HETATM   20  C17 UNL     1       6.306  -9.154  -7.923  1.00  0.00     0.157 C 
BRANCH  20  21
HETATM   21  O6  UNL     1       7.425  -9.721  -7.388  1.00  0.00    -0.373 OA
BRANCH  21  22
HETATM   22  C18 UNL     1       8.345  -8.898  -6.842  1.00  0.00     0.050 C 
HETATM   23  C19 UNL     1       9.036  -9.657  -5.702  1.00  0.00     0.045 C 
HETATM   24  C20 UNL     1       9.420  -8.550  -7.846  1.00  0.00     0.045 C 
HETATM   25  C21 UNL     1       7.817  -7.611  -6.276  1.00  0.00     0.045 C 
ENDBRANCH  21  22
ENDBRANCH  20  21
ENDBRANCH  15  16
ENDBRANCH  13  14
BRANCH  10  26
HETATM   26  S1  UNL     1      10.651 -10.589 -11.635  1.00  0.00     0.281 S 
HETATM   27  O3  UNL     1      11.086 -10.665  -9.987  1.00  0.00    -0.209 OA
HETATM   28  O4  UNL     1      12.153 -10.618 -12.442  1.00  0.00    -0.209 OA
ENDBRANCH  10  26
TORSDOF 5
ENDMDL
MODEL 4
REMARK VINA RESULT: -5.877346404      2.848      5.026
REMARK  5 active torsions:
REMARK  status: ('A' for Active; 'I' for Inactive)
REMARK    1  A    between atoms: C8_10  and  S1_11 
REMARK    2  A    between atoms: C11_16  and  C12_17 
REMARK    3  A    between atoms: C13_18  and  C14_19 
REMARK    4  A    between atoms: C17_23  and  O6_24 
REMARK    5  A    between atoms: O6_24  and  C18_25 
ROOT
HETATM    1  C1  UNL     1       5.924  -6.762 -13.025  1.00  0.00     0.015 C 
HETATM    2  C2  UNL     1       6.716  -7.746 -12.662  1.00  0.00    -0.081 C 
HETATM    3  C3  UNL     1       8.182  -7.611 -12.859  1.00  0.00     0.034 C 
HETATM    4  C4  UNL     1       8.805  -8.902 -12.378  1.00  0.00     0.010 C 
HETATM    5  C5  UNL     1       8.193 -10.131 -12.958  1.00  0.00     0.008 C 
HETATM    6  C6  UNL     1       8.726 -11.318 -12.161  1.00  0.00     0.116 C 
HETATM    7  C7  UNL     1       8.216 -12.538 -12.833  1.00  0.00     0.260 C 
HETATM    8  O1  UNL     1       8.908 -13.513 -13.188  1.00  0.00    -0.265 OA
HETATM    9  O2  UNL     1       6.833 -12.556 -13.071  1.00  0.00    -0.298 OA
HETATM   10  C8  UNL     1       6.069 -11.424 -12.652  1.00  0.00     0.278 C 
HETATM   11  C9  UNL     1       6.674 -10.112 -13.004  1.00  0.00     0.012 C 
HETATM   12  C10 UNL     1       6.305  -9.776 -14.431  1.00  0.00     0.020 C 
HETATM   13  C11 UNL     1       6.245  -9.001 -12.059  1.00  0.00     0.048 C 
ENDROOT
BRANCH  13  14
HETATM   14  C12 UNL     1       4.821  -9.033 -11.747  1.00  0.00    -0.018 C 
HETATM   15  C13 UNL     1       4.343  -9.323 -10.559  1.00  0.00     0.004 C 
BRANCH  15  16
HETATM   16  C14 UNL     1       5.212  -9.659  -9.380  1.00  0.00     0.173 C 
HETATM   17  O5  UNL     1       6.123  -8.682  -9.128  1.00  0.00    -0.379 OA
HETATM   18  C15 UNL     1       6.421  -8.757  -7.781  1.00  0.00     0.171 C 
HETATM   19  C16 UNL     1       5.024  -8.936  -7.148  1.00  0.00     0.061 C 
HETATM   20  C17 UNL     1       4.403  -9.884  -8.146  1.00  0.00     0.157 C 
BRANCH  20  21
HETATM   21  O6  UNL     1       3.081  -9.656  -8.393  1.00  0.00    -0.373 OA
BRANCH  21  22
HETATM   22  C18 UNL     1       2.196 -10.589  -7.984  1.00  0.00     0.050 C 
HETATM   23  C19 UNL     1       0.817 -10.199  -8.530  1.00  0.00     0.045 C 
HETATM   24  C20 UNL     1       2.528 -11.942  -8.571  1.00  0.00     0.045 C 
HETATM   25  C21 UNL     1       2.064 -10.758  -6.497  1.00  0.00     0.045 C 
ENDBRANCH  21  22
ENDBRANCH  20  21
ENDBRANCH  15  16
ENDBRANCH  13  14
BRANCH  10  26
HETATM   26  S1  UNL     1       4.445 -11.620 -13.341  1.00  0.00     0.281 S 
HETATM   27  O3  UNL     1       3.397 -12.283 -12.168  1.00  0.00    -0.209 OA
HETATM   28  O4  UNL     1       4.451 -12.797 -14.576  1.00  0.00    -0.209 OA
ENDBRANCH  10  26
TORSDOF 5
ENDMDL
MODEL 5
REMARK VINA RESULT: -5.876861629      2.752      5.736
REMARK  5 active torsions:
REMARK  status: ('A' for Active; 'I' for Inactive)
REMARK    1  A    between atoms: C8_10  and  S1_11 
REMARK    2  A    between atoms: C11_16  and  C12_17 
REMARK    3  A    between atoms: C13_18  and  C14_19 
REMARK    4  A    between atoms: C17_23  and  O6_24 
REMARK    5  A    between atoms: O6_24  and  C18_25 
ROOT
HETATM    1  C1  UNL     1       6.082  -7.924  -8.044  1.00  0.00     0.015 C 
HETATM    2  C2  UNL     1       6.665  -9.071  -8.313  1.00  0.00    -0.081 C 
HETATM    3  C3  UNL     1       7.685  -9.608  -7.376  1.00  0.00     0.034 C 
HETATM    4  C4  UNL     1       8.183 -10.905  -7.972  1.00  0.00     0.010 C 
HETATM    5  C5  UNL     1       8.616 -10.799  -9.394  1.00  0.00     0.008 C 
HETATM    6  C6  UNL     1       8.801 -12.222  -9.914  1.00  0.00     0.116 C 
HETATM    7  C7  UNL     1       9.360 -12.098 -11.283  1.00  0.00     0.260 C 
HETATM    8  O1  UNL     1      10.376 -12.685 -11.707  1.00  0.00    -0.265 OA
HETATM    9  O2  UNL     1       8.656 -11.239 -12.142  1.00  0.00    -0.298 OA
HETATM   10  C8  UNL     1       7.497 -10.584 -11.625  1.00  0.00     0.278 C 
HETATM   11  C9  UNL     1       7.679  -9.988 -10.275  1.00  0.00     0.012 C 
HETATM   12  C10 UNL     1       8.324  -8.630 -10.428  1.00  0.00     0.020 C 
HETATM   13  C11 UNL     1       6.373  -9.883  -9.504  1.00  0.00     0.048 C 
ENDROOT
BRANCH  13  14
HETATM   14  C12 UNL     1       5.266  -9.398 -10.318  1.00  0.00    -0.018 C 
HETATM   15  C13 UNL     1       4.019  -9.771 -10.148  1.00  0.00     0.004 C 
BRANCH  15  16
HETATM   16  C14 UNL     1       3.588 -10.749  -9.090  1.00  0.00     0.173 C 
HETATM   17  O5  UNL     1       3.084 -10.120  -7.996  1.00  0.00    -0.379 OA
HETATM   18  C15 UNL     1       2.206 -11.007  -7.400  1.00  0.00     0.171 C 
HETATM   19  C16 UNL     1       1.432 -11.563  -8.615  1.00  0.00     0.061 C 
HETATM   20  C17 UNL     1       2.562 -11.702  -9.606  1.00  0.00     0.157 C 
BRANCH  20  21
HETATM   21  O6  UNL     1       2.226 -11.393 -10.891  1.00  0.00    -0.373 OA
BRANCH  21  22
HETATM   22  C18 UNL     1       2.242 -12.390 -11.801  1.00  0.00     0.050 C 
HETATM   23  C19 UNL     1       0.816 -12.552 -12.343  1.00  0.00     0.045 C 
HETATM   24  C20 UNL     1       3.117 -12.031 -12.980  1.00  0.00     0.045 C 
HETATM   25  C21 UNL     1       2.689 -13.731 -11.293  1.00  0.00     0.045 C 
ENDBRANCH  21  22
ENDBRANCH  20  21
ENDBRANCH  15  16
ENDBRANCH  13  14
BRANCH  10  26
HETATM   26  S1  UNL     1       7.014  -9.374 -12.832  1.00  0.00     0.281 S 
HETATM   27  O3  UNL     1       5.766 -10.003 -13.811  1.00  0.00    -0.209 OA
HETATM   28  O4  UNL     1       8.279  -9.088 -13.939  1.00  0.00    -0.209 OA
ENDBRANCH  10  26
TORSDOF 5
ENDMDL
