MODEL 1
REMARK VINA RESULT: -7.337310984      0.000      0.000
REMARK  6 active torsions:
REMARK  status: ('A' for Active; 'I' for Inactive)
REMARK    1  A    between atoms: C2_2  and  C4_4 
REMARK    2  A    between atoms: C4_4  and  O2_6 
REMARK    3  A    between atoms: O2_6  and  C5_7 
REMARK    4  A    between atoms: C17_20  and  O4_21 
REMARK    5  A    between atoms: O4_21  and  C18_22 
REMARK    6  A    between atoms: C20_26  and  O7_27 
ROOT
HETATM    1  C5  UNL     1      15.121  12.610   4.755  1.00  0.00     0.137 C 
HETATM    2  C6  UNL     1      14.729  12.165   3.388  1.00  0.00     0.038 C 
HETATM    3  C7  UNL     1      15.672  12.409   2.281  1.00  0.00     0.003 C 
HETATM    4  C8  UNL     1      16.580  11.228   2.022  1.00  0.00     0.006 C 
HETATM    5  C9  UNL     1      17.942  11.249   2.566  1.00  0.00     0.005 C 
HETATM    6  C10 UNL     1      18.252  12.279   3.588  1.00  0.00    -0.008 C 
HETATM    7  C11 UNL     1      19.687  12.650   3.744  1.00  0.00     0.011 C 
HETATM    8  C12 UNL     1      17.293  13.455   3.649  1.00  0.00    -0.011 C 
HETATM    9  C13 UNL     1      17.980  14.798   3.725  1.00  0.00     0.090 C 
HETATM   10  C14 UNL     1      17.047  15.743   2.996  1.00  0.00     0.136 C 
HETATM   11  O3  UNL     1      17.193  16.905   2.711  1.00  0.00    -0.297 OA
HETATM   12  C15 UNL     1      15.818  14.917   2.664  1.00  0.00     0.097 C 
HETATM   13  C16 UNL     1      15.033  15.506   1.555  1.00  0.00     0.050 C 
HETATM   14  C17 UNL     1      15.295  15.193   0.325  1.00  0.00     0.187 C 
HETATM   15  O6  UNL     1      16.287  14.329   0.078  1.00  0.00    -0.298 OA
HETATM   16  C20 UNL     1      17.180  13.784   1.099  1.00  0.00     0.278 C 
HETATM   17  C22 UNL     1      16.505  13.633   2.380  1.00  0.00     0.036 C 
HETATM   18  C23 UNL     1      16.444  13.312   4.878  1.00  0.00     0.021 C 
HETATM   19  C24 UNL     1      16.375  14.433   5.839  1.00  0.00     0.013 C 
ENDROOT
BRANCH   1  20
HETATM   20  O2  UNL     1      14.938  11.602   5.730  1.00  0.00    -0.312 OA
BRANCH  20  21
HETATM   21  C4  UNL     1      14.800  11.698   7.058  1.00  0.00     0.288 C 
HETATM   22  O1  UNL     1      15.697  11.217   7.751  1.00  0.00    -0.260 OA
BRANCH  21  23
HETATM   23  C2  UNL     1      13.612  12.358   7.636  1.00  0.00     0.004 C 
HETATM   24  C1  UNL     1      13.541  13.641   7.844  1.00  0.00     0.024 C 
HETATM   25  C3  UNL     1      12.433  11.512   8.025  1.00  0.00     0.054 C 
ENDBRANCH  21  23
ENDBRANCH  20  21
ENDBRANCH   1  20
BRANCH  16  26
HETATM   26  O7  UNL     1      18.233  14.636   0.951  1.00  0.00    -0.365 OA
HETATM   27  C21 UNL     1      19.305  14.065   0.271  1.00  0.00     0.204 C 
ENDBRANCH  16  26
BRANCH  14  28
HETATM   28  O4  UNL     1      14.556  15.748  -0.708  1.00  0.00    -0.256 OA
BRANCH  28  29
HETATM   29  C18 UNL     1      13.662  14.927  -1.407  1.00  0.00     0.261 C 
HETATM   30  C19 UNL     1      13.605  14.919  -2.894  1.00  0.00     0.126 C 
HETATM   31  O5  UNL     1      12.905  14.193  -0.737  1.00  0.00    -0.265 OA
ENDBRANCH  28  29
ENDBRANCH  14  28
TORSDOF 6
ENDMDL
MODEL 2
REMARK VINA RESULT: -7.202718101      2.129      3.379
REMARK  6 active torsions:
REMARK  status: ('A' for Active; 'I' for Inactive)
REMARK    1  A    between atoms: C2_2  and  C4_4 
REMARK    2  A    between atoms: C4_4  and  O2_6 
REMARK    3  A    between atoms: O2_6  and  C5_7 
REMARK    4  A    between atoms: C17_20  and  O4_21 
REMARK    5  A    between atoms: O4_21  and  C18_22 
REMARK    6  A    between atoms: C20_26  and  O7_27 
ROOT
HETATM    1  C5  UNL     1      16.554  12.797   4.665  1.00  0.00     0.137 C 
HETATM    2  C6  UNL     1      15.168  12.719   4.123  1.00  0.00     0.038 C 
HETATM    3  C7  UNL     1      14.857  11.645   3.162  1.00  0.00     0.003 C 
HETATM    4  C8  UNL     1      14.287  10.415   3.831  1.00  0.00     0.006 C 
HETATM    5  C9  UNL     1      15.175   9.278   4.098  1.00  0.00     0.005 C 
HETATM    6  C10 UNL     1      16.635   9.510   3.978  1.00  0.00    -0.008 C 
HETATM    7  C11 UNL     1      17.481   8.310   3.723  1.00  0.00     0.011 C 
HETATM    8  C12 UNL     1      17.043  10.740   3.185  1.00  0.00    -0.011 C 
HETATM    9  C13 UNL     1      18.147  10.484   2.187  1.00  0.00     0.090 C 
HETATM   10  C14 UNL     1      17.859  11.440   1.047  1.00  0.00     0.136 C 
HETATM   11  O3  UNL     1      18.403  11.553  -0.021  1.00  0.00    -0.297 OA
HETATM   12  C15 UNL     1      16.688  12.283   1.518  1.00  0.00     0.097 C 
HETATM   13  C16 UNL     1      15.966  12.915   0.389  1.00  0.00     0.050 C 
HETATM   14  C17 UNL     1      14.991  12.295  -0.197  1.00  0.00     0.187 C 
HETATM   15  O6  UNL     1      14.648  11.076   0.238  1.00  0.00    -0.298 OA
HETATM   16  C20 UNL     1      15.372  10.334   1.270  1.00  0.00     0.278 C 
HETATM   17  C22 UNL     1      15.959  11.225   2.260  1.00  0.00     0.036 C 
HETATM   18  C23 UNL     1      17.535  11.783   4.145  1.00  0.00     0.021 C 
HETATM   19  C24 UNL     1      18.871  12.380   3.936  1.00  0.00     0.013 C 
ENDROOT
BRANCH   1  20
HETATM   20  O2  UNL     1      16.584  12.922   6.073  1.00  0.00    -0.312 OA
BRANCH  20  21
HETATM   21  C4  UNL     1      15.600  12.801   6.972  1.00  0.00     0.288 C 
HETATM   22  O1  UNL     1      15.153  13.841   7.457  1.00  0.00    -0.260 OA
BRANCH  21  23
HETATM   23  C2  UNL     1      15.094  11.465   7.346  1.00  0.00     0.004 C 
HETATM   24  C1  UNL     1      15.873  10.448   7.577  1.00  0.00     0.024 C 
HETATM   25  C3  UNL     1      13.610  11.256   7.447  1.00  0.00     0.054 C 
ENDBRANCH  21  23
ENDBRANCH  20  21
ENDBRANCH   1  20
BRANCH  16  26
HETATM   26  O7  UNL     1      16.152   9.550   0.474  1.00  0.00    -0.365 OA
HETATM   27  C21 UNL     1      15.702   8.235   0.396  1.00  0.00     0.204 C 
ENDBRANCH  16  26
BRANCH  14  28
HETATM   28  O4  UNL     1      14.319  12.892  -1.253  1.00  0.00    -0.256 OA
BRANCH  28  29
HETATM   29  C18 UNL     1      13.653  14.102  -1.023  1.00  0.00     0.261 C 
HETATM   30  C19 UNL     1      13.955  15.325  -1.817  1.00  0.00     0.126 C 
HETATM   31  O5  UNL     1      12.787  14.126  -0.123  1.00  0.00    -0.265 OA
ENDBRANCH  28  29
ENDBRANCH  14  28
TORSDOF 6
ENDMDL
MODEL 3
REMARK VINA RESULT: -7.158862820      1.203      1.822
REMARK  6 active torsions:
REMARK  status: ('A' for Active; 'I' for Inactive)
REMARK    1  A    between atoms: C2_2  and  C4_4 
REMARK    2  A    between atoms: C4_4  and  O2_6 
REMARK    3  A    between atoms: O2_6  and  C5_7 
REMARK    4  A    between atoms: C17_20  and  O4_21 
REMARK    5  A    between atoms: O4_21  and  C18_22 
REMARK    6  A    between atoms: C20_26  and  O7_27 
ROOT
HETATM    1  C5  UNL     1      14.941  12.523   4.439  1.00  0.00     0.137 C 
HETATM    2  C6  UNL     1      14.645  12.174   3.021  1.00  0.00     0.038 C 
HETATM    3  C7  UNL     1      15.662  12.491   2.001  1.00  0.00     0.003 C 
HETATM    4  C8  UNL     1      16.588  11.328   1.725  1.00  0.00     0.006 C 
HETATM    5  C9  UNL     1      17.909  11.308   2.362  1.00  0.00     0.005 C 
HETATM    6  C10 UNL     1      18.146  12.265   3.471  1.00  0.00    -0.008 C 
HETATM    7  C11 UNL     1      19.566  12.621   3.751  1.00  0.00     0.011 C 
HETATM    8  C12 UNL     1      17.183  13.437   3.547  1.00  0.00    -0.011 C 
HETATM    9  C13 UNL     1      17.859  14.769   3.762  1.00  0.00     0.090 C 
HETATM   10  C14 UNL     1      16.977  15.765   3.036  1.00  0.00     0.136 C 
HETATM   11  O3  UNL     1      17.140  16.943   2.843  1.00  0.00    -0.297 OA
HETATM   12  C15 UNL     1      15.776  14.967   2.564  1.00  0.00     0.097 C 
HETATM   13  C16 UNL     1      15.067  15.633   1.447  1.00  0.00     0.050 C 
HETATM   14  C17 UNL     1      15.415  15.404   0.220  1.00  0.00     0.187 C 
HETATM   15  O6  UNL     1      16.423  14.555  -0.017  1.00  0.00    -0.298 OA
HETATM   16  C20 UNL     1      17.245  13.939   1.023  1.00  0.00     0.278 C 
HETATM   17  C22 UNL     1      16.484  13.704   2.241  1.00  0.00     0.036 C 
HETATM   18  C23 UNL     1      16.250  13.212   4.702  1.00  0.00     0.021 C 
HETATM   19  C24 UNL     1      16.113  14.265   5.730  1.00  0.00     0.013 C 
ENDROOT
BRANCH   1  20
HETATM   20  O2  UNL     1      14.693  11.451   5.328  1.00  0.00    -0.312 OA
BRANCH  20  21
HETATM   21  C4  UNL     1      15.509  10.483   5.764  1.00  0.00     0.288 C 
HETATM   22  O1  UNL     1      15.959  10.600   6.904  1.00  0.00    -0.260 OA
BRANCH  21  23
HETATM   23  C2  UNL     1      15.837   9.338   4.891  1.00  0.00     0.004 C 
HETATM   24  C1  UNL     1      16.990   8.733   4.913  1.00  0.00     0.024 C 
HETATM   25  C3  UNL     1      14.804   8.856   3.913  1.00  0.00     0.054 C 
ENDBRANCH  21  23
ENDBRANCH  20  21
ENDBRANCH   1  20
BRANCH  16  26
HETATM   26  O7  UNL     1      18.304  14.797   1.007  1.00  0.00    -0.365 OA
HETATM   27  C21 UNL     1      19.420  14.273   0.362  1.00  0.00     0.204 C 
ENDBRANCH  16  26
BRANCH  14  28
HETATM   28  O4  UNL     1      14.748  16.030  -0.822  1.00  0.00    -0.256 OA
BRANCH  28  29
HETATM   29  C18 UNL     1      13.825  15.287  -1.568  1.00  0.00     0.261 C 
HETATM   30  C19 UNL     1      13.601  15.544  -3.017  1.00  0.00     0.126 C 
HETATM   31  O5  UNL     1      13.188  14.390  -0.975  1.00  0.00    -0.265 OA
ENDBRANCH  28  29
ENDBRANCH  14  28
TORSDOF 6
ENDMDL
MODEL 4
REMARK VINA RESULT: -7.098022678      1.841      3.036
REMARK  6 active torsions:
REMARK  status: ('A' for Active; 'I' for Inactive)
REMARK    1  A    between atoms: C2_2  and  C4_4 
REMARK    2  A    between atoms: C4_4  and  O2_6 
REMARK    3  A    between atoms: O2_6  and  C5_7 
REMARK    4  A    between atoms: C17_20  and  O4_21 
REMARK    5  A    between atoms: O4_21  and  C18_22 
REMARK    6  A    between atoms: C20_26  and  O7_27 
ROOT
HETATM    1  C5  UNL     1      16.507  12.952   4.812  1.00  0.00     0.137 C 
HETATM    2  C6  UNL     1      15.063  12.756   4.500  1.00  0.00     0.038 C 
HETATM    3  C7  UNL     1      14.708  11.835   3.404  1.00  0.00     0.003 C 
HETATM    4  C8  UNL     1      14.431  10.432   3.894  1.00  0.00     0.006 C 
HETATM    5  C9  UNL     1      15.485   9.419   3.776  1.00  0.00     0.005 C 
HETATM    6  C10 UNL     1      16.856   9.894   3.469  1.00  0.00    -0.008 C 
HETATM    7  C11 UNL     1      17.778   8.906   2.842  1.00  0.00     0.011 C 
HETATM    8  C12 UNL     1      16.953  11.294   2.886  1.00  0.00    -0.011 C 
HETATM    9  C13 UNL     1      17.870  11.395   1.691  1.00  0.00     0.090 C 
HETATM   10  C14 UNL     1      17.255  12.481   0.832  1.00  0.00     0.136 C 
HETATM   11  O3  UNL     1      17.569  12.867  -0.266  1.00  0.00    -0.297 OA
HETATM   12  C15 UNL     1      16.101  13.033   1.648  1.00  0.00     0.097 C 
HETATM   13  C16 UNL     1      15.107  13.736   0.804  1.00  0.00     0.050 C 
HETATM   14  C17 UNL     1      14.121  13.085   0.272  1.00  0.00     0.187 C 
HETATM   15  O6  UNL     1      14.019  11.769   0.500  1.00  0.00    -0.298 OA
HETATM   16  C20 UNL     1      15.010  10.979   1.228  1.00  0.00     0.278 C 
HETATM   17  C22 UNL     1      15.662  11.760   2.269  1.00  0.00     0.036 C 
HETATM   18  C23 UNL     1      17.488  12.214   3.945  1.00  0.00     0.021 C 
HETATM   19  C24 UNL     1      18.677  13.039   3.646  1.00  0.00     0.013 C 
ENDROOT
BRANCH   1  20
HETATM   20  O2  UNL     1      16.788  12.828   6.193  1.00  0.00    -0.312 OA
BRANCH  20  21
HETATM   21  C4  UNL     1      15.960  12.677   7.234  1.00  0.00     0.288 C 
HETATM   22  O1  UNL     1      15.799  13.651   7.969  1.00  0.00    -0.260 OA
BRANCH  21  23
HETATM   23  C2  UNL     1      15.284  11.384   7.463  1.00  0.00     0.004 C 
HETATM   24  C1  UNL     1      15.905  10.240   7.433  1.00  0.00     0.024 C 
HETATM   25  C3  UNL     1      13.805  11.379   7.724  1.00  0.00     0.054 C 
ENDBRANCH  21  23
ENDBRANCH  20  21
ENDBRANCH   1  20
BRANCH  16  26
HETATM   26  O7  UNL     1      15.714  10.480   0.173  1.00  0.00    -0.365 OA
HETATM   27  C21 UNL     1      15.418   9.148  -0.099  1.00  0.00     0.204 C 
ENDBRANCH  16  26
BRANCH  14  28
HETATM   28  O4  UNL     1      13.193  13.748  -0.517  1.00  0.00    -0.256 OA
BRANCH  28  29
HETATM   29  C18 UNL     1      13.560  14.110  -1.819  1.00  0.00     0.261 C 
HETATM   30  C19 UNL     1      14.375  13.211  -2.682  1.00  0.00     0.126 C 
HETATM   31  O5  UNL     1      13.178  15.222  -2.241  1.00  0.00    -0.265 OA
ENDBRANCH  28  29
ENDBRANCH  14  28
TORSDOF 6
ENDMDL
MODEL 5
REMARK VINA RESULT: -7.059413692      1.609      2.141
REMARK  6 active torsions:
REMARK  status: ('A' for Active; 'I' for Inactive)
REMARK    1  A    between atoms: C2_2  and  C4_4 
REMARK    2  A    between atoms: C4_4  and  O2_6 
REMARK    3  A    between atoms: O2_6  and  C5_7 
REMARK    4  A    between atoms: C17_20  and  O4_21 
REMARK    5  A    between atoms: O4_21  and  C18_22 
REMARK    6  A    between atoms: C20_26  and  O7_27 
ROOT
HETATM    1  C5  UNL     1      15.865  14.573   4.782  1.00  0.00     0.137 C 
HETATM    2  C6  UNL     1      14.800  13.651   4.294  1.00  0.00     0.038 C 
HETATM    3  C7  UNL     1      15.129  12.733   3.188  1.00  0.00     0.003 C 
HETATM    4  C8  UNL     1      15.587  11.378   3.676  1.00  0.00     0.006 C 
HETATM    5  C9  UNL     1      17.025  11.090   3.720  1.00  0.00     0.005 C 
HETATM    6  C10 UNL     1      17.955  12.237   3.576  1.00  0.00    -0.008 C 
HETATM    7  C11 UNL     1      19.330  11.922   3.098  1.00  0.00     0.011 C 
HETATM    8  C12 UNL     1      17.358  13.497   2.973  1.00  0.00    -0.011 C 
HETATM    9  C13 UNL     1      18.216  14.125   1.901  1.00  0.00     0.090 C 
HETATM   10  C14 UNL     1      17.226  14.754   0.942  1.00  0.00     0.136 C 
HETATM   11  O3  UNL     1      17.415  15.296  -0.117  1.00  0.00    -0.297 OA
HETATM   12  C15 UNL     1      15.866  14.568   1.591  1.00  0.00     0.097 C 
HETATM   13  C16 UNL     1      14.762  14.669   0.609  1.00  0.00     0.050 C 
HETATM   14  C17 UNL     1      14.350  13.618  -0.026  1.00  0.00     0.187 C 
HETATM   15  O6  UNL     1      14.940  12.441   0.222  1.00  0.00    -0.298 OA
HETATM   16  C20 UNL     1      16.103  12.269   1.091  1.00  0.00     0.278 C 
HETATM   17  C22 UNL     1      16.104  13.230   2.185  1.00  0.00     0.036 C 
HETATM   18  C23 UNL     1      17.185  14.511   4.066  1.00  0.00     0.021 C 
HETATM   19  C24 UNL     1      17.774  15.856   3.898  1.00  0.00     0.013 C 
ENDROOT
BRANCH   1  20
HETATM   20  O2  UNL     1      15.999  14.555   6.190  1.00  0.00    -0.312 OA
BRANCH  20  21
HETATM   21  C4  UNL     1      15.135  14.167   7.136  1.00  0.00     0.288 C 
HETATM   22  O1  UNL     1      14.526  15.053   7.736  1.00  0.00    -0.260 OA
BRANCH  21  23
HETATM   23  C2  UNL     1      14.943  12.732   7.424  1.00  0.00     0.004 C 
HETATM   24  C1  UNL     1      15.892  11.848   7.302  1.00  0.00     0.024 C 
HETATM   25  C3  UNL     1      13.586  12.257   7.859  1.00  0.00     0.054 C 
ENDBRANCH  21  23
ENDBRANCH  20  21
ENDBRANCH   1  20
BRANCH  16  26
HETATM   26  O7  UNL     1      17.087  12.271   0.147  1.00  0.00    -0.365 OA
HETATM   27  C21 UNL     1      17.586  11.001  -0.121  1.00  0.00     0.204 C 
ENDBRANCH  16  26
BRANCH  14  28
HETATM   28  O4  UNL     1      13.315  13.718  -0.944  1.00  0.00    -0.256 OA
BRANCH  28  29
HETATM   29  C18 UNL     1      13.610  14.169  -2.237  1.00  0.00     0.261 C 
HETATM   30  C19 UNL     1      14.420  13.354  -3.184  1.00  0.00     0.126 C 
HETATM   31  O5  UNL     1      13.167  15.286  -2.577  1.00  0.00    -0.265 OA
ENDBRANCH  28  29
ENDBRANCH  14  28
TORSDOF 6
ENDMDL
