MODEL 1
REMARK VINA RESULT: -6.440221103      0.000      0.000
REMARK  5 active torsions:
REMARK  status: ('A' for Active; 'I' for Inactive)
REMARK    1  A    between atoms: O1_2  and  C2_3 
REMARK    2  A    between atoms: C2_3  and  C3_5 
REMARK    3  A    between atoms: C3_5  and  C4_6 
REMARK    4  A    between atoms: C4_6  and  C5_8 
REMARK    5  A    between atoms: C11_14  and  O4_15 
ROOT
HETATM    1  C5  UNL     1      16.510  11.643   3.707  1.00  0.00     0.163 C 
HETATM    2  C6  UNL     1      18.025  11.724   3.839  1.00  0.00     0.053 C 
HETATM    3  C7  UNL     1      18.664  13.041   3.842  1.00  0.00     0.049 C 
HETATM    4  C8  UNL     1      17.879  13.996   2.991  1.00  0.00     0.106 C 
HETATM    5  C9  UNL     1      17.920  13.264   1.674  1.00  0.00     0.013 C 
HETATM    6  C10 UNL     1      17.181  12.267   1.361  1.00  0.00     0.018 C 
HETATM    7  C11 UNL     1      16.120  11.581   2.185  1.00  0.00     0.139 C 
HETATM    8  C13 UNL     1      14.875  12.280   1.880  1.00  0.00    -0.046 C 
HETATM    9  C14 UNL     1      13.858  11.385   1.205  1.00  0.00     0.046 C 
HETATM   10  C15 UNL     1      14.719  13.672   1.468  1.00  0.00    -0.020 C 
HETATM   11  C16 UNL     1      15.671  14.735   1.197  1.00  0.00     0.037 C 
HETATM   12  C17 UNL     1      16.329  15.488   2.372  1.00  0.00     0.055 C 
HETATM   13  C18 UNL     1      16.623  14.485   3.428  1.00  0.00     0.170 C 
HETATM   14  O5  UNL     1      16.691  14.684   4.771  1.00  0.00    -0.347 OA
HETATM   15  C19 UNL     1      16.120  13.455   5.290  1.00  0.00     0.159 C 
HETATM   16  C20 UNL     1      14.707  14.047   5.629  1.00  0.00     0.078 C 
HETATM   17  C21 UNL     1      16.614  13.101   6.632  1.00  0.00     0.078 C 
HETATM   18  O6  UNL     1      15.832  12.549   4.390  1.00  0.00    -0.333 OA
HETATM   19  C22 UNL     1      17.664  16.035   2.111  1.00  0.00     0.061 C 
HETATM   20  C23 UNL     1      18.019  16.445   0.739  1.00  0.00     0.046 C 
HETATM   21  C24 UNL     1      17.784  17.321   2.962  1.00  0.00     0.046 C 
HETATM   22  O7  UNL     1      18.613  15.183   2.726  1.00  0.00    -0.363 OA
ENDROOT
BRANCH   1  23
HETATM   23  C4  UNL     1      16.143  10.371   4.368  1.00  0.00     0.174 C 
HETATM   24  O3  UNL     1      17.067   9.532   4.557  1.00  0.00    -0.294 OA
BRANCH  23  25
HETATM   25  C3  UNL     1      14.847   9.904   4.846  1.00  0.00     0.192 C 
BRANCH  25  26
HETATM   26  C2  UNL     1      14.723   9.984   6.357  1.00  0.00     0.265 C 
HETATM   27  O2  UNL     1      14.040  10.846   6.945  1.00  0.00    -0.265 OA
BRANCH  26  28
HETATM   28  O1  UNL     1      15.394   9.065   7.150  1.00  0.00    -0.326 OA
HETATM   29  C1  UNL     1      16.063   9.420   8.341  1.00  0.00     0.213 C 
ENDBRANCH  26  28
ENDBRANCH  25  26
ENDBRANCH  23  25
ENDBRANCH   1  23
BRANCH   7  30
HETATM   30  O4  UNL     1      16.215  10.292   1.828  1.00  0.00    -0.373 OA
HETATM   31  C12 UNL     1      16.973   9.748   0.900  1.00  0.00     0.203 C 
ENDBRANCH   7  30
TORSDOF 5
ENDMDL
MODEL 2
REMARK VINA RESULT: -6.406929265      0.808      1.032
REMARK  5 active torsions:
REMARK  status: ('A' for Active; 'I' for Inactive)
REMARK    1  A    between atoms: O1_2  and  C2_3 
REMARK    2  A    between atoms: C2_3  and  C3_5 
REMARK    3  A    between atoms: C3_5  and  C4_6 
REMARK    4  A    between atoms: C4_6  and  C5_8 
REMARK    5  A    between atoms: C11_14  and  O4_15 
ROOT
HETATM    1  C5  UNL     1      16.292  11.384   3.709  1.00  0.00     0.163 C 
HETATM    2  C6  UNL     1      17.804  11.364   3.896  1.00  0.00     0.053 C 
HETATM    3  C7  UNL     1      18.526  12.635   3.950  1.00  0.00     0.049 C 
HETATM    4  C8  UNL     1      17.836  13.656   3.093  1.00  0.00     0.106 C 
HETATM    5  C9  UNL     1      17.878  12.949   1.762  1.00  0.00     0.013 C 
HETATM    6  C10 UNL     1      17.087  12.008   1.403  1.00  0.00     0.018 C 
HETATM    7  C11 UNL     1      15.954  11.378   2.174  1.00  0.00     0.139 C 
HETATM    8  C13 UNL     1      14.770  12.162   1.841  1.00  0.00    -0.046 C 
HETATM    9  C14 UNL     1      13.721  11.350   1.113  1.00  0.00     0.046 C 
HETATM   10  C15 UNL     1      14.719  13.570   1.455  1.00  0.00    -0.020 C 
HETATM   11  C16 UNL     1      15.747  14.573   1.239  1.00  0.00     0.037 C 
HETATM   12  C17 UNL     1      16.410  15.258   2.453  1.00  0.00     0.055 C 
HETATM   13  C18 UNL     1      16.600  14.217   3.497  1.00  0.00     0.170 C 
HETATM   14  O5  UNL     1      16.633  14.386   4.845  1.00  0.00    -0.347 OA
HETATM   15  C19 UNL     1      15.964  13.187   5.317  1.00  0.00     0.159 C 
HETATM   16  C20 UNL     1      14.581  13.865   5.620  1.00  0.00     0.078 C 
HETATM   17  C21 UNL     1      16.385  12.776   6.667  1.00  0.00     0.078 C 
HETATM   18  O6  UNL     1      15.651  12.320   4.388  1.00  0.00    -0.333 OA
HETATM   19  C22 UNL     1      17.786  15.721   2.251  1.00  0.00     0.061 C 
HETATM   20  C23 UNL     1      18.217  16.134   0.900  1.00  0.00     0.046 C 
HETATM   21  C24 UNL     1      17.959  16.980   3.132  1.00  0.00     0.046 C 
HETATM   22  O7  UNL     1      18.655  14.797   2.879  1.00  0.00    -0.363 OA
ENDROOT
BRANCH   1  23
HETATM   23  C4  UNL     1      15.820  10.127   4.330  1.00  0.00     0.174 C 
HETATM   24  O3  UNL     1      14.571   9.972   4.437  1.00  0.00    -0.294 OA
BRANCH  23  25
HETATM   25  C3  UNL     1      16.579   9.004   4.865  1.00  0.00     0.192 C 
BRANCH  25  26
HETATM   26  C2  UNL     1      15.983   8.462   6.153  1.00  0.00     0.265 C 
HETATM   27  O2  UNL     1      15.644   7.272   6.305  1.00  0.00    -0.265 OA
BRANCH  26  28
HETATM   28  O1  UNL     1      15.795   9.313   7.232  1.00  0.00    -0.326 OA
HETATM   29  C1  UNL     1      16.348   9.070   8.508  1.00  0.00     0.213 C 
ENDBRANCH  26  28
ENDBRANCH  25  26
ENDBRANCH  23  25
ENDBRANCH   1  23
BRANCH   7  30
HETATM   30  O4  UNL     1      15.978  10.092   1.793  1.00  0.00    -0.373 OA
HETATM   31  C12 UNL     1      16.739   9.516   0.886  1.00  0.00     0.203 C 
ENDBRANCH   7  30
TORSDOF 5
ENDMDL
MODEL 3
REMARK VINA RESULT: -6.130388325      2.303      6.353
REMARK  5 active torsions:
REMARK  status: ('A' for Active; 'I' for Inactive)
REMARK    1  A    between atoms: O1_2  and  C2_3 
REMARK    2  A    between atoms: C2_3  and  C3_5 
REMARK    3  A    between atoms: C3_5  and  C4_6 
REMARK    4  A    between atoms: C4_6  and  C5_8 
REMARK    5  A    between atoms: C11_14  and  O4_15 
ROOT
HETATM    1  C5  UNL     1      16.068  12.638   1.794  1.00  0.00     0.163 C 
HETATM    2  C6  UNL     1      17.306  12.041   1.138  1.00  0.00     0.053 C 
HETATM    3  C7  UNL     1      17.467  10.586   1.124  1.00  0.00     0.049 C 
HETATM    4  C8  UNL     1      16.839   9.988   2.349  1.00  0.00     0.106 C 
HETATM    5  C9  UNL     1      17.616  10.711   3.419  1.00  0.00     0.013 C 
HETATM    6  C10 UNL     1      17.396  11.912   3.807  1.00  0.00     0.018 C 
HETATM    7  C11 UNL     1      16.352  12.885   3.320  1.00  0.00     0.139 C 
HETATM    8  C13 UNL     1      15.185  12.664   4.167  1.00  0.00    -0.046 C 
HETATM    9  C14 UNL     1      14.836  13.875   5.004  1.00  0.00     0.046 C 
HETATM   10  C15 UNL     1      14.797  11.424   4.835  1.00  0.00    -0.020 C 
HETATM   11  C16 UNL     1      15.414  10.112   4.918  1.00  0.00     0.037 C 
HETATM   12  C17 UNL     1      15.294   9.137   3.728  1.00  0.00     0.055 C 
HETATM   13  C18 UNL     1      15.430   9.939   2.484  1.00  0.00     0.170 C 
HETATM   14  O5  UNL     1      14.897   9.678   1.262  1.00  0.00    -0.347 OA
HETATM   15  C19 UNL     1      14.561  11.008   0.787  1.00  0.00     0.159 C 
HETATM   16  C20 UNL     1      13.023  10.919   1.086  1.00  0.00     0.078 C 
HETATM   17  C21 UNL     1      14.562  11.122  -0.682  1.00  0.00     0.078 C 
HETATM   18  O6  UNL     1      14.939  11.991   1.564  1.00  0.00    -0.333 OA
HETATM   19  C22 UNL     1      16.394   8.178   3.575  1.00  0.00     0.061 C 
HETATM   20  C23 UNL     1      17.125   7.723   4.775  1.00  0.00     0.046 C 
HETATM   21  C24 UNL     1      15.777   6.896   2.968  1.00  0.00     0.046 C 
HETATM   22  O7  UNL     1      17.228   8.633   2.526  1.00  0.00    -0.363 OA
ENDROOT
BRANCH   1  23
HETATM   23  C4  UNL     1      15.866  13.932   1.107  1.00  0.00     0.174 C 
HETATM   24  O3  UNL     1      16.780  14.320   0.326  1.00  0.00    -0.294 OA
BRANCH  23  25
HETATM   25  C3  UNL     1      14.755  14.873   1.189  1.00  0.00     0.192 C 
BRANCH  25  26
HETATM   26  C2  UNL     1      13.901  14.873  -0.066  1.00  0.00     0.265 C 
HETATM   27  O2  UNL     1      12.894  14.152  -0.211  1.00  0.00    -0.265 OA
BRANCH  26  28
HETATM   28  O1  UNL     1      14.234  15.708  -1.122  1.00  0.00    -0.326 OA
HETATM   29  C1  UNL     1      13.672  15.580  -2.410  1.00  0.00     0.213 C 
ENDBRANCH  26  28
ENDBRANCH  25  26
ENDBRANCH  23  25
ENDBRANCH   1  23
BRANCH   7  30
HETATM   30  O4  UNL     1      16.961  14.078   3.396  1.00  0.00    -0.373 OA
HETATM   31  C12 UNL     1      18.217  14.344   3.685  1.00  0.00     0.203 C 
ENDBRANCH   7  30
TORSDOF 5
ENDMDL
MODEL 4
REMARK VINA RESULT: -6.125058088      1.174      1.778
REMARK  5 active torsions:
REMARK  status: ('A' for Active; 'I' for Inactive)
REMARK    1  A    between atoms: O1_2  and  C2_3 
REMARK    2  A    between atoms: C2_3  and  C3_5 
REMARK    3  A    between atoms: C3_5  and  C4_6 
REMARK    4  A    between atoms: C4_6  and  C5_8 
REMARK    5  A    between atoms: C11_14  and  O4_15 
ROOT
HETATM    1  C5  UNL     1      16.382  11.550   3.655  1.00  0.00     0.163 C 
HETATM    2  C6  UNL     1      17.895  11.532   3.835  1.00  0.00     0.053 C 
HETATM    3  C7  UNL     1      18.614  12.805   3.899  1.00  0.00     0.049 C 
HETATM    4  C8  UNL     1      17.917  13.833   3.055  1.00  0.00     0.106 C 
HETATM    5  C9  UNL     1      17.955  13.139   1.718  1.00  0.00     0.013 C 
HETATM    6  C10 UNL     1      17.165  12.200   1.352  1.00  0.00     0.018 C 
HETATM    7  C11 UNL     1      16.037  11.559   2.122  1.00  0.00     0.139 C 
HETATM    8  C13 UNL     1      14.849  12.343   1.802  1.00  0.00    -0.046 C 
HETATM    9  C14 UNL     1      13.800  11.536   1.070  1.00  0.00     0.046 C 
HETATM   10  C15 UNL     1      14.792  13.755   1.431  1.00  0.00    -0.020 C 
HETATM   11  C16 UNL     1      15.817  14.763   1.221  1.00  0.00     0.037 C 
HETATM   12  C17 UNL     1      16.483  15.437   2.439  1.00  0.00     0.055 C 
HETATM   13  C18 UNL     1      16.682  14.386   3.471  1.00  0.00     0.170 C 
HETATM   14  O5  UNL     1      16.720  14.540   4.820  1.00  0.00    -0.347 OA
HETATM   15  C19 UNL     1      16.056  13.335   5.283  1.00  0.00     0.159 C 
HETATM   16  C20 UNL     1      14.673  14.006   5.599  1.00  0.00     0.078 C 
HETATM   17  C21 UNL     1      16.485  12.911   6.627  1.00  0.00     0.078 C 
HETATM   18  O6  UNL     1      15.742  12.477   4.347  1.00  0.00    -0.333 OA
HETATM   19  C22 UNL     1      17.858  15.906   2.235  1.00  0.00     0.061 C 
HETATM   20  C23 UNL     1      18.281  16.334   0.887  1.00  0.00     0.046 C 
HETATM   21  C24 UNL     1      18.031  17.156   3.129  1.00  0.00     0.046 C 
HETATM   22  O7  UNL     1      18.732  14.977   2.850  1.00  0.00    -0.363 OA
ENDROOT
BRANCH   1  23
HETATM   23  C4  UNL     1      15.916  10.285   4.265  1.00  0.00     0.174 C 
HETATM   24  O3  UNL     1      14.672  10.155   4.441  1.00  0.00    -0.294 OA
BRANCH  23  25
HETATM   25  C3  UNL     1      16.677   9.128   4.721  1.00  0.00     0.192 C 
BRANCH  25  26
HETATM   26  C2  UNL     1      15.936   7.822   4.497  1.00  0.00     0.265 C 
HETATM   27  O2  UNL     1      15.399   7.172   5.416  1.00  0.00    -0.265 OA
BRANCH  26  28
HETATM   28  O1  UNL     1      15.837   7.300   3.216  1.00  0.00    -0.326 OA
HETATM   29  C1  UNL     1      14.603   7.108   2.558  1.00  0.00     0.213 C 
ENDBRANCH  26  28
ENDBRANCH  25  26
ENDBRANCH  23  25
ENDBRANCH   1  23
BRANCH   7  30
HETATM   30  O4  UNL     1      16.063  10.277   1.727  1.00  0.00    -0.373 OA
HETATM   31  C12 UNL     1      16.820   9.713   0.810  1.00  0.00     0.203 C 
ENDBRANCH   7  30
TORSDOF 5
ENDMDL
MODEL 5
REMARK VINA RESULT: -5.768512328      2.209      6.083
REMARK  5 active torsions:
REMARK  status: ('A' for Active; 'I' for Inactive)
REMARK    1  A    between atoms: O1_2  and  C2_3 
REMARK    2  A    between atoms: C2_3  and  C3_5 
REMARK    3  A    between atoms: C3_5  and  C4_6 
REMARK    4  A    between atoms: C4_6  and  C5_8 
REMARK    5  A    between atoms: C11_14  and  O4_15 
ROOT
HETATM    1  C5  UNL     1      15.566  11.754   2.116  1.00  0.00     0.163 C 
HETATM    2  C6  UNL     1      14.707  12.163   3.305  1.00  0.00     0.053 C 
HETATM    3  C7  UNL     1      14.987  11.574   4.615  1.00  0.00     0.049 C 
HETATM    4  C8  UNL     1      15.517  10.179   4.449  1.00  0.00     0.106 C 
HETATM    5  C9  UNL     1      14.372   9.554   3.694  1.00  0.00     0.013 C 
HETATM    6  C10 UNL     1      14.152   9.696   2.440  1.00  0.00     0.018 C 
HETATM    7  C11 UNL     1      14.936  10.489   1.426  1.00  0.00     0.139 C 
HETATM    8  C13 UNL     1      15.932   9.567   0.892  1.00  0.00    -0.046 C 
HETATM    9  C14 UNL     1      15.743   9.299  -0.585  1.00  0.00     0.046 C 
HETATM   10  C15 UNL     1      16.533   8.421   1.570  1.00  0.00    -0.020 C 
HETATM   11  C16 UNL     1      16.325   7.828   2.880  1.00  0.00     0.037 C 
HETATM   12  C17 UNL     1      16.951   8.491   4.125  1.00  0.00     0.055 C 
HETATM   13  C18 UNL     1      16.826   9.962   3.952  1.00  0.00     0.170 C 
HETATM   14  O5  UNL     1      17.635  10.932   4.452  1.00  0.00    -0.347 OA
HETATM   15  C19 UNL     1      17.650  11.902   3.373  1.00  0.00     0.159 C 
HETATM   16  C20 UNL     1      19.059  11.512   2.803  1.00  0.00     0.078 C 
HETATM   17  C21 UNL     1      17.895  13.281   3.830  1.00  0.00     0.078 C 
HETATM   18  O6  UNL     1      16.858  11.630   2.366  1.00  0.00    -0.333 OA
HETATM   19  C22 UNL     1      16.232   8.286   5.386  1.00  0.00     0.061 C 
HETATM   20  C23 UNL     1      15.452   7.047   5.578  1.00  0.00     0.046 C 
HETATM   21  C24 UNL     1      17.303   8.265   6.502  1.00  0.00     0.046 C 
HETATM   22  O7  UNL     1      15.518   9.472   5.680  1.00  0.00    -0.363 OA
ENDROOT
BRANCH   1  23
HETATM   23  C4  UNL     1      15.506  12.909   1.193  1.00  0.00     0.174 C 
HETATM   24  O3  UNL     1      16.137  12.809   0.103  1.00  0.00    -0.294 OA
BRANCH  23  25
HETATM   25  C3  UNL     1      14.826  14.190   1.338  1.00  0.00     0.192 C 
BRANCH  25  26
HETATM   26  C2  UNL     1      14.010  14.556   0.111  1.00  0.00     0.265 C 
HETATM   27  O2  UNL     1      12.944  13.989  -0.199  1.00  0.00    -0.265 OA
BRANCH  26  28
HETATM   28  O1  UNL     1      14.450  15.570  -0.727  1.00  0.00    -0.326 OA
HETATM   29  C1  UNL     1      15.553  16.396  -0.422  1.00  0.00     0.213 C 
ENDBRANCH  26  28
ENDBRANCH  25  26
ENDBRANCH  23  25
ENDBRANCH   1  23
BRANCH   7  30
HETATM   30  O4  UNL     1      14.001  10.953   0.584  1.00  0.00    -0.373 OA
HETATM   31  C12 UNL     1      12.722  10.647   0.524  1.00  0.00     0.203 C 
ENDBRANCH   7  30
TORSDOF 5
ENDMDL
