MODEL 1
REMARK VINA RESULT: -8.036171991      0.000      0.000
REMARK  5 active torsions:
REMARK  status: ('A' for Active; 'I' for Inactive)
REMARK    1  A    between atoms: C2_2  and  O2_4 
REMARK    2  A    between atoms: O2_4  and  C3_5 
REMARK    3  A    between atoms: C3_5  and  C4_6 
REMARK    4  A    between atoms: C17_22  and  C18_23 
REMARK    5  A    between atoms: C18_23  and  C19_24 
REMARK       I    between atoms: C19_24  and  N1_26 
ROOT
HETATM    1  C4  UNL     1      20.445  13.476   1.771  1.00  0.00     0.040 C 
HETATM    2  C5  UNL     1      19.794  12.923   0.533  1.00  0.00     0.175 C 
HETATM    3  O3  UNL     1      18.439  12.770   0.832  1.00  0.00    -0.385 OA
HETATM    4  C6  UNL     1      18.194  13.929   1.608  1.00  0.00     0.126 C 
HETATM    5  C7  UNL     1      16.788  14.113   1.967  1.00  0.00     0.038 C 
HETATM    6  C8  UNL     1      16.464  14.286   3.409  1.00  0.00     0.074 C 
HETATM    7  C9  UNL     1      16.280  13.053   4.197  1.00  0.00     0.200 C 
HETATM    8  C10 UNL     1      16.918  11.812   3.651  1.00  0.00     0.071 C 
HETATM    9  C11 UNL     1      18.378  11.723   3.646  1.00  0.00     0.006 C 
HETATM   10  C12 UNL     1      19.158  12.974   3.766  1.00  0.00     0.008 C 
HETATM   11  C13 UNL     1      19.238  13.868   2.621  1.00  0.00     0.023 C 
HETATM   12  O4  UNL     1      14.904  12.747   4.254  1.00  0.00    -0.197 OA
HETATM   13  O5  UNL     1      14.444  13.534   5.195  1.00  0.00    -0.197 OA
HETATM   14  C14 UNL     1      15.361  13.307   6.219  1.00  0.00     0.200 C 
HETATM   15  C15 UNL     1      14.989  11.988   6.872  1.00  0.00     0.072 C 
HETATM   16  C16 UNL     1      13.531  12.093   7.244  1.00  0.00     0.010 C 
HETATM   17  C17 UNL     1      13.433  13.112   8.362  1.00  0.00    -0.005 C 
HETATM   18  C22 UNL     1      13.865  14.443   7.794  1.00  0.00     0.010 C 
HETATM   19  C23 UNL     1      15.271  14.376   7.286  1.00  0.00     0.072 C 
HETATM   20  O7  UNL     1      16.554  13.260   5.553  1.00  0.00    -0.313 OA
ENDROOT
BRANCH   1  21
HETATM   21  C3  UNL     1      21.356  14.637   1.500  1.00  0.00     0.185 C 
BRANCH  21  22
HETATM   22  O2  UNL     1      22.684  14.142   1.531  1.00  0.00    -0.321 OA
BRANCH  22  23
HETATM   23  C2  UNL     1      23.772  14.884   1.933  1.00  0.00     0.254 C 
HETATM   24  C1  UNL     1      25.160  14.372   1.964  1.00  0.00     0.126 C 
HETATM   25  O1  UNL     1      23.564  16.073   2.300  1.00  0.00    -0.266 OA
ENDBRANCH  22  23
ENDBRANCH  21  22
ENDBRANCH   1  21
BRANCH  17  26
HETATM   26  C18 UNL     1      12.004  13.180   8.868  1.00  0.00     0.107 C 
BRANCH  26  27
HETATM   27  C19 UNL     1      11.962  13.652  10.277  1.00  0.00     0.219 C 
HETATM   28  O6  UNL     1      12.089  14.916  10.433  1.00  0.00    -0.273 OA
HETATM   29  N1  UNL     1      11.799  12.804  11.388  1.00  0.00    -0.361 N 
HETATM   30  C20 UNL     1      11.672  11.372  11.243  1.00  0.00     0.152 C 
HETATM   31  C21 UNL     1      11.760  13.365  12.721  1.00  0.00     0.152 C 
ENDBRANCH  26  27
ENDBRANCH  17  26
TORSDOF 5
ENDMDL
MODEL 2
REMARK VINA RESULT: -7.989585320      1.004      1.420
REMARK  5 active torsions:
REMARK  status: ('A' for Active; 'I' for Inactive)
REMARK    1  A    between atoms: C2_2  and  O2_4 
REMARK    2  A    between atoms: O2_4  and  C3_5 
REMARK    3  A    between atoms: C3_5  and  C4_6 
REMARK    4  A    between atoms: C17_22  and  C18_23 
REMARK    5  A    between atoms: C18_23  and  C19_24 
REMARK       I    between atoms: C19_24  and  N1_26 
ROOT
HETATM    1  C4  UNL     1      20.412  13.272   1.998  1.00  0.00     0.040 C 
HETATM    2  C5  UNL     1      19.724  12.939   0.703  1.00  0.00     0.175 C 
HETATM    3  O3  UNL     1      18.354  12.915   0.977  1.00  0.00    -0.385 OA
HETATM    4  C6  UNL     1      18.232  14.002   1.876  1.00  0.00     0.126 C 
HETATM    5  C7  UNL     1      16.851  14.310   2.246  1.00  0.00     0.038 C 
HETATM    6  C8  UNL     1      16.524  14.360   3.697  1.00  0.00     0.074 C 
HETATM    7  C9  UNL     1      16.183  13.078   4.342  1.00  0.00     0.200 C 
HETATM    8  C10 UNL     1      16.682  11.838   3.664  1.00  0.00     0.071 C 
HETATM    9  C11 UNL     1      18.122  11.579   3.657  1.00  0.00     0.006 C 
HETATM   10  C12 UNL     1      19.039  12.708   3.918  1.00  0.00     0.008 C 
HETATM   11  C13 UNL     1      19.244  13.708   2.881  1.00  0.00     0.023 C 
HETATM   12  O4  UNL     1      14.780  12.932   4.358  1.00  0.00    -0.197 OA
HETATM   13  O5  UNL     1      14.399  13.659   5.379  1.00  0.00    -0.197 OA
HETATM   14  C14 UNL     1      15.265  13.214   6.375  1.00  0.00     0.200 C 
HETATM   15  C15 UNL     1      14.729  11.884   6.875  1.00  0.00     0.072 C 
HETATM   16  C16 UNL     1      13.287  12.119   7.250  1.00  0.00     0.010 C 
HETATM   17  C17 UNL     1      13.289  13.012   8.473  1.00  0.00    -0.005 C 
HETATM   18  C22 UNL     1      13.883  14.338   8.060  1.00  0.00     0.010 C 
HETATM   19  C23 UNL     1      15.280  14.162   7.555  1.00  0.00     0.072 C 
HETATM   20  O7  UNL     1      16.455  13.101   5.714  1.00  0.00    -0.313 OA
ENDROOT
BRANCH   1  21
HETATM   21  C3  UNL     1      21.457  14.340   1.863  1.00  0.00     0.185 C 
BRANCH  21  22
HETATM   22  O2  UNL     1      20.868  15.415   1.152  1.00  0.00    -0.321 OA
BRANCH  22  23
HETATM   23  C2  UNL     1      20.885  16.723   1.581  1.00  0.00     0.254 C 
HETATM   24  C1  UNL     1      19.728  17.410   2.196  1.00  0.00     0.126 C 
HETATM   25  O1  UNL     1      21.959  17.370   1.437  1.00  0.00    -0.266 OA
ENDBRANCH  22  23
ENDBRANCH  21  22
ENDBRANCH   1  21
BRANCH  17  26
HETATM   26  C18 UNL     1      11.868  13.192   8.977  1.00  0.00     0.107 C 
BRANCH  26  27
HETATM   27  C19 UNL     1      11.861  13.658  10.389  1.00  0.00     0.219 C 
HETATM   28  O6  UNL     1      11.975  14.923  10.546  1.00  0.00    -0.273 OA
HETATM   29  N1  UNL     1      11.741  12.804  11.500  1.00  0.00    -0.361 N 
HETATM   30  C20 UNL     1      11.630  11.371  11.353  1.00  0.00     0.152 C 
HETATM   31  C21 UNL     1      11.733  13.360  12.836  1.00  0.00     0.152 C 
ENDBRANCH  26  27
ENDBRANCH  17  26
TORSDOF 5
ENDMDL
MODEL 3
REMARK VINA RESULT: -7.944254742      5.396      9.834
REMARK  5 active torsions:
REMARK  status: ('A' for Active; 'I' for Inactive)
REMARK    1  A    between atoms: C2_2  and  O2_4 
REMARK    2  A    between atoms: O2_4  and  C3_5 
REMARK    3  A    between atoms: C3_5  and  C4_6 
REMARK    4  A    between atoms: C17_22  and  C18_23 
REMARK    5  A    between atoms: C18_23  and  C19_24 
REMARK       I    between atoms: C19_24  and  N1_26 
ROOT
HETATM    1  C4  UNL     1      14.566  13.425   7.863  1.00  0.00     0.040 C 
HETATM    2  C5  UNL     1      15.964  13.967   7.746  1.00  0.00     0.175 C 
HETATM    3  O3  UNL     1      16.516  13.397   6.596  1.00  0.00    -0.385 OA
HETATM    4  C6  UNL     1      15.404  13.413   5.719  1.00  0.00     0.126 C 
HETATM    5  C7  UNL     1      15.721  12.984   4.357  1.00  0.00     0.038 C 
HETATM    6  C8  UNL     1      14.903  11.883   3.777  1.00  0.00     0.074 C 
HETATM    7  C9  UNL     1      15.338  10.507   4.081  1.00  0.00     0.200 C 
HETATM    8  C10 UNL     1      16.186  10.332   5.303  1.00  0.00     0.071 C 
HETATM    9  C11 UNL     1      15.573  10.546   6.614  1.00  0.00     0.006 C 
HETATM   10  C12 UNL     1      14.315  11.320   6.682  1.00  0.00     0.008 C 
HETATM   11  C13 UNL     1      14.363  12.763   6.501  1.00  0.00     0.023 C 
HETATM   12  O4  UNL     1      16.144  10.037   3.022  1.00  0.00    -0.197 OA
HETATM   13  O5  UNL     1      15.280   9.666   2.109  1.00  0.00    -0.197 OA
HETATM   14  C14 UNL     1      14.401   8.887   2.858  1.00  0.00     0.200 C 
HETATM   15  C15 UNL     1      15.060   7.534   3.061  1.00  0.00     0.072 C 
HETATM   16  C16 UNL     1      15.445   7.039   1.689  1.00  0.00     0.010 C 
HETATM   17  C17 UNL     1      14.156   6.729   0.954  1.00  0.00    -0.005 C 
HETATM   18  C22 UNL     1      13.412   8.032   0.785  1.00  0.00     0.010 C 
HETATM   19  C23 UNL     1      13.106   8.648   2.114  1.00  0.00     0.072 C 
HETATM   20  O7  UNL     1      14.274   9.602   4.016  1.00  0.00    -0.313 OA
ENDROOT
BRANCH   1  21
HETATM   21  C3  UNL     1      13.537  14.479   8.146  1.00  0.00     0.185 C 
BRANCH  21  22
HETATM   22  O2  UNL     1      12.361  13.812   8.571  1.00  0.00    -0.321 OA
BRANCH  22  23
HETATM   23  C2  UNL     1      11.991  13.668   9.889  1.00  0.00     0.254 C 
HETATM   24  C1  UNL     1      11.685  12.369  10.528  1.00  0.00     0.126 C 
HETATM   25  O1  UNL     1      11.910  14.714  10.590  1.00  0.00    -0.266 OA
ENDBRANCH  22  23
ENDBRANCH  21  22
ENDBRANCH   1  21
BRANCH  17  26
HETATM   26  C18 UNL     1      14.474   6.111  -0.396  1.00  0.00     0.107 C 
BRANCH  26  27
HETATM   27  C19 UNL     1      13.679   4.873  -0.612  1.00  0.00     0.219 C 
HETATM   28  O6  UNL     1      14.136   3.824  -0.038  1.00  0.00    -0.273 OA
HETATM   29  N1  UNL     1      12.505   4.815  -1.385  1.00  0.00    -0.361 N 
HETATM   30  C20 UNL     1      11.977   5.978  -2.060  1.00  0.00     0.152 C 
HETATM   31  C21 UNL     1      11.797   3.560  -1.525  1.00  0.00     0.152 C 
ENDBRANCH  26  27
ENDBRANCH  17  26
TORSDOF 5
ENDMDL
MODEL 4
REMARK VINA RESULT: -7.898729279      5.347      9.626
REMARK  5 active torsions:
REMARK  status: ('A' for Active; 'I' for Inactive)
REMARK    1  A    between atoms: C2_2  and  O2_4 
REMARK    2  A    between atoms: O2_4  and  C3_5 
REMARK    3  A    between atoms: C3_5  and  C4_6 
REMARK    4  A    between atoms: C17_22  and  C18_23 
REMARK    5  A    between atoms: C18_23  and  C19_24 
REMARK       I    between atoms: C19_24  and  N1_26 
ROOT
HETATM    1  C4  UNL     1      14.749  13.672   7.704  1.00  0.00     0.040 C 
HETATM    2  C5  UNL     1      16.175  14.129   7.567  1.00  0.00     0.175 C 
HETATM    3  O3  UNL     1      16.694  13.479   6.444  1.00  0.00    -0.385 OA
HETATM    4  C6  UNL     1      15.585  13.519   5.564  1.00  0.00     0.126 C 
HETATM    5  C7  UNL     1      15.876  13.013   4.223  1.00  0.00     0.038 C 
HETATM    6  C8  UNL     1      14.999  11.936   3.690  1.00  0.00     0.074 C 
HETATM    7  C9  UNL     1      15.356  10.552   4.054  1.00  0.00     0.200 C 
HETATM    8  C10 UNL     1      16.193  10.383   5.286  1.00  0.00     0.071 C 
HETATM    9  C11 UNL     1      15.593  10.689   6.584  1.00  0.00     0.006 C 
HETATM   10  C12 UNL     1      14.380  11.534   6.615  1.00  0.00     0.008 C 
HETATM   11  C13 UNL     1      14.509  12.963   6.372  1.00  0.00     0.023 C 
HETATM   12  O4  UNL     1      16.133   9.992   3.019  1.00  0.00    -0.197 OA
HETATM   13  O5  UNL     1      15.250   9.631   2.121  1.00  0.00    -0.197 OA
HETATM   14  C14 UNL     1      14.329   8.936   2.902  1.00  0.00     0.200 C 
HETATM   15  C15 UNL     1      14.911   7.558   3.164  1.00  0.00     0.072 C 
HETATM   16  C16 UNL     1      15.267   6.982   1.816  1.00  0.00     0.010 C 
HETATM   17  C17 UNL     1      13.963   6.713   1.093  1.00  0.00    -0.005 C 
HETATM   18  C22 UNL     1      13.293   8.048   0.866  1.00  0.00     0.010 C 
HETATM   19  C23 UNL     1      13.022   8.737   2.166  1.00  0.00     0.072 C 
HETATM   20  O7  UNL     1      14.242   9.706   4.027  1.00  0.00    -0.313 OA
ENDROOT
BRANCH   1  21
HETATM   21  C3  UNL     1      13.781  14.793   7.939  1.00  0.00     0.185 C 
BRANCH  21  22
HETATM   22  O2  UNL     1      12.532  14.207   8.262  1.00  0.00    -0.321 OA
BRANCH  22  23
HETATM   23  C2  UNL     1      12.157  13.848   9.537  1.00  0.00     0.254 C 
HETATM   24  C1  UNL     1      11.877  12.458   9.960  1.00  0.00     0.126 C 
HETATM   25  O1  UNL     1      12.046  14.769  10.393  1.00  0.00    -0.266 OA
ENDBRANCH  22  23
ENDBRANCH  21  22
ENDBRANCH   1  21
BRANCH  17  26
HETATM   26  C18 UNL     1      14.245   6.020  -0.228  1.00  0.00     0.107 C 
BRANCH  26  27
HETATM   27  C19 UNL     1      13.342   4.854  -0.418  1.00  0.00     0.219 C 
HETATM   28  O6  UNL     1      12.216   5.118  -0.965  1.00  0.00    -0.273 OA
HETATM   29  N1  UNL     1      13.664   3.538  -0.036  1.00  0.00    -0.361 N 
HETATM   30  C20 UNL     1      14.919   3.214   0.602  1.00  0.00     0.152 C 
HETATM   31  C21 UNL     1      12.718   2.469  -0.275  1.00  0.00     0.152 C 
ENDBRANCH  26  27
ENDBRANCH  17  26
TORSDOF 5
ENDMDL
MODEL 5
REMARK VINA RESULT: -7.833601657      5.192      9.888
REMARK  5 active torsions:
REMARK  status: ('A' for Active; 'I' for Inactive)
REMARK    1  A    between atoms: C2_2  and  O2_4 
REMARK    2  A    between atoms: O2_4  and  C3_5 
REMARK    3  A    between atoms: C3_5  and  C4_6 
REMARK    4  A    between atoms: C17_22  and  C18_23 
REMARK    5  A    between atoms: C18_23  and  C19_24 
REMARK       I    between atoms: C19_24  and  N1_26 
ROOT
HETATM    1  C4  UNL     1      14.510  13.466   7.893  1.00  0.00     0.040 C 
HETATM    2  C5  UNL     1      15.882  14.068   7.758  1.00  0.00     0.175 C 
HETATM    3  O3  UNL     1      16.451  13.506   6.613  1.00  0.00    -0.385 OA
HETATM    4  C6  UNL     1      15.334  13.459   5.743  1.00  0.00     0.126 C 
HETATM    5  C7  UNL     1      15.661  13.023   4.385  1.00  0.00     0.038 C 
HETATM    6  C8  UNL     1      14.890  11.879   3.828  1.00  0.00     0.074 C 
HETATM    7  C9  UNL     1      15.387  10.528   4.149  1.00  0.00     0.200 C 
HETATM    8  C10 UNL     1      16.250  10.409   5.368  1.00  0.00     0.071 C 
HETATM    9  C11 UNL     1      15.636  10.616   6.680  1.00  0.00     0.006 C 
HETATM   10  C12 UNL     1      14.345  11.334   6.745  1.00  0.00     0.008 C 
HETATM   11  C13 UNL     1      14.328  12.775   6.542  1.00  0.00     0.023 C 
HETATM   12  O4  UNL     1      16.206  10.078   3.092  1.00  0.00    -0.197 OA
HETATM   13  O5  UNL     1      15.354   9.656   2.191  1.00  0.00    -0.197 OA
HETATM   14  C14 UNL     1      14.515   8.850   2.958  1.00  0.00     0.200 C 
HETATM   15  C15 UNL     1      15.235   7.531   3.175  1.00  0.00     0.072 C 
HETATM   16  C16 UNL     1      15.632   7.032   1.808  1.00  0.00     0.010 C 
HETATM   17  C17 UNL     1      14.354   6.654   1.087  1.00  0.00    -0.005 C 
HETATM   18  C22 UNL     1      13.552   7.920   0.904  1.00  0.00     0.010 C 
HETATM   19  C23 UNL     1      13.227   8.542   2.226  1.00  0.00     0.072 C 
HETATM   20  O7  UNL     1      14.363   9.576   4.106  1.00  0.00    -0.313 OA
ENDROOT
BRANCH   1  21
HETATM   21  C3  UNL     1      13.437  14.478   8.168  1.00  0.00     0.185 C 
BRANCH  21  22
HETATM   22  O2  UNL     1      12.290  13.765   8.596  1.00  0.00    -0.321 OA
BRANCH  22  23
HETATM   23  C2  UNL     1      11.944  13.585   9.916  1.00  0.00     0.254 C 
HETATM   24  C1  UNL     1      11.744  12.262  10.549  1.00  0.00     0.126 C 
HETATM   25  O1  UNL     1      11.789  14.618  10.625  1.00  0.00    -0.266 OA
ENDBRANCH  22  23
ENDBRANCH  21  22
ENDBRANCH   1  21
BRANCH  17  26
HETATM   26  C18 UNL     1      14.690   6.030  -0.255  1.00  0.00     0.107 C 
BRANCH  26  27
HETATM   27  C19 UNL     1      15.333   4.702  -0.076  1.00  0.00     0.219 C 
HETATM   28  O6  UNL     1      14.632   3.836   0.553  1.00  0.00    -0.273 OA
HETATM   29  N1  UNL     1      16.619   4.379  -0.548  1.00  0.00    -0.361 N 
HETATM   30  C20 UNL     1      17.440   5.343  -1.245  1.00  0.00     0.152 C 
HETATM   31  C21 UNL     1      17.152   3.051  -0.332  1.00  0.00     0.152 C 
ENDBRANCH  26  27
ENDBRANCH  17  26
TORSDOF 5
ENDMDL
