MODEL 1
REMARK VINA RESULT: -6.335401836      0.000      0.000
REMARK  7 active torsions:
REMARK  status: ('A' for Active; 'I' for Inactive)
REMARK    1  A    between atoms: O1_2  and  C2_3 
REMARK    2  A    between atoms: C2_3  and  C3_5 
REMARK    3  A    between atoms: C3_5  and  N1_6 
REMARK    4  A    between atoms: C5_8  and  C6_9 
REMARK    5  A    between atoms: C12_17  and  C14_20 
REMARK    6  A    between atoms: C14_20  and  O5_22 
REMARK    7  A    between atoms: C17_25  and  C18_26 
ROOT
HETATM    1  N1  UNL     1      15.628  10.104   5.425  1.00  0.00    -0.353 N 
HETATM    2  C4  UNL     1      14.686   9.452   4.633  1.00  0.00     0.074 C 
HETATM    3  C5  UNL     1      14.797   9.630   3.142  1.00  0.00     0.068 C 
HETATM    4  C10 UNL     1      16.276   9.728   2.864  1.00  0.00     0.042 C 
HETATM    5  C11 UNL     1      16.685   9.513   1.474  1.00  0.00     0.086 C 
HETATM    6  S1  UNL     1      17.556  11.035   1.026  1.00  0.00    -0.129 SA
HETATM    7  C12 UNL     1      16.983  12.045   2.496  1.00  0.00     0.210 C 
HETATM    8  C13 UNL     1      15.819  12.689   2.029  1.00  0.00     0.096 C 
HETATM    9  N2  UNL     1      14.869  13.227   1.663  1.00  0.00    -0.195 NA
HETATM   10  C16 UNL     1      16.908  10.951   3.477  1.00  0.00    -0.008 C 
HETATM   11  C17 UNL     1      16.495  11.083   4.855  1.00  0.00     0.021 C 
ENDROOT
BRANCH   7  12
HETATM   12  C14 UNL     1      18.158  12.929   2.726  1.00  0.00     0.296 C 
HETATM   13  O4  UNL     1      19.301  12.520   3.038  1.00  0.00    -0.262 OA
BRANCH  12  14
HETATM   14  O5  UNL     1      17.979  14.286   2.584  1.00  0.00    -0.324 OA
HETATM   15  C15 UNL     1      17.883  15.158   3.697  1.00  0.00     0.213 C 
ENDBRANCH  12  14
ENDBRANCH   7  12
BRANCH  11  16
HETATM   16  C18 UNL     1      16.136  12.408   5.446  1.00  0.00     0.036 C 
HETATM   17  C19 UNL     1      14.671  12.618   5.736  1.00  0.00     0.011 C 
HETATM   18  C20 UNL     1      14.433  14.130   5.711  1.00  0.00     0.001 C 
HETATM   19  C21 UNL     1      15.260  14.690   6.844  1.00  0.00     0.000 C 
HETATM   20  C22 UNL     1      16.062  13.692   7.595  1.00  0.00     0.001 C 
HETATM   21  C23 UNL     1      16.848  12.720   6.763  1.00  0.00     0.011 C 
ENDBRANCH  11  16
BRANCH   3  22
HETATM   22  C6  UNL     1      14.320   8.401   2.449  1.00  0.00    -0.024 A 
HETATM   23  C7  UNL     1      14.709   7.095   2.677  1.00  0.00     0.034 A 
HETATM   24  C8  UNL     1      13.985   6.336   1.788  1.00  0.00     0.142 A 
HETATM   25  O3  UNL     1      13.221   7.138   1.083  1.00  0.00    -0.334 OA
HETATM   26  C9  UNL     1      13.390   8.378   1.445  1.00  0.00     0.149 A 
ENDBRANCH   3  22
BRANCH   1  27
HETATM   27  C3  UNL     1      16.233   9.177   6.346  1.00  0.00     0.239 C 
BRANCH  27  28
HETATM   28  C2  UNL     1      15.847   9.438   7.751  1.00  0.00     0.276 C 
HETATM   29  O2  UNL     1      14.846  10.164   7.983  1.00  0.00    -0.263 OA
BRANCH  28  30
HETATM   30  O1  UNL     1      16.509   8.939   8.862  1.00  0.00    -0.325 OA
HETATM   31  C1  UNL     1      16.088   7.738   9.513  1.00  0.00     0.213 C 
ENDBRANCH  28  30
ENDBRANCH  27  28
ENDBRANCH   1  27
TORSDOF 7
ENDMDL
MODEL 2
REMARK VINA RESULT: -6.167180619      0.870      1.249
REMARK  7 active torsions:
REMARK  status: ('A' for Active; 'I' for Inactive)
REMARK    1  A    between atoms: O1_2  and  C2_3 
REMARK    2  A    between atoms: C2_3  and  C3_5 
REMARK    3  A    between atoms: C3_5  and  N1_6 
REMARK    4  A    between atoms: C5_8  and  C6_9 
REMARK    5  A    between atoms: C12_17  and  C14_20 
REMARK    6  A    between atoms: C14_20  and  O5_22 
REMARK    7  A    between atoms: C17_25  and  C18_26 
ROOT
HETATM    1  N1  UNL     1      15.729   9.963   5.177  1.00  0.00    -0.353 N 
HETATM    2  C4  UNL     1      14.728   9.309   4.462  1.00  0.00     0.074 C 
HETATM    3  C5  UNL     1      14.710   9.500   2.969  1.00  0.00     0.068 C 
HETATM    4  C10 UNL     1      16.159   9.613   2.567  1.00  0.00     0.042 C 
HETATM    5  C11 UNL     1      16.449   9.413   1.146  1.00  0.00     0.086 C 
HETATM    6  S1  UNL     1      17.267  10.946   0.638  1.00  0.00    -0.129 SA
HETATM    7  C12 UNL     1      16.813  11.939   2.160  1.00  0.00     0.210 C 
HETATM    8  C13 UNL     1      15.609  12.576   1.800  1.00  0.00     0.096 C 
HETATM    9  N2  UNL     1      14.626  13.109   1.521  1.00  0.00    -0.195 NA
HETATM   10  C16 UNL     1      16.831  10.837   3.134  1.00  0.00    -0.008 C 
HETATM   11  C17 UNL     1      16.536  10.954   4.544  1.00  0.00     0.021 C 
ENDROOT
BRANCH   7  12
HETATM   12  C14 UNL     1      17.996  12.832   2.297  1.00  0.00     0.296 C 
HETATM   13  O4  UNL     1      17.932  14.078   2.417  1.00  0.00    -0.262 OA
BRANCH  12  14
HETATM   14  O5  UNL     1      19.244  12.252   2.292  1.00  0.00    -0.324 OA
HETATM   15  C15 UNL     1      20.206  12.516   3.298  1.00  0.00     0.213 C 
ENDBRANCH  12  14
ENDBRANCH   7  12
BRANCH  11  16
HETATM   16  C18 UNL     1      16.218  12.271   5.175  1.00  0.00     0.036 C 
HETATM   17  C19 UNL     1      14.756  12.534   5.437  1.00  0.00     0.011 C 
HETATM   18  C20 UNL     1      14.583  14.054   5.463  1.00  0.00     0.001 C 
HETATM   19  C21 UNL     1      15.403  14.536   6.635  1.00  0.00     0.000 C 
HETATM   20  C22 UNL     1      16.143  13.478   7.368  1.00  0.00     0.001 C 
HETATM   21  C23 UNL     1      16.909  12.505   6.520  1.00  0.00     0.011 C 
ENDBRANCH  11  16
BRANCH   3  22
HETATM   22  C6  UNL     1      14.186   8.272   2.309  1.00  0.00    -0.024 A 
HETATM   23  C7  UNL     1      13.185   8.181   1.362  1.00  0.00     0.034 A 
HETATM   24  C8  UNL     1      13.074   6.842   1.071  1.00  0.00     0.142 A 
HETATM   25  O3  UNL     1      13.950   6.186   1.796  1.00  0.00    -0.334 OA
HETATM   26  C9  UNL     1      14.634   7.001   2.549  1.00  0.00     0.149 A 
ENDBRANCH   3  22
BRANCH   1  27
HETATM   27  C3  UNL     1      16.418   9.034   6.035  1.00  0.00     0.239 C 
BRANCH  27  28
HETATM   28  C2  UNL     1      15.739   8.853   7.338  1.00  0.00     0.276 C 
HETATM   29  O2  UNL     1      15.095   9.816   7.829  1.00  0.00    -0.263 OA
BRANCH  28  30
HETATM   30  O1  UNL     1      15.751   7.684   8.084  1.00  0.00    -0.325 OA
HETATM   31  C1  UNL     1      15.839   6.399   7.467  1.00  0.00     0.213 C 
ENDBRANCH  28  30
ENDBRANCH  27  28
ENDBRANCH   1  27
TORSDOF 7
ENDMDL
MODEL 3
REMARK VINA RESULT: -6.155193971      2.315      5.799
REMARK  7 active torsions:
REMARK  status: ('A' for Active; 'I' for Inactive)
REMARK    1  A    between atoms: O1_2  and  C2_3 
REMARK    2  A    between atoms: C2_3  and  C3_5 
REMARK    3  A    between atoms: C3_5  and  N1_6 
REMARK    4  A    between atoms: C5_8  and  C6_9 
REMARK    5  A    between atoms: C12_17  and  C14_20 
REMARK    6  A    between atoms: C14_20  and  O5_22 
REMARK    7  A    between atoms: C17_25  and  C18_26 
ROOT
HETATM    1  N1  UNL     1      15.484  13.193   5.317  1.00  0.00    -0.353 N 
HETATM    2  C4  UNL     1      16.631  13.901   4.963  1.00  0.00     0.074 C 
HETATM    3  C5  UNL     1      17.146  13.722   3.560  1.00  0.00     0.068 C 
HETATM    4  C10 UNL     1      15.915  13.540   2.707  1.00  0.00     0.042 C 
HETATM    5  C11 UNL     1      16.096  13.736   1.267  1.00  0.00     0.086 C 
HETATM    6  S1  UNL     1      15.565  12.169   0.534  1.00  0.00    -0.129 SA
HETATM    7  C12 UNL     1      15.543  11.188   2.130  1.00  0.00     0.210 C 
HETATM    8  C13 UNL     1      16.829  10.613   2.189  1.00  0.00     0.096 C 
HETATM    9  N2  UNL     1      17.873  10.131   2.252  1.00  0.00    -0.195 NA
HETATM   10  C16 UNL     1      15.155  12.281   3.035  1.00  0.00    -0.008 C 
HETATM   11  C17 UNL     1      14.978  12.168   4.464  1.00  0.00     0.021 C 
ENDROOT
BRANCH   7  12
HETATM   12  C14 UNL     1      14.426  10.238   1.880  1.00  0.00     0.296 C 
HETATM   13  O4  UNL     1      14.470   9.011   2.135  1.00  0.00    -0.262 OA
BRANCH  12  14
HETATM   14  O5  UNL     1      13.266  10.738   1.335  1.00  0.00    -0.324 OA
HETATM   15  C15 UNL     1      12.477   9.996   0.421  1.00  0.00     0.213 C 
ENDBRANCH  12  14
ENDBRANCH   7  12
BRANCH  11  16
HETATM   16  C18 UNL     1      15.135  10.864   5.176  1.00  0.00     0.036 C 
HETATM   17  C19 UNL     1      16.555  10.445   5.465  1.00  0.00     0.011 C 
HETATM   18  C20 UNL     1      16.545   8.919   5.584  1.00  0.00     0.001 C 
HETATM   19  C21 UNL     1      15.673   8.611   6.777  1.00  0.00     0.000 C 
HETATM   20  C22 UNL     1      15.065   9.793   7.439  1.00  0.00     0.001 C 
HETATM   21  C23 UNL     1      14.422  10.798   6.528  1.00  0.00     0.011 C 
ENDBRANCH  11  16
BRANCH   3  22
HETATM   22  C6  UNL     1      17.797  14.978   3.096  1.00  0.00    -0.024 A 
HETATM   23  C7  UNL     1      17.355  16.275   3.269  1.00  0.00     0.034 A 
HETATM   24  C8  UNL     1      18.300  17.069   2.664  1.00  0.00     0.142 A 
HETATM   25  O3  UNL     1      19.237  16.295   2.168  1.00  0.00    -0.334 OA
HETATM   26  C9  UNL     1      18.976  15.040   2.403  1.00  0.00     0.149 A 
ENDBRANCH   3  22
BRANCH   1  27
HETATM   27  C3  UNL     1      14.508  14.081   5.894  1.00  0.00     0.239 C 
BRANCH  27  28
HETATM   28  C2  UNL     1      14.695  14.262   7.351  1.00  0.00     0.276 C 
HETATM   29  O2  UNL     1      15.674  13.705   7.914  1.00  0.00    -0.263 OA
BRANCH  28  30
HETATM   30  O1  UNL     1      13.866  15.011   8.171  1.00  0.00    -0.325 OA
HETATM   31  C1  UNL     1      12.810  14.411   8.924  1.00  0.00     0.213 C 
ENDBRANCH  28  30
ENDBRANCH  27  28
ENDBRANCH   1  27
TORSDOF 7
ENDMDL
MODEL 4
REMARK VINA RESULT: -6.112082259      2.441      5.128
REMARK  7 active torsions:
REMARK  status: ('A' for Active; 'I' for Inactive)
REMARK    1  A    between atoms: O1_2  and  C2_3 
REMARK    2  A    between atoms: C2_3  and  C3_5 
REMARK    3  A    between atoms: C3_5  and  N1_6 
REMARK    4  A    between atoms: C5_8  and  C6_9 
REMARK    5  A    between atoms: C12_17  and  C14_20 
REMARK    6  A    between atoms: C14_20  and  O5_22 
REMARK    7  A    between atoms: C17_25  and  C18_26 
ROOT
HETATM    1  N1  UNL     1      15.679  10.734   4.589  1.00  0.00    -0.353 N 
HETATM    2  C4  UNL     1      15.243   9.845   5.570  1.00  0.00     0.074 C 
HETATM    3  C5  UNL     1      15.643   8.402   5.419  1.00  0.00     0.068 C 
HETATM    4  C10 UNL     1      17.017   8.434   4.798  1.00  0.00     0.042 C 
HETATM    5  C11 UNL     1      17.798   7.200   4.900  1.00  0.00     0.086 C 
HETATM    6  S1  UNL     1      18.169   6.765   3.183  1.00  0.00    -0.129 SA
HETATM    7  C12 UNL     1      16.944   7.945   2.398  1.00  0.00     0.210 C 
HETATM    8  C13 UNL     1      15.779   7.166   2.242  1.00  0.00     0.096 C 
HETATM    9  N2  UNL     1      14.820   6.544   2.101  1.00  0.00    -0.195 NA
HETATM   10  C16 UNL     1      17.017   9.013   3.406  1.00  0.00    -0.008 C 
HETATM   11  C17 UNL     1      16.264  10.246   3.383  1.00  0.00     0.021 C 
ENDROOT
BRANCH   7  12
HETATM   12  C14 UNL     1      17.647   8.309   1.138  1.00  0.00     0.296 C 
HETATM   13  O4  UNL     1      18.791   8.819   1.088  1.00  0.00    -0.262 OA
BRANCH  12  14
HETATM   14  O5  UNL     1      17.000   8.069  -0.052  1.00  0.00    -0.324 OA
HETATM   15  C15 UNL     1      16.501   9.115  -0.868  1.00  0.00     0.213 C 
ENDBRANCH  12  14
ENDBRANCH   7  12
BRANCH  11  16
HETATM   16  C18 UNL     1      15.337  10.580   2.260  1.00  0.00     0.036 C 
HETATM   17  C19 UNL     1      13.866  10.429   2.560  1.00  0.00     0.011 C 
HETATM   18  C20 UNL     1      13.169  10.191   1.218  1.00  0.00     0.001 C 
HETATM   19  C21 UNL     1      13.395  11.448   0.414  1.00  0.00     0.000 C 
HETATM   20  C22 UNL     1      14.219  12.488   1.083  1.00  0.00     0.001 C 
HETATM   21  C23 UNL     1      15.486  12.007   1.727  1.00  0.00     0.011 C 
ENDBRANCH  11  16
BRANCH   3  22
HETATM   22  C6  UNL     1      15.804   7.779   6.762  1.00  0.00    -0.024 A 
HETATM   23  C7  UNL     1      16.202   8.388   7.936  1.00  0.00     0.034 A 
HETATM   24  C8  UNL     1      16.192   7.395   8.887  1.00  0.00     0.142 A 
HETATM   25  O3  UNL     1      15.814   6.276   8.314  1.00  0.00    -0.334 OA
HETATM   26  C9  UNL     1      15.572   6.460   7.047  1.00  0.00     0.149 A 
ENDBRANCH   3  22
BRANCH   1  27
HETATM   27  C3  UNL     1      16.325  11.868   5.196  1.00  0.00     0.239 C 
BRANCH  27  28
HETATM   28  C2  UNL     1      15.362  12.896   5.650  1.00  0.00     0.276 C 
HETATM   29  O2  UNL     1      14.778  13.606   4.791  1.00  0.00    -0.263 OA
BRANCH  28  30
HETATM   30  O1  UNL     1      15.037  13.151   6.974  1.00  0.00    -0.325 OA
HETATM   31  C1  UNL     1      13.776  12.769   7.526  1.00  0.00     0.213 C 
ENDBRANCH  28  30
ENDBRANCH  27  28
ENDBRANCH   1  27
TORSDOF 7
ENDMDL
MODEL 5
REMARK VINA RESULT: -6.029576926      2.391      5.998
REMARK  7 active torsions:
REMARK  status: ('A' for Active; 'I' for Inactive)
REMARK    1  A    between atoms: O1_2  and  C2_3 
REMARK    2  A    between atoms: C2_3  and  C3_5 
REMARK    3  A    between atoms: C3_5  and  N1_6 
REMARK    4  A    between atoms: C5_8  and  C6_9 
REMARK    5  A    between atoms: C12_17  and  C14_20 
REMARK    6  A    between atoms: C14_20  and  O5_22 
REMARK    7  A    between atoms: C17_25  and  C18_26 
ROOT
HETATM    1  N1  UNL     1      15.756  13.372   4.853  1.00  0.00    -0.353 N 
HETATM    2  C4  UNL     1      16.833  14.168   4.467  1.00  0.00     0.074 C 
HETATM    3  C5  UNL     1      17.084  14.318   2.990  1.00  0.00     0.068 C 
HETATM    4  C10 UNL     1      15.718  14.302   2.352  1.00  0.00     0.042 C 
HETATM    5  C11 UNL     1      15.641  14.817   0.984  1.00  0.00     0.086 C 
HETATM    6  S1  UNL     1      14.960  13.440   0.027  1.00  0.00    -0.129 SA
HETATM    7  C12 UNL     1      15.208  12.129   1.341  1.00  0.00     0.210 C 
HETATM    8  C13 UNL     1      16.474  11.586   1.040  1.00  0.00     0.096 C 
HETATM    9  N2  UNL     1      17.504  11.126   0.806  1.00  0.00    -0.195 NA
HETATM   10  C16 UNL     1      15.007  12.984   2.521  1.00  0.00    -0.008 C 
HETATM   11  C17 UNL     1      15.088  12.551   3.897  1.00  0.00     0.021 C 
ENDROOT
BRANCH   7  12
HETATM   12  C14 UNL     1      14.048  11.232   1.090  1.00  0.00     0.296 C 
HETATM   13  O4  UNL     1      12.936  11.617   0.659  1.00  0.00    -0.262 OA
BRANCH  12  14
HETATM   14  O5  UNL     1      14.206   9.889   1.345  1.00  0.00    -0.324 OA
HETATM   15  C15 UNL     1      13.223   9.126   2.024  1.00  0.00     0.213 C 
ENDBRANCH  12  14
ENDBRANCH   7  12
BRANCH  11  16
HETATM   16  C18 UNL     1      15.348  11.126   4.261  1.00  0.00     0.036 C 
HETATM   17  C19 UNL     1      16.797  10.757   4.462  1.00  0.00     0.011 C 
HETATM   18  C20 UNL     1      16.907   9.254   4.192  1.00  0.00     0.001 C 
HETATM   19  C21 UNL     1      16.063   8.589   5.252  1.00  0.00     0.000 C 
HETATM   20  C22 UNL     1      15.364   9.515   6.179  1.00  0.00     0.001 C 
HETATM   21  C23 UNL     1      14.643  10.665   5.538  1.00  0.00     0.011 C 
ENDBRANCH  11  16
BRANCH   3  22
HETATM   22  C6  UNL     1      17.663  15.661   2.710  1.00  0.00    -0.024 A 
HETATM   23  C7  UNL     1      17.174  16.892   3.100  1.00  0.00     0.034 A 
HETATM   24  C8  UNL     1      18.060  17.816   2.598  1.00  0.00     0.142 A 
HETATM   25  O3  UNL     1      19.008  17.174   1.955  1.00  0.00    -0.334 OA
HETATM   26  C9  UNL     1      18.810  15.887   1.997  1.00  0.00     0.149 A 
ENDBRANCH   3  22
BRANCH   1  27
HETATM   27  C3  UNL     1      14.915  14.086   5.779  1.00  0.00     0.239 C 
BRANCH  27  28
HETATM   28  C2  UNL     1      15.153  13.690   7.185  1.00  0.00     0.276 C 
HETATM   29  O2  UNL     1      16.203  13.058   7.471  1.00  0.00    -0.263 OA
BRANCH  28  30
HETATM   30  O1  UNL     1      14.298  13.963   8.242  1.00  0.00    -0.325 OA
HETATM   31  C1  UNL     1      12.886  13.776   8.134  1.00  0.00     0.213 C 
ENDBRANCH  28  30
ENDBRANCH  27  28
ENDBRANCH   1  27
TORSDOF 7
ENDMDL
