MODEL 1
REMARK VINA RESULT: -7.948135928      0.000      0.000
REMARK  13 active torsions:
REMARK  status: ('A' for Active; 'I' for Inactive)
REMARK    1  A    between atoms: C2_2  and  C3_3 
REMARK    2  A    between atoms: C3_3  and  C4_4 
REMARK    3  A    between atoms: C4_4  and  O1_5 
REMARK    4  A    between atoms: O1_5  and  C5_6 
REMARK    5  A    between atoms: C5_6  and  C6_8 
REMARK    6  A    between atoms: C6_8  and  C7_9 
REMARK    7  A    between atoms: C7_9  and  O4_11 
REMARK    8  A    between atoms: C11_17  and  O5_18 
REMARK    9  A    between atoms: N2_20  and  C12_21 
REMARK   10  A    between atoms: C12_21  and  C13_22 
REMARK   11  A    between atoms: C13_22  and  C14_23 
REMARK   12  A    between atoms: C14_23  and  C15_24 
REMARK   13  A    between atoms: C19_30  and  O7_31 
ROOT
HETATM    1  C6  UNL     1      21.912 -20.254  39.332  1.00  0.00     0.242 A 
HETATM    2  N1  UNL     1      22.661 -19.139  39.767  1.00  0.00    -0.356 N 
ATOM      3  H1  UNL     1      23.390 -19.000  40.468  1.00  0.00     0.162 HD
HETATM    4  C9  UNL     1      22.004 -18.292  38.848  1.00  0.00     0.095 A 
HETATM    5  C10 UNL     1      21.265 -19.336  38.402  1.00  0.00     0.072 A 
HETATM    6  C11 UNL     1      20.424 -18.861  37.407  1.00  0.00     0.156 A 
HETATM    7  N2  UNL     1      20.652 -17.547  37.252  1.00  0.00    -0.306 N 
HETATM    8  C19 UNL     1      21.609 -17.160  38.114  1.00  0.00     0.172 A 
ENDROOT
BRANCH   1   9
HETATM    9  C5  UNL     1      22.695 -21.355  38.693  1.00  0.00     0.302 C 
HETATM   10  O2  UNL     1      22.956 -22.344  39.414  1.00  0.00    -0.261 OA
BRANCH   9  11
HETATM   11  O1  UNL     1      23.130 -21.351  37.417  1.00  0.00    -0.319 OA
BRANCH  11  12
HETATM   12  C4  UNL     1      24.175 -20.752  36.783  1.00  0.00     0.178 C 
BRANCH  12  13
HETATM   13  C3  UNL     1      24.004 -20.023  35.517  1.00  0.00     0.026 C 
BRANCH  13  14
HETATM   14  C2  UNL     1      24.890 -20.279  34.369  1.00  0.00    -0.002 C 
HETATM   15  C1  UNL     1      24.216 -19.569  33.155  1.00  0.00     0.005 C 
ENDBRANCH  13  14
ENDBRANCH  12  13
ENDBRANCH  11  12
ENDBRANCH   9  11
ENDBRANCH   1   9
BRANCH   1  16
HETATM   16  C7  UNL     1      20.981 -20.768  40.385  1.00  0.00     0.302 C 
HETATM   17  O3  UNL     1      21.142 -20.402  41.574  1.00  0.00    -0.261 OA
BRANCH  16  18
HETATM   18  O4  UNL     1      19.941 -21.638  40.106  1.00  0.00    -0.324 OA
HETATM   19  C8  UNL     1      19.396 -22.474  41.131  1.00  0.00     0.213 C 
ENDBRANCH  16  18
ENDBRANCH   1  16
BRANCH   6  20
HETATM   20  O5  UNL     1      19.509 -19.651  36.707  1.00  0.00    -0.345 OA
ATOM     21  H5  UNL     1      19.705 -20.511  36.353  1.00  0.00     0.219 HD
ENDBRANCH   6  20
BRANCH   8  22
HETATM   22  O7  UNL     1      22.126 -15.899  38.269  1.00  0.00    -0.344 OA
ATOM     23  H7  UNL     1      21.822 -15.123  37.812  1.00  0.00     0.219 HD
ENDBRANCH   8  22
BRANCH   7  24
HETATM   24  C12 UNL     1      20.000 -16.650  36.324  1.00  0.00     0.133 C 
BRANCH  24  25
HETATM   25  C13 UNL     1      20.414 -17.016  34.909  1.00  0.00     0.027 C 
BRANCH  25  26
HETATM   26  C14 UNL     1      21.924 -16.936  34.758  1.00  0.00     0.067 C 
BRANCH  26  27
HETATM   27  C15 UNL     1      22.335 -15.629  34.185  1.00  0.00     0.054 A 
HETATM   28  C16 UNL     1      22.763 -15.478  32.865  1.00  0.00     0.036 A 
HETATM   29  C17 UNL     1      23.054 -14.143  32.702  1.00  0.00     0.048 A 
HETATM   30  C18 UNL     1      22.790 -13.558  33.919  1.00  0.00     0.121 A 
HETATM   31 BR1  UNL     1      23.005 -11.714  34.307  1.00  0.00    -0.023 Br
HETATM   32  O6  UNL     1      22.367 -14.454  34.777  1.00  0.00    -0.308 OA
ENDBRANCH  26  27
ENDBRANCH  25  26
ENDBRANCH  24  25
ENDBRANCH   7  24
TORSDOF 13
ENDMDL
MODEL 2
REMARK VINA RESULT: -7.733045108      6.069     10.126
REMARK  13 active torsions:
REMARK  status: ('A' for Active; 'I' for Inactive)
REMARK    1  A    between atoms: C2_2  and  C3_3 
REMARK    2  A    between atoms: C3_3  and  C4_4 
REMARK    3  A    between atoms: C4_4  and  O1_5 
REMARK    4  A    between atoms: O1_5  and  C5_6 
REMARK    5  A    between atoms: C5_6  and  C6_8 
REMARK    6  A    between atoms: C6_8  and  C7_9 
REMARK    7  A    between atoms: C7_9  and  O4_11 
REMARK    8  A    between atoms: C11_17  and  O5_18 
REMARK    9  A    between atoms: N2_20  and  C12_21 
REMARK   10  A    between atoms: C12_21  and  C13_22 
REMARK   11  A    between atoms: C13_22  and  C14_23 
REMARK   12  A    between atoms: C14_23  and  C15_24 
REMARK   13  A    between atoms: C19_30  and  O7_31 
ROOT
HETATM    1  C6  UNL     1      23.037 -12.431  33.519  1.00  0.00     0.242 A 
HETATM    2  N1  UNL     1      21.915 -11.977  32.792  1.00  0.00    -0.356 N 
ATOM      3  H1  UNL     1      20.941 -11.786  33.031  1.00  0.00     0.162 HD
HETATM    4  C9  UNL     1      22.672 -11.894  31.603  1.00  0.00     0.095 A 
HETATM    5  C10 UNL     1      23.772 -12.326  32.264  1.00  0.00     0.072 A 
HETATM    6  C11 UNL     1      24.816 -12.381  31.353  1.00  0.00     0.156 A 
HETATM    7  N2  UNL     1      24.353 -11.985  30.156  1.00  0.00    -0.306 N 
HETATM    8  C19 UNL     1      23.049 -11.680  30.266  1.00  0.00     0.172 A 
ENDROOT
BRANCH   1   9
HETATM    9  C5  UNL     1      23.514 -11.528  34.609  1.00  0.00     0.302 C 
HETATM   10  O2  UNL     1      23.834 -12.077  35.687  1.00  0.00    -0.261 OA
BRANCH   9  11
HETATM   11  O1  UNL     1      23.620 -10.188  34.509  1.00  0.00    -0.319 OA
BRANCH  11  12
HETATM   12  C4  UNL     1      24.447  -9.361  33.811  1.00  0.00     0.178 C 
BRANCH  12  13
HETATM   13  C3  UNL     1      23.982  -8.600  32.642  1.00  0.00     0.026 C 
BRANCH  13  14
HETATM   14  C2  UNL     1      24.904  -8.257  31.546  1.00  0.00    -0.002 C 
HETATM   15  C1  UNL     1      26.248  -7.869  32.236  1.00  0.00     0.005 C 
ENDBRANCH  13  14
ENDBRANCH  12  13
ENDBRANCH  11  12
ENDBRANCH   9  11
ENDBRANCH   1   9
BRANCH   1  16
HETATM   16  C7  UNL     1      22.886 -13.844  33.988  1.00  0.00     0.302 C 
HETATM   17  O3  UNL     1      23.899 -14.581  34.045  1.00  0.00    -0.261 OA
BRANCH  16  18
HETATM   18  O4  UNL     1      21.667 -14.382  34.366  1.00  0.00    -0.324 OA
HETATM   19  C8  UNL     1      21.539 -15.782  34.631  1.00  0.00     0.213 C 
ENDBRANCH  16  18
ENDBRANCH   1  16
BRANCH   6  20
HETATM   20  O5  UNL     1      26.116 -12.784  31.668  1.00  0.00    -0.345 OA
ATOM     21  H5  UNL     1      26.607 -12.467  32.416  1.00  0.00     0.219 HD
ENDBRANCH   6  20
BRANCH   8  22
HETATM   22  O7  UNL     1      22.213 -11.237  29.271  1.00  0.00    -0.344 OA
ATOM     23  H7  UNL     1      22.450 -10.614  28.595  1.00  0.00     0.219 HD
ENDBRANCH   8  22
BRANCH   7  24
HETATM   24  C12 UNL     1      25.097 -11.888  28.920  1.00  0.00     0.133 C 
BRANCH  24  25
HETATM   25  C13 UNL     1      26.139 -10.791  29.055  1.00  0.00     0.027 C 
BRANCH  25  26
HETATM   26  C14 UNL     1      27.539 -11.384  29.063  1.00  0.00     0.067 C 
BRANCH  26  27
HETATM   27  C15 UNL     1      28.479 -10.523  29.826  1.00  0.00     0.054 A 
HETATM   28  C16 UNL     1      28.564  -9.142  29.643  1.00  0.00     0.036 A 
HETATM   29  C17 UNL     1      29.531  -8.695  30.513  1.00  0.00     0.048 A 
HETATM   30  C18 UNL     1      29.979  -9.816  31.174  1.00  0.00     0.121 A 
HETATM   31 BR1  UNL     1      31.324  -9.825  32.510  1.00  0.00    -0.023 Br
HETATM   32  O6  UNL     1      29.343 -10.881  30.752  1.00  0.00    -0.308 OA
ENDBRANCH  26  27
ENDBRANCH  25  26
ENDBRANCH  24  25
ENDBRANCH   7  24
TORSDOF 13
ENDMDL
MODEL 3
REMARK VINA RESULT: -7.584581747      3.615      4.341
REMARK  13 active torsions:
REMARK  status: ('A' for Active; 'I' for Inactive)
REMARK    1  A    between atoms: C2_2  and  C3_3 
REMARK    2  A    between atoms: C3_3  and  C4_4 
REMARK    3  A    between atoms: C4_4  and  O1_5 
REMARK    4  A    between atoms: O1_5  and  C5_6 
REMARK    5  A    between atoms: C5_6  and  C6_8 
REMARK    6  A    between atoms: C6_8  and  C7_9 
REMARK    7  A    between atoms: C7_9  and  O4_11 
REMARK    8  A    between atoms: C11_17  and  O5_18 
REMARK    9  A    between atoms: N2_20  and  C12_21 
REMARK   10  A    between atoms: C12_21  and  C13_22 
REMARK   11  A    between atoms: C13_22  and  C14_23 
REMARK   12  A    between atoms: C14_23  and  C15_24 
REMARK   13  A    between atoms: C19_30  and  O7_31 
ROOT
HETATM    1  C6  UNL     1      22.106 -18.757  38.174  1.00  0.00     0.242 A 
HETATM    2  N1  UNL     1      21.901 -17.359  38.151  1.00  0.00    -0.356 N 
ATOM      3  H1  UNL     1      22.371 -16.563  38.582  1.00  0.00     0.162 HD
HETATM    4  C9  UNL     1      20.787 -17.500  37.294  1.00  0.00     0.095 A 
HETATM    5  C10 UNL     1      20.950 -18.845  37.290  1.00  0.00     0.072 A 
HETATM    6  C11 UNL     1      19.957 -19.386  36.488  1.00  0.00     0.156 A 
HETATM    7  N2  UNL     1      19.204 -18.381  36.012  1.00  0.00    -0.306 N 
HETATM    8  C19 UNL     1      19.677 -17.214  36.481  1.00  0.00     0.172 A 
ENDROOT
BRANCH   1   9
HETATM    9  C5  UNL     1      23.393 -19.235  37.584  1.00  0.00     0.302 C 
HETATM   10  O2  UNL     1      24.435 -18.678  37.994  1.00  0.00    -0.261 OA
BRANCH   9  11
HETATM   11  O1  UNL     1      23.501 -20.210  36.658  1.00  0.00    -0.319 OA
BRANCH  11  12
HETATM   12  C4  UNL     1      24.482 -20.571  35.786  1.00  0.00     0.178 C 
BRANCH  12  13
HETATM   13  C3  UNL     1      24.571 -19.998  34.435  1.00  0.00     0.026 C 
BRANCH  13  14
HETATM   14  C2  UNL     1      24.984 -20.825  33.288  1.00  0.00    -0.002 C 
HETATM   15  C1  UNL     1      24.594 -20.004  32.020  1.00  0.00     0.005 C 
ENDBRANCH  13  14
ENDBRANCH  12  13
ENDBRANCH  11  12
ENDBRANCH   9  11
ENDBRANCH   1   9
BRANCH   1  16
HETATM   16  C7  UNL     1      21.853 -19.352  39.524  1.00  0.00     0.302 C 
HETATM   17  O3  UNL     1      22.282 -18.760  40.543  1.00  0.00    -0.261 OA
BRANCH  16  18
HETATM   18  O4  UNL     1      21.162 -20.539  39.702  1.00  0.00    -0.324 OA
HETATM   19  C8  UNL     1      21.851 -21.731  40.091  1.00  0.00     0.213 C 
ENDBRANCH  16  18
ENDBRANCH   1  16
BRANCH   6  20
HETATM   20  O5  UNL     1      19.802 -20.752  36.242  1.00  0.00    -0.345 OA
ATOM     21  H5  UNL     1      20.522 -21.358  36.118  1.00  0.00     0.219 HD
ENDBRANCH   6  20
BRANCH   8  22
HETATM   22  O7  UNL     1      19.187 -15.958  36.228  1.00  0.00    -0.344 OA
ATOM     23  H7  UNL     1      18.481 -15.757  35.625  1.00  0.00     0.219 HD
ENDBRANCH   8  22
BRANCH   7  24
HETATM   24  C12 UNL     1      18.059 -18.487  35.135  1.00  0.00     0.133 C 
BRANCH  24  25
HETATM   25  C13 UNL     1      18.532 -18.893  33.750  1.00  0.00     0.027 C 
BRANCH  25  26
HETATM   26  C14 UNL     1      17.405 -19.554  32.974  1.00  0.00     0.067 C 
BRANCH  26  27
HETATM   27  C15 UNL     1      17.055 -18.766  31.765  1.00  0.00     0.054 A 
HETATM   28  C16 UNL     1      16.339 -17.569  31.819  1.00  0.00     0.036 A 
HETATM   29  C17 UNL     1      16.209 -17.137  30.519  1.00  0.00     0.048 A 
HETATM   30  C18 UNL     1      16.847 -18.083  29.751  1.00  0.00     0.121 A 
HETATM   31 BR1  UNL     1      16.999 -18.026  27.861  1.00  0.00    -0.023 Br
HETATM   32  O6  UNL     1      17.338 -19.033  30.508  1.00  0.00    -0.308 OA
ENDBRANCH  26  27
ENDBRANCH  25  26
ENDBRANCH  24  25
ENDBRANCH   7  24
TORSDOF 13
ENDMDL
MODEL 4
REMARK VINA RESULT: -7.399820131      8.611     11.991
REMARK  13 active torsions:
REMARK  status: ('A' for Active; 'I' for Inactive)
REMARK    1  A    between atoms: C2_2  and  C3_3 
REMARK    2  A    between atoms: C3_3  and  C4_4 
REMARK    3  A    between atoms: C4_4  and  O1_5 
REMARK    4  A    between atoms: O1_5  and  C5_6 
REMARK    5  A    between atoms: C5_6  and  C6_8 
REMARK    6  A    between atoms: C6_8  and  C7_9 
REMARK    7  A    between atoms: C7_9  and  O4_11 
REMARK    8  A    between atoms: C11_17  and  O5_18 
REMARK    9  A    between atoms: N2_20  and  C12_21 
REMARK   10  A    between atoms: C12_21  and  C13_22 
REMARK   11  A    between atoms: C13_22  and  C14_23 
REMARK   12  A    between atoms: C14_23  and  C15_24 
REMARK   13  A    between atoms: C19_30  and  O7_31 
ROOT
HETATM    1  C6  UNL     1      22.666 -10.729  29.991  1.00  0.00     0.242 A 
HETATM    2  N1  UNL     1      21.930  -9.870  30.836  1.00  0.00    -0.356 N 
ATOM      3  H1  UNL     1      20.949  -9.812  31.112  1.00  0.00     0.162 HD
HETATM    4  C9  UNL     1      23.087  -9.125  31.149  1.00  0.00     0.095 A 
HETATM    5  C10 UNL     1      23.830  -9.925  30.348  1.00  0.00     0.072 A 
HETATM    6  C11 UNL     1      25.139  -9.471  30.395  1.00  0.00     0.156 A 
HETATM    7  N2  UNL     1      25.187  -8.409  31.216  1.00  0.00    -0.306 N 
HETATM    8  C19 UNL     1      23.956  -8.165  31.696  1.00  0.00     0.172 A 
ENDROOT
BRANCH   1   9
HETATM    9  C5  UNL     1      22.731 -12.160  30.414  1.00  0.00     0.302 C 
HETATM   10  O2  UNL     1      23.331 -12.943  29.644  1.00  0.00    -0.261 OA
BRANCH   9  11
HETATM   11  O1  UNL     1      22.196 -12.653  31.550  1.00  0.00    -0.319 OA
BRANCH  11  12
HETATM   12  C4  UNL     1      22.704 -12.934  32.781  1.00  0.00     0.178 C 
BRANCH  12  13
HETATM   13  C3  UNL     1      22.600 -11.986  33.901  1.00  0.00     0.026 C 
BRANCH  13  14
HETATM   14  C2  UNL     1      23.623 -10.949  34.112  1.00  0.00    -0.002 C 
HETATM   15  C1  UNL     1      23.748 -10.795  35.660  1.00  0.00     0.005 C 
ENDBRANCH  13  14
ENDBRANCH  12  13
ENDBRANCH  11  12
ENDBRANCH   9  11
ENDBRANCH   1   9
BRANCH   1  16
HETATM   16  C7  UNL     1      22.281 -10.588  28.551  1.00  0.00     0.302 C 
HETATM   17  O3  UNL     1      21.210 -11.105  28.152  1.00  0.00    -0.261 OA
BRANCH  16  18
HETATM   18  O4  UNL     1      23.060  -9.908  27.630  1.00  0.00    -0.324 OA
HETATM   19  C8  UNL     1      22.530  -8.787  26.915  1.00  0.00     0.213 C 
ENDBRANCH  16  18
ENDBRANCH   1  16
BRANCH   6  20
HETATM   20  O5  UNL     1      26.198 -10.049  29.693  1.00  0.00    -0.345 OA
ATOM     21  H5  UNL     1      26.102 -10.758  29.068  1.00  0.00     0.219 HD
ENDBRANCH   6  20
BRANCH   8  22
HETATM   22  O7  UNL     1      23.586  -7.168  32.564  1.00  0.00    -0.344 OA
ATOM     23  H7  UNL     1      22.717  -7.057  32.931  1.00  0.00     0.219 HD
ENDBRANCH   8  22
BRANCH   7  24
HETATM   24  C12 UNL     1      26.351  -7.623  31.559  1.00  0.00     0.133 C 
BRANCH  24  25
HETATM   25  C13 UNL     1      27.121  -8.331  32.660  1.00  0.00     0.027 C 
BRANCH  25  26
HETATM   26  C14 UNL     1      28.604  -8.374  32.332  1.00  0.00     0.067 C 
BRANCH  26  27
HETATM   27  C15 UNL     1      28.914  -9.494  31.407  1.00  0.00     0.054 A 
HETATM   28  C16 UNL     1      29.625  -9.323  30.218  1.00  0.00     0.036 A 
HETATM   29  C17 UNL     1      29.714 -10.567  29.637  1.00  0.00     0.048 A 
HETATM   30  C18 UNL     1      29.060 -11.421  30.496  1.00  0.00     0.121 A 
HETATM   31 BR1  UNL     1      28.854 -13.287  30.224  1.00  0.00    -0.023 Br
HETATM   32  O6  UNL     1      28.597 -10.765  31.531  1.00  0.00    -0.308 OA
ENDBRANCH  26  27
ENDBRANCH  25  26
ENDBRANCH  24  25
ENDBRANCH   7  24
TORSDOF 13
ENDMDL
MODEL 5
REMARK VINA RESULT: -7.319299604      6.388     10.383
REMARK  13 active torsions:
REMARK  status: ('A' for Active; 'I' for Inactive)
REMARK    1  A    between atoms: C2_2  and  C3_3 
REMARK    2  A    between atoms: C3_3  and  C4_4 
REMARK    3  A    between atoms: C4_4  and  O1_5 
REMARK    4  A    between atoms: O1_5  and  C5_6 
REMARK    5  A    between atoms: C5_6  and  C6_8 
REMARK    6  A    between atoms: C6_8  and  C7_9 
REMARK    7  A    between atoms: C7_9  and  O4_11 
REMARK    8  A    between atoms: C11_17  and  O5_18 
REMARK    9  A    between atoms: N2_20  and  C12_21 
REMARK   10  A    between atoms: C12_21  and  C13_22 
REMARK   11  A    between atoms: C13_22  and  C14_23 
REMARK   12  A    between atoms: C14_23  and  C15_24 
REMARK   13  A    between atoms: C19_30  and  O7_31 
ROOT
HETATM    1  C6  UNL     1      23.116 -12.048  33.000  1.00  0.00     0.242 A 
HETATM    2  N1  UNL     1      21.914 -11.835  32.288  1.00  0.00    -0.356 N 
ATOM      3  H1  UNL     1      20.947 -11.659  32.561  1.00  0.00     0.162 HD
HETATM    4  C9  UNL     1      22.581 -11.964  31.051  1.00  0.00     0.095 A 
HETATM    5  C10 UNL     1      23.754 -12.171  31.694  1.00  0.00     0.072 A 
HETATM    6  C11 UNL     1      24.735 -12.355  30.732  1.00  0.00     0.156 A 
HETATM    7  N2  UNL     1      24.162 -12.260  29.521  1.00  0.00    -0.306 N 
HETATM    8  C19 UNL     1      22.848 -12.022  29.672  1.00  0.00     0.172 A 
ENDROOT
BRANCH   1   9
HETATM    9  C5  UNL     1      23.591 -10.901  33.831  1.00  0.00     0.302 C 
HETATM   10  O2  UNL     1      23.245 -10.903  35.033  1.00  0.00    -0.261 OA
BRANCH   9  11
HETATM   11  O1  UNL     1      24.353  -9.884  33.379  1.00  0.00    -0.319 OA
BRANCH  11  12
HETATM   12  C4  UNL     1      24.071  -8.656  32.865  1.00  0.00     0.178 C 
BRANCH  12  13
HETATM   13  C3  UNL     1      23.862  -8.444  31.425  1.00  0.00     0.026 C 
BRANCH  13  14
HETATM   14  C2  UNL     1      22.508  -8.264  30.874  1.00  0.00    -0.002 C 
HETATM   15  C1  UNL     1      22.040  -6.860  31.368  1.00  0.00     0.005 C 
ENDBRANCH  13  14
ENDBRANCH  12  13
ENDBRANCH  11  12
ENDBRANCH   9  11
ENDBRANCH   1   9
BRANCH   1  16
HETATM   16  C7  UNL     1      23.110 -13.331  33.769  1.00  0.00     0.302 C 
HETATM   17  O3  UNL     1      24.202 -13.838  34.121  1.00  0.00    -0.261 OA
BRANCH  16  18
HETATM   18  O4  UNL     1      21.944 -13.994  34.112  1.00  0.00    -0.324 OA
HETATM   19  C8  UNL     1      21.949 -15.406  34.339  1.00  0.00     0.213 C 
ENDBRANCH  16  18
ENDBRANCH   1  16
BRANCH   6  20
HETATM   20  O5  UNL     1      26.081 -12.597  31.017  1.00  0.00    -0.345 OA
ATOM     21  H5  UNL     1      26.719 -12.889  30.377  1.00  0.00     0.219 HD
ENDBRANCH   6  20
BRANCH   8  22
HETATM   22  O7  UNL     1      21.915 -11.860  28.679  1.00  0.00    -0.344 OA
ATOM     23  H7  UNL     1      21.344 -12.543  28.348  1.00  0.00     0.219 HD
ENDBRANCH   8  22
BRANCH   7  24
HETATM   24  C12 UNL     1      24.812 -12.386  28.235  1.00  0.00     0.133 C 
BRANCH  24  25
HETATM   25  C13 UNL     1      25.042 -13.858  27.939  1.00  0.00     0.027 C 
BRANCH  25  26
HETATM   26  C14 UNL     1      26.169 -14.029  26.934  1.00  0.00     0.067 C 
BRANCH  26  27
HETATM   27  C15 UNL     1      27.449 -14.350  27.618  1.00  0.00     0.054 A 
HETATM   28  C16 UNL     1      28.606 -14.718  26.930  1.00  0.00     0.036 A 
HETATM   29  C17 UNL     1      29.572 -14.934  27.886  1.00  0.00     0.048 A 
HETATM   30  C18 UNL     1      28.958 -14.689  29.092  1.00  0.00     0.121 A 
HETATM   31 BR1  UNL     1      29.798 -14.825  30.787  1.00  0.00    -0.023 Br
HETATM   32  O6  UNL     1      27.706 -14.346  28.908  1.00  0.00    -0.308 OA
ENDBRANCH  26  27
ENDBRANCH  25  26
ENDBRANCH  24  25
ENDBRANCH   7  24
TORSDOF 13
ENDMDL
