MODEL 1
REMARK VINA RESULT: -7.248581746      0.000      0.000
REMARK  12 active torsions:
REMARK  status: ('A' for Active; 'I' for Inactive)
REMARK    1  A    between atoms: O1_2  and  C2_3 
REMARK    2  A    between atoms: C2_3  and  C3_5 
REMARK    3  A    between atoms: C3_5  and  N1_6 
REMARK    4  A    between atoms: N1_6  and  C4_8 
REMARK    5  A    between atoms: N2_10  and  C5_11 
REMARK    6  A    between atoms: C5_11  and  C6_12 
REMARK    7  A    between atoms: C6_12  and  C7_13 
REMARK    8  A    between atoms: C9_15  and  C10_16 
REMARK    9  A    between atoms: C14_22  and  C15_23 
REMARK       I    between atoms: C15_23  and  N4_25 
REMARK   10  A    between atoms: N4_25  and  C16_27 
REMARK   11  A    between atoms: C16_27  and  C17_28 
REMARK   12  A    between atoms: C17_28  and  C18_29 
ROOT
HETATM    1  C4  UNL     1      22.813 -11.962  31.418  1.00  0.00     0.106 A 
HETATM    2  S1  UNL     1      22.765 -13.234  30.265  1.00  0.00     0.008 SA
HETATM    3  N2  UNL     1      23.912 -12.655  29.191  1.00  0.00    -0.303 N 
HETATM    4  C13 UNL     1      24.313 -11.513  29.720  1.00  0.00     0.143 A 
HETATM    5  N3  UNL     1      25.332 -10.740  29.014  1.00  0.00    -0.081 NA
HETATM    6  C14 UNL     1      23.751 -11.120  30.895  1.00  0.00     0.108 A 
ENDROOT
BRANCH   6   7
HETATM    7  C15 UNL     1      24.128  -9.868  31.558  1.00  0.00     0.257 C 
HETATM    8  O3  UNL     1      23.240  -9.002  31.808  1.00  0.00    -0.267 OA
HETATM    9  N4  UNL     1      25.446  -9.558  31.944  1.00  0.00    -0.356 N 
ATOM     10  H4  UNL     1      26.205 -10.216  31.770  1.00  0.00     0.162 HD
BRANCH   9  11
HETATM   11  C16 UNL     1      25.714  -8.261  32.609  1.00  0.00     0.127 C 
BRANCH  11  12
HETATM   12  C17 UNL     1      26.728  -7.483  31.910  1.00  0.00     0.058 C 
BRANCH  12  13
HETATM   13  C18 UNL     1      28.024  -8.209  31.618  1.00  0.00    -0.050 A 
HETATM   14  C19 UNL     1      28.397  -8.521  30.355  1.00  0.00     0.014 A 
HETATM   15  C20 UNL     1      29.584  -9.189  30.203  1.00  0.00     0.050 A 
HETATM   16  S2  UNL     1      30.147  -9.364  31.793  1.00  0.00    -0.113 SA
HETATM   17  C21 UNL     1      28.884  -8.597  32.624  1.00  0.00     0.056 A 
ENDBRANCH  12  13
ENDBRANCH  11  12
ENDBRANCH   9  11
ENDBRANCH   6   7
BRANCH   1  18
HETATM   18  N1  UNL     1      22.076 -11.952  32.477  1.00  0.00    -0.373 N 
ATOM     19  H1  UNL     1      21.079 -11.762  32.371  1.00  0.00     0.160 HD
BRANCH  18  20
HETATM   20  C3  UNL     1      22.587 -12.195  33.797  1.00  0.00     0.231 C 
BRANCH  20  21
HETATM   21  C2  UNL     1      22.709 -13.655  34.011  1.00  0.00     0.276 C 
HETATM   22  O2  UNL     1      21.694 -14.382  34.114  1.00  0.00    -0.263 OA
BRANCH  21  23
HETATM   23  O1  UNL     1      23.953 -14.247  34.101  1.00  0.00    -0.325 OA
HETATM   24  C1  UNL     1      25.098 -13.504  33.742  1.00  0.00     0.213 C 
ENDBRANCH  21  23
ENDBRANCH  20  21
ENDBRANCH  18  20
ENDBRANCH   1  18
BRANCH   3  25
HETATM   25  C5  UNL     1      24.380 -13.275  27.924  1.00  0.00     0.143 C 
BRANCH  25  26
HETATM   26  C6  UNL     1      24.786 -14.684  28.301  1.00  0.00     0.054 C 
BRANCH  26  27
HETATM   27  C7  UNL     1      26.247 -14.804  28.099  1.00  0.00    -0.084 C 
HETATM   28  C8  UNL     1      26.779 -15.963  27.355  1.00  0.00     0.043 C 
HETATM   29  C9  UNL     1      27.055 -13.889  28.578  1.00  0.00     0.000 C 
BRANCH  29  30
HETATM   30  C10 UNL     1      28.533 -13.875  28.456  1.00  0.00     0.048 C 
HETATM   31  C11 UNL     1      29.219 -14.913  29.292  1.00  0.00     0.036 C 
HETATM   32  C12 UNL     1      29.068 -12.509  28.886  1.00  0.00     0.036 C 
HETATM   33 CL1  UNL     1      28.950 -14.023  26.720  1.00  0.00    -0.116 Cl
ENDBRANCH  29  30
ENDBRANCH  26  27
ENDBRANCH  25  26
ENDBRANCH   3  25
TORSDOF 12
ENDMDL
MODEL 2
REMARK VINA RESULT: -7.055959991      2.476      5.399
REMARK  12 active torsions:
REMARK  status: ('A' for Active; 'I' for Inactive)
REMARK    1  A    between atoms: O1_2  and  C2_3 
REMARK    2  A    between atoms: C2_3  and  C3_5 
REMARK    3  A    between atoms: C3_5  and  N1_6 
REMARK    4  A    between atoms: N1_6  and  C4_8 
REMARK    5  A    between atoms: N2_10  and  C5_11 
REMARK    6  A    between atoms: C5_11  and  C6_12 
REMARK    7  A    between atoms: C6_12  and  C7_13 
REMARK    8  A    between atoms: C9_15  and  C10_16 
REMARK    9  A    between atoms: C14_22  and  C15_23 
REMARK       I    between atoms: C15_23  and  N4_25 
REMARK   10  A    between atoms: N4_25  and  C16_27 
REMARK   11  A    between atoms: C16_27  and  C17_28 
REMARK   12  A    between atoms: C17_28  and  C18_29 
ROOT
HETATM    1  C4  UNL     1      22.824 -12.077  30.994  1.00  0.00     0.106 A 
HETATM    2  S1  UNL     1      23.006 -10.768  32.090  1.00  0.00     0.008 SA
HETATM    3  N2  UNL     1      23.949  -9.762  31.141  1.00  0.00    -0.303 N 
HETATM    4  C13 UNL     1      24.111 -10.429  30.012  1.00  0.00     0.143 A 
HETATM    5  N3  UNL     1      24.903  -9.816  28.950  1.00  0.00    -0.081 NA
HETATM    6  C14 UNL     1      23.529 -11.654  29.904  1.00  0.00     0.108 A 
ENDROOT
BRANCH   6   7
HETATM    7  C15 UNL     1      23.654 -12.472  28.694  1.00  0.00     0.257 C 
HETATM    8  O3  UNL     1      22.652 -13.117  28.269  1.00  0.00    -0.267 OA
HETATM    9  N4  UNL     1      24.846 -12.588  27.953  1.00  0.00    -0.356 N 
ATOM     10  H4  UNL     1      25.687 -12.092  28.246  1.00  0.00     0.162 HD
BRANCH   9  11
HETATM   11  C16 UNL     1      24.860 -13.443  26.743  1.00  0.00     0.127 C 
BRANCH  11  12
HETATM   12  C17 UNL     1      25.388 -14.773  27.014  1.00  0.00     0.058 C 
BRANCH  12  13
HETATM   13  C18 UNL     1      26.891 -14.860  27.174  1.00  0.00    -0.050 A 
HETATM   14  C19 UNL     1      27.488 -14.735  28.382  1.00  0.00     0.014 A 
HETATM   15  C20 UNL     1      28.856 -14.818  28.413  1.00  0.00     0.050 A 
HETATM   16  S2  UNL     1      29.275 -15.068  26.789  1.00  0.00    -0.113 SA
HETATM   17  C21 UNL     1      27.728 -15.062  26.096  1.00  0.00     0.056 A 
ENDBRANCH  12  13
ENDBRANCH  11  12
ENDBRANCH   9  11
ENDBRANCH   6   7
BRANCH   1  18
HETATM   18  N1  UNL     1      22.148 -13.139  31.280  1.00  0.00    -0.373 N 
ATOM     19  H1  UNL     1      21.130 -13.093  31.232  1.00  0.00     0.160 HD
BRANCH  18  20
HETATM   20  C3  UNL     1      22.758 -14.382  31.662  1.00  0.00     0.231 C 
BRANCH  20  21
HETATM   21  C2  UNL     1      22.947 -14.401  33.131  1.00  0.00     0.276 C 
HETATM   22  O2  UNL     1      21.985 -14.211  33.911  1.00  0.00    -0.263 OA
BRANCH  21  23
HETATM   23  O1  UNL     1      24.196 -14.632  33.671  1.00  0.00    -0.325 OA
HETATM   24  C1  UNL     1      25.139 -13.582  33.703  1.00  0.00     0.213 C 
ENDBRANCH  21  23
ENDBRANCH  20  21
ENDBRANCH  18  20
ENDBRANCH   1  18
BRANCH   3  25
HETATM   25  C5  UNL     1      24.491  -8.421  31.480  1.00  0.00     0.143 C 
BRANCH  25  26
HETATM   26  C6  UNL     1      25.519  -8.673  32.562  1.00  0.00     0.054 C 
BRANCH  26  27
HETATM   27  C7  UNL     1      26.851  -8.717  31.921  1.00  0.00    -0.084 C 
HETATM   28  C8  UNL     1      27.602  -7.460  31.729  1.00  0.00     0.043 C 
HETATM   29  C9  UNL     1      27.354  -9.863  31.527  1.00  0.00     0.000 C 
BRANCH  29  30
HETATM   30  C10 UNL     1      28.670 -10.063  30.872  1.00  0.00     0.048 C 
HETATM   31  C11 UNL     1      28.875  -9.212  29.656  1.00  0.00     0.036 C 
HETATM   32  C12 UNL     1      28.810 -11.523  30.444  1.00  0.00     0.036 C 
HETATM   33 CL1  UNL     1      29.949  -9.804  32.100  1.00  0.00    -0.116 Cl
ENDBRANCH  29  30
ENDBRANCH  26  27
ENDBRANCH  25  26
ENDBRANCH   3  25
TORSDOF 12
ENDMDL
MODEL 3
REMARK VINA RESULT: -6.793523473      2.630      6.109
REMARK  12 active torsions:
REMARK  status: ('A' for Active; 'I' for Inactive)
REMARK    1  A    between atoms: O1_2  and  C2_3 
REMARK    2  A    between atoms: C2_3  and  C3_5 
REMARK    3  A    between atoms: C3_5  and  N1_6 
REMARK    4  A    between atoms: N1_6  and  C4_8 
REMARK    5  A    between atoms: N2_10  and  C5_11 
REMARK    6  A    between atoms: C5_11  and  C6_12 
REMARK    7  A    between atoms: C6_12  and  C7_13 
REMARK    8  A    between atoms: C9_15  and  C10_16 
REMARK    9  A    between atoms: C14_22  and  C15_23 
REMARK       I    between atoms: C15_23  and  N4_25 
REMARK   10  A    between atoms: N4_25  and  C16_27 
REMARK   11  A    between atoms: C16_27  and  C17_28 
REMARK   12  A    between atoms: C17_28  and  C18_29 
ROOT
HETATM    1  C4  UNL     1      22.790 -12.106  30.947  1.00  0.00     0.106 A 
HETATM    2  S1  UNL     1      22.969 -10.773  32.014  1.00  0.00     0.008 SA
HETATM    3  N2  UNL     1      23.906  -9.784  31.040  1.00  0.00    -0.303 N 
HETATM    4  C13 UNL     1      24.067 -10.475  29.926  1.00  0.00     0.143 A 
HETATM    5  N3  UNL     1      24.854  -9.881  28.848  1.00  0.00    -0.081 NA
HETATM    6  C14 UNL     1      23.490 -11.704  29.847  1.00  0.00     0.108 A 
ENDROOT
BRANCH   6   7
HETATM    7  C15 UNL     1      23.615 -12.547  28.654  1.00  0.00     0.257 C 
HETATM    8  O3  UNL     1      22.617 -13.211  28.250  1.00  0.00    -0.267 OA
HETATM    9  N4  UNL     1      24.804 -12.669  27.908  1.00  0.00    -0.356 N 
ATOM     10  H4  UNL     1      25.642 -12.158  28.184  1.00  0.00     0.162 HD
BRANCH   9  11
HETATM   11  C16 UNL     1      24.818 -13.550  26.717  1.00  0.00     0.127 C 
BRANCH  11  12
HETATM   12  C17 UNL     1      25.568 -14.777  26.949  1.00  0.00     0.058 C 
BRANCH  12  13
HETATM   13  C18 UNL     1      24.747 -15.976  27.374  1.00  0.00    -0.050 A 
HETATM   14  C19 UNL     1      24.454 -16.214  28.674  1.00  0.00     0.014 A 
HETATM   15  C20 UNL     1      23.714 -17.334  28.951  1.00  0.00     0.050 A 
HETATM   16  S2  UNL     1      23.444 -18.019  27.423  1.00  0.00    -0.113 SA
HETATM   17  C21 UNL     1      24.265 -16.890  26.460  1.00  0.00     0.056 A 
ENDBRANCH  12  13
ENDBRANCH  11  12
ENDBRANCH   9  11
ENDBRANCH   6   7
BRANCH   1  18
HETATM   18  N1  UNL     1      22.120 -13.164  31.258  1.00  0.00    -0.373 N 
ATOM     19  H1  UNL     1      21.105 -13.146  31.146  1.00  0.00     0.160 HD
BRANCH  18  20
HETATM   20  C3  UNL     1      22.729 -14.367  31.754  1.00  0.00     0.231 C 
BRANCH  20  21
HETATM   21  C2  UNL     1      22.827 -14.291  33.230  1.00  0.00     0.276 C 
HETATM   22  O2  UNL     1      21.821 -14.037  33.934  1.00  0.00    -0.263 OA
BRANCH  21  23
HETATM   23  O1  UNL     1      24.036 -14.501  33.862  1.00  0.00    -0.325 OA
HETATM   24  C1  UNL     1      25.042 -13.517  33.772  1.00  0.00     0.213 C 
ENDBRANCH  21  23
ENDBRANCH  20  21
ENDBRANCH  18  20
ENDBRANCH   1  18
BRANCH   3  25
HETATM   25  C5  UNL     1      24.443  -8.433  31.349  1.00  0.00     0.143 C 
BRANCH  25  26
HETATM   26  C6  UNL     1      25.427  -8.649  32.479  1.00  0.00     0.054 C 
BRANCH  26  27
HETATM   27  C7  UNL     1      26.786  -8.683  31.895  1.00  0.00    -0.084 C 
HETATM   28  C8  UNL     1      27.530  -7.418  31.727  1.00  0.00     0.043 C 
HETATM   29  C9  UNL     1      27.319  -9.825  31.533  1.00  0.00     0.000 C 
BRANCH  29  30
HETATM   30  C10 UNL     1      28.664 -10.014  30.937  1.00  0.00     0.048 C 
HETATM   31  C11 UNL     1      28.879  -9.239  29.673  1.00  0.00     0.036 C 
HETATM   32  C12 UNL     1      28.875 -11.493  30.613  1.00  0.00     0.036 C 
HETATM   33 CL1  UNL     1      29.887  -9.623  32.186  1.00  0.00    -0.116 Cl
ENDBRANCH  29  30
ENDBRANCH  26  27
ENDBRANCH  25  26
ENDBRANCH   3  25
TORSDOF 12
ENDMDL
MODEL 4
REMARK VINA RESULT: -6.780008826      3.940      7.070
REMARK  12 active torsions:
REMARK  status: ('A' for Active; 'I' for Inactive)
REMARK    1  A    between atoms: O1_2  and  C2_3 
REMARK    2  A    between atoms: C2_3  and  C3_5 
REMARK    3  A    between atoms: C3_5  and  N1_6 
REMARK    4  A    between atoms: N1_6  and  C4_8 
REMARK    5  A    between atoms: N2_10  and  C5_11 
REMARK    6  A    between atoms: C5_11  and  C6_12 
REMARK    7  A    between atoms: C6_12  and  C7_13 
REMARK    8  A    between atoms: C9_15  and  C10_16 
REMARK    9  A    between atoms: C14_22  and  C15_23 
REMARK       I    between atoms: C15_23  and  N4_25 
REMARK   10  A    between atoms: N4_25  and  C16_27 
REMARK   11  A    between atoms: C16_27  and  C17_28 
REMARK   12  A    between atoms: C17_28  and  C18_29 
ROOT
HETATM    1  C4  UNL     1      23.779 -11.193  31.630  1.00  0.00     0.106 A 
HETATM    2  S1  UNL     1      22.440 -11.781  32.528  1.00  0.00     0.008 SA
HETATM    3  N2  UNL     1      23.203 -13.027  33.346  1.00  0.00    -0.303 N 
HETATM    4  C13 UNL     1      24.456 -12.978  32.929  1.00  0.00     0.143 A 
HETATM    5  N3  UNL     1      25.404 -13.952  33.462  1.00  0.00    -0.081 NA
HETATM    6  C14 UNL     1      24.790 -12.021  32.022  1.00  0.00     0.108 A 
ENDROOT
BRANCH   6   7
HETATM    7  C15 UNL     1      26.153 -11.889  31.497  1.00  0.00     0.257 C 
HETATM    8  O3  UNL     1      26.648 -10.737  31.326  1.00  0.00    -0.267 OA
HETATM    9  N4  UNL     1      26.967 -12.988  31.162  1.00  0.00    -0.356 N 
ATOM     10  H4  UNL     1      26.624 -13.940  31.278  1.00  0.00     0.162 HD
BRANCH   9  11
HETATM   11  C16 UNL     1      28.331 -12.739  30.640  1.00  0.00     0.127 C 
BRANCH  11  12
HETATM   12  C17 UNL     1      28.597 -13.485  29.417  1.00  0.00     0.058 C 
BRANCH  12  13
HETATM   13  C18 UNL     1      29.497 -14.693  29.571  1.00  0.00    -0.050 A 
HETATM   14  C19 UNL     1      29.797 -15.496  28.524  1.00  0.00     0.014 A 
HETATM   15  C20 UNL     1      30.611 -16.569  28.774  1.00  0.00     0.050 A 
HETATM   16  S2  UNL     1      30.939 -16.439  30.433  1.00  0.00    -0.113 SA
HETATM   17  C21 UNL     1      30.048 -15.041  30.787  1.00  0.00     0.056 A 
ENDBRANCH  12  13
ENDBRANCH  11  12
ENDBRANCH   9  11
ENDBRANCH   6   7
BRANCH   1  18
HETATM   18  N1  UNL     1      23.690 -10.194  30.817  1.00  0.00    -0.373 N 
ATOM     19  H1  UNL     1      24.458  -9.522  30.788  1.00  0.00     0.160 HD
BRANCH  18  20
HETATM   20  C3  UNL     1      22.565  -9.980  29.950  1.00  0.00     0.231 C 
BRANCH  20  21
HETATM   21  C2  UNL     1      22.659 -10.900  28.793  1.00  0.00     0.276 C 
HETATM   22  O2  UNL     1      23.356 -10.614  27.792  1.00  0.00    -0.263 OA
BRANCH  21  23
HETATM   23  O1  UNL     1      21.977 -12.101  28.798  1.00  0.00    -0.325 OA
HETATM   24  C1  UNL     1      22.702 -13.306  28.910  1.00  0.00     0.213 C 
ENDBRANCH  21  23
ENDBRANCH  20  21
ENDBRANCH  18  20
ENDBRANCH   1  18
BRANCH   3  25
HETATM   25  C5  UNL     1      22.615 -13.981  34.322  1.00  0.00     0.143 C 
BRANCH  25  26
HETATM   26  C6  UNL     1      22.266 -15.211  33.511  1.00  0.00     0.054 C 
BRANCH  26  27
HETATM   27  C7  UNL     1      21.913 -16.292  34.456  1.00  0.00    -0.084 C 
HETATM   28  C8  UNL     1      22.357 -17.672  34.171  1.00  0.00     0.043 C 
HETATM   29  C9  UNL     1      21.214 -16.024  35.533  1.00  0.00     0.000 C 
BRANCH  29  30
HETATM   30  C10 UNL     1      20.787 -16.999  36.566  1.00  0.00     0.048 C 
HETATM   31  C11 UNL     1      19.938 -18.112  36.032  1.00  0.00     0.036 C 
HETATM   32  C12 UNL     1      19.979 -16.279  37.645  1.00  0.00     0.036 C 
HETATM   33 CL1  UNL     1      22.252 -17.608  37.397  1.00  0.00    -0.116 Cl
ENDBRANCH  29  30
ENDBRANCH  26  27
ENDBRANCH  25  26
ENDBRANCH   3  25
TORSDOF 12
ENDMDL
MODEL 5
REMARK VINA RESULT: -6.764567745      3.627      7.443
REMARK  12 active torsions:
REMARK  status: ('A' for Active; 'I' for Inactive)
REMARK    1  A    between atoms: O1_2  and  C2_3 
REMARK    2  A    between atoms: C2_3  and  C3_5 
REMARK    3  A    between atoms: C3_5  and  N1_6 
REMARK    4  A    between atoms: N1_6  and  C4_8 
REMARK    5  A    between atoms: N2_10  and  C5_11 
REMARK    6  A    between atoms: C5_11  and  C6_12 
REMARK    7  A    between atoms: C6_12  and  C7_13 
REMARK    8  A    between atoms: C9_15  and  C10_16 
REMARK    9  A    between atoms: C14_22  and  C15_23 
REMARK       I    between atoms: C15_23  and  N4_25 
REMARK   10  A    between atoms: N4_25  and  C16_27 
REMARK   11  A    between atoms: C16_27  and  C17_28 
REMARK   12  A    between atoms: C17_28  and  C18_29 
ROOT
HETATM    1  C4  UNL     1      23.579 -12.035  31.499  1.00  0.00     0.106 A 
HETATM    2  S1  UNL     1      25.124 -11.639  30.863  1.00  0.00     0.008 SA
HETATM    3  N2  UNL     1      26.069 -12.582  31.874  1.00  0.00    -0.303 N 
HETATM    4  C13 UNL     1      25.204 -13.180  32.674  1.00  0.00     0.143 A 
HETATM    5  N3  UNL     1      25.716 -14.091  33.694  1.00  0.00    -0.081 NA
HETATM    6  C14 UNL     1      23.882 -12.911  32.500  1.00  0.00     0.108 A 
ENDROOT
BRANCH   6   7
HETATM    7  C15 UNL     1      22.847 -13.522  33.340  1.00  0.00     0.257 C 
HETATM    8  O3  UNL     1      21.948 -12.794  33.852  1.00  0.00    -0.267 OA
HETATM    9  N4  UNL     1      22.787 -14.900  33.622  1.00  0.00    -0.356 N 
ATOM     10  H4  UNL     1      23.484 -15.537  33.238  1.00  0.00     0.162 HD
BRANCH   9  11
HETATM   11  C16 UNL     1      21.695 -15.411  34.483  1.00  0.00     0.127 C 
BRANCH  11  12
HETATM   12  C17 UNL     1      21.843 -16.830  34.777  1.00  0.00     0.058 C 
BRANCH  12  13
HETATM   13  C18 UNL     1      21.668 -17.219  36.229  1.00  0.00    -0.050 A 
HETATM   14  C19 UNL     1      21.776 -18.504  36.641  1.00  0.00     0.014 A 
HETATM   15  C20 UNL     1      21.587 -18.749  37.976  1.00  0.00     0.050 A 
HETATM   16  S2  UNL     1      21.270 -17.213  38.620  1.00  0.00    -0.113 SA
HETATM   17  C21 UNL     1      21.378 -16.286  37.204  1.00  0.00     0.056 A 
ENDBRANCH  12  13
ENDBRANCH  11  12
ENDBRANCH   9  11
ENDBRANCH   6   7
BRANCH   1  18
HETATM   18  N1  UNL     1      22.483 -11.537  31.032  1.00  0.00    -0.373 N 
ATOM     19  H1  UNL     1      21.650 -12.127  31.018  1.00  0.00     0.160 HD
BRANCH  18  20
HETATM   20  C3  UNL     1      22.376 -10.196  30.529  1.00  0.00     0.231 C 
BRANCH  20  21
HETATM   21  C2  UNL     1      22.340 -10.232  29.049  1.00  0.00     0.276 C 
HETATM   22  O2  UNL     1      21.774 -11.168  28.437  1.00  0.00    -0.263 OA
BRANCH  21  23
HETATM   23  O1  UNL     1      22.932  -9.227  28.310  1.00  0.00    -0.325 OA
HETATM   24  C1  UNL     1      22.332  -8.812  27.102  1.00  0.00     0.213 C 
ENDBRANCH  21  23
ENDBRANCH  20  21
ENDBRANCH  18  20
ENDBRANCH   1  18
BRANCH   3  25
HETATM   25  C5  UNL     1      27.549 -12.722  31.881  1.00  0.00     0.143 C 
BRANCH  25  26
HETATM   26  C6  UNL     1      27.976 -12.464  30.452  1.00  0.00     0.054 C 
BRANCH  26  27
HETATM   27  C7  UNL     1      28.771 -11.217  30.434  1.00  0.00    -0.084 C 
HETATM   28  C8  UNL     1      29.594 -10.903  29.248  1.00  0.00     0.043 C 
HETATM   29  C9  UNL     1      28.744 -10.404  31.463  1.00  0.00     0.000 C 
BRANCH  29  30
HETATM   30  C10 UNL     1      29.484  -9.125  31.588  1.00  0.00     0.048 C 
HETATM   31  C11 UNL     1      30.924  -9.294  31.969  1.00  0.00     0.036 C 
HETATM   32  C12 UNL     1      28.824  -8.256  32.658  1.00  0.00     0.036 C 
HETATM   33 CL1  UNL     1      29.293  -8.217  30.056  1.00  0.00    -0.116 Cl
ENDBRANCH  29  30
ENDBRANCH  26  27
ENDBRANCH  25  26
ENDBRANCH   3  25
TORSDOF 12
ENDMDL
