MODEL 1
REMARK VINA RESULT: -8.678147075      0.000      0.000
REMARK  13 active torsions:
REMARK  status: ('A' for Active; 'I' for Inactive)
REMARK    1  A    between atoms: S1_2  and  C2_3 
REMARK    2  A    between atoms: C3_5  and  C4_6 
REMARK    3  A    between atoms: C4_6  and  O2_7 
REMARK    4  A    between atoms: O2_7  and  C5_8 
REMARK    5  A    between atoms: C5_8  and  C6_10 
REMARK    6  A    between atoms: C6_10  and  C7_11 
REMARK    7  A    between atoms: C7_11  and  C8_13 
REMARK    8  A    between atoms: C9_14  and  C10_15 
REMARK    9  A    between atoms: C17_22  and  C18_23 
REMARK   10  A    between atoms: C18_23  and  C19_24 
REMARK   11  A    between atoms: C20_26  and  O5_27 
REMARK   12  A    between atoms: C21_29  and  O6_30 
REMARK   13  A    between atoms: C22_32  and  O7_33 
ROOT
HETATM    1  C2  UNL     1      23.483 -19.253  37.323  1.00  0.00     0.214 C 
HETATM    2  O1  UNL     1      23.250 -18.204  36.490  1.00  0.00    -0.365 OA
HETATM    3  C3  UNL     1      21.894 -17.974  36.214  1.00  0.00     0.154 C 
HETATM    4  C17 UNL     1      21.440 -16.928  37.177  1.00  0.00     0.049 C 
HETATM    5  C20 UNL     1      21.698 -17.249  38.604  1.00  0.00     0.156 C 
HETATM    6  C21 UNL     1      21.690 -18.663  39.010  1.00  0.00     0.179 C 
HETATM    7  C22 UNL     1      22.399 -19.667  38.230  1.00  0.00     0.188 C 
ENDROOT
BRANCH   3   8
HETATM    8  C4  UNL     1      21.900 -17.432  34.774  1.00  0.00     0.211 C 
BRANCH   8   9
HETATM    9  O2  UNL     1      22.587 -16.191  34.784  1.00  0.00    -0.319 OA
BRANCH   9  10
HETATM   10  C5  UNL     1      22.238 -15.120  33.968  1.00  0.00     0.266 C 
HETATM   11  O3  UNL     1      21.518 -15.383  32.977  1.00  0.00    -0.265 OA
BRANCH  10  12
HETATM   12  C6  UNL     1      22.687 -13.755  34.252  1.00  0.00     0.193 C 
BRANCH  12  13
HETATM   13  C7  UNL     1      24.028 -13.471  33.720  1.00  0.00     0.158 C 
HETATM   14  O4  UNL     1      24.924 -14.335  33.750  1.00  0.00    -0.293 OA
BRANCH  13  15
HETATM   15  C8  UNL     1      24.284 -12.143  33.152  1.00  0.00     0.051 C 
HETATM   16  C9  UNL     1      23.379 -11.538  32.427  1.00  0.00     0.010 C 
BRANCH  16  17
HETATM   17  C10 UNL     1      23.528 -10.237  31.823  1.00  0.00    -0.062 C 
HETATM   18  C11 UNL     1      22.579  -9.899  30.937  1.00  0.00    -0.020 C 
HETATM   19  C12 UNL     1      22.453  -8.645  30.157  1.00  0.00     0.027 C 
HETATM   20  C13 UNL     1      22.301  -7.504  31.130  1.00  0.00     0.004 C 
HETATM   21  C14 UNL     1      23.643  -7.114  31.724  1.00  0.00     0.001 C 
HETATM   22  C15 UNL     1      24.061  -8.095  32.794  1.00  0.00     0.005 C 
HETATM   23  C16 UNL     1      24.663  -9.364  32.182  1.00  0.00     0.038 C 
ENDBRANCH  16  17
ENDBRANCH  13  15
ENDBRANCH  12  13
ENDBRANCH  10  12
ENDBRANCH   9  10
ENDBRANCH   8   9
ENDBRANCH   3   8
BRANCH   4  24
HETATM   24  C18 UNL     1      20.037 -16.440  36.930  1.00  0.00     0.025 C 
BRANCH  24  25
HETATM   25  C19 UNL     1      19.085 -17.456  36.402  1.00  0.00     0.115 C 
HETATM   26 CL1  UNL     1      18.436 -16.784  34.860  1.00  0.00    -0.130 Cl
ENDBRANCH  24  25
ENDBRANCH   4  24
BRANCH   1  27
HETATM   27  S1  UNL     1      24.003 -20.666  36.270  1.00  0.00    -0.139 SA
HETATM   28  C1  UNL     1      24.519 -20.130  34.645  1.00  0.00     0.092 C 
ENDBRANCH   1  27
BRANCH   5  29
HETATM   29  O5  UNL     1      22.838 -16.561  39.092  1.00  0.00    -0.392 OA
ATOM     30  H5  UNL     1      23.643 -16.964  38.788  1.00  0.00     0.210 HD
ENDBRANCH   5  29
BRANCH   7  31
HETATM   31  O7  UNL     1      22.958 -20.623  39.118  1.00  0.00    -0.389 OA
ATOM     32  H7  UNL     1      22.241 -21.178  39.403  1.00  0.00     0.210 HD
ENDBRANCH   7  31
BRANCH   6  33
HETATM   33  O6  UNL     1      22.159 -18.692  40.350  1.00  0.00    -0.390 OA
ATOM     34  H6  UNL     1      21.986 -19.568  40.672  1.00  0.00     0.210 HD
ENDBRANCH   6  33
TORSDOF 13
ENDMDL
MODEL 2
REMARK VINA RESULT: -8.204150301      5.294      7.168
REMARK  13 active torsions:
REMARK  status: ('A' for Active; 'I' for Inactive)
REMARK    1  A    between atoms: S1_2  and  C2_3 
REMARK    2  A    between atoms: C3_5  and  C4_6 
REMARK    3  A    between atoms: C4_6  and  O2_7 
REMARK    4  A    between atoms: O2_7  and  C5_8 
REMARK    5  A    between atoms: C5_8  and  C6_10 
REMARK    6  A    between atoms: C6_10  and  C7_11 
REMARK    7  A    between atoms: C7_11  and  C8_13 
REMARK    8  A    between atoms: C9_14  and  C10_15 
REMARK    9  A    between atoms: C17_22  and  C18_23 
REMARK   10  A    between atoms: C18_23  and  C19_24 
REMARK   11  A    between atoms: C20_26  and  O5_27 
REMARK   12  A    between atoms: C21_29  and  O6_30 
REMARK   13  A    between atoms: C22_32  and  O7_33 
ROOT
HETATM    1  C2  UNL     1      23.329 -18.859  35.572  1.00  0.00     0.214 C 
HETATM    2  O1  UNL     1      22.690 -17.938  36.341  1.00  0.00    -0.365 OA
HETATM    3  C3  UNL     1      21.767 -18.480  37.247  1.00  0.00     0.154 C 
HETATM    4  C17 UNL     1      22.488 -18.626  38.545  1.00  0.00     0.049 C 
HETATM    5  C20 UNL     1      23.751 -19.404  38.466  1.00  0.00     0.156 C 
HETATM    6  C21 UNL     1      23.848 -20.470  37.456  1.00  0.00     0.179 C 
HETATM    7  C22 UNL     1      23.421 -20.238  36.084  1.00  0.00     0.188 C 
ENDROOT
BRANCH   3   8
HETATM    8  C4  UNL     1      20.672 -17.403  37.344  1.00  0.00     0.211 C 
BRANCH   8   9
HETATM    9  O2  UNL     1      20.680 -16.671  36.128  1.00  0.00    -0.319 OA
BRANCH   9  10
HETATM   10  C5  UNL     1      19.719 -16.833  35.135  1.00  0.00     0.266 C 
HETATM   11  O3  UNL     1      19.843 -16.116  34.115  1.00  0.00    -0.265 OA
BRANCH  10  12
HETATM   12  C6  UNL     1      18.619 -17.791  35.273  1.00  0.00     0.193 C 
BRANCH  12  13
HETATM   13  C7  UNL     1      17.440 -17.427  34.474  1.00  0.00     0.158 C 
HETATM   14  O4  UNL     1      16.626 -16.580  34.883  1.00  0.00    -0.293 OA
BRANCH  13  15
HETATM   15  C8  UNL     1      17.246 -18.090  33.179  1.00  0.00     0.051 C 
HETATM   16  C9  UNL     1      16.767 -17.431  32.155  1.00  0.00     0.010 C 
BRANCH  16  17
HETATM   17  C10 UNL     1      16.538 -17.984  30.842  1.00  0.00    -0.062 C 
HETATM   18  C11 UNL     1      16.126 -17.111  29.911  1.00  0.00    -0.020 C 
HETATM   19  C12 UNL     1      15.809 -17.367  28.486  1.00  0.00     0.027 C 
HETATM   20  C13 UNL     1      17.060 -17.872  27.814  1.00  0.00     0.004 C 
HETATM   21  C14 UNL     1      17.289 -19.340  28.127  1.00  0.00     0.001 C 
HETATM   22  C15 UNL     1      17.854 -19.510  29.518  1.00  0.00     0.005 C 
HETATM   23  C16 UNL     1      16.753 -19.421  30.581  1.00  0.00     0.038 C 
ENDBRANCH  16  17
ENDBRANCH  13  15
ENDBRANCH  12  13
ENDBRANCH  10  12
ENDBRANCH   9  10
ENDBRANCH   8   9
ENDBRANCH   3   8
BRANCH   4  24
HETATM   24  C18 UNL     1      21.606 -19.057  39.687  1.00  0.00     0.025 C 
BRANCH  24  25
HETATM   25  C19 UNL     1      21.056 -20.437  39.592  1.00  0.00     0.115 C 
HETATM   26 CL1  UNL     1      20.698 -20.954  41.282  1.00  0.00    -0.130 Cl
ENDBRANCH  24  25
ENDBRANCH   4  24
BRANCH   1  27
HETATM   27  S1  UNL     1      22.508 -18.846  33.929  1.00  0.00    -0.139 SA
HETATM   28  C1  UNL     1      23.284 -17.693  32.806  1.00  0.00     0.092 C 
ENDBRANCH   1  27
BRANCH   5  29
HETATM   29  O5  UNL     1      24.884 -18.551  38.450  1.00  0.00    -0.392 OA
ATOM     30  H5  UNL     1      25.397 -18.669  37.659  1.00  0.00     0.210 HD
ENDBRANCH   5  29
BRANCH   7  31
HETATM   31  O7  UNL     1      24.298 -20.934  35.210  1.00  0.00    -0.389 OA
ATOM     32  H7  UNL     1      24.886 -20.283  34.844  1.00  0.00     0.210 HD
ENDBRANCH   7  31
BRANCH   6  33
HETATM   33  O6  UNL     1      25.202 -20.898  37.462  1.00  0.00    -0.390 OA
ATOM     34  H6  UNL     1      25.253 -21.619  36.846  1.00  0.00     0.210 HD
ENDBRANCH   6  33
TORSDOF 13
ENDMDL
MODEL 3
REMARK VINA RESULT: -8.159521841      6.526      9.412
REMARK  13 active torsions:
REMARK  status: ('A' for Active; 'I' for Inactive)
REMARK    1  A    between atoms: S1_2  and  C2_3 
REMARK    2  A    between atoms: C3_5  and  C4_6 
REMARK    3  A    between atoms: C4_6  and  O2_7 
REMARK    4  A    between atoms: O2_7  and  C5_8 
REMARK    5  A    between atoms: C5_8  and  C6_10 
REMARK    6  A    between atoms: C6_10  and  C7_11 
REMARK    7  A    between atoms: C7_11  and  C8_13 
REMARK    8  A    between atoms: C9_14  and  C10_15 
REMARK    9  A    between atoms: C17_22  and  C18_23 
REMARK   10  A    between atoms: C18_23  and  C19_24 
REMARK   11  A    between atoms: C20_26  and  O5_27 
REMARK   12  A    between atoms: C21_29  and  O6_30 
REMARK   13  A    between atoms: C22_32  and  O7_33 
ROOT
HETATM    1  C2  UNL     1      24.178 -12.440  31.123  1.00  0.00     0.214 C 
HETATM    2  O1  UNL     1      25.203 -11.589  31.397  1.00  0.00    -0.365 OA
HETATM    3  C3  UNL     1      24.863 -10.231  31.319  1.00  0.00     0.154 C 
HETATM    4  C17 UNL     1      24.526  -9.801  32.708  1.00  0.00     0.049 C 
HETATM    5  C20 UNL     1      23.485 -10.624  33.374  1.00  0.00     0.156 C 
HETATM    6  C21 UNL     1      22.449 -11.245  32.534  1.00  0.00     0.179 C 
HETATM    7  C22 UNL     1      22.803 -11.945  31.308  1.00  0.00     0.188 C 
ENDROOT
BRANCH   3   8
HETATM    8  C4  UNL     1      26.158  -9.556  30.832  1.00  0.00     0.211 C 
BRANCH   8   9
HETATM    9  O2  UNL     1      27.174  -9.840  31.781  1.00  0.00    -0.319 OA
BRANCH   9  10
HETATM   10  C5  UNL     1      28.277  -9.017  31.985  1.00  0.00     0.266 C 
HETATM   11  O3  UNL     1      28.060  -7.920  32.550  1.00  0.00    -0.265 OA
BRANCH  10  12
HETATM   12  C6  UNL     1      29.623  -9.412  31.562  1.00  0.00     0.193 C 
BRANCH  12  13
HETATM   13  C7  UNL     1      29.632 -10.131  30.280  1.00  0.00     0.158 C 
HETATM   14  O4  UNL     1      29.397  -9.538  29.212  1.00  0.00    -0.293 OA
BRANCH  13  15
HETATM   15  C8  UNL     1      29.928 -11.568  30.291  1.00  0.00     0.051 C 
HETATM   16  C9  UNL     1      29.070 -12.432  29.812  1.00  0.00     0.010 C 
BRANCH  16  17
HETATM   17  C10 UNL     1      29.260 -13.862  29.774  1.00  0.00    -0.062 C 
HETATM   18  C11 UNL     1      29.223 -14.418  28.554  1.00  0.00    -0.020 C 
HETATM   19  C12 UNL     1      29.382 -15.845  28.189  1.00  0.00     0.027 C 
HETATM   20  C13 UNL     1      30.758 -16.285  28.619  1.00  0.00     0.004 C 
HETATM   21  C14 UNL     1      30.797 -16.563  30.112  1.00  0.00     0.001 C 
HETATM   22  C15 UNL     1      30.861 -15.274  30.896  1.00  0.00     0.005 C 
HETATM   23  C16 UNL     1      29.477 -14.627  31.018  1.00  0.00     0.038 C 
ENDBRANCH  16  17
ENDBRANCH  13  15
ENDBRANCH  12  13
ENDBRANCH  10  12
ENDBRANCH   9  10
ENDBRANCH   8   9
ENDBRANCH   3   8
BRANCH   4  24
HETATM   24  C18 UNL     1      24.281  -8.321  32.845  1.00  0.00     0.025 C 
BRANCH  24  25
HETATM   25  C19 UNL     1      23.410  -7.713  31.802  1.00  0.00     0.115 C 
HETATM   26 CL1  UNL     1      22.419  -6.462  32.640  1.00  0.00    -0.130 Cl
ENDBRANCH  24  25
ENDBRANCH   4  24
BRANCH   1  27
HETATM   27  S1  UNL     1      24.415 -13.023  29.398  1.00  0.00    -0.139 SA
HETATM   28  C1  UNL     1      24.133 -11.718  28.210  1.00  0.00     0.092 C 
ENDBRANCH   1  27
BRANCH   5  29
HETATM   29  O5  UNL     1      24.059 -11.549  34.283  1.00  0.00    -0.392 OA
ATOM     30  H5  UNL     1      24.108 -12.420  33.907  1.00  0.00     0.210 HD
ENDBRANCH   5  29
BRANCH   7  31
HETATM   31  O7  UNL     1      21.947 -13.068  31.161  1.00  0.00    -0.389 OA
ATOM     32  H7  UNL     1      22.243 -13.717  31.789  1.00  0.00     0.210 HD
ENDBRANCH   7  31
BRANCH   6  33
HETATM   33  O6  UNL     1      21.725 -12.122  33.384  1.00  0.00    -0.390 OA
ATOM     34  H6  UNL     1      20.999 -11.616  33.730  1.00  0.00     0.210 HD
ENDBRANCH   6  33
TORSDOF 13
ENDMDL
MODEL 4
REMARK VINA RESULT: -8.157733384      2.826      3.780
REMARK  13 active torsions:
REMARK  status: ('A' for Active; 'I' for Inactive)
REMARK    1  A    between atoms: S1_2  and  C2_3 
REMARK    2  A    between atoms: C3_5  and  C4_6 
REMARK    3  A    between atoms: C4_6  and  O2_7 
REMARK    4  A    between atoms: O2_7  and  C5_8 
REMARK    5  A    between atoms: C5_8  and  C6_10 
REMARK    6  A    between atoms: C6_10  and  C7_11 
REMARK    7  A    between atoms: C7_11  and  C8_13 
REMARK    8  A    between atoms: C9_14  and  C10_15 
REMARK    9  A    between atoms: C17_22  and  C18_23 
REMARK   10  A    between atoms: C18_23  and  C19_24 
REMARK   11  A    between atoms: C20_26  and  O5_27 
REMARK   12  A    between atoms: C21_29  and  O6_30 
REMARK   13  A    between atoms: C22_32  and  O7_33 
ROOT
HETATM    1  C2  UNL     1      18.812 -18.300  34.438  1.00  0.00     0.214 C 
HETATM    2  O1  UNL     1      20.004 -17.665  34.277  1.00  0.00    -0.365 OA
HETATM    3  C3  UNL     1      20.664 -17.362  35.477  1.00  0.00     0.154 C 
HETATM    4  C17 UNL     1      21.627 -18.476  35.720  1.00  0.00     0.049 C 
HETATM    5  C20 UNL     1      21.018 -19.830  35.717  1.00  0.00     0.156 C 
HETATM    6  C21 UNL     1      19.622 -19.965  36.164  1.00  0.00     0.179 C 
HETATM    7  C22 UNL     1      18.595 -19.052  35.686  1.00  0.00     0.188 C 
ENDROOT
BRANCH   3   8
HETATM    8  C4  UNL     1      21.406 -16.050  35.165  1.00  0.00     0.211 C 
BRANCH   8   9
HETATM    9  O2  UNL     1      21.629 -16.004  33.765  1.00  0.00    -0.319 OA
BRANCH   9  10
HETATM   10  C5  UNL     1      22.786 -15.483  33.194  1.00  0.00     0.266 C 
HETATM   11  O3  UNL     1      23.803 -16.214  33.224  1.00  0.00    -0.265 OA
BRANCH  10  12
HETATM   12  C6  UNL     1      22.815 -14.150  32.589  1.00  0.00     0.193 C 
BRANCH  12  13
HETATM   13  C7  UNL     1      23.077 -13.083  33.566  1.00  0.00     0.158 C 
HETATM   14  O4  UNL     1      23.391 -13.353  34.739  1.00  0.00    -0.293 OA
BRANCH  13  15
HETATM   15  C8  UNL     1      22.959 -11.689  33.123  1.00  0.00     0.051 C 
HETATM   16  C9  UNL     1      23.671 -11.242  32.120  1.00  0.00     0.010 C 
BRANCH  16  17
HETATM   17  C10 UNL     1      23.633  -9.895  31.606  1.00  0.00    -0.062 C 
HETATM   18  C11 UNL     1      22.659  -9.643  30.718  1.00  0.00    -0.020 C 
HETATM   19  C12 UNL     1      22.360  -8.372  30.017  1.00  0.00     0.027 C 
HETATM   20  C13 UNL     1      22.019  -7.336  31.058  1.00  0.00     0.004 C 
HETATM   21  C14 UNL     1      23.275  -6.791  31.713  1.00  0.00     0.001 C 
HETATM   22  C15 UNL     1      23.818  -7.769  32.729  1.00  0.00     0.005 C 
HETATM   23  C16 UNL     1      24.617  -8.889  32.052  1.00  0.00     0.038 C 
ENDBRANCH  16  17
ENDBRANCH  13  15
ENDBRANCH  12  13
ENDBRANCH  10  12
ENDBRANCH   9  10
ENDBRANCH   8   9
ENDBRANCH   3   8
BRANCH   4  24
HETATM   24  C18 UNL     1      22.540 -18.247  36.896  1.00  0.00     0.025 C 
BRANCH  24  25
HETATM   25  C19 UNL     1      21.869 -18.121  38.218  1.00  0.00     0.115 C 
HETATM   26 CL1  UNL     1      23.006 -17.204  39.275  1.00  0.00    -0.130 Cl
ENDBRANCH  24  25
ENDBRANCH   4  24
BRANCH   1  27
HETATM   27  S1  UNL     1      17.499 -17.032  34.225  1.00  0.00    -0.139 SA
HETATM   28  C1  UNL     1      16.605 -17.251  32.693  1.00  0.00     0.092 C 
ENDBRANCH   1  27
BRANCH   5  29
HETATM   29  O5  UNL     1      21.251 -20.500  34.489  1.00  0.00    -0.392 OA
ATOM     30  H5  UNL     1      21.477 -21.412  34.629  1.00  0.00     0.210 HD
ENDBRANCH   5  29
BRANCH   7  31
HETATM   31  O7  UNL     1      17.386 -19.776  35.515  1.00  0.00    -0.389 OA
ATOM     32  H7  UNL     1      16.918 -19.718  36.340  1.00  0.00     0.210 HD
ENDBRANCH   7  31
BRANCH   6  33
HETATM   33  O6  UNL     1      19.240 -21.300  35.868  1.00  0.00    -0.390 OA
ATOM     34  H6  UNL     1      18.331 -21.380  36.134  1.00  0.00     0.210 HD
ENDBRANCH   6  33
TORSDOF 13
ENDMDL
MODEL 5
REMARK VINA RESULT: -8.103730381      6.454      9.648
REMARK  13 active torsions:
REMARK  status: ('A' for Active; 'I' for Inactive)
REMARK    1  A    between atoms: S1_2  and  C2_3 
REMARK    2  A    between atoms: C3_5  and  C4_6 
REMARK    3  A    between atoms: C4_6  and  O2_7 
REMARK    4  A    between atoms: O2_7  and  C5_8 
REMARK    5  A    between atoms: C5_8  and  C6_10 
REMARK    6  A    between atoms: C6_10  and  C7_11 
REMARK    7  A    between atoms: C7_11  and  C8_13 
REMARK    8  A    between atoms: C9_14  and  C10_15 
REMARK    9  A    between atoms: C17_22  and  C18_23 
REMARK   10  A    between atoms: C18_23  and  C19_24 
REMARK   11  A    between atoms: C20_26  and  O5_27 
REMARK   12  A    between atoms: C21_29  and  O6_30 
REMARK   13  A    between atoms: C22_32  and  O7_33 
ROOT
HETATM    1  C2  UNL     1      23.895 -11.177  29.286  1.00  0.00     0.214 C 
HETATM    2  O1  UNL     1      24.845 -10.620  30.083  1.00  0.00    -0.365 OA
HETATM    3  C3  UNL     1      24.337  -9.894  31.170  1.00  0.00     0.154 C 
HETATM    4  C17 UNL     1      24.330 -10.828  32.334  1.00  0.00     0.049 C 
HETATM    5  C20 UNL     1      23.609 -12.105  32.097  1.00  0.00     0.156 C 
HETATM    6  C21 UNL     1      22.470 -12.096  31.166  1.00  0.00     0.179 C 
HETATM    7  C22 UNL     1      22.569 -11.435  29.873  1.00  0.00     0.188 C 
ENDROOT
BRANCH   3   8
HETATM    8  C4  UNL     1      25.366  -8.768  31.373  1.00  0.00     0.211 C 
BRANCH   8   9
HETATM    9  O2  UNL     1      26.658  -9.347  31.293  1.00  0.00    -0.319 OA
BRANCH   9  10
HETATM   10  C5  UNL     1      27.784  -8.783  31.885  1.00  0.00     0.266 C 
HETATM   11  O3  UNL     1      27.594  -7.767  32.594  1.00  0.00    -0.265 OA
BRANCH  10  12
HETATM   12  C6  UNL     1      29.122  -9.347  31.692  1.00  0.00     0.193 C 
BRANCH  12  13
HETATM   13  C7  UNL     1      29.247 -10.110  30.441  1.00  0.00     0.158 C 
HETATM   14  O4  UNL     1      29.153  -9.546  29.336  1.00  0.00    -0.293 OA
BRANCH  13  15
HETATM   15  C8  UNL     1      29.485 -11.554  30.529  1.00  0.00     0.051 C 
HETATM   16  C9  UNL     1      29.034 -12.365  29.606  1.00  0.00     0.010 C 
BRANCH  16  17
HETATM   17  C10 UNL     1      29.212 -13.797  29.596  1.00  0.00    -0.062 C 
HETATM   18  C11 UNL     1      29.203 -14.372  28.384  1.00  0.00    -0.020 C 
HETATM   19  C12 UNL     1      29.359 -15.806  28.045  1.00  0.00     0.027 C 
HETATM   20  C13 UNL     1      30.719 -16.251  28.520  1.00  0.00     0.004 C 
HETATM   21  C14 UNL     1      30.715 -16.507  30.017  1.00  0.00     0.001 C 
HETATM   22  C15 UNL     1      30.769 -15.205  30.783  1.00  0.00     0.005 C 
HETATM   23  C16 UNL     1      29.388 -14.544  30.857  1.00  0.00     0.038 C 
ENDBRANCH  16  17
ENDBRANCH  13  15
ENDBRANCH  12  13
ENDBRANCH  10  12
ENDBRANCH   9  10
ENDBRANCH   8   9
ENDBRANCH   3   8
BRANCH   4  24
HETATM   24  C18 UNL     1      23.953 -10.175  33.637  1.00  0.00     0.025 C 
BRANCH  24  25
HETATM   25  C19 UNL     1      23.167 -11.019  34.578  1.00  0.00     0.115 C 
HETATM   26 CL1  UNL     1      24.234 -11.318  36.000  1.00  0.00    -0.130 Cl
ENDBRANCH  24  25
ENDBRANCH   4  24
BRANCH   1  27
HETATM   27  S1  UNL     1      23.736 -10.095  27.810  1.00  0.00    -0.139 SA
HETATM   28  C1  UNL     1      22.322  -9.008  27.932  1.00  0.00     0.092 C 
ENDBRANCH   1  27
BRANCH   5  29
HETATM   29  O5  UNL     1      24.510 -13.166  31.827  1.00  0.00    -0.392 OA
ATOM     30  H5  UNL     1      24.214 -13.694  31.095  1.00  0.00     0.210 HD
ENDBRANCH   5  29
BRANCH   7  31
HETATM   31  O7  UNL     1      21.846 -12.194  28.916  1.00  0.00    -0.389 OA
ATOM     32  H7  UNL     1      22.435 -12.875  28.611  1.00  0.00     0.210 HD
ENDBRANCH   7  31
BRANCH   6  33
HETATM   33  O6  UNL     1      22.107 -13.455  30.972  1.00  0.00    -0.390 OA
ATOM     34  H6  UNL     1      22.809 -13.847  30.467  1.00  0.00     0.210 HD
ENDBRANCH   6  33
TORSDOF 13
ENDMDL
