MODEL 1
REMARK VINA RESULT: -5.557826796      0.000      0.000
REMARK  5 active torsions:
REMARK  status: ('A' for Active; 'I' for Inactive)
REMARK    1  A    between atoms: C2_2  and  O2_4 
REMARK    2  A    between atoms: O2_4  and  C3_5 
REMARK    3  A    between atoms: C3_5  and  C4_6 
REMARK    4  A    between atoms: C18_21  and  C19_22 
REMARK    5  A    between atoms: C26_31  and  N1_32 
ROOT
HETATM    1  C4  UNL     1      -8.549  21.237 -12.064  1.00  0.00     0.100 C 
HETATM    2  C5  UNL     1      -7.051  21.541 -12.217  1.00  0.00     0.050 C 
HETATM    3  O3  UNL     1      -8.660  20.781 -10.732  1.00  0.00    -0.370 OA
HETATM    4  C6  UNL     1      -9.911  20.262 -10.565  1.00  0.00     0.132 C 
HETATM    5  C7  UNL     1     -10.539  20.630  -9.216  1.00  0.00     0.042 C 
HETATM    6  C8  UNL     1     -11.341  19.459  -8.748  1.00  0.00    -0.033 C 
HETATM    7  C9  UNL     1     -10.678  18.979  -7.438  1.00  0.00     0.016 C 
HETATM    8  C10 UNL     1     -11.105  18.434  -9.830  1.00  0.00     0.005 C 
HETATM    9  C11 UNL     1     -12.100  18.435 -10.924  1.00  0.00     0.007 C 
HETATM   10  C12 UNL     1     -13.448  18.992 -10.624  1.00  0.00     0.010 C 
HETATM   11  C13 UNL     1     -13.779  18.916  -9.188  1.00  0.00    -0.035 C 
HETATM   12  C14 UNL     1     -13.771  17.474  -8.731  1.00  0.00     0.016 C 
HETATM   13  C15 UNL     1     -15.050  19.558  -8.772  1.00  0.00     0.012 C 
HETATM   14  C16 UNL     1     -14.708  20.906  -8.132  1.00  0.00    -0.008 C 
HETATM   15  C17 UNL     1     -15.776  21.518  -8.962  1.00  0.00     0.020 C 
HETATM   16  C18 UNL     1     -15.888  20.243  -9.764  1.00  0.00     0.092 C 
HETATM   17  C20 UNL     1     -13.263  21.121  -8.610  1.00  0.00     0.011 C 
HETATM   18  C21 UNL     1     -12.754  19.715  -8.417  1.00  0.00     0.003 C 
HETATM   19  C22 UNL     1      -9.751  18.758 -10.400  1.00  0.00    -0.013 C 
HETATM   20  C23 UNL     1      -8.587  18.561  -9.478  1.00  0.00     0.018 C 
HETATM   21  C24 UNL     1      -9.434  18.065 -11.689  1.00  0.00     0.014 C 
HETATM   22  C25 UNL     1      -8.402  18.786 -12.504  1.00  0.00     0.029 C 
HETATM   23  C26 UNL     1      -8.864  20.142 -13.035  1.00  0.00     0.114 C 
ENDROOT
BRANCH   1  24
HETATM   24  C3  UNL     1      -9.337  22.487 -12.140  1.00  0.00     0.218 C 
BRANCH  24  25
HETATM   25  O2  UNL     1      -8.353  23.558 -11.998  1.00  0.00    -0.319 OA
BRANCH  25  26
HETATM   26  C2  UNL     1      -8.594  24.672 -11.243  1.00  0.00     0.254 C 
HETATM   27  C1  UNL     1      -9.352  24.516  -9.961  1.00  0.00     0.126 C 
HETATM   28  O1  UNL     1      -8.177  25.769 -11.647  1.00  0.00    -0.266 OA
ENDBRANCH  25  26
ENDBRANCH  24  25
ENDBRANCH   1  24
BRANCH  23  29
HETATM   29  N1  UNL     1      -8.354  20.397 -14.310  1.00  0.00    -0.414 N 
HETATM   30  C27 UNL     1      -7.374  19.633 -14.926  1.00  0.00     0.143 C 
HETATM   31  C28 UNL     1      -8.861  21.470 -15.073  1.00  0.00     0.143 C 
ENDBRANCH  23  29
BRANCH  16  32
HETATM   32  C19 UNL     1     -17.244  19.661  -9.867  1.00  0.00     0.177 C 
HETATM   33  O4  UNL     1     -17.658  19.319 -10.997  1.00  0.00    -0.648 OA
HETATM   34  O5  UNL     1     -18.081  19.470  -8.789  1.00  0.00    -0.648 OA
ENDBRANCH  16  32
TORSDOF 5
ENDMDL
MODEL 2
REMARK VINA RESULT: -5.272196035      2.877      7.940
REMARK  5 active torsions:
REMARK  status: ('A' for Active; 'I' for Inactive)
REMARK    1  A    between atoms: C2_2  and  O2_4 
REMARK    2  A    between atoms: O2_4  and  C3_5 
REMARK    3  A    between atoms: C3_5  and  C4_6 
REMARK    4  A    between atoms: C18_21  and  C19_22 
REMARK    5  A    between atoms: C26_31  and  N1_32 
ROOT
HETATM    1  C4  UNL     1     -11.142  21.099  -9.904  1.00  0.00     0.100 C 
HETATM    2  C5  UNL     1     -12.507  21.710  -9.555  1.00  0.00     0.050 C 
HETATM    3  O3  UNL     1     -10.948  21.469 -11.253  1.00  0.00    -0.370 OA
HETATM    4  C6  UNL     1      -9.873  20.778 -11.732  1.00  0.00     0.132 C 
HETATM    5  C7  UNL     1      -8.963  21.627 -12.628  1.00  0.00     0.042 C 
HETATM    6  C8  UNL     1      -8.443  20.748 -13.718  1.00  0.00    -0.033 C 
HETATM    7  C9  UNL     1      -8.994  21.328 -15.039  1.00  0.00     0.016 C 
HETATM    8  C10 UNL     1      -9.115  19.426 -13.436  1.00  0.00     0.005 C 
HETATM    9  C11 UNL     1      -8.344  18.498 -12.582  1.00  0.00     0.007 C 
HETATM   10  C12 UNL     1      -6.865  18.674 -12.540  1.00  0.00     0.010 C 
HETATM   11  C13 UNL     1      -6.344  19.325 -13.758  1.00  0.00    -0.035 C 
HETATM   12  C14 UNL     1      -6.667  18.485 -14.973  1.00  0.00     0.016 C 
HETATM   13  C15 UNL     1      -4.898  19.655 -13.757  1.00  0.00     0.012 C 
HETATM   14  C16 UNL     1      -4.757  21.152 -13.474  1.00  0.00    -0.008 C 
HETATM   15  C17 UNL     1      -3.710  20.818 -12.477  1.00  0.00     0.020 C 
HETATM   16  C18 UNL     1      -4.075  19.356 -12.579  1.00  0.00     0.092 C 
HETATM   17  C20 UNL     1      -6.148  21.496 -12.916  1.00  0.00     0.011 C 
HETATM   18  C21 UNL     1      -6.980  20.690 -13.881  1.00  0.00     0.003 C 
HETATM   19  C22 UNL     1     -10.405  19.773 -12.743  1.00  0.00    -0.013 C 
HETATM   20  C23 UNL     1     -11.417  20.505 -13.568  1.00  0.00     0.018 C 
HETATM   21  C24 UNL     1     -11.097  18.613 -12.097  1.00  0.00     0.014 C 
HETATM   22  C25 UNL     1     -12.012  19.024 -10.982  1.00  0.00     0.029 C 
HETATM   23  C26 UNL     1     -11.292  19.615  -9.771  1.00  0.00     0.114 C 
ENDROOT
BRANCH   1  24
HETATM   24  C3  UNL     1     -10.068  21.765  -9.134  1.00  0.00     0.218 C 
BRANCH  24  25
HETATM   25  O2  UNL     1     -10.403  23.186  -9.180  1.00  0.00    -0.319 OA
BRANCH  25  26
HETATM   26  C2  UNL     1      -9.460  24.149  -9.413  1.00  0.00     0.254 C 
HETATM   27  C1  UNL     1      -9.326  24.696 -10.800  1.00  0.00     0.126 C 
HETATM   28  O1  UNL     1      -8.751  24.532  -8.468  1.00  0.00    -0.266 OA
ENDBRANCH  25  26
ENDBRANCH  24  25
ENDBRANCH   1  24
BRANCH  23  29
HETATM   29  N1  UNL     1     -11.910  19.248  -8.574  1.00  0.00    -0.414 N 
HETATM   30  C27 UNL     1     -13.261  18.964  -8.448  1.00  0.00     0.143 C 
HETATM   31  C28 UNL     1     -11.145  19.110  -7.396  1.00  0.00     0.143 C 
ENDBRANCH  23  29
BRANCH  16  32
HETATM   32  C19 UNL     1      -2.960  18.431 -12.880  1.00  0.00     0.177 C 
HETATM   33  O4  UNL     1      -2.780  17.453 -12.121  1.00  0.00    -0.648 OA
HETATM   34  O5  UNL     1      -2.105  18.582 -13.950  1.00  0.00    -0.648 OA
ENDBRANCH  16  32
TORSDOF 5
ENDMDL
MODEL 3
REMARK VINA RESULT: -5.127649779      3.043      7.469
REMARK  5 active torsions:
REMARK  status: ('A' for Active; 'I' for Inactive)
REMARK    1  A    between atoms: C2_2  and  O2_4 
REMARK    2  A    between atoms: O2_4  and  C3_5 
REMARK    3  A    between atoms: C3_5  and  C4_6 
REMARK    4  A    between atoms: C18_21  and  C19_22 
REMARK    5  A    between atoms: C26_31  and  N1_32 
ROOT
HETATM    1  C4  UNL     1     -11.640  22.836  -8.830  1.00  0.00     0.100 C 
HETATM    2  C5  UNL     1     -13.006  23.073  -8.170  1.00  0.00     0.050 C 
HETATM    3  O3  UNL     1     -11.926  21.923  -9.869  1.00  0.00    -0.370 OA
HETATM    4  C6  UNL     1     -10.743  21.466 -10.370  1.00  0.00     0.132 C 
HETATM    5  C7  UNL     1     -10.744  21.344 -11.899  1.00  0.00     0.042 C 
HETATM    6  C8  UNL     1      -9.938  20.141 -12.263  1.00  0.00    -0.033 C 
HETATM    7  C9  UNL     1     -10.912  19.161 -12.953  1.00  0.00     0.016 C 
HETATM    8  C10 UNL     1      -9.537  19.582 -10.920  1.00  0.00     0.005 C 
HETATM    9  C11 UNL     1      -8.237  20.059 -10.403  1.00  0.00     0.007 C 
HETATM   10  C12 UNL     1      -7.244  20.553 -11.396  1.00  0.00     0.010 C 
HETATM   11  C13 UNL     1      -7.451  19.968 -12.735  1.00  0.00    -0.035 C 
HETATM   12  C14 UNL     1      -7.316  18.463 -12.668  1.00  0.00     0.016 C 
HETATM   13  C15 UNL     1      -6.588  20.492 -13.821  1.00  0.00     0.012 C 
HETATM   14  C16 UNL     1      -7.419  21.476 -14.648  1.00  0.00    -0.008 C 
HETATM   15  C17 UNL     1      -6.281  22.425 -14.578  1.00  0.00     0.020 C 
HETATM   16  C18 UNL     1      -5.614  21.554 -13.540  1.00  0.00     0.092 C 
HETATM   17  C20 UNL     1      -8.601  21.756 -13.706  1.00  0.00     0.011 C 
HETATM   18  C21 UNL     1      -8.832  20.349 -13.216  1.00  0.00     0.003 C 
HETATM   19  C22 UNL     1     -10.626  20.002  -9.971  1.00  0.00    -0.013 C 
HETATM   20  C23 UNL     1     -11.974  19.396 -10.209  1.00  0.00     0.018 C 
HETATM   21  C24 UNL     1     -10.296  19.822  -8.522  1.00  0.00     0.014 C 
HETATM   22  C25 UNL     1     -11.088  20.724  -7.623  1.00  0.00     0.029 C 
HETATM   23  C26 UNL     1     -10.766  22.208  -7.789  1.00  0.00     0.114 C 
ENDROOT
BRANCH   1  24
HETATM   24  C3  UNL     1     -11.165  24.074  -9.487  1.00  0.00     0.218 C 
BRANCH  24  25
HETATM   25  O2  UNL     1      -9.795  24.247  -9.011  1.00  0.00    -0.319 OA
BRANCH  25  26
HETATM   26  C2  UNL     1      -8.804  24.745  -9.811  1.00  0.00     0.254 C 
HETATM   27  C1  UNL     1      -8.911  24.544 -11.290  1.00  0.00     0.126 C 
HETATM   28  O1  UNL     1      -7.853  25.344  -9.282  1.00  0.00    -0.266 OA
ENDBRANCH  25  26
ENDBRANCH  24  25
ENDBRANCH   1  24
BRANCH  23  29
HETATM   29  N1  UNL     1     -10.818  22.886  -6.570  1.00  0.00    -0.414 N 
HETATM   30  C27 UNL     1     -11.934  22.930  -5.748  1.00  0.00     0.143 C 
HETATM   31  C28 UNL     1      -9.676  23.557  -6.084  1.00  0.00     0.143 C 
ENDBRANCH  23  29
BRANCH  16  32
HETATM   32  C19 UNL     1      -4.223  21.146 -13.835  1.00  0.00     0.177 C 
HETATM   33  O4  UNL     1      -3.383  21.191 -12.910  1.00  0.00    -0.648 OA
HETATM   34  O5  UNL     1      -3.795  20.717 -15.073  1.00  0.00    -0.648 OA
ENDBRANCH  16  32
TORSDOF 5
ENDMDL
MODEL 4
REMARK VINA RESULT: -5.037771829      3.100      8.086
REMARK  5 active torsions:
REMARK  status: ('A' for Active; 'I' for Inactive)
REMARK    1  A    between atoms: C2_2  and  O2_4 
REMARK    2  A    between atoms: O2_4  and  C3_5 
REMARK    3  A    between atoms: C3_5  and  C4_6 
REMARK    4  A    between atoms: C18_21  and  C19_22 
REMARK    5  A    between atoms: C26_31  and  N1_32 
ROOT
HETATM    1  C4  UNL     1     -10.974  21.255  -9.730  1.00  0.00     0.100 C 
HETATM    2  C5  UNL     1     -12.308  21.902  -9.329  1.00  0.00     0.050 C 
HETATM    3  O3  UNL     1     -10.797  21.663 -11.070  1.00  0.00    -0.370 OA
HETATM    4  C6  UNL     1      -9.759  20.950 -11.596  1.00  0.00     0.132 C 
HETATM    5  C7  UNL     1      -8.839  21.796 -12.485  1.00  0.00     0.042 C 
HETATM    6  C8  UNL     1      -8.376  20.936 -13.615  1.00  0.00    -0.033 C 
HETATM    7  C9  UNL     1      -8.935  21.579 -14.903  1.00  0.00     0.016 C 
HETATM    8  C10 UNL     1      -9.088  19.630 -13.361  1.00  0.00     0.005 C 
HETATM    9  C11 UNL     1      -8.332  18.648 -12.556  1.00  0.00     0.007 C 
HETATM   10  C12 UNL     1      -6.848  18.769 -12.543  1.00  0.00     0.010 C 
HETATM   11  C13 UNL     1      -6.330  19.442 -13.750  1.00  0.00    -0.035 C 
HETATM   12  C14 UNL     1      -6.711  18.654 -14.984  1.00  0.00     0.016 C 
HETATM   13  C15 UNL     1      -4.874  19.720 -13.773  1.00  0.00     0.012 C 
HETATM   14  C16 UNL     1      -4.673  21.201 -13.444  1.00  0.00    -0.008 C 
HETATM   15  C17 UNL     1      -3.616  20.797 -12.483  1.00  0.00     0.020 C 
HETATM   16  C18 UNL     1      -4.036  19.353 -12.625  1.00  0.00     0.092 C 
HETATM   17  C20 UNL     1      -6.037  21.575 -12.843  1.00  0.00     0.011 C 
HETATM   18  C21 UNL     1      -6.919  20.832 -13.814  1.00  0.00     0.003 C 
HETATM   19  C22 UNL     1     -10.349  19.999 -12.627  1.00  0.00    -0.013 C 
HETATM   20  C23 UNL     1     -11.352  20.794 -13.403  1.00  0.00     0.018 C 
HETATM   21  C24 UNL     1     -11.068  18.844 -12.002  1.00  0.00     0.014 C 
HETATM   22  C25 UNL     1     -11.942  19.249 -10.854  1.00  0.00     0.029 C 
HETATM   23  C26 UNL     1     -11.175  19.774  -9.642  1.00  0.00     0.114 C 
ENDROOT
BRANCH   1  24
HETATM   24  C3  UNL     1      -9.861  21.856  -8.964  1.00  0.00     0.218 C 
BRANCH  24  25
HETATM   25  O2  UNL     1     -10.495  22.852  -8.103  1.00  0.00    -0.319 OA
BRANCH  25  26
HETATM   26  C2  UNL     1     -10.065  23.090  -6.827  1.00  0.00     0.254 C 
HETATM   27  C1  UNL     1     -10.973  23.826  -5.892  1.00  0.00     0.126 C 
HETATM   28  O1  UNL     1      -8.939  22.687  -6.491  1.00  0.00    -0.266 OA
ENDBRANCH  25  26
ENDBRANCH  24  25
ENDBRANCH   1  24
BRANCH  23  29
HETATM   29  N1  UNL     1     -11.779  19.389  -8.442  1.00  0.00    -0.414 N 
HETATM   30  C27 UNL     1     -13.128  19.101  -8.305  1.00  0.00     0.143 C 
HETATM   31  C28 UNL     1     -11.000  19.235  -7.276  1.00  0.00     0.143 C 
ENDBRANCH  23  29
BRANCH  16  32
HETATM   32  C19 UNL     1      -2.962  18.400 -12.981  1.00  0.00     0.177 C 
HETATM   33  O4  UNL     1      -2.726  17.453 -12.199  1.00  0.00    -0.648 OA
HETATM   34  O5  UNL     1      -2.204  18.492 -14.128  1.00  0.00    -0.648 OA
ENDBRANCH  16  32
TORSDOF 5
ENDMDL
MODEL 5
REMARK VINA RESULT: -4.824786131      3.343      8.212
REMARK  5 active torsions:
REMARK  status: ('A' for Active; 'I' for Inactive)
REMARK    1  A    between atoms: C2_2  and  O2_4 
REMARK    2  A    between atoms: O2_4  and  C3_5 
REMARK    3  A    between atoms: C3_5  and  C4_6 
REMARK    4  A    between atoms: C18_21  and  C19_22 
REMARK    5  A    between atoms: C26_31  and  N1_32 
ROOT
HETATM    1  C4  UNL     1     -10.752  20.659 -10.056  1.00  0.00     0.100 C 
HETATM    2  C5  UNL     1     -12.181  21.219 -10.011  1.00  0.00     0.050 C 
HETATM    3  O3  UNL     1     -10.395  20.769 -11.417  1.00  0.00    -0.370 OA
HETATM    4  C6  UNL     1      -9.231  20.083 -11.608  1.00  0.00     0.132 C 
HETATM    5  C7  UNL     1      -8.252  20.807 -12.540  1.00  0.00     0.042 C 
HETATM    6  C8  UNL     1      -7.544  19.773 -13.353  1.00  0.00    -0.033 C 
HETATM    7  C9  UNL     1      -7.938  20.037 -14.823  1.00  0.00     0.016 C 
HETATM    8  C10 UNL     1      -8.179  18.485 -12.890  1.00  0.00     0.005 C 
HETATM    9  C11 UNL     1      -7.485  17.807 -11.775  1.00  0.00     0.007 C 
HETATM   10  C12 UNL     1      -6.037  18.102 -11.588  1.00  0.00     0.010 C 
HETATM   11  C13 UNL     1      -5.388  18.539 -12.840  1.00  0.00    -0.035 C 
HETATM   12  C14 UNL     1      -5.499  17.453 -13.887  1.00  0.00     0.016 C 
HETATM   13  C15 UNL     1      -3.975  18.974 -12.729  1.00  0.00     0.012 C 
HETATM   14  C16 UNL     1      -3.951  20.504 -12.745  1.00  0.00    -0.008 C 
HETATM   15  C17 UNL     1      -3.034  20.456 -11.579  1.00  0.00     0.020 C 
HETATM   16  C18 UNL     1      -3.306  18.978 -11.422  1.00  0.00     0.092 C 
HETATM   17  C20 UNL     1      -5.421  20.842 -12.446  1.00  0.00     0.011 C 
HETATM   18  C21 UNL     1      -6.071  19.799 -13.319  1.00  0.00     0.003 C 
HETATM   19  C22 UNL     1      -9.567  18.860 -12.448  1.00  0.00    -0.013 C 
HETATM   20  C23 UNL     1     -10.493  19.334 -13.524  1.00  0.00     0.018 C 
HETATM   21  C24 UNL     1     -10.281  17.801 -11.667  1.00  0.00     0.014 C 
HETATM   22  C25 UNL     1     -11.359  18.350 -10.782  1.00  0.00     0.029 C 
HETATM   23  C26 UNL     1     -10.843  19.223  -9.640  1.00  0.00     0.114 C 
ENDROOT
BRANCH   1  24
HETATM   24  C3  UNL     1      -9.830  21.545  -9.313  1.00  0.00     0.218 C 
BRANCH  24  25
HETATM   25  O2  UNL     1     -10.671  22.636  -8.826  1.00  0.00    -0.319 OA
BRANCH  25  26
HETATM   26  C2  UNL     1     -10.285  23.448  -7.796  1.00  0.00     0.254 C 
HETATM   27  C1  UNL     1     -11.055  23.391  -6.514  1.00  0.00     0.126 C 
HETATM   28  O1  UNL     1      -9.312  24.202  -7.962  1.00  0.00    -0.266 OA
ENDBRANCH  25  26
ENDBRANCH  24  25
ENDBRANCH   1  24
BRANCH  23  29
HETATM   29  N1  UNL     1     -11.599  19.052  -8.478  1.00  0.00    -0.414 N 
HETATM   30  C27 UNL     1     -11.194  19.463  -7.217  1.00  0.00     0.143 C 
HETATM   31  C28 UNL     1     -12.877  18.460  -8.546  1.00  0.00     0.143 C 
ENDBRANCH  23  29
BRANCH  16  32
HETATM   32  C19 UNL     1      -2.115  18.102 -11.387  1.00  0.00     0.177 C 
HETATM   33  O4  UNL     1      -1.831  17.530 -10.311  1.00  0.00    -0.648 OA
HETATM   34  O5  UNL     1      -1.295  17.876 -12.471  1.00  0.00    -0.648 OA
ENDBRANCH  16  32
TORSDOF 5
ENDMDL
