MODEL 1
REMARK VINA RESULT: -6.111856836      0.000      0.000
REMARK  5 active torsions:
REMARK  status: ('A' for Active; 'I' for Inactive)
REMARK    1  A    between atoms: C2_2  and  C3_3 
REMARK    2  A    between atoms: C9_9  and  O1_10 
REMARK    3  A    between atoms: O1_10  and  C10_11 
REMARK    4  A    between atoms: C15_17  and  C16_18 
REMARK    5  A    between atoms: C24_27  and  O4_28 
ROOT
HETATM    1  C3  UNL     1     -15.871  18.705 -10.845  1.00  0.00     0.016 C 
HETATM    2  C4  UNL     1     -15.334  19.829 -11.633  1.00  0.00     0.007 C 
HETATM    3  C5  UNL     1     -13.903  20.176 -11.512  1.00  0.00     0.010 C 
HETATM    4  C6  UNL     1     -13.083  19.759 -10.366  1.00  0.00    -0.031 C 
HETATM    5  C7  UNL     1     -12.198  18.574 -10.824  1.00  0.00     0.016 C 
HETATM    6  C8  UNL     1     -13.786  19.279  -9.153  1.00  0.00     0.031 C 
HETATM    7  C9  UNL     1     -12.855  19.246  -7.923  1.00  0.00     0.137 C 
HETATM    8  C12 UNL     1     -12.263  20.657  -7.714  1.00  0.00     0.038 C 
HETATM    9  C13 UNL     1     -11.337  20.810  -8.840  1.00  0.00     0.001 C 
HETATM   10  C14 UNL     1     -10.378  21.919  -8.859  1.00  0.00     0.006 C 
HETATM   11  C15 UNL     1     -10.587  23.153  -8.139  1.00  0.00     0.001 C 
HETATM   12  C19 UNL     1      -9.300  23.980  -8.377  1.00  0.00     0.083 C 
HETATM   13  C20 UNL     1      -9.089  24.215  -9.806  1.00  0.00     0.128 C 
HETATM   14  O3  UNL     1      -8.574  25.259 -10.166  1.00  0.00    -0.298 OA
HETATM   15  C21 UNL     1      -9.480  23.223 -10.833  1.00  0.00     0.090 C 
HETATM   16  C22 UNL     1     -10.000  21.951 -10.305  1.00  0.00    -0.007 C 
HETATM   17  C23 UNL     1      -8.931  20.879 -10.626  1.00  0.00     0.018 C 
HETATM   18  C24 UNL     1     -11.243  21.421 -11.078  1.00  0.00     0.135 C 
HETATM   19  C26 UNL     1     -12.167  20.936 -10.085  1.00  0.00     0.028 C 
HETATM   20  C27 UNL     1     -15.079  19.773  -8.720  1.00  0.00     0.049 C 
HETATM   21  C28 UNL     1     -15.622  21.105  -8.834  1.00  0.00     0.239 C 
HETATM   22  N1  UNL     1     -16.834  20.526  -9.448  1.00  0.00    -0.070 N 
ATOM     23  H11 UNL     1     -17.189  20.933 -10.313  1.00  0.00     0.277 HD
ATOM     24  H12 UNL     1     -17.733  20.665  -8.985  1.00  0.00     0.277 HD
HETATM   25  C29 UNL     1     -16.276  19.216  -9.485  1.00  0.00     0.196 C 
ENDROOT
BRANCH   7  26
HETATM   26  O1  UNL     1     -11.867  18.274  -8.038  1.00  0.00    -0.316 OA
BRANCH  26  27
HETATM   27  C10 UNL     1     -11.241  17.727  -6.926  1.00  0.00     0.255 C 
HETATM   28  C11 UNL     1     -11.914  17.453  -5.649  1.00  0.00     0.126 C 
HETATM   29  O2  UNL     1     -10.007  17.455  -7.051  1.00  0.00    -0.266 OA
ENDBRANCH  26  27
ENDBRANCH   7  26
BRANCH  18  30
HETATM   30  O4  UNL     1     -10.853  20.655 -12.132  1.00  0.00    -0.389 OA
HETATM   31  C25 UNL     1     -11.125  21.176 -13.382  1.00  0.00     0.202 C 
ENDBRANCH  18  30
BRANCH   1  32
HETATM   32  C2  UNL     1     -17.186  18.235 -11.500  1.00  0.00     0.002 C 
HETATM   33  C1  UNL     1     -17.396  18.984 -12.806  1.00  0.00     0.005 C 
ENDBRANCH   1  32
BRANCH  11  34
HETATM   34  C16 UNL     1     -11.720  24.035  -8.162  1.00  0.00    -0.018 C 
HETATM   35  C17 UNL     1     -11.959  24.479  -6.691  1.00  0.00     0.010 C 
HETATM   36  C18 UNL     1     -11.729  25.326  -8.895  1.00  0.00     0.010 C 
ENDBRANCH  11  34
TORSDOF 5
ENDMDL
MODEL 2
REMARK VINA RESULT: -5.333140998      2.497      6.041
REMARK  5 active torsions:
REMARK  status: ('A' for Active; 'I' for Inactive)
REMARK    1  A    between atoms: C2_2  and  C3_3 
REMARK    2  A    between atoms: C9_9  and  O1_10 
REMARK    3  A    between atoms: O1_10  and  C10_11 
REMARK    4  A    between atoms: C15_17  and  C16_18 
REMARK    5  A    between atoms: C24_27  and  O4_28 
ROOT
HETATM    1  C3  UNL     1     -11.256  23.003  -6.578  1.00  0.00     0.016 C 
HETATM    2  C4  UNL     1     -12.185  23.460  -7.628  1.00  0.00     0.007 C 
HETATM    3  C5  UNL     1     -12.939  22.459  -8.409  1.00  0.00     0.010 C 
HETATM    4  C6  UNL     1     -12.525  21.053  -8.501  1.00  0.00    -0.031 C 
HETATM    5  C7  UNL     1     -13.449  20.226  -7.574  1.00  0.00     0.016 C 
HETATM    6  C8  UNL     1     -11.144  20.711  -8.087  1.00  0.00     0.031 C 
HETATM    7  C9  UNL     1     -10.721  19.315  -8.588  1.00  0.00     0.137 C 
HETATM    8  C12 UNL     1     -10.878  19.272 -10.123  1.00  0.00     0.038 C 
HETATM    9  C13 UNL     1     -12.331  19.279 -10.319  1.00  0.00     0.001 C 
HETATM   10  C14 UNL     1     -12.899  18.984 -11.638  1.00  0.00     0.006 C 
HETATM   11  C15 UNL     1     -12.172  19.181 -12.870  1.00  0.00     0.001 C 
HETATM   12  C19 UNL     1     -13.116  18.664 -13.982  1.00  0.00     0.083 C 
HETATM   13  C20 UNL     1     -14.381  19.402 -13.975  1.00  0.00     0.128 C 
HETATM   14  O3  UNL     1     -14.955  19.605 -15.031  1.00  0.00    -0.298 OA
HETATM   15  C21 UNL     1     -14.988  19.911 -12.724  1.00  0.00     0.090 C 
HETATM   16  C22 UNL     1     -14.281  19.535 -11.489  1.00  0.00    -0.007 C 
HETATM   17  C23 UNL     1     -15.202  18.535 -10.750  1.00  0.00     0.018 C 
HETATM   18  C24 UNL     1     -14.164  20.699 -10.462  1.00  0.00     0.135 C 
HETATM   19  C26 UNL     1     -12.825  20.644  -9.932  1.00  0.00     0.028 C 
HETATM   20  C27 UNL     1     -10.011  21.603  -8.244  1.00  0.00     0.049 C 
HETATM   21  C28 UNL     1      -9.747  22.554  -9.296  1.00  0.00     0.239 C 
HETATM   22  N1  UNL     1      -9.522  23.588  -8.265  1.00  0.00    -0.070 N 
ATOM     23  H11 UNL     1      -9.991  24.488  -8.361  1.00  0.00     0.277 HD
ATOM     24  H12 UNL     1      -8.609  24.041  -8.216  1.00  0.00     0.277 HD
HETATM   25  C29 UNL     1      -9.915  22.719  -7.207  1.00  0.00     0.196 C 
ENDROOT
BRANCH   7  26
HETATM   26  O1  UNL     1     -11.427  18.295  -7.959  1.00  0.00    -0.316 OA
BRANCH  26  27
HETATM   27  C10 UNL     1     -11.007  17.742  -6.757  1.00  0.00     0.255 C 
HETATM   28  C11 UNL     1     -11.897  17.454  -5.624  1.00  0.00     0.126 C 
HETATM   29  O2  UNL     1      -9.769  17.479  -6.660  1.00  0.00    -0.266 OA
ENDBRANCH  26  27
ENDBRANCH   7  26
BRANCH  18  30
HETATM   30  O4  UNL     1     -15.257  20.727  -9.654  1.00  0.00    -0.389 OA
HETATM   31  C25 UNL     1     -16.024  21.873  -9.729  1.00  0.00     0.202 C 
ENDBRANCH  18  30
BRANCH   1  32
HETATM   32  C2  UNL     1     -11.000  24.175  -5.610  1.00  0.00     0.002 C 
HETATM   33  C1  UNL     1     -11.898  24.030  -4.391  1.00  0.00     0.005 C 
ENDBRANCH   1  32
BRANCH  11  34
HETATM   34  C16 UNL     1     -11.490  20.353 -13.343  1.00  0.00    -0.018 C 
HETATM   35  C17 UNL     1      -9.989  19.966 -13.471  1.00  0.00     0.010 C 
HETATM   36  C18 UNL     1     -11.775  20.983 -14.657  1.00  0.00     0.010 C 
ENDBRANCH  11  34
TORSDOF 5
ENDMDL
MODEL 3
REMARK VINA RESULT: -5.076879536      1.736      2.662
REMARK  5 active torsions:
REMARK  status: ('A' for Active; 'I' for Inactive)
REMARK    1  A    between atoms: C2_2  and  C3_3 
REMARK    2  A    between atoms: C9_9  and  O1_10 
REMARK    3  A    between atoms: O1_10  and  C10_11 
REMARK    4  A    between atoms: C15_17  and  C16_18 
REMARK    5  A    between atoms: C24_27  and  O4_28 
ROOT
HETATM    1  C3  UNL     1     -15.304  19.845  -9.385  1.00  0.00     0.016 C 
HETATM    2  C4  UNL     1     -15.016  20.390 -10.725  1.00  0.00     0.007 C 
HETATM    3  C5  UNL     1     -13.689  20.156 -11.329  1.00  0.00     0.010 C 
HETATM    4  C6  UNL     1     -12.512  19.786 -10.531  1.00  0.00    -0.031 C 
HETATM    5  C7  UNL     1     -12.266  18.269 -10.726  1.00  0.00     0.016 C 
HETATM    6  C8  UNL     1     -12.581  19.988  -9.065  1.00  0.00     0.031 C 
HETATM    7  C9  UNL     1     -11.185  19.933  -8.410  1.00  0.00     0.137 C 
HETATM    8  C12 UNL     1     -10.280  20.986  -9.084  1.00  0.00     0.038 C 
HETATM    9  C13 UNL     1     -10.052  20.434 -10.423  1.00  0.00     0.001 C 
HETATM   10  C14 UNL     1      -9.024  21.013 -11.294  1.00  0.00     0.006 C 
HETATM   11  C15 UNL     1      -8.562  22.376 -11.169  1.00  0.00     0.001 C 
HETATM   12  C19 UNL     1      -7.434  22.517 -12.219  1.00  0.00     0.083 C 
HETATM   13  C20 UNL     1      -7.938  22.236 -13.564  1.00  0.00     0.128 C 
HETATM   14  O3  UNL     1      -7.468  22.841 -14.512  1.00  0.00    -0.298 OA
HETATM   15  C21 UNL     1      -9.003  21.238 -13.814  1.00  0.00     0.090 C 
HETATM   16  C22 UNL     1      -9.442  20.484 -12.628  1.00  0.00    -0.007 C 
HETATM   17  C23 UNL     1      -8.948  19.032 -12.832  1.00  0.00     0.018 C 
HETATM   18  C24 UNL     1     -10.985  20.301 -12.546  1.00  0.00     0.135 C 
HETATM   19  C26 UNL     1     -11.351  20.526 -11.170  1.00  0.00     0.028 C 
HETATM   20  C27 UNL     1     -13.328  21.057  -8.431  1.00  0.00     0.049 C 
HETATM   21  C28 UNL     1     -13.550  22.404  -8.898  1.00  0.00     0.239 C 
HETATM   22  N1  UNL     1     -14.997  22.211  -8.676  1.00  0.00    -0.070 N 
ATOM     23  H11 UNL     1     -15.646  22.465  -9.420  1.00  0.00     0.277 HD
ATOM     24  H12 UNL     1     -15.478  22.821  -8.014  1.00  0.00     0.277 HD
HETATM   25  C29 UNL     1     -14.835  20.834  -8.348  1.00  0.00     0.196 C 
ENDROOT
BRANCH   7  26
HETATM   26  O1  UNL     1     -10.632  18.657  -8.458  1.00  0.00    -0.316 OA
BRANCH  26  27
HETATM   27  C10 UNL     1     -10.536  17.853  -7.330  1.00  0.00     0.255 C 
HETATM   28  C11 UNL     1     -11.681  17.453  -6.501  1.00  0.00     0.126 C 
HETATM   29  O2  UNL     1      -9.371  17.454  -7.020  1.00  0.00    -0.266 OA
ENDBRANCH  26  27
ENDBRANCH   7  26
BRANCH  18  30
HETATM   30  O4  UNL     1     -11.364  19.181 -13.217  1.00  0.00    -0.389 OA
HETATM   31  C25 UNL     1     -12.070  19.396 -14.385  1.00  0.00     0.202 C 
ENDBRANCH  18  30
BRANCH   1  32
HETATM   32  C2  UNL     1     -16.834  19.776  -9.205  1.00  0.00     0.002 C 
HETATM   33  C1  UNL     1     -17.397  18.667 -10.080  1.00  0.00     0.005 C 
ENDBRANCH   1  32
BRANCH  11  34
HETATM   34  C16 UNL     1      -9.326  23.592 -11.136  1.00  0.00    -0.018 C 
HETATM   35  C17 UNL     1      -9.606  23.893  -9.637  1.00  0.00     0.010 C 
HETATM   36  C18 UNL     1      -8.807  24.890 -11.636  1.00  0.00     0.010 C 
ENDBRANCH  11  34
TORSDOF 5
ENDMDL
MODEL 4
REMARK VINA RESULT: -4.905132180      3.075      7.152
REMARK  5 active torsions:
REMARK  status: ('A' for Active; 'I' for Inactive)
REMARK    1  A    between atoms: C2_2  and  C3_3 
REMARK    2  A    between atoms: C9_9  and  O1_10 
REMARK    3  A    between atoms: O1_10  and  C10_11 
REMARK    4  A    between atoms: C15_17  and  C16_18 
REMARK    5  A    between atoms: C24_27  and  O4_28 
ROOT
HETATM    1  C3  UNL     1      -6.922  20.153 -14.009  1.00  0.00     0.016 C 
HETATM    2  C4  UNL     1      -7.889  19.046 -13.903  1.00  0.00     0.007 C 
HETATM    3  C5  UNL     1      -9.218  19.303 -13.312  1.00  0.00     0.010 C 
HETATM    4  C6  UNL     1      -9.489  20.464 -12.453  1.00  0.00    -0.031 C 
HETATM    5  C7  UNL     1     -10.264  21.506 -13.296  1.00  0.00     0.016 C 
HETATM    6  C8  UNL     1      -8.328  21.195 -11.893  1.00  0.00     0.031 C 
HETATM    7  C9  UNL     1      -8.737  22.121 -10.729  1.00  0.00     0.137 C 
HETATM    8  C12 UNL     1      -9.446  21.274  -9.650  1.00  0.00     0.038 C 
HETATM    9  C13 UNL     1     -10.725  20.925 -10.274  1.00  0.00     0.001 C 
HETATM   10  C14 UNL     1     -11.802  20.339  -9.471  1.00  0.00     0.006 C 
HETATM   11  C15 UNL     1     -11.563  19.608  -8.248  1.00  0.00     0.001 C 
HETATM   12  C19 UNL     1     -12.970  19.257  -7.707  1.00  0.00     0.083 C 
HETATM   13  C20 UNL     1     -13.716  18.457  -8.680  1.00  0.00     0.128 C 
HETATM   14  O3  UNL     1     -14.496  17.610  -8.279  1.00  0.00    -0.298 OA
HETATM   15  C21 UNL     1     -13.556  18.642 -10.141  1.00  0.00     0.090 C 
HETATM   16  C22 UNL     1     -12.672  19.751 -10.535  1.00  0.00    -0.007 C 
HETATM   17  C23 UNL     1     -13.585  20.829 -11.166  1.00  0.00     0.018 C 
HETATM   18  C24 UNL     1     -11.717  19.395 -11.712  1.00  0.00     0.135 C 
HETATM   19  C26 UNL     1     -10.430  19.950 -11.378  1.00  0.00     0.028 C 
HETATM   20  C27 UNL     1      -7.071  20.565 -11.540  1.00  0.00     0.049 C 
HETATM   21  C28 UNL     1      -6.840  19.245 -11.003  1.00  0.00     0.239 C 
HETATM   22  N1  UNL     1      -5.848  19.015 -12.073  1.00  0.00    -0.070 N 
ATOM     23  H11 UNL     1      -5.902  18.153 -12.615  1.00  0.00     0.277 HD
ATOM     24  H12 UNL     1      -4.881  18.820 -11.812  1.00  0.00     0.277 HD
HETATM   25  C29 UNL     1      -6.150  20.250 -12.717  1.00  0.00     0.196 C 
ENDROOT
BRANCH   7  26
HETATM   26  O1  UNL     1      -9.519  23.189 -11.156  1.00  0.00    -0.316 OA
BRANCH  26  27
HETATM   27  C10 UNL     1      -9.267  24.493 -10.753  1.00  0.00     0.255 C 
HETATM   28  C11 UNL     1      -8.213  25.345 -11.321  1.00  0.00     0.126 C 
HETATM   29  O2  UNL     1     -10.012  24.953  -9.833  1.00  0.00    -0.266 OA
ENDBRANCH  26  27
ENDBRANCH   7  26
BRANCH  18  30
HETATM   30  O4  UNL     1     -12.322  19.647 -12.904  1.00  0.00    -0.389 OA
HETATM   31  C25 UNL     1     -12.619  18.535 -13.668  1.00  0.00     0.202 C 
ENDBRANCH  18  30
BRANCH   1  32
HETATM   32  C2  UNL     1      -5.869  19.780 -15.072  1.00  0.00     0.002 C 
HETATM   33  C1  UNL     1      -4.718  20.771 -15.014  1.00  0.00     0.005 C 
ENDBRANCH   1  32
BRANCH  11  34
HETATM   34  C16 UNL     1     -10.681  18.499  -8.012  1.00  0.00    -0.018 C 
HETATM   35  C17 UNL     1     -11.307  17.683  -6.845  1.00  0.00     0.010 C 
HETATM   36  C18 UNL     1     -10.404  17.453  -9.027  1.00  0.00     0.010 C 
ENDBRANCH  11  34
TORSDOF 5
ENDMDL
MODEL 5
REMARK VINA RESULT: -4.858246326      2.768      6.498
REMARK  5 active torsions:
REMARK  status: ('A' for Active; 'I' for Inactive)
REMARK    1  A    between atoms: C2_2  and  C3_3 
REMARK    2  A    between atoms: C9_9  and  O1_10 
REMARK    3  A    between atoms: O1_10  and  C10_11 
REMARK    4  A    between atoms: C15_17  and  C16_18 
REMARK    5  A    between atoms: C24_27  and  O4_28 
ROOT
HETATM    1  C3  UNL     1      -7.942  21.981 -12.806  1.00  0.00     0.016 C 
HETATM    2  C4  UNL     1      -9.017  22.878 -12.343  1.00  0.00     0.007 C 
HETATM    3  C5  UNL     1      -9.910  22.432 -11.254  1.00  0.00     0.010 C 
HETATM    4  C6  UNL     1     -10.068  21.017 -10.893  1.00  0.00    -0.031 C 
HETATM    5  C7  UNL     1      -9.259  20.766  -9.597  1.00  0.00     0.016 C 
HETATM    6  C8  UNL     1      -9.590  20.000 -11.858  1.00  0.00     0.031 C 
HETATM    7  C9  UNL     1     -10.155  18.598 -11.546  1.00  0.00     0.137 C 
HETATM    8  C12 UNL     1     -11.696  18.679 -11.527  1.00  0.00     0.038 C 
HETATM    9  C13 UNL     1     -11.983  19.443 -10.309  1.00  0.00     0.001 C 
HETATM   10  C14 UNL     1     -13.353  19.516  -9.790  1.00  0.00     0.006 C 
HETATM   11  C15 UNL     1     -14.520  19.337 -10.622  1.00  0.00     0.001 C 
HETATM   12  C19 UNL     1     -15.722  19.410  -9.650  1.00  0.00     0.083 C 
HETATM   13  C20 UNL     1     -15.747  20.696  -8.950  1.00  0.00     0.128 C 
HETATM   14  O3  UNL     1     -16.822  21.192  -8.659  1.00  0.00    -0.298 OA
HETATM   15  C21 UNL     1     -14.507  21.417  -8.582  1.00  0.00     0.090 C 
HETATM   16  C22 UNL     1     -13.257  20.699  -8.881  1.00  0.00    -0.007 C 
HETATM   17  C23 UNL     1     -12.647  20.304  -7.515  1.00  0.00     0.018 C 
HETATM   18  C24 UNL     1     -12.150  21.609  -9.488  1.00  0.00     0.135 C 
HETATM   19  C26 UNL     1     -11.540  20.857 -10.555  1.00  0.00     0.028 C 
HETATM   20  C27 UNL     1      -9.614  20.178 -13.297  1.00  0.00     0.049 C 
HETATM   21  C28 UNL     1     -10.581  20.881 -14.106  1.00  0.00     0.239 C 
HETATM   22  N1  UNL     1      -9.472  21.623 -14.737  1.00  0.00    -0.070 N 
ATOM     23  H11 UNL     1      -9.538  22.638 -14.808  1.00  0.00     0.277 HD
ATOM     24  H12 UNL     1      -9.334  21.536 -15.744  1.00  0.00     0.277 HD
HETATM   25  C29 UNL     1      -8.501  21.058 -13.860  1.00  0.00     0.196 C 
ENDROOT
BRANCH   7  26
HETATM   26  O1  UNL     1      -9.642  18.077 -10.363  1.00  0.00    -0.316 OA
BRANCH  26  27
HETATM   27  C10 UNL     1      -8.322  17.660 -10.254  1.00  0.00     0.255 C 
HETATM   28  C11 UNL     1      -7.423  17.453 -11.398  1.00  0.00     0.126 C 
HETATM   29  O2  UNL     1      -7.891  17.453  -9.078  1.00  0.00    -0.266 OA
ENDBRANCH  26  27
ENDBRANCH   7  26
BRANCH  18  30
HETATM   30  O4  UNL     1     -11.413  22.180  -8.498  1.00  0.00    -0.389 OA
HETATM   31  C25 UNL     1     -11.578  23.543  -8.343  1.00  0.00     0.202 C 
ENDBRANCH  18  30
BRANCH   1  32
HETATM   32  C2  UNL     1      -6.884  22.828 -13.541  1.00  0.00     0.002 C 
HETATM   33  C1  UNL     1      -5.714  21.942 -13.937  1.00  0.00     0.005 C 
ENDBRANCH   1  32
BRANCH  11  34
HETATM   34  C16 UNL     1     -14.870  19.998 -11.849  1.00  0.00    -0.018 C 
HETATM   35  C17 UNL     1     -15.015  18.881 -12.921  1.00  0.00     0.010 C 
HETATM   36  C18 UNL     1     -16.120  20.778 -12.022  1.00  0.00     0.010 C 
ENDBRANCH  11  34
TORSDOF 5
ENDMDL
