MODEL 1
REMARK VINA RESULT: -7.640755011      0.000      0.000
REMARK  5 active torsions:
REMARK  status: ('A' for Active; 'I' for Inactive)
REMARK    1  A    between atoms: C2_2  and  C3_3 
REMARK    2  A    between atoms: C3_3  and  C4_4 
REMARK    3  A    between atoms: N1_8  and  C8_9 
REMARK    4  A    between atoms: C8_9  and  C9_10 
REMARK    5  A    between atoms: C15_18  and  O3_19 
ROOT
HETATM    1  C9  UNL     1     -12.263  23.463  -6.740  1.00  0.00     0.131 C 
HETATM    2  C10 UNL     1     -12.239  24.010  -8.084  1.00  0.00     0.268 C 
HETATM    3  O1  UNL     1     -11.931  25.159  -8.493  1.00  0.00    -0.264 OA
HETATM    4  O2  UNL     1     -12.656  22.933  -8.910  1.00  0.00    -0.314 OA
HETATM    5  C11 UNL     1     -12.894  21.796  -8.104  1.00  0.00     0.150 C 
HETATM    6  C12 UNL     1     -11.808  22.043  -7.033  1.00  0.00     0.041 C 
HETATM    7  C13 UNL     1     -10.515  21.940  -7.768  1.00  0.00     0.018 C 
HETATM    8  C14 UNL     1      -9.286  22.279  -7.001  1.00  0.00     0.013 C 
HETATM    9  C15 UNL     1     -10.362  20.510  -8.239  1.00  0.00     0.127 C 
HETATM   10  C16 UNL     1     -11.426  20.104  -9.236  1.00  0.00     0.030 C 
HETATM   11  C17 UNL     1     -11.169  20.605 -10.608  1.00  0.00     0.017 C 
HETATM   12  C18 UNL     1     -11.094  19.623 -11.692  1.00  0.00    -0.047 C 
HETATM   13  C19 UNL     1     -11.745  20.237 -12.940  1.00  0.00     0.015 C 
HETATM   14  C20 UNL     1      -9.630  19.363 -12.082  1.00  0.00     0.015 C 
HETATM   15  C21 UNL     1     -11.719  18.293 -11.485  1.00  0.00     0.012 C 
HETATM   16  C22 UNL     1     -13.191  18.283 -11.281  1.00  0.00     0.028 C 
HETATM   17  C23 UNL     1     -13.801  19.562 -10.939  1.00  0.00    -0.023 C 
HETATM   18  C24 UNL     1     -13.690  20.485  -9.960  1.00  0.00    -0.076 C 
HETATM   19  C25 UNL     1     -14.599  21.625 -10.137  1.00  0.00     0.044 C 
HETATM   20  C26 UNL     1     -12.807  20.503  -8.773  1.00  0.00     0.012 C 
HETATM   21  C27 UNL     1     -13.338  19.440  -7.815  1.00  0.00     0.023 C 
ENDROOT
BRANCH   1  22
HETATM   22  C8  UNL     1     -11.630  24.134  -5.629  1.00  0.00     0.082 C 
BRANCH  22  23
HETATM   23  N1  UNL     1     -12.472  25.040  -4.882  1.00  0.00    -0.331 N 
HETATM   24  C7  UNL     1     -12.854  26.369  -5.314  1.00  0.00     0.131 C 
HETATM   25  C6  UNL     1     -12.540  27.286  -4.123  1.00  0.00     0.030 C 
HETATM   26  C3  UNL     1     -13.454  27.042  -2.967  1.00  0.00    -0.031 C 
HETATM   27  C29 UNL     1     -13.803  25.590  -2.775  1.00  0.00     0.112 C 
HETATM   28  C28 UNL     1     -13.004  24.678  -3.587  1.00  0.00     0.224 C 
HETATM   29  O4  UNL     1     -12.747  23.515  -3.176  1.00  0.00    -0.273 OA
BRANCH  26  30
HETATM   30  C2  UNL     1     -14.746  27.792  -3.207  1.00  0.00     0.005 C 
HETATM   31  C1  UNL     1     -14.519  29.246  -3.514  1.00  0.00     0.006 C 
ENDBRANCH  26  30
BRANCH  26  32
HETATM   32  C4  UNL     1     -12.766  27.584  -1.716  1.00  0.00     0.005 C 
HETATM   33  C5  UNL     1     -11.317  27.846  -1.983  1.00  0.00     0.006 C 
ENDBRANCH  26  32
ENDBRANCH  22  23
ENDBRANCH   1  22
BRANCH   9  34
HETATM   34  O3  UNL     1      -9.118  20.234  -8.743  1.00  0.00    -0.395 OA
ATOM     35  H3  UNL     1      -9.135  19.921  -9.639  1.00  0.00     0.210 HD
ENDBRANCH   9  34
TORSDOF 5
ENDMDL
MODEL 2
REMARK VINA RESULT: -7.524479392      1.139      1.925
REMARK  5 active torsions:
REMARK  status: ('A' for Active; 'I' for Inactive)
REMARK    1  A    between atoms: C2_2  and  C3_3 
REMARK    2  A    between atoms: C3_3  and  C4_4 
REMARK    3  A    between atoms: N1_8  and  C8_9 
REMARK    4  A    between atoms: C8_9  and  C9_10 
REMARK    5  A    between atoms: C15_18  and  O3_19 
ROOT
HETATM    1  C9  UNL     1     -12.186  23.630  -6.582  1.00  0.00     0.131 C 
HETATM    2  C10 UNL     1     -12.226  24.185  -7.923  1.00  0.00     0.268 C 
HETATM    3  O1  UNL     1     -11.933  25.334  -8.340  1.00  0.00    -0.264 OA
HETATM    4  O2  UNL     1     -12.688  23.114  -8.733  1.00  0.00    -0.314 OA
HETATM    5  C11 UNL     1     -12.891  21.974  -7.923  1.00  0.00     0.150 C 
HETATM    6  C12 UNL     1     -11.752  22.210  -6.905  1.00  0.00     0.041 C 
HETATM    7  C13 UNL     1     -10.498  22.105  -7.703  1.00  0.00     0.018 C 
HETATM    8  C14 UNL     1      -9.231  22.435  -6.997  1.00  0.00     0.013 C 
HETATM    9  C15 UNL     1     -10.375  20.678  -8.189  1.00  0.00     0.127 C 
HETATM   10  C16 UNL     1     -11.488  20.281  -9.134  1.00  0.00     0.030 C 
HETATM   11  C17 UNL     1     -11.297  20.790 -10.515  1.00  0.00     0.017 C 
HETATM   12  C18 UNL     1     -11.280  19.813 -11.607  1.00  0.00    -0.047 C 
HETATM   13  C19 UNL     1     -11.989  20.437 -12.817  1.00  0.00     0.015 C 
HETATM   14  C20 UNL     1      -9.838  19.549 -12.070  1.00  0.00     0.015 C 
HETATM   15  C21 UNL     1     -11.900  18.485 -11.376  1.00  0.00     0.012 C 
HETATM   16  C22 UNL     1     -13.360  18.480 -11.101  1.00  0.00     0.028 C 
HETATM   17  C23 UNL     1     -13.947  19.759 -10.721  1.00  0.00    -0.023 C 
HETATM   18  C24 UNL     1     -13.783  20.677  -9.744  1.00  0.00    -0.076 C 
HETATM   19  C25 UNL     1     -14.695  21.821  -9.870  1.00  0.00     0.044 C 
HETATM   20  C26 UNL     1     -12.843  20.684  -8.602  1.00  0.00     0.012 C 
HETATM   21  C27 UNL     1     -13.331  19.618  -7.625  1.00  0.00     0.023 C 
ENDROOT
BRANCH   1  22
HETATM   22  C8  UNL     1     -11.496  24.292  -5.500  1.00  0.00     0.082 C 
BRANCH  22  23
HETATM   23  N1  UNL     1     -12.323  24.705  -4.390  1.00  0.00    -0.331 N 
HETATM   24  C7  UNL     1     -12.540  23.935  -3.181  1.00  0.00     0.131 C 
HETATM   25  C6  UNL     1     -14.063  23.901  -2.993  1.00  0.00     0.030 C 
HETATM   26  C3  UNL     1     -14.617  25.240  -2.632  1.00  0.00    -0.031 C 
HETATM   27  C29 UNL     1     -13.934  26.382  -3.337  1.00  0.00     0.112 C 
HETATM   28  C28 UNL     1     -13.038  25.961  -4.410  1.00  0.00     0.224 C 
HETATM   29  O4  UNL     1     -12.854  26.700  -5.415  1.00  0.00    -0.273 OA
BRANCH  26  30
HETATM   30  C2  UNL     1     -14.435  25.451  -1.144  1.00  0.00     0.005 C 
HETATM   31  C1  UNL     1     -13.557  26.631  -0.832  1.00  0.00     0.006 C 
ENDBRANCH  26  30
BRANCH  26  32
HETATM   32  C4  UNL     1     -16.105  25.229  -2.974  1.00  0.00     0.005 C 
HETATM   33  C5  UNL     1     -16.792  26.416  -2.377  1.00  0.00     0.006 C 
ENDBRANCH  26  32
ENDBRANCH  22  23
ENDBRANCH   1  22
BRANCH   9  34
HETATM   34  O3  UNL     1      -9.158  20.399  -8.756  1.00  0.00    -0.395 OA
ATOM     35  H3  UNL     1      -9.223  20.045  -9.634  1.00  0.00     0.210 HD
ENDBRANCH   9  34
TORSDOF 5
ENDMDL
MODEL 3
REMARK VINA RESULT: -7.061372772      1.058      1.589
REMARK  5 active torsions:
REMARK  status: ('A' for Active; 'I' for Inactive)
REMARK    1  A    between atoms: C2_2  and  C3_3 
REMARK    2  A    between atoms: C3_3  and  C4_4 
REMARK    3  A    between atoms: N1_8  and  C8_9 
REMARK    4  A    between atoms: C8_9  and  C9_10 
REMARK    5  A    between atoms: C15_18  and  O3_19 
ROOT
HETATM    1  C9  UNL     1     -12.080  23.625  -6.298  1.00  0.00     0.131 C 
HETATM    2  C10 UNL     1     -12.151  24.255  -7.604  1.00  0.00     0.268 C 
HETATM    3  O1  UNL     1     -11.865  25.425  -7.963  1.00  0.00    -0.264 OA
HETATM    4  O2  UNL     1     -12.637  23.232  -8.462  1.00  0.00    -0.314 OA
HETATM    5  C11 UNL     1     -12.824  22.048  -7.712  1.00  0.00     0.150 C 
HETATM    6  C12 UNL     1     -11.659  22.224  -6.711  1.00  0.00     0.041 C 
HETATM    7  C13 UNL     1     -10.426  22.162  -7.545  1.00  0.00     0.018 C 
HETATM    8  C14 UNL     1      -9.141  22.449  -6.853  1.00  0.00     0.013 C 
HETATM    9  C15 UNL     1     -10.320  20.764  -8.113  1.00  0.00     0.127 C 
HETATM   10  C16 UNL     1     -11.458  20.424  -9.051  1.00  0.00     0.030 C 
HETATM   11  C17 UNL     1     -11.299  21.009 -10.406  1.00  0.00     0.017 C 
HETATM   12  C18 UNL     1     -11.313  20.096 -11.551  1.00  0.00    -0.047 C 
HETATM   13  C19 UNL     1     -12.049  20.788 -12.706  1.00  0.00     0.015 C 
HETATM   14  C20 UNL     1      -9.884  19.855 -12.064  1.00  0.00     0.015 C 
HETATM   15  C21 UNL     1     -11.931  18.757 -11.380  1.00  0.00     0.012 C 
HETATM   16  C22 UNL     1     -13.384  18.740 -11.069  1.00  0.00     0.028 C 
HETATM   17  C23 UNL     1     -13.957  19.998 -10.603  1.00  0.00    -0.023 C 
HETATM   18  C24 UNL     1     -13.766  20.858  -9.580  1.00  0.00    -0.076 C 
HETATM   19  C25 UNL     1     -14.676  22.010  -9.619  1.00  0.00     0.044 C 
HETATM   20  C26 UNL     1     -12.797  20.799  -8.464  1.00  0.00     0.012 C 
HETATM   21  C27 UNL     1     -13.265  19.680  -7.536  1.00  0.00     0.023 C 
ENDROOT
BRANCH   1  22
HETATM   22  C8  UNL     1     -11.361  24.223  -5.198  1.00  0.00     0.082 C 
BRANCH  22  23
HETATM   23  N1  UNL     1     -12.178  24.775  -4.142  1.00  0.00    -0.331 N 
HETATM   24  C7  UNL     1     -13.359  24.145  -3.588  1.00  0.00     0.131 C 
HETATM   25  C6  UNL     1     -14.446  25.229  -3.617  1.00  0.00     0.030 C 
HETATM   26  C3  UNL     1     -14.173  26.328  -2.643  1.00  0.00    -0.031 C 
HETATM   27  C29 UNL     1     -12.714  26.677  -2.526  1.00  0.00     0.112 C 
HETATM   28  C28 UNL     1     -11.875  26.057  -3.547  1.00  0.00     0.224 C 
HETATM   29  O4  UNL     1     -10.832  26.636  -3.954  1.00  0.00    -0.273 OA
BRANCH  26  30
HETATM   30  C2  UNL     1     -14.647  25.887  -1.275  1.00  0.00     0.005 C 
HETATM   31  C1  UNL     1     -16.129  26.059  -1.094  1.00  0.00     0.006 C 
ENDBRANCH  26  30
BRANCH  26  32
HETATM   32  C4  UNL     1     -14.969  27.550  -3.096  1.00  0.00     0.005 C 
HETATM   33  C5  UNL     1     -14.153  28.795  -2.943  1.00  0.00     0.006 C 
ENDBRANCH  26  32
ENDBRANCH  22  23
ENDBRANCH   1  22
BRANCH   9  34
HETATM   34  O3  UNL     1      -9.118  20.515  -8.725  1.00  0.00    -0.395 OA
ATOM     35  H3  UNL     1      -8.997  21.004  -9.530  1.00  0.00     0.210 HD
ENDBRANCH   9  34
TORSDOF 5
ENDMDL
MODEL 4
REMARK VINA RESULT: -6.582544441      6.174     10.718
REMARK  5 active torsions:
REMARK  status: ('A' for Active; 'I' for Inactive)
REMARK    1  A    between atoms: C2_2  and  C3_3 
REMARK    2  A    between atoms: C3_3  and  C4_4 
REMARK    3  A    between atoms: N1_8  and  C8_9 
REMARK    4  A    between atoms: C8_9  and  C9_10 
REMARK    5  A    between atoms: C15_18  and  O3_19 
ROOT
HETATM    1  C9  UNL     1      -9.660  28.220  -3.116  1.00  0.00     0.131 C 
HETATM    2  C10 UNL     1     -10.214  29.466  -3.615  1.00  0.00     0.268 C 
HETATM    3  O1  UNL     1     -11.386  29.917  -3.563  1.00  0.00    -0.264 OA
HETATM    4  O2  UNL     1      -9.109  30.127  -4.213  1.00  0.00    -0.314 OA
HETATM    5  C11 UNL     1      -7.952  29.329  -4.059  1.00  0.00     0.150 C 
HETATM    6  C12 UNL     1      -8.285  28.704  -2.686  1.00  0.00     0.041 C 
HETATM    7  C13 UNL     1      -8.296  29.851  -1.735  1.00  0.00     0.018 C 
HETATM    8  C14 UNL     1      -8.735  29.558  -0.344  1.00  0.00     0.013 C 
HETATM    9  C15 UNL     1      -6.887  30.395  -1.648  1.00  0.00     0.127 C 
HETATM   10  C16 UNL     1      -6.396  30.965  -2.962  1.00  0.00     0.030 C 
HETATM   11  C17 UNL     1      -6.924  32.321  -3.249  1.00  0.00     0.017 C 
HETATM   12  C18 UNL     1      -5.957  33.395  -3.488  1.00  0.00    -0.047 C 
HETATM   13  C19 UNL     1      -6.518  34.309  -4.586  1.00  0.00     0.015 C 
HETATM   14  C20 UNL     1      -5.824  34.286  -2.243  1.00  0.00     0.015 C 
HETATM   15  C21 UNL     1      -4.577  33.026  -3.893  1.00  0.00     0.012 C 
HETATM   16  C22 UNL     1      -4.441  32.316  -5.191  1.00  0.00     0.028 C 
HETATM   17  C23 UNL     1      -5.661  31.735  -5.737  1.00  0.00    -0.023 C 
HETATM   18  C24 UNL     1      -6.587  30.827  -5.358  1.00  0.00    -0.076 C 
HETATM   19  C25 UNL     1      -7.645  30.633  -6.356  1.00  0.00     0.044 C 
HETATM   20  C26 UNL     1      -6.674  30.030  -4.115  1.00  0.00     0.012 C 
HETATM   21  C27 UNL     1      -5.565  28.983  -4.187  1.00  0.00     0.023 C 
ENDROOT
BRANCH   1  22
HETATM   22  C8  UNL     1     -10.377  27.382  -2.184  1.00  0.00     0.082 C 
BRANCH  22  23
HETATM   23  N1  UNL     1     -11.763  27.132  -2.506  1.00  0.00    -0.331 N 
HETATM   24  C7  UNL     1     -12.896  27.768  -1.863  1.00  0.00     0.131 C 
HETATM   25  C6  UNL     1     -13.830  26.617  -1.463  1.00  0.00     0.030 C 
HETATM   26  C3  UNL     1     -14.455  25.959  -2.649  1.00  0.00    -0.031 C 
HETATM   27  C29 UNL     1     -13.528  25.849  -3.831  1.00  0.00     0.112 C 
HETATM   28  C28 UNL     1     -12.139  26.176  -3.524  1.00  0.00     0.224 C 
HETATM   29  O4  UNL     1     -11.198  25.622  -4.154  1.00  0.00    -0.273 OA
BRANCH  26  30
HETATM   30  C2  UNL     1     -15.649  26.782  -3.084  1.00  0.00     0.005 C 
HETATM   31  C1  UNL     1     -16.893  26.445  -2.310  1.00  0.00     0.006 C 
ENDBRANCH  26  30
BRANCH  26  32
HETATM   32  C4  UNL     1     -14.915  24.570  -2.214  1.00  0.00     0.005 C 
HETATM   33  C5  UNL     1     -14.700  23.575  -3.311  1.00  0.00     0.006 C 
ENDBRANCH  26  32
ENDBRANCH  22  23
ENDBRANCH   1  22
BRANCH   9  34
HETATM   34  O3  UNL     1      -6.720  31.316  -0.647  1.00  0.00    -0.395 OA
ATOM     35  H3  UNL     1      -5.857  31.292  -0.252  1.00  0.00     0.210 HD
ENDBRANCH   9  34
TORSDOF 5
ENDMDL
MODEL 5
REMARK VINA RESULT: -6.141010559      1.969      3.518
REMARK  5 active torsions:
REMARK  status: ('A' for Active; 'I' for Inactive)
REMARK    1  A    between atoms: C2_2  and  C3_3 
REMARK    2  A    between atoms: C3_3  and  C4_4 
REMARK    3  A    between atoms: N1_8  and  C8_9 
REMARK    4  A    between atoms: C8_9  and  C9_10 
REMARK    5  A    between atoms: C15_18  and  O3_19 
ROOT
HETATM    1  C9  UNL     1     -11.343  22.648  -7.604  1.00  0.00     0.131 C 
HETATM    2  C10 UNL     1      -9.899  22.750  -7.496  1.00  0.00     0.268 C 
HETATM    3  O1  UNL     1      -9.171  23.023  -6.508  1.00  0.00    -0.264 OA
HETATM    4  O2  UNL     1      -9.428  22.465  -8.805  1.00  0.00    -0.314 OA
HETATM    5  C11 UNL     1     -10.531  22.184  -9.644  1.00  0.00     0.150 C 
HETATM    6  C12 UNL     1     -11.446  21.505  -8.600  1.00  0.00     0.041 C 
HETATM    7  C13 UNL     1     -10.721  20.264  -8.205  1.00  0.00     0.018 C 
HETATM    8  C14 UNL     1     -11.312  19.475  -7.092  1.00  0.00     0.013 C 
HETATM    9  C15 UNL     1     -10.667  19.354  -9.413  1.00  0.00     0.127 C 
HETATM   10  C16 UNL     1      -9.868  19.942 -10.556  1.00  0.00     0.030 C 
HETATM   11  C17 UNL     1      -8.401  19.819 -10.372  1.00  0.00     0.017 C 
HETATM   12  C18 UNL     1      -7.636  19.132 -11.416  1.00  0.00    -0.047 C 
HETATM   13  C19 UNL     1      -6.292  19.856 -11.579  1.00  0.00     0.015 C 
HETATM   14  C20 UNL     1      -7.279  17.705 -10.970  1.00  0.00     0.015 C 
HETATM   15  C21 UNL     1      -8.235  19.015 -12.769  1.00  0.00     0.012 C 
HETATM   16  C22 UNL     1      -8.490  20.291 -13.487  1.00  0.00     0.028 C 
HETATM   17  C23 UNL     1      -8.481  21.500 -12.673  1.00  0.00    -0.023 C 
HETATM   18  C24 UNL     1      -9.154  21.986 -11.608  1.00  0.00    -0.076 C 
HETATM   19  C25 UNL     1      -8.696  23.320 -11.198  1.00  0.00     0.044 C 
HETATM   20  C26 UNL     1     -10.251  21.377 -10.826  1.00  0.00     0.012 C 
HETATM   21  C27 UNL     1     -11.491  21.402 -11.718  1.00  0.00     0.023 C 
ENDROOT
BRANCH   1  22
HETATM   22  C8  UNL     1     -12.194  22.575  -6.439  1.00  0.00     0.082 C 
BRANCH  22  23
HETATM   23  N1  UNL     1     -12.112  23.698  -5.533  1.00  0.00    -0.331 N 
HETATM   24  C7  UNL     1     -11.816  23.606  -4.118  1.00  0.00     0.131 C 
HETATM   25  C6  UNL     1     -12.916  24.420  -3.421  1.00  0.00     0.030 C 
HETATM   26  C3  UNL     1     -12.788  25.884  -3.689  1.00  0.00    -0.031 C 
HETATM   27  C29 UNL     1     -12.339  26.201  -5.090  1.00  0.00     0.112 C 
HETATM   28  C28 UNL     1     -12.347  25.050  -5.988  1.00  0.00     0.224 C 
HETATM   29  O4  UNL     1     -12.564  25.203  -7.219  1.00  0.00    -0.273 OA
BRANCH  26  30
HETATM   30  C2  UNL     1     -11.759  26.459  -2.740  1.00  0.00     0.005 C 
HETATM   31  C1  UNL     1     -11.488  27.915  -2.997  1.00  0.00     0.006 C 
ENDBRANCH  26  30
BRANCH  26  32
HETATM   32  C4  UNL     1     -14.150  26.520  -3.420  1.00  0.00     0.005 C 
HETATM   33  C5  UNL     1     -14.814  25.867  -2.248  1.00  0.00     0.006 C 
ENDBRANCH  26  32
ENDBRANCH  22  23
ENDBRANCH   1  22
BRANCH   9  34
HETATM   34  O3  UNL     1     -10.214  18.094  -9.124  1.00  0.00    -0.395 OA
ATOM     35  H3  UNL     1      -9.281  17.986  -9.267  1.00  0.00     0.210 HD
ENDBRANCH   9  34
TORSDOF 5
ENDMDL
