MODEL 1
REMARK VINA RESULT: -6.499942185      0.000      0.000
REMARK  5 active torsions:
REMARK  status: ('A' for Active; 'I' for Inactive)
REMARK    1  A    between atoms: C4_4  and  C5_5 
REMARK    2  A    between atoms: C5_5  and  C6_6 
REMARK    3  A    between atoms: C15_17  and  C16_18 
REMARK    4  A    between atoms: C16_18  and  C17_19 
REMARK    5  A    between atoms: C17_19  and  O3_20 
ROOT
HETATM    1  C6  UNL     1     -11.011  22.819  -7.712  1.00  0.00     0.108 C 
HETATM    2  C7  UNL     1     -12.038  21.826  -7.708  1.00  0.00     0.009 C 
HETATM    3  C8  UNL     1     -12.193  20.508  -7.663  1.00  0.00    -0.018 C 
HETATM    4  C9  UNL     1     -13.671  20.150  -7.689  1.00  0.00     0.052 C 
HETATM    5  C10 UNL     1     -11.341  19.327  -7.604  1.00  0.00     0.159 C 
HETATM    6  O1  UNL     1     -11.727  18.409  -6.924  1.00  0.00    -0.292 OA
HETATM    7  C11 UNL     1     -10.010  19.048  -8.277  1.00  0.00     0.119 C 
HETATM    8  C12 UNL     1      -9.764  20.241  -9.189  1.00  0.00    -0.053 C 
HETATM    9  C13 UNL     1      -9.655  21.507  -8.819  1.00  0.00     0.009 C 
HETATM   10  C14 UNL     1      -9.653  22.278  -7.548  1.00  0.00     0.177 C 
HETATM   11  O2  UNL     1      -8.913  22.528  -6.574  1.00  0.00    -0.291 OA
HETATM   12  C15 UNL     1     -10.008  22.561  -9.919  1.00  0.00     0.055 C 
HETATM   13  C18 UNL     1      -8.748  22.793 -10.543  1.00  0.00     0.023 C 
HETATM   14  C19 UNL     1      -7.927  21.496 -10.767  1.00  0.00     0.008 C 
HETATM   15  C20 UNL     1      -8.716  20.396 -11.410  1.00  0.00     0.013 C 
HETATM   16  C21 UNL     1      -7.964  19.683 -12.533  1.00  0.00     0.018 C 
HETATM   17  C22 UNL     1      -8.806  19.532 -13.792  1.00  0.00     0.023 C 
HETATM   18  C23 UNL     1      -6.739  20.481 -12.989  1.00  0.00     0.023 C 
HETATM   19  C24 UNL     1      -7.431  18.384 -12.076  1.00  0.00     0.135 C 
HETATM   20  O4  UNL     1      -7.337  17.453 -12.814  1.00  0.00    -0.297 OA
HETATM   21  C25 UNL     1      -7.046  18.385 -10.650  1.00  0.00     0.080 C 
HETATM   22  C26 UNL     1      -8.301  18.488  -9.850  1.00  0.00     0.021 C 
HETATM   23  C27 UNL     1      -9.363  19.459 -10.418  1.00  0.00    -0.014 C 
HETATM   24  C28 UNL     1     -10.446  18.607 -10.961  1.00  0.00     0.020 C 
HETATM   25  C29 UNL     1     -10.620  23.568  -8.950  1.00  0.00     0.160 C 
HETATM   26  O5  UNL     1     -10.721  24.727  -9.224  1.00  0.00    -0.295 OA
ENDROOT
BRANCH   1  27
HETATM   27  C5  UNL     1     -11.334  23.947  -6.687  1.00  0.00     0.057 C 
BRANCH  27  28
HETATM   28  C4  UNL     1     -12.451  23.477  -5.869  1.00  0.00    -0.023 C 
HETATM   29  C2  UNL     1     -12.674  23.908  -4.652  1.00  0.00    -0.091 C 
HETATM   30  C1  UNL     1     -13.816  23.394  -3.873  1.00  0.00     0.042 C 
HETATM   31  C3  UNL     1     -11.809  24.948  -4.050  1.00  0.00     0.042 C 
ENDBRANCH  27  28
ENDBRANCH   1  27
BRANCH  12  32
HETATM   32  C16 UNL     1     -11.220  22.275 -10.727  1.00  0.00     0.048 C 
BRANCH  32  33
HETATM   33  C17 UNL     1     -10.827  22.311 -12.225  1.00  0.00     0.165 C 
BRANCH  33  34
HETATM   34  O3  UNL     1     -11.770  21.493 -12.909  1.00  0.00    -0.401 OA
ATOM     35  H3  UNL     1     -12.113  22.018 -13.623  1.00  0.00     0.209 HD
ENDBRANCH  33  34
ENDBRANCH  32  33
ENDBRANCH  12  32
TORSDOF 5
ENDMDL
MODEL 2
REMARK VINA RESULT: -6.208780506      2.532      6.552
REMARK  5 active torsions:
REMARK  status: ('A' for Active; 'I' for Inactive)
REMARK    1  A    between atoms: C4_4  and  C5_5 
REMARK    2  A    between atoms: C5_5  and  C6_6 
REMARK    3  A    between atoms: C15_17  and  C16_18 
REMARK    4  A    between atoms: C16_18  and  C17_19 
REMARK    5  A    between atoms: C17_19  and  O3_20 
ROOT
HETATM    1  C6  UNL     1      -8.316  21.094 -11.872  1.00  0.00     0.108 C 
HETATM    2  C7  UNL     1      -8.676  22.386 -11.378  1.00  0.00     0.009 C 
HETATM    3  C8  UNL     1      -9.233  22.963 -10.320  1.00  0.00    -0.018 C 
HETATM    4  C9  UNL     1      -9.284  24.471 -10.508  1.00  0.00     0.052 C 
HETATM    5  C10 UNL     1      -9.809  22.546  -9.047  1.00  0.00     0.159 C 
HETATM    6  O1  UNL     1      -9.600  23.255  -8.095  1.00  0.00    -0.292 OA
HETATM    7  C11 UNL     1     -10.657  21.334  -8.709  1.00  0.00     0.119 C 
HETATM    8  C12 UNL     1     -10.930  20.650 -10.042  1.00  0.00    -0.053 C 
HETATM    9  C13 UNL     1     -10.027  20.163 -10.877  1.00  0.00     0.009 C 
HETATM   10  C14 UNL     1      -8.549  20.001 -10.918  1.00  0.00     0.177 C 
HETATM   11  O2  UNL     1      -7.645  19.290 -10.432  1.00  0.00    -0.291 OA
HETATM   12  C15 UNL     1     -10.473  20.077 -12.373  1.00  0.00     0.055 C 
HETATM   13  C18 UNL     1     -11.034  18.770 -12.456  1.00  0.00     0.023 C 
HETATM   14  C19 UNL     1     -11.910  18.400 -11.231  1.00  0.00     0.008 C 
HETATM   15  C20 UNL     1     -12.913  19.456 -10.876  1.00  0.00     0.013 C 
HETATM   16  C21 UNL     1     -14.303  18.898 -10.574  1.00  0.00     0.018 C 
HETATM   17  C22 UNL     1     -15.403  19.653 -11.307  1.00  0.00     0.023 C 
HETATM   18  C23 UNL     1     -14.449  17.453 -11.056  1.00  0.00     0.023 C 
HETATM   19  C24 UNL     1     -14.553  18.849  -9.120  1.00  0.00     0.135 C 
HETATM   20  O4  UNL     1     -15.644  19.010  -8.667  1.00  0.00    -0.297 OA
HETATM   21  C25 UNL     1     -13.333  18.586  -8.331  1.00  0.00     0.080 C 
HETATM   22  C26 UNL     1     -12.463  19.793  -8.441  1.00  0.00     0.021 C 
HETATM   23  C27 UNL     1     -12.412  20.440  -9.844  1.00  0.00    -0.014 C 
HETATM   24  C28 UNL     1     -13.185  21.699  -9.741  1.00  0.00     0.020 C 
HETATM   25  C29 UNL     1      -9.095  20.396 -12.944  1.00  0.00     0.160 C 
HETATM   26  O5  UNL     1      -8.789  20.097 -14.060  1.00  0.00    -0.295 OA
ENDROOT
BRANCH   1  27
HETATM   27  C5  UNL     1      -6.858  21.106 -12.425  1.00  0.00     0.057 C 
BRANCH  27  28
HETATM   28  C4  UNL     1      -6.702  22.336 -13.200  1.00  0.00    -0.023 C 
HETATM   29  C2  UNL     1      -6.053  22.384 -14.337  1.00  0.00    -0.091 C 
HETATM   30  C1  UNL     1      -5.925  23.655 -15.073  1.00  0.00     0.042 C 
HETATM   31  C3  UNL     1      -5.470  21.156 -14.925  1.00  0.00     0.042 C 
ENDBRANCH  27  28
ENDBRANCH   1  27
BRANCH  12  32
HETATM   32  C16 UNL     1     -11.204  21.256 -12.902  1.00  0.00     0.048 C 
BRANCH  32  33
HETATM   33  C17 UNL     1     -12.069  20.797 -14.102  1.00  0.00     0.165 C 
BRANCH  33  34
HETATM   34  O3  UNL     1     -12.332  21.960 -14.879  1.00  0.00    -0.401 OA
ATOM     35  H3  UNL     1     -13.257  21.934 -15.097  1.00  0.00     0.209 HD
ENDBRANCH  33  34
ENDBRANCH  32  33
ENDBRANCH  12  32
TORSDOF 5
ENDMDL
MODEL 3
REMARK VINA RESULT: -5.999028761      1.654      1.860
REMARK  5 active torsions:
REMARK  status: ('A' for Active; 'I' for Inactive)
REMARK    1  A    between atoms: C4_4  and  C5_5 
REMARK    2  A    between atoms: C5_5  and  C6_6 
REMARK    3  A    between atoms: C15_17  and  C16_18 
REMARK    4  A    between atoms: C16_18  and  C17_19 
REMARK    5  A    between atoms: C17_19  and  O3_20 
ROOT
HETATM    1  C6  UNL     1     -10.756  22.503  -8.039  1.00  0.00     0.108 C 
HETATM    2  C7  UNL     1     -12.116  22.382  -8.460  1.00  0.00     0.009 C 
HETATM    3  C8  UNL     1     -12.978  21.474  -8.898  1.00  0.00    -0.018 C 
HETATM    4  C9  UNL     1     -14.334  22.115  -9.153  1.00  0.00     0.052 C 
HETATM    5  C10 UNL     1     -12.976  20.048  -9.205  1.00  0.00     0.159 C 
HETATM    6  O1  UNL     1     -13.971  19.428  -8.926  1.00  0.00    -0.292 OA
HETATM    7  C11 UNL     1     -11.899  19.188  -9.840  1.00  0.00     0.119 C 
HETATM    8  C12 UNL     1     -10.799  20.157 -10.247  1.00  0.00    -0.053 C 
HETATM    9  C13 UNL     1     -10.113  20.955  -9.444  1.00  0.00     0.009 C 
HETATM   10  C14 UNL     1     -10.029  21.226  -7.984  1.00  0.00     0.177 C 
HETATM   11  O2  UNL     1      -9.571  20.725  -6.936  1.00  0.00    -0.291 OA
HETATM   12  C15 UNL     1      -9.512  22.231 -10.117  1.00  0.00     0.055 C 
HETATM   13  C18 UNL     1      -8.222  21.787 -10.529  1.00  0.00     0.023 C 
HETATM   14  C19 UNL     1      -8.230  20.363 -11.143  1.00  0.00     0.008 C 
HETATM   15  C20 UNL     1      -9.287  20.172 -12.189  1.00  0.00     0.013 C 
HETATM   16  C21 UNL     1      -8.785  19.447 -13.436  1.00  0.00     0.018 C 
HETATM   17  C22 UNL     1      -9.192  20.154 -14.722  1.00  0.00     0.023 C 
HETATM   18  C23 UNL     1      -7.255  19.411 -13.492  1.00  0.00     0.023 C 
HETATM   19  C24 UNL     1      -9.207  18.033 -13.437  1.00  0.00     0.135 C 
HETATM   20  O4  UNL     1      -9.448  17.453 -14.450  1.00  0.00    -0.297 OA
HETATM   21  C25 UNL     1      -9.288  17.453 -12.082  1.00  0.00     0.080 C 
HETATM   22  C26 UNL     1     -10.437  18.103 -11.387  1.00  0.00     0.021 C 
HETATM   23  C27 UNL     1     -10.584  19.621 -11.643  1.00  0.00    -0.014 C 
HETATM   24  C28 UNL     1     -11.761  19.773 -12.528  1.00  0.00     0.020 C 
HETATM   25  C29 UNL     1      -9.699  23.128  -8.898  1.00  0.00     0.160 C 
HETATM   26  O5  UNL     1      -9.064  24.130  -8.747  1.00  0.00    -0.295 OA
ENDROOT
BRANCH   1  27
HETATM   27  C5  UNL     1     -10.664  23.302  -6.703  1.00  0.00     0.057 C 
BRANCH  27  28
HETATM   28  C4  UNL     1     -11.967  23.195  -6.049  1.00  0.00    -0.023 C 
HETATM   29  C2  UNL     1     -12.263  23.833  -4.943  1.00  0.00    -0.091 C 
HETATM   30  C1  UNL     1     -13.594  23.683  -4.326  1.00  0.00     0.042 C 
HETATM   31  C3  UNL     1     -11.283  24.748  -4.315  1.00  0.00     0.042 C 
ENDBRANCH  27  28
ENDBRANCH   1  27
BRANCH  12  32
HETATM   32  C16 UNL     1     -10.406  22.953 -11.056  1.00  0.00     0.048 C 
BRANCH  32  33
HETATM   33  C17 UNL     1      -9.545  23.923 -11.902  1.00  0.00     0.165 C 
BRANCH  33  34
HETATM   34  O3  UNL     1      -9.833  25.235 -11.430  1.00  0.00    -0.401 OA
ATOM     35  H3  UNL     1      -8.995  25.667 -11.310  1.00  0.00     0.209 HD
ENDBRANCH  33  34
ENDBRANCH  32  33
ENDBRANCH  12  32
TORSDOF 5
ENDMDL
MODEL 4
REMARK VINA RESULT: -5.691273038      1.643      3.999
REMARK  5 active torsions:
REMARK  status: ('A' for Active; 'I' for Inactive)
REMARK    1  A    between atoms: C4_4  and  C5_5 
REMARK    2  A    between atoms: C5_5  and  C6_6 
REMARK    3  A    between atoms: C15_17  and  C16_18 
REMARK    4  A    between atoms: C16_18  and  C17_19 
REMARK    5  A    between atoms: C17_19  and  O3_20 
ROOT
HETATM    1  C6  UNL     1     -12.098  21.936  -7.618  1.00  0.00     0.108 C 
HETATM    2  C7  UNL     1     -10.887  22.678  -7.463  1.00  0.00     0.009 C 
HETATM    3  C8  UNL     1     -10.036  23.415  -8.167  1.00  0.00    -0.018 C 
HETATM    4  C9  UNL     1      -8.911  23.917  -7.275  1.00  0.00     0.052 C 
HETATM    5  C10 UNL     1      -9.886  23.861  -9.547  1.00  0.00     0.159 C 
HETATM    6  O1  UNL     1      -9.467  24.979  -9.717  1.00  0.00    -0.292 OA
HETATM    7  C11 UNL     1     -10.175  23.132 -10.846  1.00  0.00     0.119 C 
HETATM    8  C12 UNL     1     -10.550  21.715 -10.436  1.00  0.00    -0.053 C 
HETATM    9  C13 UNL     1     -11.561  21.360  -9.659  1.00  0.00     0.009 C 
HETATM   10  C14 UNL     1     -12.690  22.029  -8.961  1.00  0.00     0.177 C 
HETATM   11  O2  UNL     1     -13.804  22.542  -9.201  1.00  0.00    -0.291 OA
HETATM   12  C15 UNL     1     -11.390  19.997  -8.914  1.00  0.00     0.055 C 
HETATM   13  C18 UNL     1     -11.964  19.067  -9.829  1.00  0.00     0.023 C 
HETATM   14  C19 UNL     1     -11.577  19.343 -11.306  1.00  0.00     0.008 C 
HETATM   15  C20 UNL     1     -10.106  19.545 -11.508  1.00  0.00     0.013 C 
HETATM   16  C21 UNL     1      -9.549  18.796 -12.717  1.00  0.00     0.018 C 
HETATM   17  C22 UNL     1      -8.282  18.019 -12.386  1.00  0.00     0.023 C 
HETATM   18  C23 UNL     1     -10.525  17.729 -13.221  1.00  0.00     0.023 C 
HETATM   19  C24 UNL     1      -9.345  19.706 -13.861  1.00  0.00     0.135 C 
HETATM   20  O4  UNL     1      -8.461  19.539 -14.643  1.00  0.00    -0.297 OA
HETATM   21  C25 UNL     1     -10.333  20.802 -13.912  1.00  0.00     0.080 C 
HETATM   22  C26 UNL     1     -10.052  21.708 -12.760  1.00  0.00     0.021 C 
HETATM   23  C27 UNL     1      -9.681  20.994 -11.439  1.00  0.00    -0.014 C 
HETATM   24  C28 UNL     1      -8.231  21.222 -11.246  1.00  0.00     0.020 C 
HETATM   25  C29 UNL     1     -12.125  20.438  -7.653  1.00  0.00     0.160 C 
HETATM   26  O5  UNL     1     -12.605  19.650  -6.893  1.00  0.00    -0.295 OA
ENDROOT
BRANCH   1  27
HETATM   27  C5  UNL     1     -13.111  22.296  -6.490  1.00  0.00     0.057 C 
BRANCH  27  28
HETATM   28  C4  UNL     1     -12.513  23.375  -5.705  1.00  0.00    -0.023 C 
HETATM   29  C2  UNL     1     -13.055  23.840  -4.606  1.00  0.00    -0.091 C 
HETATM   30  C1  UNL     1     -12.407  24.934  -3.857  1.00  0.00     0.042 C 
HETATM   31  C3  UNL     1     -14.304  23.251  -4.073  1.00  0.00     0.042 C 
ENDBRANCH  27  28
ENDBRANCH   1  27
BRANCH  12  32
HETATM   32  C16 UNL     1     -10.056  19.749  -8.311  1.00  0.00     0.048 C 
BRANCH  32  33
HETATM   33  C17 UNL     1      -9.788  18.224  -8.328  1.00  0.00     0.165 C 
BRANCH  33  34
HETATM   34  O3  UNL     1     -10.167  17.733  -7.047  1.00  0.00    -0.401 OA
ATOM     35  H3  UNL     1      -9.981  16.801  -7.050  1.00  0.00     0.209 HD
ENDBRANCH  33  34
ENDBRANCH  32  33
ENDBRANCH  12  32
TORSDOF 5
ENDMDL
MODEL 5
REMARK VINA RESULT: -5.571338089      1.799      2.659
REMARK  5 active torsions:
REMARK  status: ('A' for Active; 'I' for Inactive)
REMARK    1  A    between atoms: C4_4  and  C5_5 
REMARK    2  A    between atoms: C5_5  and  C6_6 
REMARK    3  A    between atoms: C15_17  and  C16_18 
REMARK    4  A    between atoms: C16_18  and  C17_19 
REMARK    5  A    between atoms: C17_19  and  O3_20 
ROOT
HETATM    1  C6  UNL     1     -11.763  21.775  -7.684  1.00  0.00     0.108 C 
HETATM    2  C7  UNL     1     -12.980  22.095  -8.361  1.00  0.00     0.009 C 
HETATM    3  C8  UNL     1     -13.880  21.548  -9.170  1.00  0.00    -0.018 C 
HETATM    4  C9  UNL     1     -14.977  22.552  -9.492  1.00  0.00     0.052 C 
HETATM    5  C10 UNL     1     -14.095  20.266  -9.829  1.00  0.00     0.159 C 
HETATM    6  O1  UNL     1     -15.233  19.875  -9.906  1.00  0.00    -0.292 OA
HETATM    7  C11 UNL     1     -13.097  19.312 -10.459  1.00  0.00     0.119 C 
HETATM    8  C12 UNL     1     -11.757  20.033 -10.394  1.00  0.00    -0.053 C 
HETATM    9  C13 UNL     1     -11.135  20.443  -9.301  1.00  0.00     0.009 C 
HETATM   10  C14 UNL     1     -11.346  20.373  -7.831  1.00  0.00     0.177 C 
HETATM   11  O2  UNL     1     -11.261  19.564  -6.883  1.00  0.00    -0.291 OA
HETATM   12  C15 UNL     1     -10.144  21.636  -9.500  1.00  0.00     0.055 C 
HETATM   13  C18 UNL     1      -8.911  20.975  -9.771  1.00  0.00     0.023 C 
HETATM   14  C19 UNL     1      -9.063  19.760 -10.724  1.00  0.00     0.008 C 
HETATM   15  C20 UNL     1      -9.857  20.068 -11.957  1.00  0.00     0.013 C 
HETATM   16  C21 UNL     1      -9.232  19.517 -13.238  1.00  0.00     0.018 C 
HETATM   17  C22 UNL     1      -9.169  20.556 -14.348  1.00  0.00     0.023 C 
HETATM   18  C23 UNL     1      -7.773  19.105 -13.022  1.00  0.00     0.023 C 
HETATM   19  C24 UNL     1      -9.920  18.288 -13.681  1.00  0.00     0.135 C 
HETATM   20  O4  UNL     1     -10.026  18.014 -14.836  1.00  0.00    -0.297 OA
HETATM   21  C25 UNL     1     -10.437  17.478 -12.560  1.00  0.00     0.080 C 
HETATM   22  C26 UNL     1     -11.560  18.239 -11.941  1.00  0.00     0.021 C 
HETATM   23  C27 UNL     1     -11.331  19.764 -11.818  1.00  0.00    -0.014 C 
HETATM   24  C28 UNL     1     -12.208  20.391 -12.832  1.00  0.00     0.020 C 
HETATM   25  C29 UNL     1     -10.429  22.276  -8.145  1.00  0.00     0.160 C 
HETATM   26  O5  UNL     1      -9.658  23.029  -7.627  1.00  0.00    -0.295 OA
ENDROOT
BRANCH   1  27
HETATM   27  C5  UNL     1     -11.831  22.227  -6.193  1.00  0.00     0.057 C 
BRANCH  27  28
HETATM   28  C4  UNL     1     -12.070  23.669  -6.192  1.00  0.00    -0.023 C 
HETATM   29  C2  UNL     1     -12.446  24.328  -5.124  1.00  0.00    -0.091 C 
HETATM   30  C1  UNL     1     -12.675  25.784  -5.184  1.00  0.00     0.042 C 
HETATM   31  C3  UNL     1     -12.608  23.632  -3.827  1.00  0.00     0.042 C 
ENDBRANCH  27  28
ENDBRANCH   1  27
BRANCH  12  32
HETATM   32  C16 UNL     1     -10.624  22.742 -10.366  1.00  0.00     0.048 C 
BRANCH  32  33
HETATM   33  C17 UNL     1      -9.397  23.565 -10.832  1.00  0.00     0.165 C 
BRANCH  33  34
HETATM   34  O3  UNL     1      -9.440  24.794 -10.114  1.00  0.00    -0.401 OA
ATOM     35  H3  UNL     1      -8.662  25.279 -10.364  1.00  0.00     0.209 HD
ENDBRANCH  33  34
ENDBRANCH  32  33
ENDBRANCH  12  32
TORSDOF 5
ENDMDL
