MODEL 1
REMARK VINA RESULT: -7.849526524      0.000      0.000
REMARK  12 active torsions:
REMARK  status: ('A' for Active; 'I' for Inactive)
REMARK    1  A    between atoms: C4_5  and  C5_6 
REMARK    2  A    between atoms: C5_6  and  C6_7 
REMARK    3  A    between atoms: C5_6  and  C9_14 
REMARK    4  A    between atoms: C6_7  and  C7_8 
REMARK    5  A    between atoms: C7_8  and  C8_9 
REMARK    6  A    between atoms: C8_9  and  N1_10 
REMARK       I    between atoms: C9_14  and  N2_16 
REMARK    7  A    between atoms: N2_16  and  C10_18 
REMARK    8  A    between atoms: C10_18  and  C11_19 
REMARK    9  A    between atoms: C11_19  and  C12_20 
REMARK   10  A    between atoms: C12_20  and  C13_21 
REMARK   11  A    between atoms: C13_21  and  C14_22 
REMARK   12  A    between atoms: C14_22  and  N3_23 
ROOT
HETATM    1  C12 UNL     1      48.330  16.902  36.691  1.00  0.00     0.003 C 
ENDROOT
BRANCH   1   2
HETATM    2  C11 UNL     1      47.064  16.698  35.862  1.00  0.00     0.020 C 
BRANCH   2   3
HETATM    3  C10 UNL     1      45.839  17.015  36.691  1.00  0.00     0.122 C 
BRANCH   3   4
HETATM    4  N2  UNL     1      45.745  18.428  37.017  1.00  0.00    -0.360 N 
HETATM    5  C9  UNL     1      44.776  18.978  37.853  1.00  0.00     0.228 C 
HETATM    6  O2  UNL     1      43.936  18.157  38.340  1.00  0.00    -0.273 OA
ATOM      7  H2  UNL     1      46.433  19.058  36.605  1.00  0.00     0.162 HD
BRANCH   5   8
HETATM    8  C5  UNL     1      44.614  20.408  38.243  1.00  0.00     0.135 C 
BRANCH   8   9
HETATM    9  C4  UNL     1      44.673  21.139  36.895  1.00  0.00     0.066 A 
HETATM   10  O1  UNL     1      43.831  20.878  35.937  1.00  0.00    -0.326 OA
HETATM   11  C3  UNL     1      44.088  21.638  34.886  1.00  0.00     0.148 A 
HETATM   12  C2  UNL     1      45.156  22.422  35.206  1.00  0.00    -0.037 A 
HETATM   13  C1  UNL     1      45.787  23.428  34.327  1.00  0.00     0.050 C 
HETATM   14  C26 UNL     1      45.545  22.110  36.500  1.00  0.00     0.042 A 
ENDBRANCH   8   9
BRANCH   8  15
HETATM   15  C6  UNL     1      45.720  20.968  39.052  1.00  0.00     0.022 C 
BRANCH  15  16
HETATM   16  C7  UNL     1      46.006  20.381  40.381  1.00  0.00     0.028 C 
BRANCH  16  17
HETATM   17  C8  UNL     1      47.429  19.957  40.630  1.00  0.00     0.229 C 
BRANCH  17  18
HETATM   18  N1  UNL     1      48.348  20.960  40.998  1.00  0.00    -0.079 N 
ATOM     19  H13 UNL     1      48.819  21.310  40.164  1.00  0.00     0.274 HD
ATOM     20  H12 UNL     1      47.838  21.794  41.292  1.00  0.00     0.274 HD
ATOM     21  H11 UNL     1      49.044  20.722  41.705  1.00  0.00     0.274 HD
ENDBRANCH  17  18
ENDBRANCH  16  17
ENDBRANCH  15  16
ENDBRANCH   8  15
ENDBRANCH   5   8
ENDBRANCH   3   4
ENDBRANCH   2   3
ENDBRANCH   1   2
BRANCH   1  22
HETATM   22  C13 UNL     1      49.343  15.810  36.505  1.00  0.00     0.030 C 
BRANCH  22  23
HETATM   23  C14 UNL     1      49.106  15.008  35.257  1.00  0.00     0.272 C 
BRANCH  23  24
HETATM   24  N3  UNL     1      50.171  15.158  34.292  1.00  0.00     0.088 N 
HETATM   25  C15 UNL     1      49.682  15.466  32.981  1.00  0.00     0.274 C 
HETATM   26  C16 UNL     1      49.236  16.860  32.726  1.00  0.00     0.049 C 
HETATM   27  C17 UNL     1      48.569  16.936  31.342  1.00  0.00     0.115 C 
HETATM   28  N4  UNL     1      49.503  17.199  30.292  1.00  0.00    -0.421 N 
HETATM   29  C18 UNL     1      49.753  16.120  29.390  1.00  0.00     0.115 C 
ATOM     30  H4  UNL     1      49.965  18.104  30.193  1.00  0.00     0.153 HD
HETATM   31  C19 UNL     1      51.180  15.730  29.213  1.00  0.00     0.046 C 
HETATM   32  C20 UNL     1      52.072  16.767  28.621  1.00  0.00     0.234 C 
HETATM   33  N5  UNL     1      52.682  17.640  29.604  1.00  0.00    -0.074 N 
HETATM   34  C21 UNL     1      54.023  17.284  29.954  1.00  0.00     0.251 C 
ATOM     35  H52 UNL     1      52.640  18.611  29.292  1.00  0.00     0.277 HD
ATOM     36  H51 UNL     1      52.099  17.700  30.439  1.00  0.00     0.277 HD
HETATM   37  C22 UNL     1      54.132  16.641  31.329  1.00  0.00     0.141 C 
HETATM   38  N6  UNL     1      53.144  17.235  32.166  1.00  0.00    -0.420 N 
HETATM   39  C23 UNL     1      53.230  16.963  33.561  1.00  0.00     0.115 C 
ATOM     40  H6  UNL     1      52.408  17.828  31.782  1.00  0.00     0.153 HD
HETATM   41  C24 UNL     1      52.547  15.705  33.985  1.00  0.00     0.049 C 
HETATM   42  C25 UNL     1      51.234  16.039  34.711  1.00  0.00     0.274 C 
ENDBRANCH  23  24
ENDBRANCH  22  23
ENDBRANCH   1  22
TORSDOF 12
ENDMDL
MODEL 2
REMARK VINA RESULT: -7.756121295      1.924      2.843
REMARK  12 active torsions:
REMARK  status: ('A' for Active; 'I' for Inactive)
REMARK    1  A    between atoms: C4_5  and  C5_6 
REMARK    2  A    between atoms: C5_6  and  C6_7 
REMARK    3  A    between atoms: C5_6  and  C9_14 
REMARK    4  A    between atoms: C6_7  and  C7_8 
REMARK    5  A    between atoms: C7_8  and  C8_9 
REMARK    6  A    between atoms: C8_9  and  N1_10 
REMARK       I    between atoms: C9_14  and  N2_16 
REMARK    7  A    between atoms: N2_16  and  C10_18 
REMARK    8  A    between atoms: C10_18  and  C11_19 
REMARK    9  A    between atoms: C11_19  and  C12_20 
REMARK   10  A    between atoms: C12_20  and  C13_21 
REMARK   11  A    between atoms: C13_21  and  C14_22 
REMARK   12  A    between atoms: C14_22  and  N3_23 
ROOT
HETATM    1  C12 UNL     1      48.146  17.170  37.371  1.00  0.00     0.003 C 
ENDROOT
BRANCH   1   2
HETATM    2  C11 UNL     1      46.847  16.371  37.434  1.00  0.00     0.020 C 
BRANCH   2   3
HETATM    3  C10 UNL     1      45.757  17.084  36.666  1.00  0.00     0.122 C 
BRANCH   3   4
HETATM    4  N2  UNL     1      45.681  18.496  36.999  1.00  0.00    -0.360 N 
HETATM    5  C9  UNL     1      44.732  19.052  37.854  1.00  0.00     0.228 C 
HETATM    6  O2  UNL     1      43.891  18.237  38.350  1.00  0.00    -0.273 OA
ATOM      7  H2  UNL     1      46.369  19.121  36.580  1.00  0.00     0.162 HD
BRANCH   5   8
HETATM    8  C5  UNL     1      44.589  20.481  38.252  1.00  0.00     0.135 C 
BRANCH   8   9
HETATM    9  C4  UNL     1      44.697  21.223  36.913  1.00  0.00     0.066 A 
HETATM   10  O1  UNL     1      43.850  21.016  35.946  1.00  0.00    -0.326 OA
HETATM   11  C3  UNL     1      44.154  21.773  34.906  1.00  0.00     0.148 A 
HETATM   12  C2  UNL     1      45.259  22.497  35.242  1.00  0.00    -0.037 A 
HETATM   13  C1  UNL     1      45.947  23.478  34.379  1.00  0.00     0.050 C 
HETATM   14  C26 UNL     1      45.621  22.152  36.536  1.00  0.00     0.042 A 
ENDBRANCH   8   9
BRANCH   8  15
HETATM   15  C6  UNL     1      45.687  21.011  39.093  1.00  0.00     0.022 C 
BRANCH  15  16
HETATM   16  C7  UNL     1      46.075  20.271  40.316  1.00  0.00     0.028 C 
BRANCH  16  17
HETATM   17  C8  UNL     1      47.540  19.958  40.468  1.00  0.00     0.229 C 
BRANCH  17  18
HETATM   18  N1  UNL     1      48.369  20.976  40.982  1.00  0.00    -0.079 N 
ATOM     19  H13 UNL     1      48.115  21.867  40.554  1.00  0.00     0.274 HD
ATOM     20  H12 UNL     1      48.121  21.155  41.955  1.00  0.00     0.274 HD
ATOM     21  H11 UNL     1      49.377  20.841  40.908  1.00  0.00     0.274 HD
ENDBRANCH  17  18
ENDBRANCH  16  17
ENDBRANCH  15  16
ENDBRANCH   8  15
ENDBRANCH   5   8
ENDBRANCH   3   4
ENDBRANCH   2   3
ENDBRANCH   1   2
BRANCH   1  22
HETATM   22  C13 UNL     1      49.220  16.494  36.569  1.00  0.00     0.030 C 
BRANCH  22  23
HETATM   23  C14 UNL     1      48.691  15.371  35.724  1.00  0.00     0.272 C 
BRANCH  23  24
HETATM   24  N3  UNL     1      49.225  15.389  34.382  1.00  0.00     0.088 N 
HETATM   25  C15 UNL     1      49.206  14.095  33.767  1.00  0.00     0.274 C 
HETATM   26  C16 UNL     1      47.903  13.598  33.256  1.00  0.00     0.049 C 
HETATM   27  C17 UNL     1      48.053  12.130  32.821  1.00  0.00     0.115 C 
HETATM   28  N4  UNL     1      48.470  11.997  31.461  1.00  0.00    -0.421 N 
HETATM   29  C18 UNL     1      49.798  11.512  31.257  1.00  0.00     0.115 C 
ATOM     30  H4  UNL     1      47.856  12.235  30.681  1.00  0.00     0.153 HD
HETATM   31  C19 UNL     1      50.681  12.356  30.403  1.00  0.00     0.046 C 
HETATM   32  C20 UNL     1      50.253  12.526  28.987  1.00  0.00     0.234 C 
HETATM   33  N5  UNL     1      49.372  13.656  28.776  1.00  0.00    -0.074 N 
HETATM   34  C21 UNL     1      50.027  14.828  28.281  1.00  0.00     0.251 C 
ATOM     35  H52 UNL     1      48.597  13.395  28.165  1.00  0.00     0.277 HD
ATOM     36  H51 UNL     1      48.855  13.870  29.629  1.00  0.00     0.277 HD
HETATM   37  C22 UNL     1      50.194  15.912  29.337  1.00  0.00     0.141 C 
HETATM   38  N6  UNL     1      49.068  15.848  30.206  1.00  0.00    -0.420 N 
HETATM   39  C23 UNL     1      48.892  16.929  31.116  1.00  0.00     0.115 C 
ATOM     40  H6  UNL     1      48.417  15.064  30.178  1.00  0.00     0.153 HD
HETATM   41  C24 UNL     1      49.641  16.781  32.399  1.00  0.00     0.049 C 
HETATM   42  C25 UNL     1      48.670  16.416  33.534  1.00  0.00     0.274 C 
ENDBRANCH  23  24
ENDBRANCH  22  23
ENDBRANCH   1  22
TORSDOF 12
ENDMDL
MODEL 3
REMARK VINA RESULT: -7.705873853      1.642      2.272
REMARK  12 active torsions:
REMARK  status: ('A' for Active; 'I' for Inactive)
REMARK    1  A    between atoms: C4_5  and  C5_6 
REMARK    2  A    between atoms: C5_6  and  C6_7 
REMARK    3  A    between atoms: C5_6  and  C9_14 
REMARK    4  A    between atoms: C6_7  and  C7_8 
REMARK    5  A    between atoms: C7_8  and  C8_9 
REMARK    6  A    between atoms: C8_9  and  N1_10 
REMARK       I    between atoms: C9_14  and  N2_16 
REMARK    7  A    between atoms: N2_16  and  C10_18 
REMARK    8  A    between atoms: C10_18  and  C11_19 
REMARK    9  A    between atoms: C11_19  and  C12_20 
REMARK   10  A    between atoms: C12_20  and  C13_21 
REMARK   11  A    between atoms: C13_21  and  C14_22 
REMARK   12  A    between atoms: C14_22  and  N3_23 
ROOT
HETATM    1  C12 UNL     1      47.746  16.354  34.561  1.00  0.00     0.003 C 
ENDROOT
BRANCH   1   2
HETATM    2  C11 UNL     1      46.302  16.797  34.785  1.00  0.00     0.020 C 
BRANCH   2   3
HETATM    3  C10 UNL     1      46.035  16.981  36.262  1.00  0.00     0.122 C 
BRANCH   3   4
HETATM    4  N2  UNL     1      45.834  18.376  36.616  1.00  0.00    -0.360 N 
HETATM    5  C9  UNL     1      44.967  18.817  37.613  1.00  0.00     0.228 C 
HETATM    6  O2  UNL     1      44.324  17.907  38.227  1.00  0.00    -0.273 OA
ATOM      7  H2  UNL     1      46.364  19.079  36.099  1.00  0.00     0.162 HD
BRANCH   5   8
HETATM    8  C5  UNL     1      44.708  20.221  38.041  1.00  0.00     0.135 C 
BRANCH   8   9
HETATM    9  C4  UNL     1      44.728  20.993  36.715  1.00  0.00     0.066 A 
HETATM   10  O1  UNL     1      43.969  20.652  35.713  1.00  0.00    -0.326 OA
HETATM   11  C3  UNL     1      44.168  21.470  34.694  1.00  0.00     0.148 A 
HETATM   12  C2  UNL     1      45.109  22.378  35.081  1.00  0.00    -0.037 A 
HETATM   13  C1  UNL     1      45.637  23.483  34.257  1.00  0.00     0.050 C 
HETATM   14  C26 UNL     1      45.479  22.081  36.384  1.00  0.00     0.042 A 
ENDBRANCH   8   9
BRANCH   8  15
HETATM   15  C6  UNL     1      45.770  20.829  38.875  1.00  0.00     0.022 C 
BRANCH  15  16
HETATM   16  C7  UNL     1      45.937  20.369  40.273  1.00  0.00     0.028 C 
BRANCH  16  17
HETATM   17  C8  UNL     1      47.326  19.956  40.678  1.00  0.00     0.229 C 
BRANCH  17  18
HETATM   18  N1  UNL     1      48.262  20.982  40.920  1.00  0.00    -0.079 N 
ATOM     19  H13 UNL     1      48.173  21.698  40.198  1.00  0.00     0.274 HD
ATOM     20  H12 UNL     1      47.979  21.509  41.746  1.00  0.00     0.274 HD
ATOM     21  H11 UNL     1      49.242  20.711  41.010  1.00  0.00     0.274 HD
ENDBRANCH  17  18
ENDBRANCH  16  17
ENDBRANCH  15  16
ENDBRANCH   8  15
ENDBRANCH   5   8
ENDBRANCH   3   4
ENDBRANCH   2   3
ENDBRANCH   1   2
BRANCH   1  22
HETATM   22  C13 UNL     1      48.193  16.488  33.134  1.00  0.00     0.030 C 
BRANCH  22  23
HETATM   23  C14 UNL     1      48.769  15.213  32.586  1.00  0.00     0.272 C 
BRANCH  23  24
HETATM   24  N3  UNL     1      50.006  15.427  31.871  1.00  0.00     0.088 N 
HETATM   25  C15 UNL     1      50.042  14.729  30.620  1.00  0.00     0.274 C 
HETATM   26  C16 UNL     1      49.273  15.309  29.490  1.00  0.00     0.049 C 
HETATM   27  C17 UNL     1      49.277  14.321  28.310  1.00  0.00     0.115 C 
HETATM   28  N4  UNL     1      50.400  14.498  27.445  1.00  0.00    -0.421 N 
HETATM   29  C18 UNL     1      51.382  13.461  27.470  1.00  0.00     0.115 C 
ATOM     30  H4  UNL     1      50.496  15.318  26.844  1.00  0.00     0.153 HD
HETATM   31  C19 UNL     1      52.783  13.890  27.739  1.00  0.00     0.046 C 
HETATM   32  C20 UNL     1      53.396  14.794  26.726  1.00  0.00     0.234 C 
HETATM   33  N5  UNL     1      53.169  16.201  26.988  1.00  0.00    -0.074 N 
HETATM   34  C21 UNL     1      54.264  16.863  27.630  1.00  0.00     0.251 C 
ATOM     35  H52 UNL     1      52.913  16.686  26.128  1.00  0.00     0.277 HD
ATOM     36  H51 UNL     1      52.311  16.330  27.524  1.00  0.00     0.277 HD
HETATM   37  C22 UNL     1      54.006  17.156  29.101  1.00  0.00     0.141 C 
HETATM   38  N6  UNL     1      52.617  17.428  29.253  1.00  0.00    -0.420 N 
HETATM   39  C23 UNL     1      52.197  17.970  30.501  1.00  0.00     0.115 C 
ATOM     40  H6  UNL     1      51.952  17.242  28.502  1.00  0.00     0.153 HD
HETATM   41  C24 UNL     1      51.909  16.948  31.551  1.00  0.00     0.049 C 
HETATM   42  C25 UNL     1      50.391  16.812  31.747  1.00  0.00     0.274 C 
ENDBRANCH  23  24
ENDBRANCH  22  23
ENDBRANCH   1  22
TORSDOF 12
ENDMDL
MODEL 4
REMARK VINA RESULT: -7.692505868      1.348      2.847
REMARK  12 active torsions:
REMARK  status: ('A' for Active; 'I' for Inactive)
REMARK    1  A    between atoms: C4_5  and  C5_6 
REMARK    2  A    between atoms: C5_6  and  C6_7 
REMARK    3  A    between atoms: C5_6  and  C9_14 
REMARK    4  A    between atoms: C6_7  and  C7_8 
REMARK    5  A    between atoms: C7_8  and  C8_9 
REMARK    6  A    between atoms: C8_9  and  N1_10 
REMARK       I    between atoms: C9_14  and  N2_16 
REMARK    7  A    between atoms: N2_16  and  C10_18 
REMARK    8  A    between atoms: C10_18  and  C11_19 
REMARK    9  A    between atoms: C11_19  and  C12_20 
REMARK   10  A    between atoms: C12_20  and  C13_21 
REMARK   11  A    between atoms: C13_21  and  C14_22 
REMARK   12  A    between atoms: C14_22  and  N3_23 
ROOT
HETATM    1  C12 UNL     1      47.472  15.854  34.963  1.00  0.00     0.003 C 
ENDROOT
BRANCH   1   2
HETATM    2  C11 UNL     1      46.294  16.816  35.090  1.00  0.00     0.020 C 
BRANCH   2   3
HETATM    3  C10 UNL     1      45.940  17.019  36.546  1.00  0.00     0.122 C 
BRANCH   3   4
HETATM    4  N2  UNL     1      45.779  18.424  36.883  1.00  0.00    -0.360 N 
HETATM    5  C9  UNL     1      44.829  18.914  37.777  1.00  0.00     0.228 C 
HETATM    6  O2  UNL     1      44.070  18.042  38.308  1.00  0.00    -0.273 OA
ATOM      7  H2  UNL     1      46.402  19.095  36.435  1.00  0.00     0.162 HD
BRANCH   5   8
HETATM    8  C5  UNL     1      44.602  20.330  38.181  1.00  0.00     0.135 C 
BRANCH   8   9
HETATM    9  C4  UNL     1      44.638  21.079  36.842  1.00  0.00     0.066 A 
HETATM   10  O1  UNL     1      43.781  20.828  35.894  1.00  0.00    -0.326 OA
HETATM   11  C3  UNL     1      44.019  21.602  34.850  1.00  0.00     0.148 A 
HETATM   12  C2  UNL     1      45.090  22.385  35.162  1.00  0.00    -0.037 A 
HETATM   13  C1  UNL     1      45.703  23.404  34.286  1.00  0.00     0.050 C 
HETATM   14  C26 UNL     1      45.500  22.058  36.446  1.00  0.00     0.042 A 
ENDBRANCH   8   9
BRANCH   8  15
HETATM   15  C6  UNL     1      45.679  20.928  39.003  1.00  0.00     0.022 C 
BRANCH  15  16
HETATM   16  C7  UNL     1      45.958  20.361  40.343  1.00  0.00     0.028 C 
BRANCH  16  17
HETATM   17  C8  UNL     1      47.381  19.946  40.607  1.00  0.00     0.229 C 
BRANCH  17  18
HETATM   18  N1  UNL     1      48.300  20.962  40.939  1.00  0.00    -0.079 N 
ATOM     19  H13 UNL     1      47.905  21.549  41.673  1.00  0.00     0.274 HD
ATOM     20  H12 UNL     1      49.094  20.552  41.431  1.00  0.00     0.274 HD
ATOM     21  H11 UNL     1      48.640  21.552  40.179  1.00  0.00     0.274 HD
ENDBRANCH  17  18
ENDBRANCH  16  17
ENDBRANCH  15  16
ENDBRANCH   8  15
ENDBRANCH   5   8
ENDBRANCH   3   4
ENDBRANCH   2   3
ENDBRANCH   1   2
BRANCH   1  22
HETATM   22  C13 UNL     1      47.922  15.651  33.545  1.00  0.00     0.030 C 
BRANCH  22  23
HETATM   23  C14 UNL     1      48.308  16.937  32.871  1.00  0.00     0.272 C 
BRANCH  23  24
HETATM   24  N3  UNL     1      49.031  16.721  31.639  1.00  0.00     0.088 N 
HETATM   25  C15 UNL     1      50.405  17.113  31.734  1.00  0.00     0.274 C 
HETATM   26  C16 UNL     1      51.331  16.200  32.453  1.00  0.00     0.049 C 
HETATM   27  C17 UNL     1      52.698  16.887  32.617  1.00  0.00     0.115 C 
HETATM   28  N4  UNL     1      53.568  16.657  31.506  1.00  0.00    -0.421 N 
HETATM   29  C18 UNL     1      53.833  17.786  30.673  1.00  0.00     0.115 C 
ATOM     30  H4  UNL     1      53.976  15.741  31.320  1.00  0.00     0.153 HD
HETATM   31  C19 UNL     1      53.559  17.608  29.219  1.00  0.00     0.046 C 
HETATM   32  C20 UNL     1      54.381  16.579  28.521  1.00  0.00     0.234 C 
HETATM   33  N5  UNL     1      53.800  15.252  28.549  1.00  0.00    -0.074 N 
HETATM   34  C21 UNL     1      53.094  14.895  27.357  1.00  0.00     0.251 C 
ATOM     35  H52 UNL     1      54.514  14.556  28.764  1.00  0.00     0.277 HD
ATOM     36  H51 UNL     1      53.199  15.143  29.366  1.00  0.00     0.277 HD
HETATM   37  C22 UNL     1      51.581  14.915  27.528  1.00  0.00     0.141 C 
HETATM   38  N6  UNL     1      51.290  14.515  28.863  1.00  0.00    -0.420 N 
HETATM   39  C23 UNL     1      49.930  14.223  29.168  1.00  0.00     0.115 C 
ATOM     40  H6  UNL     1      52.022  14.441  29.569  1.00  0.00     0.153 HD
HETATM   41  C24 UNL     1      49.118  15.414  29.559  1.00  0.00     0.049 C 
HETATM   42  C25 UNL     1      48.867  15.403  31.075  1.00  0.00     0.274 C 
ENDBRANCH  23  24
ENDBRANCH  22  23
ENDBRANCH   1  22
TORSDOF 12
ENDMDL
MODEL 5
REMARK VINA RESULT: -7.680175796      2.227      3.151
REMARK  12 active torsions:
REMARK  status: ('A' for Active; 'I' for Inactive)
REMARK    1  A    between atoms: C4_5  and  C5_6 
REMARK    2  A    between atoms: C5_6  and  C6_7 
REMARK    3  A    between atoms: C5_6  and  C9_14 
REMARK    4  A    between atoms: C6_7  and  C7_8 
REMARK    5  A    between atoms: C7_8  and  C8_9 
REMARK    6  A    between atoms: C8_9  and  N1_10 
REMARK       I    between atoms: C9_14  and  N2_16 
REMARK    7  A    between atoms: N2_16  and  C10_18 
REMARK    8  A    between atoms: C10_18  and  C11_19 
REMARK    9  A    between atoms: C11_19  and  C12_20 
REMARK   10  A    between atoms: C12_20  and  C13_21 
REMARK   11  A    between atoms: C13_21  and  C14_22 
REMARK   12  A    between atoms: C14_22  and  N3_23 
ROOT
HETATM    1  C12 UNL     1      47.287  15.811  35.117  1.00  0.00     0.003 C 
ENDROOT
BRANCH   1   2
HETATM    2  C11 UNL     1      46.150  16.821  35.252  1.00  0.00     0.020 C 
BRANCH   2   3
HETATM    3  C10 UNL     1      45.827  17.053  36.711  1.00  0.00     0.122 C 
BRANCH   3   4
HETATM    4  N2  UNL     1      45.733  18.466  37.036  1.00  0.00    -0.360 N 
HETATM    5  C9  UNL     1      44.756  19.020  37.860  1.00  0.00     0.228 C 
HETATM    6  O2  UNL     1      43.906  18.201  38.336  1.00  0.00    -0.273 OA
ATOM      7  H2  UNL     1      46.429  19.095  36.634  1.00  0.00     0.162 HD
BRANCH   5   8
HETATM    8  C5  UNL     1      44.593  20.450  38.248  1.00  0.00     0.135 C 
BRANCH   8   9
HETATM    9  C4  UNL     1      44.700  21.184  36.905  1.00  0.00     0.066 A 
HETATM   10  O1  UNL     1      43.875  20.945  35.926  1.00  0.00    -0.326 OA
HETATM   11  C3  UNL     1      44.175  21.702  34.885  1.00  0.00     0.148 A 
HETATM   12  C2  UNL     1      45.252  22.461  35.232  1.00  0.00    -0.037 A 
HETATM   13  C1  UNL     1      45.925  23.455  34.373  1.00  0.00     0.050 C 
HETATM   14  C26 UNL     1      45.603  22.137  36.534  1.00  0.00     0.042 A 
ENDBRANCH   8   9
BRANCH   8  15
HETATM   15  C6  UNL     1      45.678  20.999  39.093  1.00  0.00     0.022 C 
BRANCH  15  16
HETATM   16  C7  UNL     1      46.014  20.316  40.363  1.00  0.00     0.028 C 
BRANCH  16  17
HETATM   17  C8  UNL     1      47.455  19.920  40.546  1.00  0.00     0.229 C 
BRANCH  17  18
HETATM   18  N1  UNL     1      48.350  20.919  40.977  1.00  0.00    -0.079 N 
ATOM     19  H13 UNL     1      47.880  21.824  40.963  1.00  0.00     0.274 HD
ATOM     20  H12 UNL     1      48.523  20.811  41.976  1.00  0.00     0.274 HD
ATOM     21  H11 UNL     1      49.241  20.993  40.485  1.00  0.00     0.274 HD
ENDBRANCH  17  18
ENDBRANCH  16  17
ENDBRANCH  15  16
ENDBRANCH   8  15
ENDBRANCH   5   8
ENDBRANCH   3   4
ENDBRANCH   2   3
ENDBRANCH   1   2
BRANCH   1  22
HETATM   22  C13 UNL     1      48.581  16.430  34.674  1.00  0.00     0.030 C 
BRANCH  22  23
HETATM   23  C14 UNL     1      49.690  15.425  34.550  1.00  0.00     0.272 C 
BRANCH  23  24
HETATM   24  N3  UNL     1      50.077  15.194  33.177  1.00  0.00     0.088 N 
HETATM   25  C15 UNL     1      49.795  13.858  32.746  1.00  0.00     0.274 C 
HETATM   26  C16 UNL     1      48.385  13.527  32.418  1.00  0.00     0.049 C 
HETATM   27  C17 UNL     1      48.260  12.013  32.173  1.00  0.00     0.115 C 
HETATM   28  N4  UNL     1      48.508  11.652  30.812  1.00  0.00    -0.421 N 
HETATM   29  C18 UNL     1      49.717  10.932  30.564  1.00  0.00     0.115 C 
ATOM     30  H4  UNL     1      47.860  11.893  30.062  1.00  0.00     0.153 HD
HETATM   31  C19 UNL     1      50.625  11.510  29.534  1.00  0.00     0.046 C 
HETATM   32  C20 UNL     1      50.082  11.579  28.149  1.00  0.00     0.234 C 
HETATM   33  N5  UNL     1      49.368  12.807  27.863  1.00  0.00    -0.074 N 
HETATM   34  C21 UNL     1      50.141  13.786  27.162  1.00  0.00     0.251 C 
ATOM     35  H52 UNL     1      48.503  12.607  27.360  1.00  0.00     0.277 HD
ATOM     36  H51 UNL     1      48.983  13.204  28.720  1.00  0.00     0.277 HD
HETATM   37  C22 UNL     1      50.582  14.945  28.044  1.00  0.00     0.141 C 
HETATM   38  N6  UNL     1      49.557  15.173  29.006  1.00  0.00    -0.420 N 
HETATM   39  C23 UNL     1      49.645  16.369  29.774  1.00  0.00     0.115 C 
ATOM     40  H6  UNL     1      48.793  14.510  29.139  1.00  0.00     0.153 HD
HETATM   41  C24 UNL     1      50.493  16.252  30.998  1.00  0.00     0.049 C 
HETATM   42  C25 UNL     1      49.601  16.191  32.249  1.00  0.00     0.274 C 
ENDBRANCH  23  24
ENDBRANCH  22  23
ENDBRANCH   1  22
TORSDOF 12
ENDMDL
