MODEL 1
REMARK VINA RESULT: -7.691506165      0.000      0.000
REMARK  13 active torsions:
REMARK  status: ('A' for Active; 'I' for Inactive)
REMARK    1  A    between atoms: O1_2  and  N1_3 
REMARK    2  A    between atoms: C4_6  and  N2_7 
REMARK    3  A    between atoms: C9_17  and  N5_18 
REMARK    4  A    between atoms: N5_18  and  C10_20 
REMARK    5  A    between atoms: C10_20  and  C11_21 
REMARK    6  A    between atoms: C11_21  and  C12_22 
REMARK    7  A    between atoms: C12_22  and  C13_23 
REMARK    8  A    between atoms: C13_23  and  C14_24 
REMARK    9  A    between atoms: C14_24  and  C15_25 
REMARK   10  A    between atoms: C15_25  and  C16_26 
REMARK   11  A    between atoms: C16_26  and  N6_27 
REMARK   12  A    between atoms: N6_27  and  C17_29 
REMARK   13  A    between atoms: C23_37  and  N8_38 
ROOT
HETATM    1  N2  UNL     1      47.903  15.622  35.301  1.00  0.00    -0.350 N 
HETATM    2  C5  UNL     1      47.861  14.170  35.299  1.00  0.00     0.228 C 
HETATM    3  C6  UNL     1      48.354  13.720  36.651  1.00  0.00     0.240 C 
HETATM    4  O2  UNL     1      49.256  12.846  36.766  1.00  0.00    -0.271 OA
HETATM    5  N3  UNL     1      47.770  14.312  37.782  1.00  0.00    -0.320 N 
ATOM      6  H3  UNL     1      47.738  13.811  38.669  1.00  0.00     0.169 HD
HETATM    7  C7  UNL     1      47.222  15.623  37.675  1.00  0.00     0.124 A 
HETATM    8  C8  UNL     1      47.302  16.246  36.437  1.00  0.00     0.150 A 
HETATM    9  N4  UNL     1      46.773  17.490  36.365  1.00  0.00    -0.174 N 
ATOM     10  H4  UNL     1      46.807  17.990  35.476  1.00  0.00     0.186 HD
HETATM   11  C9  UNL     1      46.205  18.089  37.428  1.00  0.00     0.681 A 
HETATM   12  N7  UNL     1      46.136  17.465  38.631  1.00  0.00    -0.175 N 
ATOM     13  H7  UNL     1      45.700  17.935  39.425  1.00  0.00     0.186 HD
HETATM   14  C23 UNL     1      46.640  16.230  38.777  1.00  0.00     0.145 A 
ENDROOT
BRANCH  11  15
HETATM   15  N5  UNL     1      45.703  19.272  37.361  1.00  0.00    -0.226 N 
ATOM     16  H5  UNL     1      45.579  19.712  36.448  1.00  0.00     0.177 HD
BRANCH  15  17
HETATM   17  C10 UNL     1      45.314  19.985  38.540  1.00  0.00     0.138 C 
BRANCH  17  18
HETATM   18  C11 UNL     1      46.081  21.267  38.725  1.00  0.00     0.020 C 
BRANCH  18  19
HETATM   19  C12 UNL     1      47.557  21.082  38.834  1.00  0.00     0.002 C 
BRANCH  19  20
HETATM   20  C13 UNL     1      48.349  21.657  37.698  1.00  0.00     0.000 C 
BRANCH  20  21
HETATM   21  C14 UNL     1      47.729  22.991  37.336  1.00  0.00     0.002 C 
BRANCH  21  22
HETATM   22  C15 UNL     1      47.535  23.154  35.863  1.00  0.00     0.019 C 
BRANCH  22  23
HETATM   23  C16 UNL     1      46.091  22.880  35.473  1.00  0.00     0.114 C 
BRANCH  23  24
HETATM   24  N6  UNL     1      46.077  22.434  34.114  1.00  0.00    -0.417 N 
ATOM     25  H6  UNL     1      46.456  21.529  33.834  1.00  0.00     0.153 HD
BRANCH  24  26
HETATM   26  C17 UNL     1      45.495  23.341  33.179  1.00  0.00     0.076 C 
HETATM   27  C18 UNL     1      44.950  24.605  33.757  1.00  0.00     0.024 C 
HETATM   28  C19 UNL     1      45.480  25.830  33.008  1.00  0.00     0.002 C 
HETATM   29  C20 UNL     1      45.208  25.713  31.521  1.00  0.00     0.000 C 
HETATM   30  C21 UNL     1      45.537  24.358  30.969  1.00  0.00     0.002 C 
HETATM   31  C22 UNL     1      46.409  23.652  32.013  1.00  0.00     0.024 C 
ENDBRANCH  24  26
ENDBRANCH  23  24
ENDBRANCH  22  23
ENDBRANCH  21  22
ENDBRANCH  20  21
ENDBRANCH  19  20
ENDBRANCH  18  19
ENDBRANCH  17  18
ENDBRANCH  15  17
ENDBRANCH  11  15
BRANCH  14  32
HETATM   32  N8  UNL     1      46.601  15.589  39.897  1.00  0.00    -0.383 N 
ATOM     33  H82 UNL     1      47.361  14.987  40.213  1.00  0.00     0.157 HD
ATOM     34  H81 UNL     1      45.780  15.685  40.494  1.00  0.00     0.157 HD
ENDBRANCH  14  32
BRANCH   1  35
HETATM   35  C4  UNL     1      48.481  16.420  34.276  1.00  0.00     0.103 C 
HETATM   36  C3  UNL     1      47.516  16.782  33.173  1.00  0.00     0.043 C 
HETATM   37  C2  UNL     1      48.511  17.054  32.035  1.00  0.00     0.122 C 
HETATM   38  N1  UNL     1      49.274  15.823  32.095  1.00  0.00    -0.196 NA
HETATM   39  C24 UNL     1      49.572  15.707  33.503  1.00  0.00     0.145 C 
BRANCH  38  40
HETATM   40  O1  UNL     1      48.517  14.846  31.603  1.00  0.00    -0.308 OA
HETATM   41  C1  UNL     1      49.091  13.585  31.721  1.00  0.00     0.229 C 
ENDBRANCH  38  40
ENDBRANCH   1  35
TORSDOF 13
ENDMDL
MODEL 2
REMARK VINA RESULT: -7.600920032      0.985      1.317
REMARK  13 active torsions:
REMARK  status: ('A' for Active; 'I' for Inactive)
REMARK    1  A    between atoms: O1_2  and  N1_3 
REMARK    2  A    between atoms: C4_6  and  N2_7 
REMARK    3  A    between atoms: C9_17  and  N5_18 
REMARK    4  A    between atoms: N5_18  and  C10_20 
REMARK    5  A    between atoms: C10_20  and  C11_21 
REMARK    6  A    between atoms: C11_21  and  C12_22 
REMARK    7  A    between atoms: C12_22  and  C13_23 
REMARK    8  A    between atoms: C13_23  and  C14_24 
REMARK    9  A    between atoms: C14_24  and  C15_25 
REMARK   10  A    between atoms: C15_25  and  C16_26 
REMARK   11  A    between atoms: C16_26  and  N6_27 
REMARK   12  A    between atoms: N6_27  and  C17_29 
REMARK   13  A    between atoms: C23_37  and  N8_38 
ROOT
HETATM    1  N2  UNL     1      48.250  15.526  34.518  1.00  0.00    -0.350 N 
HETATM    2  C5  UNL     1      47.969  14.133  34.217  1.00  0.00     0.228 C 
HETATM    3  C6  UNL     1      48.451  13.329  35.398  1.00  0.00     0.240 C 
HETATM    4  O2  UNL     1      49.202  12.326  35.251  1.00  0.00    -0.271 OA
HETATM    5  N3  UNL     1      48.032  13.740  36.674  1.00  0.00    -0.320 N 
ATOM      6  H3  UNL     1      47.965  13.067  37.437  1.00  0.00     0.169 HD
HETATM    7  C7  UNL     1      47.703  15.109  36.889  1.00  0.00     0.124 A 
HETATM    8  C8  UNL     1      47.820  15.969  35.805  1.00  0.00     0.150 A 
HETATM    9  N4  UNL     1      47.500  17.263  36.039  1.00  0.00    -0.174 N 
ATOM     10  H4  UNL     1      47.569  17.935  35.275  1.00  0.00     0.186 HD
HETATM   11  C9  UNL     1      47.094  17.692  37.249  1.00  0.00     0.681 A 
HETATM   12  N7  UNL     1      46.986  16.839  38.298  1.00  0.00    -0.175 N 
ATOM     13  H7  UNL     1      46.676  17.183  39.206  1.00  0.00     0.186 HD
HETATM   14  C23 UNL     1      47.287  15.540  38.139  1.00  0.00     0.145 A 
ENDROOT
BRANCH  11  15
HETATM   15  N5  UNL     1      46.791  18.924  37.473  1.00  0.00    -0.226 N 
ATOM     16  H5  UNL     1      47.171  19.650  36.865  1.00  0.00     0.177 HD
BRANCH  15  17
HETATM   17  C10 UNL     1      45.932  19.294  38.556  1.00  0.00     0.138 C 
BRANCH  17  18
HETATM   18  C11 UNL     1      46.226  20.672  39.087  1.00  0.00     0.020 C 
BRANCH  18  19
HETATM   19  C12 UNL     1      47.630  21.123  38.862  1.00  0.00     0.002 C 
BRANCH  19  20
HETATM   20  C13 UNL     1      47.767  22.542  38.396  1.00  0.00     0.000 C 
BRANCH  20  21
HETATM   21  C14 UNL     1      48.253  22.508  36.961  1.00  0.00     0.002 C 
BRANCH  21  22
HETATM   22  C15 UNL     1      47.354  23.258  36.033  1.00  0.00     0.019 C 
BRANCH  22  23
HETATM   23  C16 UNL     1      46.039  22.520  35.838  1.00  0.00     0.114 C 
BRANCH  23  24
HETATM   24  N6  UNL     1      45.801  22.403  34.433  1.00  0.00    -0.417 N 
ATOM     25  H6  UNL     1      45.546  21.517  33.995  1.00  0.00     0.153 HD
BRANCH  24  26
HETATM   26  C17 UNL     1      45.944  23.610  33.685  1.00  0.00     0.076 C 
HETATM   27  C18 UNL     1      46.510  23.455  32.312  1.00  0.00     0.024 C 
HETATM   28  C19 UNL     1      45.638  24.160  31.270  1.00  0.00     0.002 C 
HETATM   29  C20 UNL     1      45.418  25.613  31.643  1.00  0.00     0.000 C 
HETATM   30  C21 UNL     1      45.073  25.802  33.090  1.00  0.00     0.002 C 
HETATM   31  C22 UNL     1      44.671  24.427  33.634  1.00  0.00     0.024 C 
ENDBRANCH  24  26
ENDBRANCH  23  24
ENDBRANCH  22  23
ENDBRANCH  21  22
ENDBRANCH  20  21
ENDBRANCH  19  20
ENDBRANCH  18  19
ENDBRANCH  17  18
ENDBRANCH  15  17
ENDBRANCH  11  15
BRANCH  14  32
HETATM   32  N8  UNL     1      47.201  14.682  39.100  1.00  0.00    -0.383 N 
ATOM     33  H82 UNL     1      47.205  13.675  38.942  1.00  0.00     0.157 HD
ATOM     34  H81 UNL     1      47.129  15.020  40.060  1.00  0.00     0.157 HD
ENDBRANCH  14  32
BRANCH   1  35
HETATM   35  C4  UNL     1      48.897  16.433  33.634  1.00  0.00     0.103 C 
HETATM   36  C3  UNL     1      48.037  16.864  32.471  1.00  0.00     0.043 C 
HETATM   37  C2  UNL     1      49.133  17.272  31.474  1.00  0.00     0.122 C 
HETATM   38  N1  UNL     1      49.937  16.067  31.507  1.00  0.00    -0.196 NA
HETATM   39  C24 UNL     1      50.092  15.831  32.924  1.00  0.00     0.145 C 
BRANCH  38  40
HETATM   40  O1  UNL     1      49.277  15.115  30.852  1.00  0.00    -0.308 OA
HETATM   41  C1  UNL     1      49.467  15.156  29.474  1.00  0.00     0.229 C 
ENDBRANCH  38  40
ENDBRANCH   1  35
TORSDOF 13
ENDMDL
MODEL 3
REMARK VINA RESULT: -7.341974351      3.141      4.716
REMARK  13 active torsions:
REMARK  status: ('A' for Active; 'I' for Inactive)
REMARK    1  A    between atoms: O1_2  and  N1_3 
REMARK    2  A    between atoms: C4_6  and  N2_7 
REMARK    3  A    between atoms: C9_17  and  N5_18 
REMARK    4  A    between atoms: N5_18  and  C10_20 
REMARK    5  A    between atoms: C10_20  and  C11_21 
REMARK    6  A    between atoms: C11_21  and  C12_22 
REMARK    7  A    between atoms: C12_22  and  C13_23 
REMARK    8  A    between atoms: C13_23  and  C14_24 
REMARK    9  A    between atoms: C14_24  and  C15_25 
REMARK   10  A    between atoms: C15_25  and  C16_26 
REMARK   11  A    between atoms: C16_26  and  N6_27 
REMARK   12  A    between atoms: N6_27  and  C17_29 
REMARK   13  A    between atoms: C23_37  and  N8_38 
ROOT
HETATM    1  N2  UNL     1      49.950  18.321  38.289  1.00  0.00    -0.350 N 
HETATM    2  C5  UNL     1      51.047  17.393  38.077  1.00  0.00     0.228 C 
HETATM    3  C6  UNL     1      50.699  16.133  38.829  1.00  0.00     0.240 C 
HETATM    4  O2  UNL     1      51.517  15.593  39.623  1.00  0.00    -0.271 OA
HETATM    5  N3  UNL     1      49.426  15.581  38.613  1.00  0.00    -0.320 N 
ATOM      6  H3  UNL     1      49.268  14.582  38.740  1.00  0.00     0.169 HD
HETATM    7  C7  UNL     1      48.358  16.436  38.213  1.00  0.00     0.124 A 
HETATM    8  C8  UNL     1      48.646  17.785  38.061  1.00  0.00     0.150 A 
HETATM    9  N4  UNL     1      47.612  18.572  37.680  1.00  0.00    -0.174 N 
ATOM     10  H4  UNL     1      47.773  19.572  37.554  1.00  0.00     0.186 HD
HETATM   11  C9  UNL     1      46.379  18.078  37.464  1.00  0.00     0.681 A 
HETATM   12  N7  UNL     1      46.115  16.756  37.617  1.00  0.00    -0.175 N 
ATOM     13  H7  UNL     1      45.174  16.400  37.447  1.00  0.00     0.186 HD
HETATM   14  C23 UNL     1      47.092  15.915  37.993  1.00  0.00     0.145 A 
ENDROOT
BRANCH  11  15
HETATM   15  N5  UNL     1      45.395  18.825  37.103  1.00  0.00    -0.226 N 
ATOM     16  H5  UNL     1      45.197  18.945  36.109  1.00  0.00     0.177 HD
BRANCH  15  17
HETATM   17  C10 UNL     1      44.573  19.491  38.066  1.00  0.00     0.138 C 
BRANCH  17  18
HETATM   18  C11 UNL     1      44.826  20.974  38.122  1.00  0.00     0.020 C 
BRANCH  18  19
HETATM   19  C12 UNL     1      45.898  21.373  39.080  1.00  0.00     0.002 C 
BRANCH  19  20
HETATM   20  C13 UNL     1      47.103  22.005  38.448  1.00  0.00     0.000 C 
BRANCH  20  21
HETATM   21  C14 UNL     1      46.805  22.185  36.973  1.00  0.00     0.002 C 
BRANCH  21  22
HETATM   22  C15 UNL     1      47.645  23.248  36.343  1.00  0.00     0.019 C 
BRANCH  22  23
HETATM   23  C16 UNL     1      47.259  23.452  34.887  1.00  0.00     0.114 C 
BRANCH  23  24
HETATM   24  N6  UNL     1      45.837  23.585  34.820  1.00  0.00    -0.417 N 
ATOM     25  H6  UNL     1      45.235  23.416  35.626  1.00  0.00     0.153 HD
BRANCH  24  26
HETATM   26  C17 UNL     1      45.318  23.971  33.548  1.00  0.00     0.076 C 
HETATM   27  C18 UNL     1      44.513  25.228  33.533  1.00  0.00     0.024 C 
HETATM   28  C19 UNL     1      45.000  26.185  32.442  1.00  0.00     0.002 C 
HETATM   29  C20 UNL     1      45.020  25.498  31.090  1.00  0.00     0.000 C 
HETATM   30  C21 UNL     1      45.622  24.125  31.139  1.00  0.00     0.002 C 
HETATM   31  C22 UNL     1      46.377  24.017  32.468  1.00  0.00     0.024 C 
ENDBRANCH  24  26
ENDBRANCH  23  24
ENDBRANCH  22  23
ENDBRANCH  21  22
ENDBRANCH  20  21
ENDBRANCH  19  20
ENDBRANCH  18  19
ENDBRANCH  17  18
ENDBRANCH  15  17
ENDBRANCH  11  15
BRANCH  14  32
HETATM   32  N8  UNL     1      46.899  14.649  38.154  1.00  0.00    -0.383 N 
ATOM     33  H82 UNL     1      46.251  14.275  38.846  1.00  0.00     0.157 HD
ATOM     34  H81 UNL     1      47.411  13.992  37.567  1.00  0.00     0.157 HD
ENDBRANCH  14  32
BRANCH   1  35
HETATM   35  C4  UNL     1      50.099  19.678  38.688  1.00  0.00     0.103 C 
HETATM   36  C3  UNL     1      51.527  20.166  38.655  1.00  0.00     0.043 C 
HETATM   37  C2  UNL     1      51.429  21.326  39.658  1.00  0.00     0.122 C 
HETATM   38  N1  UNL     1      50.820  20.623  40.768  1.00  0.00    -0.196 NA
HETATM   39  C24 UNL     1      49.726  19.923  40.136  1.00  0.00     0.145 C 
BRANCH  38  40
HETATM   40  O1  UNL     1      51.745  19.836  41.312  1.00  0.00    -0.308 OA
HETATM   41  C1  UNL     1      51.550  19.607  42.671  1.00  0.00     0.229 C 
ENDBRANCH  38  40
ENDBRANCH   1  35
TORSDOF 13
ENDMDL
MODEL 4
REMARK VINA RESULT: -7.318027795      4.406      5.973
REMARK  13 active torsions:
REMARK  status: ('A' for Active; 'I' for Inactive)
REMARK    1  A    between atoms: O1_2  and  N1_3 
REMARK    2  A    between atoms: C4_6  and  N2_7 
REMARK    3  A    between atoms: C9_17  and  N5_18 
REMARK    4  A    between atoms: N5_18  and  C10_20 
REMARK    5  A    between atoms: C10_20  and  C11_21 
REMARK    6  A    between atoms: C11_21  and  C12_22 
REMARK    7  A    between atoms: C12_22  and  C13_23 
REMARK    8  A    between atoms: C13_23  and  C14_24 
REMARK    9  A    between atoms: C14_24  and  C15_25 
REMARK   10  A    between atoms: C15_25  and  C16_26 
REMARK   11  A    between atoms: C16_26  and  N6_27 
REMARK   12  A    between atoms: N6_27  and  C17_29 
REMARK   13  A    between atoms: C23_37  and  N8_38 
ROOT
HETATM    1  N2  UNL     1      48.850  19.220  39.961  1.00  0.00    -0.350 N 
HETATM    2  C5  UNL     1      50.125  19.558  40.571  1.00  0.00     0.228 C 
HETATM    3  C6  UNL     1      50.851  20.446  39.592  1.00  0.00     0.240 C 
HETATM    4  O2  UNL     1      52.042  20.213  39.249  1.00  0.00    -0.271 OA
HETATM    5  N3  UNL     1      50.150  21.547  39.074  1.00  0.00    -0.320 N 
ATOM      6  H3  UNL     1      50.651  22.376  38.758  1.00  0.00     0.169 HD
HETATM    7  C7  UNL     1      48.728  21.489  38.993  1.00  0.00     0.124 A 
HETATM    8  C8  UNL     1      48.113  20.327  39.440  1.00  0.00     0.150 A 
HETATM    9  N4  UNL     1      46.763  20.301  39.351  1.00  0.00    -0.174 N 
ATOM     10  H4  UNL     1      46.263  19.469  39.667  1.00  0.00     0.186 HD
HETATM   11  C9  UNL     1      46.058  21.337  38.861  1.00  0.00     0.681 A 
HETATM   12  N7  UNL     1      46.675  22.466  38.429  1.00  0.00    -0.175 N 
ATOM     13  H7  UNL     1      46.123  23.241  38.061  1.00  0.00     0.186 HD
HETATM   14  C23 UNL     1      48.013  22.563  38.486  1.00  0.00     0.145 A 
ENDROOT
BRANCH  11  15
HETATM   15  N5  UNL     1      44.773  21.313  38.776  1.00  0.00    -0.226 N 
ATOM     16  H5  UNL     1      44.222  21.954  39.348  1.00  0.00     0.177 HD
BRANCH  15  17
HETATM   17  C10 UNL     1      44.102  20.407  37.895  1.00  0.00     0.138 C 
BRANCH  17  18
HETATM   18  C11 UNL     1      44.528  20.567  36.460  1.00  0.00     0.020 C 
BRANCH  18  19
HETATM   19  C12 UNL     1      44.246  21.916  35.889  1.00  0.00     0.002 C 
BRANCH  19  20
HETATM   20  C13 UNL     1      44.192  21.966  34.391  1.00  0.00     0.000 C 
BRANCH  20  21
HETATM   21  C14 UNL     1      45.580  22.316  33.893  1.00  0.00     0.002 C 
BRANCH  21  22
HETATM   22  C15 UNL     1      46.278  23.295  34.780  1.00  0.00     0.019 C 
BRANCH  22  23
HETATM   23  C16 UNL     1      46.709  24.524  33.997  1.00  0.00     0.114 C 
BRANCH  23  24
HETATM   24  N6  UNL     1      45.558  25.348  33.797  1.00  0.00    -0.417 N 
ATOM     25  H6  UNL     1      44.927  25.599  34.560  1.00  0.00     0.153 HD
BRANCH  24  26
HETATM   26  C17 UNL     1      45.351  25.796  32.458  1.00  0.00     0.076 C 
HETATM   27  C18 UNL     1      45.946  24.938  31.391  1.00  0.00     0.024 C 
HETATM   28  C19 UNL     1      44.914  24.598  30.313  1.00  0.00     0.002 C 
HETATM   29  C20 UNL     1      44.281  25.857  29.754  1.00  0.00     0.000 C 
HETATM   30  C21 UNL     1      43.887  26.838  30.818  1.00  0.00     0.002 C 
HETATM   31  C22 UNL     1      43.896  26.078  32.149  1.00  0.00     0.024 C 
ENDBRANCH  24  26
ENDBRANCH  23  24
ENDBRANCH  22  23
ENDBRANCH  21  22
ENDBRANCH  20  21
ENDBRANCH  19  20
ENDBRANCH  18  19
ENDBRANCH  17  18
ENDBRANCH  15  17
ENDBRANCH  11  15
BRANCH  14  32
HETATM   32  N8  UNL     1      48.653  23.611  38.091  1.00  0.00    -0.383 N 
ATOM     33  H82 UNL     1      49.449  23.563  37.455  1.00  0.00     0.157 HD
ATOM     34  H81 UNL     1      48.355  24.528  38.422  1.00  0.00     0.157 HD
ENDBRANCH  14  32
BRANCH   1  35
HETATM   35  C4  UNL     1      48.318  17.905  39.866  1.00  0.00     0.103 C 
HETATM   36  C3  UNL     1      47.304  17.582  40.936  1.00  0.00     0.043 C 
HETATM   37  C2  UNL     1      47.410  16.049  40.941  1.00  0.00     0.122 C 
HETATM   38  N1  UNL     1      48.845  15.916  41.093  1.00  0.00    -0.196 NA
HETATM   39  C24 UNL     1      49.353  16.821  40.089  1.00  0.00     0.145 C 
BRANCH  38  40
HETATM   40  O1  UNL     1      49.156  16.241  42.346  1.00  0.00    -0.308 OA
HETATM   41  C1  UNL     1      50.525  16.362  42.564  1.00  0.00     0.229 C 
ENDBRANCH  38  40
ENDBRANCH   1  35
TORSDOF 13
ENDMDL
MODEL 5
REMARK VINA RESULT: -7.186549340      1.670      2.548
REMARK  13 active torsions:
REMARK  status: ('A' for Active; 'I' for Inactive)
REMARK    1  A    between atoms: O1_2  and  N1_3 
REMARK    2  A    between atoms: C4_6  and  N2_7 
REMARK    3  A    between atoms: C9_17  and  N5_18 
REMARK    4  A    between atoms: N5_18  and  C10_20 
REMARK    5  A    between atoms: C10_20  and  C11_21 
REMARK    6  A    between atoms: C11_21  and  C12_22 
REMARK    7  A    between atoms: C12_22  and  C13_23 
REMARK    8  A    between atoms: C13_23  and  C14_24 
REMARK    9  A    between atoms: C14_24  and  C15_25 
REMARK   10  A    between atoms: C15_25  and  C16_26 
REMARK   11  A    between atoms: C16_26  and  N6_27 
REMARK   12  A    between atoms: N6_27  and  C17_29 
REMARK   13  A    between atoms: C23_37  and  N8_38 
ROOT
HETATM    1  N2  UNL     1      48.265  16.242  35.318  1.00  0.00    -0.350 N 
HETATM    2  C5  UNL     1      47.476  16.610  34.155  1.00  0.00     0.228 C 
HETATM    3  C6  UNL     1      46.027  16.485  34.557  1.00  0.00     0.240 C 
HETATM    4  O2  UNL     1      45.202  15.840  33.854  1.00  0.00    -0.271 OA
HETATM    5  N3  UNL     1      45.630  17.116  35.747  1.00  0.00    -0.320 N 
ATOM      6  H3  UNL     1      44.665  17.420  35.872  1.00  0.00     0.169 HD
HETATM    7  C7  UNL     1      46.592  17.324  36.777  1.00  0.00     0.124 A 
HETATM    8  C8  UNL     1      47.886  16.883  36.537  1.00  0.00     0.150 A 
HETATM    9  N4  UNL     1      48.778  17.094  37.533  1.00  0.00    -0.174 N 
ATOM     10  H4  UNL     1      49.743  16.788  37.406  1.00  0.00     0.186 HD
HETATM   11  C9  UNL     1      48.433  17.696  38.687  1.00  0.00     0.681 A 
HETATM   12  N7  UNL     1      47.163  18.122  38.905  1.00  0.00    -0.175 N 
ATOM     13  H7  UNL     1      46.921  18.576  39.785  1.00  0.00     0.186 HD
HETATM   14  C23 UNL     1      46.224  17.945  37.961  1.00  0.00     0.145 A 
ENDROOT
BRANCH  11  15
HETATM   15  N5  UNL     1      49.280  17.897  39.635  1.00  0.00    -0.226 N 
ATOM     16  H5  UNL     1      49.762  17.100  40.052  1.00  0.00     0.177 HD
BRANCH  15  17
HETATM   17  C10 UNL     1      49.560  19.215  40.117  1.00  0.00     0.138 C 
BRANCH  17  18
HETATM   18  C11 UNL     1      50.025  20.146  39.029  1.00  0.00     0.020 C 
BRANCH  18  19
HETATM   19  C12 UNL     1      49.180  21.365  38.870  1.00  0.00     0.002 C 
BRANCH  19  20
HETATM   20  C13 UNL     1      48.360  21.403  37.614  1.00  0.00     0.000 C 
BRANCH  20  21
HETATM   21  C14 UNL     1      47.778  22.796  37.489  1.00  0.00     0.002 C 
BRANCH  21  22
HETATM   22  C15 UNL     1      47.565  23.203  36.067  1.00  0.00     0.019 C 
BRANCH  22  23
HETATM   23  C16 UNL     1      46.130  22.944  35.638  1.00  0.00     0.114 C 
BRANCH  23  24
HETATM   24  N6  UNL     1      46.153  22.427  34.305  1.00  0.00    -0.417 N 
ATOM     25  H6  UNL     1      46.570  21.524  34.077  1.00  0.00     0.153 HD
BRANCH  24  26
HETATM   26  C17 UNL     1      45.552  23.261  33.315  1.00  0.00     0.076 C 
HETATM   27  C18 UNL     1      44.899  24.503  33.826  1.00  0.00     0.024 C 
HETATM   28  C19 UNL     1      45.376  25.737  33.056  1.00  0.00     0.002 C 
HETATM   29  C20 UNL     1      45.177  25.554  31.564  1.00  0.00     0.000 C 
HETATM   30  C21 UNL     1      45.620  24.207  31.074  1.00  0.00     0.002 C 
HETATM   31  C22 UNL     1      46.492  23.597  32.177  1.00  0.00     0.024 C 
ENDBRANCH  24  26
ENDBRANCH  23  24
ENDBRANCH  22  23
ENDBRANCH  21  22
ENDBRANCH  20  21
ENDBRANCH  19  20
ENDBRANCH  18  19
ENDBRANCH  17  18
ENDBRANCH  15  17
ENDBRANCH  11  15
BRANCH  14  32
HETATM   32  N8  UNL     1      45.002  18.330  38.113  1.00  0.00    -0.383 N 
ATOM     33  H82 UNL     1      44.207  17.709  37.965  1.00  0.00     0.157 HD
ATOM     34  H81 UNL     1      44.817  19.292  38.394  1.00  0.00     0.157 HD
ENDBRANCH  14  32
BRANCH   1  35
HETATM   35  C4  UNL     1      49.350  15.323  35.306  1.00  0.00     0.103 C 
HETATM   36  C3  UNL     1      50.585  15.852  34.619  1.00  0.00     0.043 C 
HETATM   37  C2  UNL     1      51.263  14.525  34.244  1.00  0.00     0.122 C 
HETATM   38  N1  UNL     1      50.154  13.881  33.570  1.00  0.00    -0.196 NA
HETATM   39  C24 UNL     1      49.067  14.070  34.502  1.00  0.00     0.145 C 
BRANCH  38  40
HETATM   40  O1  UNL     1      49.988  14.475  32.391  1.00  0.00    -0.308 OA
HETATM   41  C1  UNL     1      48.778  14.165  31.778  1.00  0.00     0.229 C 
ENDBRANCH  38  40
ENDBRANCH   1  35
TORSDOF 13
ENDMDL
