MODEL 1
REMARK VINA RESULT: -7.430739249      0.000      0.000
REMARK  16 active torsions:
REMARK  status: ('A' for Active; 'I' for Inactive)
REMARK    1  A    between atoms: C2_2  and  C3_3 
REMARK    2  A    between atoms: C7_7  and  N1_8 
REMARK    3  A    between atoms: N1_8  and  C8_10 
REMARK    4  A    between atoms: C9_13  and  N3_14 
REMARK    5  A    between atoms: N3_14  and  C10_16 
REMARK    6  A    between atoms: C10_16  and  C11_17 
REMARK    7  A    between atoms: C11_17  and  C12_18 
REMARK    8  A    between atoms: C12_18  and  C13_19 
REMARK    9  A    between atoms: C13_19  and  C14_20 
REMARK   10  A    between atoms: C14_20  and  N4_21 
REMARK   11  A    between atoms: C17_29  and  C18_30 
REMARK   12  A    between atoms: C18_30  and  C19_31 
REMARK       I    between atoms: C19_31  and  N6_33 
REMARK   13  A    between atoms: N6_33  and  C20_35 
REMARK   14  A    between atoms: C20_35  and  C21_36 
REMARK   15  A    between atoms: C21_36  and  C22_37 
REMARK   16  A    between atoms: C22_37  and  N7_38 
ROOT
HETATM    1  C8  UNL     1      47.931  21.699  38.804  1.00  0.00     0.685 A 
HETATM    2  N2  UNL     1      46.658  21.338  39.030  1.00  0.00    -0.174 N 
ATOM      3  H2  UNL     1      46.436  20.894  39.920  1.00  0.00     0.186 HD
HETATM    4  C9  UNL     1      45.674  21.524  38.164  1.00  0.00     0.146 A 
HETATM    5  C15 UNL     1      45.976  22.132  36.947  1.00  0.00     0.104 A 
HETATM    6  N5  UNL     1      44.994  22.340  36.032  1.00  0.00    -0.361 N 
ATOM      7  H5  UNL     1      44.041  22.046  36.248  1.00  0.00     0.165 HD
HETATM    8  C16 UNL     1      45.248  22.922  34.853  1.00  0.00     0.096 A 
HETATM    9  C17 UNL     1      46.560  23.317  34.572  1.00  0.00    -0.032 A 
HETATM   10  C23 UNL     1      47.571  23.110  35.496  1.00  0.00     0.041 A 
HETATM   11  C24 UNL     1      47.280  22.504  36.714  1.00  0.00     0.080 A 
HETATM   12  N8  UNL     1      48.236  22.281  37.647  1.00  0.00    -0.189 N 
ATOM     13  H8  UNL     1      49.198  22.562  37.461  1.00  0.00     0.184 HD
ENDROOT
BRANCH   9  14
HETATM   14  C18 UNL     1      46.870  23.960  33.281  1.00  0.00     0.142 C 
BRANCH  14  15
HETATM   15  C19 UNL     1      45.604  24.430  32.664  1.00  0.00     0.221 C 
HETATM   16  O1  UNL     1      44.996  23.643  31.894  1.00  0.00    -0.273 OA
HETATM   17  N6  UNL     1      45.071  25.714  32.909  1.00  0.00    -0.361 N 
ATOM     18  H6  UNL     1      45.577  26.340  33.535  1.00  0.00     0.162 HD
BRANCH  17  19
HETATM   19  C20 UNL     1      43.855  26.176  32.317  1.00  0.00     0.124 C 
BRANCH  19  20
HETATM   20  C21 UNL     1      44.039  26.892  31.019  1.00  0.00     0.047 C 
BRANCH  20  21
HETATM   21  C22 UNL     1      42.819  26.703  30.118  1.00  0.00     0.231 C 
BRANCH  21  22
HETATM   22  N7  UNL     1      41.614  26.946  30.866  1.00  0.00    -0.079 N 
ATOM     23  H73 UNL     1      41.810  27.269  31.814  1.00  0.00     0.274 HD
ATOM     24  H72 UNL     1      41.114  27.769  30.530  1.00  0.00     0.274 HD
ATOM     25  H71 UNL     1      41.026  26.112  30.860  1.00  0.00     0.274 HD
ENDBRANCH  21  22
ENDBRANCH  20  21
ENDBRANCH  19  20
ENDBRANCH  17  19
ENDBRANCH  14  15
ENDBRANCH   9  14
BRANCH   4  26
HETATM   26  N3  UNL     1      44.462  21.184  38.357  1.00  0.00    -0.374 N 
ATOM     27  H3  UNL     1      43.729  21.878  38.210  1.00  0.00     0.161 HD
BRANCH  26  28
HETATM   28  C10 UNL     1      44.087  19.865  38.774  1.00  0.00     0.121 C 
BRANCH  28  29
HETATM   29  C11 UNL     1      44.608  18.750  37.941  1.00  0.00     0.020 C 
BRANCH  29  30
HETATM   30  C12 UNL     1      45.729  17.950  38.475  1.00  0.00     0.003 C 
BRANCH  30  31
HETATM   31  C13 UNL     1      46.992  17.901  37.698  1.00  0.00     0.027 C 
BRANCH  31  32
HETATM   32  C14 UNL     1      46.866  16.672  36.766  1.00  0.00     0.229 C 
BRANCH  32  33
HETATM   33  N4  UNL     1      46.534  17.081  35.433  1.00  0.00    -0.079 N 
ATOM     34  H43 UNL     1      46.332  16.282  34.832  1.00  0.00     0.274 HD
ATOM     35  H42 UNL     1      45.623  17.537  35.393  1.00  0.00     0.274 HD
ATOM     36  H41 UNL     1      47.270  17.670  35.044  1.00  0.00     0.274 HD
ENDBRANCH  32  33
ENDBRANCH  31  32
ENDBRANCH  30  31
ENDBRANCH  29  30
ENDBRANCH  28  29
ENDBRANCH  26  28
ENDBRANCH   4  26
BRANCH   1  37
HETATM   37  N1  UNL     1      48.815  21.488  39.685  1.00  0.00    -0.185 N 
ATOM     38  H1  UNL     1      48.829  22.123  40.483  1.00  0.00     0.185 HD
BRANCH  37  39
HETATM   39  C7  UNL     1      49.790  20.454  39.675  1.00  0.00     0.096 A 
HETATM   40  C5  UNL     1      49.771  19.204  40.226  1.00  0.00    -0.027 A 
HETATM   41  C4  UNL     1      50.864  18.435  40.044  1.00  0.00     0.024 A 
HETATM   42  C6  UNL     1      48.542  18.752  41.000  1.00  0.00     0.051 C 
HETATM   43  C3  UNL     1      51.896  18.975  39.324  1.00  0.00    -0.015 A 
HETATM   44  S1  UNL     1      51.315  20.525  38.926  1.00  0.00    -0.076 SA
BRANCH  43  45
HETATM   45  C2  UNL     1      53.216  18.336  38.977  1.00  0.00     0.041 C 
HETATM   46  C1  UNL     1      53.350  18.339  37.491  1.00  0.00     0.010 C 
ENDBRANCH  43  45
ENDBRANCH  37  39
ENDBRANCH   1  37
TORSDOF 16
ENDMDL
MODEL 2
REMARK VINA RESULT: -7.406852563      1.092      1.776
REMARK  16 active torsions:
REMARK  status: ('A' for Active; 'I' for Inactive)
REMARK    1  A    between atoms: C2_2  and  C3_3 
REMARK    2  A    between atoms: C7_7  and  N1_8 
REMARK    3  A    between atoms: N1_8  and  C8_10 
REMARK    4  A    between atoms: C9_13  and  N3_14 
REMARK    5  A    between atoms: N3_14  and  C10_16 
REMARK    6  A    between atoms: C10_16  and  C11_17 
REMARK    7  A    between atoms: C11_17  and  C12_18 
REMARK    8  A    between atoms: C12_18  and  C13_19 
REMARK    9  A    between atoms: C13_19  and  C14_20 
REMARK   10  A    between atoms: C14_20  and  N4_21 
REMARK   11  A    between atoms: C17_29  and  C18_30 
REMARK   12  A    between atoms: C18_30  and  C19_31 
REMARK       I    between atoms: C19_31  and  N6_33 
REMARK   13  A    between atoms: N6_33  and  C20_35 
REMARK   14  A    between atoms: C20_35  and  C21_36 
REMARK   15  A    between atoms: C21_36  and  C22_37 
REMARK   16  A    between atoms: C22_37  and  N7_38 
ROOT
HETATM    1  C8  UNL     1      47.856  21.771  38.751  1.00  0.00     0.685 A 
HETATM    2  N2  UNL     1      46.592  21.363  38.949  1.00  0.00    -0.174 N 
ATOM      3  H2  UNL     1      46.366  20.919  39.838  1.00  0.00     0.186 HD
HETATM    4  C9  UNL     1      45.623  21.504  38.058  1.00  0.00     0.146 A 
HETATM    5  C15 UNL     1      45.931  22.112  36.842  1.00  0.00     0.104 A 
HETATM    6  N5  UNL     1      44.965  22.274  35.903  1.00  0.00    -0.361 N 
ATOM      7  H5  UNL     1      44.019  21.945  36.099  1.00  0.00     0.165 HD
HETATM    8  C16 UNL     1      45.225  22.854  34.724  1.00  0.00     0.096 A 
HETATM    9  C17 UNL     1      46.528  23.297  34.471  1.00  0.00    -0.032 A 
HETATM   10  C23 UNL     1      47.523  23.137  35.421  1.00  0.00     0.041 A 
HETATM   11  C24 UNL     1      47.226  22.531  36.637  1.00  0.00     0.080 A 
HETATM   12  N8  UNL     1      48.166  22.354  37.595  1.00  0.00    -0.189 N 
ATOM     13  H8  UNL     1      49.122  22.670  37.430  1.00  0.00     0.184 HD
ENDROOT
BRANCH   9  14
HETATM   14  C18 UNL     1      46.844  23.940  33.182  1.00  0.00     0.142 C 
BRANCH  14  15
HETATM   15  C19 UNL     1      45.583  24.419  32.562  1.00  0.00     0.221 C 
HETATM   16  O1  UNL     1      45.007  23.664  31.738  1.00  0.00    -0.273 OA
HETATM   17  N6  UNL     1      45.020  25.678  32.865  1.00  0.00    -0.361 N 
ATOM     18  H6  UNL     1      45.500  26.277  33.535  1.00  0.00     0.162 HD
BRANCH  17  19
HETATM   19  C20 UNL     1      43.807  26.149  32.273  1.00  0.00     0.124 C 
BRANCH  19  20
HETATM   20  C21 UNL     1      44.001  26.894  30.992  1.00  0.00     0.047 C 
BRANCH  20  21
HETATM   21  C22 UNL     1      42.778  26.743  30.087  1.00  0.00     0.231 C 
BRANCH  21  22
HETATM   22  N7  UNL     1      41.576  26.981  30.842  1.00  0.00    -0.079 N 
ATOM     23  H73 UNL     1      41.471  26.322  31.613  1.00  0.00     0.274 HD
ATOM     24  H72 UNL     1      41.632  27.841  31.388  1.00  0.00     0.274 HD
ATOM     25  H71 UNL     1      40.768  26.975  30.220  1.00  0.00     0.274 HD
ENDBRANCH  21  22
ENDBRANCH  20  21
ENDBRANCH  19  20
ENDBRANCH  17  19
ENDBRANCH  14  15
ENDBRANCH   9  14
BRANCH   4  26
HETATM   26  N3  UNL     1      44.421  21.119  38.225  1.00  0.00    -0.374 N 
ATOM     27  H3  UNL     1      43.668  21.790  38.078  1.00  0.00     0.161 HD
BRANCH  26  28
HETATM   28  C10 UNL     1      44.086  19.781  38.612  1.00  0.00     0.121 C 
BRANCH  28  29
HETATM   29  C11 UNL     1      44.792  18.697  37.880  1.00  0.00     0.020 C 
BRANCH  29  30
HETATM   30  C12 UNL     1      45.771  17.881  38.625  1.00  0.00     0.003 C 
BRANCH  30  31
HETATM   31  C13 UNL     1      46.626  16.938  37.864  1.00  0.00     0.027 C 
BRANCH  31  32
HETATM   32  C14 UNL     1      46.023  16.876  36.441  1.00  0.00     0.229 C 
BRANCH  32  33
HETATM   33  N4  UNL     1      47.042  17.063  35.450  1.00  0.00    -0.079 N 
ATOM     34  H43 UNL     1      46.853  17.873  34.860  1.00  0.00     0.274 HD
ATOM     35  H42 UNL     1      47.919  17.377  35.866  1.00  0.00     0.274 HD
ATOM     36  H41 UNL     1      47.168  16.214  34.899  1.00  0.00     0.274 HD
ENDBRANCH  32  33
ENDBRANCH  31  32
ENDBRANCH  30  31
ENDBRANCH  29  30
ENDBRANCH  28  29
ENDBRANCH  26  28
ENDBRANCH   4  26
BRANCH   1  37
HETATM   37  N1  UNL     1      48.726  21.601  39.655  1.00  0.00    -0.185 N 
ATOM     38  H1  UNL     1      49.023  22.432  40.166  1.00  0.00     0.185 HD
BRANCH  37  39
HETATM   39  C7  UNL     1      49.330  20.371  40.028  1.00  0.00     0.096 A 
HETATM   40  C5  UNL     1      50.584  19.883  39.789  1.00  0.00    -0.027 A 
HETATM   41  C4  UNL     1      50.872  18.661  40.281  1.00  0.00     0.024 A 
HETATM   42  C6  UNL     1      51.569  20.727  38.997  1.00  0.00     0.051 C 
HETATM   43  C3  UNL     1      49.883  18.017  40.976  1.00  0.00    -0.015 A 
HETATM   44  S1  UNL     1      48.592  19.127  40.923  1.00  0.00    -0.076 SA
BRANCH  43  45
HETATM   45  C2  UNL     1      49.942  16.658  41.625  1.00  0.00     0.041 C 
HETATM   46  C1  UNL     1      48.586  16.043  41.524  1.00  0.00     0.010 C 
ENDBRANCH  43  45
ENDBRANCH  37  39
ENDBRANCH   1  37
TORSDOF 16
ENDMDL
MODEL 3
REMARK VINA RESULT: -7.323583145      3.965      8.694
REMARK  16 active torsions:
REMARK  status: ('A' for Active; 'I' for Inactive)
REMARK    1  A    between atoms: C2_2  and  C3_3 
REMARK    2  A    between atoms: C7_7  and  N1_8 
REMARK    3  A    between atoms: N1_8  and  C8_10 
REMARK    4  A    between atoms: C9_13  and  N3_14 
REMARK    5  A    between atoms: N3_14  and  C10_16 
REMARK    6  A    between atoms: C10_16  and  C11_17 
REMARK    7  A    between atoms: C11_17  and  C12_18 
REMARK    8  A    between atoms: C12_18  and  C13_19 
REMARK    9  A    between atoms: C13_19  and  C14_20 
REMARK   10  A    between atoms: C14_20  and  N4_21 
REMARK   11  A    between atoms: C17_29  and  C18_30 
REMARK   12  A    between atoms: C18_30  and  C19_31 
REMARK       I    between atoms: C19_31  and  N6_33 
REMARK   13  A    between atoms: N6_33  and  C20_35 
REMARK   14  A    between atoms: C20_35  and  C21_36 
REMARK   15  A    between atoms: C21_36  and  C22_37 
REMARK   16  A    between atoms: C22_37  and  N7_38 
ROOT
HETATM    1  C8  UNL     1      45.632  19.737  37.698  1.00  0.00     0.685 A 
HETATM    2  N2  UNL     1      45.471  18.844  36.709  1.00  0.00    -0.174 N 
ATOM      3  H2  UNL     1      45.045  19.163  35.840  1.00  0.00     0.186 HD
HETATM    4  C9  UNL     1      45.834  17.574  36.796  1.00  0.00     0.146 A 
HETATM    5  C15 UNL     1      46.418  17.137  37.984  1.00  0.00     0.104 A 
HETATM    6  N5  UNL     1      46.803  15.842  38.112  1.00  0.00    -0.361 N 
ATOM      7  H5  UNL     1      46.659  15.199  37.333  1.00  0.00     0.165 HD
HETATM    8  C16 UNL     1      47.368  15.388  39.239  1.00  0.00     0.096 A 
HETATM    9  C17 UNL     1      47.557  16.282  40.298  1.00  0.00    -0.032 A 
HETATM   10  C23 UNL     1      47.168  17.606  40.180  1.00  0.00     0.041 A 
HETATM   11  C24 UNL     1      46.584  18.052  38.999  1.00  0.00     0.080 A 
HETATM   12  N8  UNL     1      46.188  19.337  38.839  1.00  0.00    -0.189 N 
ATOM     13  H8  UNL     1      46.317  20.004  39.599  1.00  0.00     0.184 HD
ENDROOT
BRANCH   9  14
HETATM   14  C18 UNL     1      48.177  15.811  41.551  1.00  0.00     0.142 C 
BRANCH  14  15
HETATM   15  C19 UNL     1      49.480  16.500  41.730  1.00  0.00     0.221 C 
HETATM   16  O1  UNL     1      50.525  15.875  41.417  1.00  0.00    -0.273 OA
HETATM   17  N6  UNL     1      49.580  17.815  42.234  1.00  0.00    -0.361 N 
ATOM     18  H6  UNL     1      48.723  18.308  42.483  1.00  0.00     0.162 HD
BRANCH  17  19
HETATM   19  C20 UNL     1      50.829  18.486  42.412  1.00  0.00     0.124 C 
BRANCH  19  20
HETATM   20  C21 UNL     1      50.829  19.910  41.959  1.00  0.00     0.047 C 
BRANCH  20  21
HETATM   21  C22 UNL     1      49.902  20.096  40.758  1.00  0.00     0.231 C 
BRANCH  21  22
HETATM   22  N7  UNL     1      48.790  20.935  41.121  1.00  0.00    -0.079 N 
ATOM     23  H73 UNL     1      48.070  20.950  40.399  1.00  0.00     0.274 HD
ATOM     24  H72 UNL     1      48.236  20.530  41.876  1.00  0.00     0.274 HD
ATOM     25  H71 UNL     1      49.122  21.872  41.350  1.00  0.00     0.274 HD
ENDBRANCH  21  22
ENDBRANCH  20  21
ENDBRANCH  19  20
ENDBRANCH  17  19
ENDBRANCH  14  15
ENDBRANCH   9  14
BRANCH   4  26
HETATM   26  N3  UNL     1      45.686  16.711  35.872  1.00  0.00    -0.374 N 
ATOM     27  H3  UNL     1      45.030  15.944  36.019  1.00  0.00     0.161 HD
BRANCH  26  28
HETATM   28  C10 UNL     1      46.404  16.775  34.633  1.00  0.00     0.121 C 
BRANCH  28  29
HETATM   29  C11 UNL     1      47.778  16.211  34.650  1.00  0.00     0.020 C 
BRANCH  29  30
HETATM   30  C12 UNL     1      48.675  16.536  33.523  1.00  0.00     0.003 C 
BRANCH  30  31
HETATM   31  C13 UNL     1      48.067  16.859  32.209  1.00  0.00     0.027 C 
BRANCH  31  32
HETATM   32  C14 UNL     1      49.247  17.213  31.273  1.00  0.00     0.229 C 
BRANCH  32  33
HETATM   33  N4  UNL     1      48.776  17.872  30.091  1.00  0.00    -0.079 N 
ATOM     34  H43 UNL     1      47.767  17.771  29.978  1.00  0.00     0.274 HD
ATOM     35  H42 UNL     1      48.819  18.887  30.181  1.00  0.00     0.274 HD
ATOM     36  H41 UNL     1      49.283  17.543  29.269  1.00  0.00     0.274 HD
ENDBRANCH  32  33
ENDBRANCH  31  32
ENDBRANCH  30  31
ENDBRANCH  29  30
ENDBRANCH  28  29
ENDBRANCH  26  28
ENDBRANCH   4  26
BRANCH   1  37
HETATM   37  N1  UNL     1      45.259  20.937  37.536  1.00  0.00    -0.185 N 
ATOM     38  H1  UNL     1      44.480  21.256  38.111  1.00  0.00     0.185 HD
BRANCH  37  39
HETATM   39  C7  UNL     1      45.817  21.882  36.633  1.00  0.00     0.096 A 
HETATM   40  C5  UNL     1      46.997  22.569  36.678  1.00  0.00    -0.027 A 
HETATM   41  C4  UNL     1      47.257  23.412  35.657  1.00  0.00     0.024 A 
HETATM   42  C6  UNL     1      47.939  22.352  37.851  1.00  0.00     0.051 C 
HETATM   43  C3  UNL     1      46.315  23.504  34.667  1.00  0.00    -0.015 A 
HETATM   44  S1  UNL     1      45.106  22.423  35.186  1.00  0.00    -0.076 SA
BRANCH  43  45
HETATM   45  C2  UNL     1      46.356  24.360  33.427  1.00  0.00     0.041 C 
HETATM   46  C1  UNL     1      46.559  23.458  32.255  1.00  0.00     0.010 C 
ENDBRANCH  43  45
ENDBRANCH  37  39
ENDBRANCH   1  37
TORSDOF 16
ENDMDL
MODEL 4
REMARK VINA RESULT: -7.207235315      2.901      5.582
REMARK  16 active torsions:
REMARK  status: ('A' for Active; 'I' for Inactive)
REMARK    1  A    between atoms: C2_2  and  C3_3 
REMARK    2  A    between atoms: C7_7  and  N1_8 
REMARK    3  A    between atoms: N1_8  and  C8_10 
REMARK    4  A    between atoms: C9_13  and  N3_14 
REMARK    5  A    between atoms: N3_14  and  C10_16 
REMARK    6  A    between atoms: C10_16  and  C11_17 
REMARK    7  A    between atoms: C11_17  and  C12_18 
REMARK    8  A    between atoms: C12_18  and  C13_19 
REMARK    9  A    between atoms: C13_19  and  C14_20 
REMARK   10  A    between atoms: C14_20  and  N4_21 
REMARK   11  A    between atoms: C17_29  and  C18_30 
REMARK   12  A    between atoms: C18_30  and  C19_31 
REMARK       I    between atoms: C19_31  and  N6_33 
REMARK   13  A    between atoms: N6_33  and  C20_35 
REMARK   14  A    between atoms: C20_35  and  C21_36 
REMARK   15  A    between atoms: C21_36  and  C22_37 
REMARK   16  A    between atoms: C22_37  and  N7_38 
ROOT
HETATM    1  C8  UNL     1      47.492  16.764  37.542  1.00  0.00     0.685 A 
HETATM    2  N2  UNL     1      47.917  16.863  38.811  1.00  0.00    -0.174 N 
ATOM      3  H2  UNL     1      48.559  16.151  39.158  1.00  0.00     0.186 HD
HETATM    4  C9  UNL     1      47.553  17.832  39.637  1.00  0.00     0.146 A 
HETATM    5  C15 UNL     1      46.677  18.806  39.162  1.00  0.00     0.104 A 
HETATM    6  N5  UNL     1      46.280  19.815  39.980  1.00  0.00    -0.361 N 
ATOM      7  H5  UNL     1      46.629  19.847  40.938  1.00  0.00     0.165 HD
HETATM    8  C16 UNL     1      45.440  20.769  39.557  1.00  0.00     0.096 A 
HETATM    9  C17 UNL     1      44.969  20.707  38.241  1.00  0.00    -0.032 A 
HETATM   10  C23 UNL     1      45.366  19.683  37.397  1.00  0.00     0.041 A 
HETATM   11  C24 UNL     1      46.240  18.706  37.861  1.00  0.00     0.080 A 
HETATM   12  N8  UNL     1      46.655  17.686  37.073  1.00  0.00    -0.189 N 
ATOM     13  H8  UNL     1      46.323  17.625  36.110  1.00  0.00     0.184 HD
ENDROOT
BRANCH   9  14
HETATM   14  C18 UNL     1      44.043  21.744  37.747  1.00  0.00     0.142 C 
BRANCH  14  15
HETATM   15  C19 UNL     1      44.323  21.992  36.310  1.00  0.00     0.221 C 
HETATM   16  O1  UNL     1      43.513  21.537  35.464  1.00  0.00    -0.273 OA
HETATM   17  N6  UNL     1      45.457  22.712  35.872  1.00  0.00    -0.361 N 
ATOM     18  H6  UNL     1      46.104  23.074  36.572  1.00  0.00     0.162 HD
BRANCH  17  19
HETATM   19  C20 UNL     1      45.737  22.955  34.492  1.00  0.00     0.124 C 
BRANCH  19  20
HETATM   20  C21 UNL     1      46.440  24.247  34.229  1.00  0.00     0.047 C 
BRANCH  20  21
HETATM   21  C22 UNL     1      45.595  25.150  33.330  1.00  0.00     0.231 C 
BRANCH  21  22
HETATM   22  N7  UNL     1      44.222  25.125  33.761  1.00  0.00    -0.079 N 
ATOM     23  H73 UNL     1      43.914  24.184  34.005  1.00  0.00     0.274 HD
ATOM     24  H72 UNL     1      44.100  25.563  34.675  1.00  0.00     0.274 HD
ATOM     25  H71 UNL     1      43.626  25.550  33.051  1.00  0.00     0.274 HD
ENDBRANCH  21  22
ENDBRANCH  20  21
ENDBRANCH  19  20
ENDBRANCH  17  19
ENDBRANCH  14  15
ENDBRANCH   9  14
BRANCH   4  26
HETATM   26  N3  UNL     1      47.942  17.940  40.844  1.00  0.00    -0.374 N 
ATOM     27  H3  UNL     1      47.270  17.771  41.592  1.00  0.00     0.161 HD
BRANCH  26  28
HETATM   28  C10 UNL     1      49.287  18.290  41.194  1.00  0.00     0.121 C 
BRANCH  28  29
HETATM   29  C11 UNL     1      49.637  19.729  41.067  1.00  0.00     0.020 C 
BRANCH  29  30
HETATM   30  C12 UNL     1      50.572  20.123  39.993  1.00  0.00     0.003 C 
BRANCH  30  31
HETATM   31  C13 UNL     1      50.041  20.271  38.616  1.00  0.00     0.027 C 
BRANCH  31  32
HETATM   32  C14 UNL     1      49.124  21.516  38.649  1.00  0.00     0.229 C 
BRANCH  32  33
HETATM   33  N4  UNL     1      48.431  21.667  37.403  1.00  0.00    -0.079 N 
ATOM     34  H43 UNL     1      48.893  22.340  36.792  1.00  0.00     0.274 HD
ATOM     35  H42 UNL     1      48.524  20.838  36.816  1.00  0.00     0.274 HD
ATOM     36  H41 UNL     1      47.453  21.910  37.562  1.00  0.00     0.274 HD
ENDBRANCH  32  33
ENDBRANCH  31  32
ENDBRANCH  30  31
ENDBRANCH  29  30
ENDBRANCH  28  29
ENDBRANCH  26  28
ENDBRANCH   4  26
BRANCH   1  37
HETATM   37  N1  UNL     1      47.888  15.807  36.813  1.00  0.00    -0.185 N 
ATOM     38  H1  UNL     1      47.810  14.869  37.207  1.00  0.00     0.185 HD
BRANCH  37  39
HETATM   39  C7  UNL     1      48.431  15.907  35.504  1.00  0.00     0.096 A 
HETATM   40  C5  UNL     1      49.715  16.114  35.084  1.00  0.00    -0.027 A 
HETATM   41  C4  UNL     1      49.925  16.161  33.752  1.00  0.00     0.024 A 
HETATM   42  C6  UNL     1      50.817  16.276  36.117  1.00  0.00     0.051 C 
HETATM   43  C3  UNL     1      48.835  15.998  32.940  1.00  0.00    -0.015 A 
HETATM   44  S1  UNL     1      47.560  15.786  34.049  1.00  0.00    -0.076 SA
BRANCH  43  45
HETATM   45  C2  UNL     1      48.793  16.007  31.433  1.00  0.00     0.041 C 
HETATM   46  C1  UNL     1      48.842  17.428  30.982  1.00  0.00     0.010 C 
ENDBRANCH  43  45
ENDBRANCH  37  39
ENDBRANCH   1  37
TORSDOF 16
ENDMDL
MODEL 5
REMARK VINA RESULT: -7.202974063      4.646      9.690
REMARK  16 active torsions:
REMARK  status: ('A' for Active; 'I' for Inactive)
REMARK    1  A    between atoms: C2_2  and  C3_3 
REMARK    2  A    between atoms: C7_7  and  N1_8 
REMARK    3  A    between atoms: N1_8  and  C8_10 
REMARK    4  A    between atoms: C9_13  and  N3_14 
REMARK    5  A    between atoms: N3_14  and  C10_16 
REMARK    6  A    between atoms: C10_16  and  C11_17 
REMARK    7  A    between atoms: C11_17  and  C12_18 
REMARK    8  A    between atoms: C12_18  and  C13_19 
REMARK    9  A    between atoms: C13_19  and  C14_20 
REMARK   10  A    between atoms: C14_20  and  N4_21 
REMARK   11  A    between atoms: C17_29  and  C18_30 
REMARK   12  A    between atoms: C18_30  and  C19_31 
REMARK       I    between atoms: C19_31  and  N6_33 
REMARK   13  A    between atoms: N6_33  and  C20_35 
REMARK   14  A    between atoms: C20_35  and  C21_36 
REMARK   15  A    between atoms: C21_36  and  C22_37 
REMARK   16  A    between atoms: C22_37  and  N7_38 
ROOT
HETATM    1  C8  UNL     1      45.843  19.515  38.027  1.00  0.00     0.685 A 
HETATM    2  N2  UNL     1      45.601  18.744  36.955  1.00  0.00    -0.174 N 
ATOM      3  H2  UNL     1      45.192  19.183  36.131  1.00  0.00     0.186 HD
HETATM    4  C9  UNL     1      45.862  17.447  36.906  1.00  0.00     0.146 A 
HETATM    5  C15 UNL     1      46.422  16.845  38.032  1.00  0.00     0.104 A 
HETATM    6  N5  UNL     1      46.703  15.517  38.020  1.00  0.00    -0.361 N 
ATOM      7  H5  UNL     1      46.500  14.972  37.182  1.00  0.00     0.165 HD
HETATM    8  C16 UNL     1      47.242  14.907  39.084  1.00  0.00     0.096 A 
HETATM    9  C17 UNL     1      47.512  15.670  40.225  1.00  0.00    -0.032 A 
HETATM   10  C23 UNL     1      47.229  17.025  40.250  1.00  0.00     0.041 A 
HETATM   11  C24 UNL     1      46.671  17.634  39.131  1.00  0.00     0.080 A 
HETATM   12  N8  UNL     1      46.377  18.956  39.110  1.00  0.00    -0.189 N 
ATOM     13  H8  UNL     1      46.568  19.529  39.932  1.00  0.00     0.184 HD
ENDROOT
BRANCH   9  14
HETATM   14  C18 UNL     1      48.105  15.025  41.412  1.00  0.00     0.142 C 
BRANCH  14  15
HETATM   15  C19 UNL     1      47.015  14.634  42.341  1.00  0.00     0.221 C 
HETATM   16  O1  UNL     1      46.825  15.346  43.359  1.00  0.00    -0.273 OA
HETATM   17  N6  UNL     1      46.198  13.504  42.119  1.00  0.00    -0.361 N 
ATOM     18  H6  UNL     1      46.366  12.937  41.289  1.00  0.00     0.162 HD
BRANCH  17  19
HETATM   19  C20 UNL     1      45.147  13.119  43.008  1.00  0.00     0.124 C 
BRANCH  19  20
HETATM   20  C21 UNL     1      43.874  12.741  42.322  1.00  0.00     0.047 C 
BRANCH  20  21
HETATM   21  C22 UNL     1      43.927  11.290  41.844  1.00  0.00     0.231 C 
BRANCH  21  22
HETATM   22  N7  UNL     1      44.060  11.250  40.412  1.00  0.00    -0.079 N 
ATOM     23  H73 UNL     1      43.999  12.179  39.995  1.00  0.00     0.274 HD
ATOM     24  H72 UNL     1      45.011  11.020  40.122  1.00  0.00     0.274 HD
ATOM     25  H71 UNL     1      43.374  10.607  40.016  1.00  0.00     0.274 HD
ENDBRANCH  21  22
ENDBRANCH  20  21
ENDBRANCH  19  20
ENDBRANCH  17  19
ENDBRANCH  14  15
ENDBRANCH   9  14
BRANCH   4  26
HETATM   26  N3  UNL     1      45.636  16.698  35.901  1.00  0.00    -0.374 N 
ATOM     27  H3  UNL     1      44.903  15.993  35.972  1.00  0.00     0.161 HD
BRANCH  26  28
HETATM   28  C10 UNL     1      46.370  16.808  34.675  1.00  0.00     0.121 C 
BRANCH  28  29
HETATM   29  C11 UNL     1      47.712  16.171  34.664  1.00  0.00     0.020 C 
BRANCH  29  30
HETATM   30  C12 UNL     1      48.624  16.495  33.548  1.00  0.00     0.003 C 
BRANCH  30  31
HETATM   31  C13 UNL     1      48.036  16.974  32.274  1.00  0.00     0.027 C 
BRANCH  31  32
HETATM   32  C14 UNL     1      49.232  17.222  31.324  1.00  0.00     0.229 C 
BRANCH  32  33
HETATM   33  N4  UNL     1      48.785  17.789  30.086  1.00  0.00    -0.079 N 
ATOM     34  H43 UNL     1      48.063  17.219  29.647  1.00  0.00     0.274 HD
ATOM     35  H42 UNL     1      48.240  18.639  30.234  1.00  0.00     0.274 HD
ATOM     36  H41 UNL     1      49.573  17.950  29.458  1.00  0.00     0.274 HD
ENDBRANCH  32  33
ENDBRANCH  31  32
ENDBRANCH  30  31
ENDBRANCH  29  30
ENDBRANCH  28  29
ENDBRANCH  26  28
ENDBRANCH   4  26
BRANCH   1  37
HETATM   37  N1  UNL     1      45.566  20.750  37.995  1.00  0.00    -0.185 N 
ATOM     38  H1  UNL     1      44.921  21.093  38.707  1.00  0.00     0.185 HD
BRANCH  37  39
HETATM   39  C7  UNL     1      46.062  21.705  37.068  1.00  0.00     0.096 A 
HETATM   40  C5  UNL     1      47.256  22.368  37.022  1.00  0.00    -0.027 A 
HETATM   41  C4  UNL     1      47.443  23.229  36.001  1.00  0.00     0.024 A 
HETATM   42  C6  UNL     1      48.293  22.105  38.102  1.00  0.00     0.051 C 
HETATM   43  C3  UNL     1      46.420  23.363  35.101  1.00  0.00    -0.015 A 
HETATM   44  S1  UNL     1      45.238  22.293  35.701  1.00  0.00    -0.076 SA
BRANCH  43  45
HETATM   45  C2  UNL     1      46.370  24.247  33.880  1.00  0.00     0.041 C 
HETATM   46  C1  UNL     1      46.680  23.402  32.690  1.00  0.00     0.010 C 
ENDBRANCH  43  45
ENDBRANCH  37  39
ENDBRANCH   1  37
TORSDOF 16
ENDMDL
