MODEL 1
REMARK VINA RESULT: -5.629740453      0.000      0.000
REMARK  11 active torsions:
REMARK  status: ('A' for Active; 'I' for Inactive)
REMARK    1  A    between atoms: C2_2  and  C3_3 
REMARK    2  A    between atoms: C3_3  and  C4_4 
REMARK    3  A    between atoms: C5_7  and  O1_8 
REMARK    4  A    between atoms: C6_10  and  C7_11 
REMARK    5  A    between atoms: C7_11  and  C8_12 
REMARK    6  A    between atoms: N2_15  and  S1_16 
REMARK    7  A    between atoms: S1_16  and  C11_19 
REMARK    8  A    between atoms: C16_27  and  C17_28 
REMARK    9  A    between atoms: C26_42  and  C27_43 
REMARK   10  A    between atoms: C27_43  and  C29_45 
REMARK   11  A    between atoms: C31_47  and  O8_48 
ROOT
HETATM    1  C4  UNL     1      41.493  12.917  12.210  1.00  0.00     0.114 C 
HETATM    2  N1  UNL     1      41.959  14.131  12.748  1.00  0.00    -0.365 N 
ATOM      3  H1  UNL     1      42.097  14.821  12.010  1.00  0.00     0.161 HD
HETATM    4  C5  UNL     1      42.285  14.668  13.987  1.00  0.00     0.138 C 
HETATM    5  C6  UNL     1      41.429  15.055  15.138  1.00  0.00     0.195 C 
HETATM    6  N2  UNL     1      40.776  16.279  14.988  1.00  0.00    -0.198 N 
HETATM    7  N3  UNL     1      39.648  16.584  15.668  1.00  0.00    -0.251 N 
HETATM    8  C14 UNL     1      39.832  17.230  16.993  1.00  0.00     0.182 C 
HETATM    9  C15 UNL     1      38.308  16.439  15.289  1.00  0.00     0.261 C 
HETATM   10  O4  UNL     1      37.518  17.464  15.306  1.00  0.00    -0.269 OA
HETATM   11  C16 UNL     1      37.595  15.187  14.834  1.00  0.00     0.181 C 
HETATM   12  N4  UNL     1      36.841  15.586  13.675  1.00  0.00    -0.347 N 
ATOM     13  H4  UNL     1      36.243  16.398  13.821  1.00  0.00     0.163 HD
HETATM   14  C20 UNL     1      36.788  15.052  12.382  1.00  0.00     0.223 C 
HETATM   15  O5  UNL     1      37.221  15.853  11.457  1.00  0.00    -0.273 OA
HETATM   16  C21 UNL     1      36.329  13.754  11.891  1.00  0.00     0.087 C 
HETATM   17  C22 UNL     1      34.844  13.579  12.169  1.00  0.00     0.020 C 
HETATM   18  C23 UNL     1      37.148  12.554  12.276  1.00  0.00     0.094 C 
HETATM   19  C24 UNL     1      36.158  11.374  12.291  1.00  0.00     0.021 C 
HETATM   20  C25 UNL     1      38.151  12.212  11.242  1.00  0.00     0.264 C 
HETATM   21  O6  UNL     1      37.830  12.459  10.056  1.00  0.00    -0.265 OA
HETATM   22  O7  UNL     1      39.341  11.665  11.560  1.00  0.00    -0.313 OA
HETATM   23  C26 UNL     1      39.827  11.131  12.760  1.00  0.00     0.166 C 
HETATM   24  C31 UNL     1      41.120  11.798  13.108  1.00  0.00     0.170 C 
ENDROOT
BRANCH   6  25
HETATM   25  S1  UNL     1      41.394  17.583  14.196  1.00  0.00     0.271 S 
HETATM   26  O2  UNL     1      42.109  17.421  12.926  1.00  0.00    -0.200 OA
HETATM   27  O3  UNL     1      40.241  18.543  13.876  1.00  0.00    -0.200 OA
BRANCH  25  28
HETATM   28  C11 UNL     1      42.422  18.525  15.273  1.00  0.00     0.170 C 
HETATM   29  C12 UNL     1      42.948  19.676  14.901  1.00  0.00     0.102 C 
HETATM   30  C13 UNL     1      43.806  20.429  15.843  1.00  0.00     0.082 C 
HETATM   31  F1  UNL     1      42.690  20.143  13.660  1.00  0.00    -0.211 F 
ENDBRANCH  25  28
ENDBRANCH   6  25
BRANCH   5  32
HETATM   32  C7  UNL     1      42.232  15.040  16.406  1.00  0.00     0.040 C 
BRANCH  32  33
HETATM   33  C8  UNL     1      42.130  13.829  17.266  1.00  0.00    -0.020 C 
HETATM   34  C9  UNL     1      40.982  12.956  16.888  1.00  0.00     0.009 C 
HETATM   35  C10 UNL     1      42.124  14.176  18.746  1.00  0.00     0.009 C 
ENDBRANCH  32  33
ENDBRANCH   5  32
BRANCH   4  36
HETATM   36  O1  UNL     1      43.544  14.899  14.238  1.00  0.00    -0.348 OA
ATOM     37  H1  UNL     1      43.785  15.119  15.130  1.00  0.00     0.219 HD
ENDBRANCH   4  36
BRANCH  11  38
HETATM   38  C17 UNL     1      36.753  14.789  16.031  1.00  0.00     0.009 C 
HETATM   39  C18 UNL     1      35.663  13.849  15.640  1.00  0.00     0.012 C 
HETATM   40  C19 UNL     1      37.566  14.251  17.190  1.00  0.00     0.012 C 
ENDBRANCH  11  38
BRANCH   1  41
HETATM   41  C3  UNL     1      42.465  12.427  11.115  1.00  0.00     0.027 C 
BRANCH  41  42
HETATM   42  C2  UNL     1      43.609  13.357  10.914  1.00  0.00    -0.002 C 
HETATM   43  C1  UNL     1      44.813  12.475  10.520  1.00  0.00     0.005 C 
ENDBRANCH  41  42
ENDBRANCH   1  41
BRANCH  24  44
HETATM   44  O8  UNL     1      42.216  10.899  13.042  1.00  0.00    -0.391 OA
ATOM     45  H8  UNL     1      42.092  10.423  12.229  1.00  0.00     0.210 HD
ENDBRANCH  24  44
BRANCH  23  46
HETATM   46  C27 UNL     1      39.817   9.632  12.780  1.00  0.00     0.013 C 
HETATM   47  C28 UNL     1      39.146   9.004  13.975  1.00  0.00     0.012 C 
BRANCH  46  48
HETATM   48  C29 UNL     1      39.681   8.930  11.497  1.00  0.00     0.002 C 
HETATM   49  C30 UNL     1      38.401   8.334  11.093  1.00  0.00     0.005 C 
ENDBRANCH  46  48
ENDBRANCH  23  46
TORSDOF 11
ENDMDL
MODEL 2
REMARK VINA RESULT: -5.470361309      2.913      7.850
REMARK  11 active torsions:
REMARK  status: ('A' for Active; 'I' for Inactive)
REMARK    1  A    between atoms: C2_2  and  C3_3 
REMARK    2  A    between atoms: C3_3  and  C4_4 
REMARK    3  A    between atoms: C5_7  and  O1_8 
REMARK    4  A    between atoms: C6_10  and  C7_11 
REMARK    5  A    between atoms: C7_11  and  C8_12 
REMARK    6  A    between atoms: N2_15  and  S1_16 
REMARK    7  A    between atoms: S1_16  and  C11_19 
REMARK    8  A    between atoms: C16_27  and  C17_28 
REMARK    9  A    between atoms: C26_42  and  C27_43 
REMARK   10  A    between atoms: C27_43  and  C29_45 
REMARK   11  A    between atoms: C31_47  and  O8_48 
ROOT
HETATM    1  C4  UNL     1      39.192  16.409  13.580  1.00  0.00     0.114 C 
HETATM    2  N1  UNL     1      38.293  15.523  12.956  1.00  0.00    -0.365 N 
ATOM      3  H1  UNL     1      38.211  15.737  11.962  1.00  0.00     0.161 HD
HETATM    4  C5  UNL     1      37.485  14.445  13.293  1.00  0.00     0.138 C 
HETATM    5  C6  UNL     1      37.829  13.049  13.671  1.00  0.00     0.195 C 
HETATM    6  N2  UNL     1      38.162  12.225  12.595  1.00  0.00    -0.198 N 
HETATM    7  N3  UNL     1      38.917  11.113  12.744  1.00  0.00    -0.251 N 
HETATM    8  C14 UNL     1      38.187   9.855  13.044  1.00  0.00     0.182 C 
HETATM    9  C15 UNL     1      40.300  10.946  12.600  1.00  0.00     0.261 C 
HETATM   10  O4  UNL     1      40.760  10.055  11.781  1.00  0.00    -0.269 OA
HETATM   11  C16 UNL     1      41.412  11.694  13.299  1.00  0.00     0.181 C 
HETATM   12  N4  UNL     1      42.349  12.027  12.260  1.00  0.00    -0.347 N 
ATOM     13  H4  UNL     1      42.649  11.235  11.693  1.00  0.00     0.163 HD
HETATM   14  C20 UNL     1      42.922  13.251  11.894  1.00  0.00     0.223 C 
HETATM   15  O5  UNL     1      42.596  13.656  10.704  1.00  0.00    -0.273 OA
HETATM   16  C21 UNL     1      43.822  14.151  12.612  1.00  0.00     0.087 C 
HETATM   17  C22 UNL     1      45.149  13.460  12.889  1.00  0.00     0.020 C 
HETATM   18  C23 UNL     1      43.259  14.855  13.815  1.00  0.00     0.094 C 
HETATM   19  C24 UNL     1      44.466  15.110  14.738  1.00  0.00     0.021 C 
HETATM   20  C25 UNL     1      42.734  16.197  13.477  1.00  0.00     0.264 C 
HETATM   21  O6  UNL     1      43.322  16.805  12.551  1.00  0.00    -0.265 OA
HETATM   22  O7  UNL     1      41.684  16.734  14.130  1.00  0.00    -0.313 OA
HETATM   23  C26 UNL     1      41.014  16.341  15.295  1.00  0.00     0.166 C 
HETATM   24  C31 UNL     1      39.552  16.224  15.006  1.00  0.00     0.170 C 
ENDROOT
BRANCH   6  25
HETATM   25  S1  UNL     1      37.498  12.326  11.092  1.00  0.00     0.271 S 
HETATM   26  O2  UNL     1      37.002  13.604  10.575  1.00  0.00    -0.200 OA
HETATM   27  O3  UNL     1      38.548  11.871  10.070  1.00  0.00    -0.200 OA
BRANCH  25  28
HETATM   28  C11 UNL     1      36.210  11.137  10.909  1.00  0.00     0.170 C 
HETATM   29  C12 UNL     1      34.979  11.378  11.317  1.00  0.00     0.102 C 
HETATM   30  C13 UNL     1      33.933  10.347  11.140  1.00  0.00     0.082 C 
HETATM   31  F1  UNL     1      34.701  12.569  11.892  1.00  0.00    -0.211 F 
ENDBRANCH  25  28
ENDBRANCH   6  25
BRANCH   5  32
HETATM   32  C7  UNL     1      36.715  12.443  14.473  1.00  0.00     0.040 C 
BRANCH  32  33
HETATM   33  C8  UNL     1      36.972  12.188  15.916  1.00  0.00    -0.020 C 
HETATM   34  C9  UNL     1      38.319  12.658  16.347  1.00  0.00     0.009 C 
HETATM   35  C10 UNL     1      36.722  10.737  16.295  1.00  0.00     0.009 C 
ENDBRANCH  32  33
ENDBRANCH   5  32
BRANCH   4  36
HETATM   36  O1  UNL     1      36.194  14.627  13.290  1.00  0.00    -0.348 OA
ATOM     37  H1  UNL     1      35.680  14.176  13.950  1.00  0.00     0.219 HD
ENDBRANCH   4  36
BRANCH  11  38
HETATM   38  C17 UNL     1      41.929  10.705  14.327  1.00  0.00     0.009 C 
HETATM   39  C18 UNL     1      43.090  11.262  15.079  1.00  0.00     0.012 C 
HETATM   40  C19 UNL     1      40.855  10.186  15.260  1.00  0.00     0.012 C 
ENDBRANCH  11  38
BRANCH   1  41
HETATM   41  C3  UNL     1      38.750  17.865  13.320  1.00  0.00     0.027 C 
BRANCH  41  42
HETATM   42  C2  UNL     1      37.440  17.946  12.620  1.00  0.00    -0.002 C 
HETATM   43  C1  UNL     1      37.164  19.448  12.401  1.00  0.00     0.005 C 
ENDBRANCH  41  42
ENDBRANCH   1  41
BRANCH  24  44
HETATM   44  O8  UNL     1      38.792  17.201  15.701  1.00  0.00    -0.391 OA
ATOM     45  H8  UNL     1      39.313  17.994  15.651  1.00  0.00     0.210 HD
ENDBRANCH  24  44
BRANCH  23  46
HETATM   46  C27 UNL     1      41.400  17.153  16.494  1.00  0.00     0.013 C 
HETATM   47  C28 UNL     1      41.835  16.362  17.701  1.00  0.00     0.012 C 
BRANCH  46  48
HETATM   48  C29 UNL     1      42.075  18.438  16.265  1.00  0.00     0.002 C 
HETATM   49  C30 UNL     1      41.305  19.677  16.097  1.00  0.00     0.005 C 
ENDBRANCH  46  48
ENDBRANCH  23  46
TORSDOF 11
ENDMDL
MODEL 3
REMARK VINA RESULT: -5.325409498      1.026      1.169
REMARK  11 active torsions:
REMARK  status: ('A' for Active; 'I' for Inactive)
REMARK    1  A    between atoms: C2_2  and  C3_3 
REMARK    2  A    between atoms: C3_3  and  C4_4 
REMARK    3  A    between atoms: C5_7  and  O1_8 
REMARK    4  A    between atoms: C6_10  and  C7_11 
REMARK    5  A    between atoms: C7_11  and  C8_12 
REMARK    6  A    between atoms: N2_15  and  S1_16 
REMARK    7  A    between atoms: S1_16  and  C11_19 
REMARK    8  A    between atoms: C16_27  and  C17_28 
REMARK    9  A    between atoms: C26_42  and  C27_43 
REMARK   10  A    between atoms: C27_43  and  C29_45 
REMARK   11  A    between atoms: C31_47  and  O8_48 
ROOT
HETATM    1  C4  UNL     1      41.562  12.848  12.114  1.00  0.00     0.114 C 
HETATM    2  N1  UNL     1      42.055  14.043  12.671  1.00  0.00    -0.365 N 
ATOM      3  H1  UNL     1      42.175  14.753  11.949  1.00  0.00     0.161 HD
HETATM    4  C5  UNL     1      42.427  14.542  13.913  1.00  0.00     0.138 C 
HETATM    5  C6  UNL     1      41.612  14.901  15.103  1.00  0.00     0.195 C 
HETATM    6  N2  UNL     1      40.965  16.134  15.009  1.00  0.00    -0.198 N 
HETATM    7  N3  UNL     1      39.863  16.428  15.736  1.00  0.00    -0.251 N 
HETATM    8  C14 UNL     1      40.096  17.034  17.071  1.00  0.00     0.182 C 
HETATM    9  C15 UNL     1      38.510  16.303  15.397  1.00  0.00     0.261 C 
HETATM   10  O4  UNL     1      37.730  17.333  15.469  1.00  0.00    -0.269 OA
HETATM   11  C16 UNL     1      37.772  15.070  14.930  1.00  0.00     0.181 C 
HETATM   12  N4  UNL     1      36.984  15.508  13.809  1.00  0.00    -0.347 N 
ATOM     13  H4  UNL     1      36.397  16.320  13.997  1.00  0.00     0.163 HD
HETATM   14  C20 UNL     1      36.883  15.012  12.504  1.00  0.00     0.223 C 
HETATM   15  O5  UNL     1      37.292  15.836  11.588  1.00  0.00    -0.273 OA
HETATM   16  C21 UNL     1      36.397  13.733  11.990  1.00  0.00     0.087 C 
HETATM   17  C22 UNL     1      34.921  13.561  12.313  1.00  0.00     0.020 C 
HETATM   18  C23 UNL     1      37.219  12.516  12.313  1.00  0.00     0.094 C 
HETATM   19  C24 UNL     1      36.220  11.344  12.327  1.00  0.00     0.021 C 
HETATM   20  C25 UNL     1      38.184  12.196  11.238  1.00  0.00     0.264 C 
HETATM   21  O6  UNL     1      37.826  12.480  10.070  1.00  0.00    -0.265 OA
HETATM   22  O7  UNL     1      39.379  11.632  11.501  1.00  0.00    -0.313 OA
HETATM   23  C26 UNL     1      39.901  11.060  12.668  1.00  0.00     0.166 C 
HETATM   24  C31 UNL     1      41.209  11.707  12.991  1.00  0.00     0.170 C 
ENDROOT
BRANCH   6  25
HETATM   25  S1  UNL     1      41.568  17.456  14.235  1.00  0.00     0.271 S 
HETATM   26  O2  UNL     1      42.691  18.209  14.800  1.00  0.00    -0.200 OA
HETATM   27  O3  UNL     1      42.048  17.022  12.844  1.00  0.00    -0.200 OA
BRANCH  25  28
HETATM   28  C11 UNL     1      40.277  18.602  13.881  1.00  0.00     0.170 C 
HETATM   29  C12 UNL     1      40.121  19.710  14.579  1.00  0.00     0.102 C 
HETATM   30  C13 UNL     1      39.021  20.641  14.242  1.00  0.00     0.082 C 
HETATM   31  F1  UNL     1      40.976  19.971  15.593  1.00  0.00    -0.211 F 
ENDBRANCH  25  28
ENDBRANCH   6  25
BRANCH   5  32
HETATM   32  C7  UNL     1      42.457  14.843  16.342  1.00  0.00     0.040 C 
BRANCH  32  33
HETATM   33  C8  UNL     1      42.186  13.740  17.303  1.00  0.00    -0.020 C 
HETATM   34  C9  UNL     1      40.949  12.980  16.966  1.00  0.00     0.009 C 
HETATM   35  C10 UNL     1      42.187  14.223  18.745  1.00  0.00     0.009 C 
ENDBRANCH  32  33
ENDBRANCH   5  32
BRANCH   4  36
HETATM   36  O1  UNL     1      43.695  14.756  14.128  1.00  0.00    -0.348 OA
ATOM     37  H1  UNL     1      44.298  14.036  13.979  1.00  0.00     0.219 HD
ENDBRANCH   4  36
BRANCH  11  38
HETATM   38  C17 UNL     1      36.966  14.644  16.143  1.00  0.00     0.009 C 
HETATM   39  C18 UNL     1      35.501  14.727  15.878  1.00  0.00     0.012 C 
HETATM   40  C19 UNL     1      37.361  13.285  16.683  1.00  0.00     0.012 C 
ENDBRANCH  11  38
BRANCH   1  41
HETATM   41  C3  UNL     1      42.494  12.384  10.974  1.00  0.00     0.027 C 
BRANCH  41  42
HETATM   42  C2  UNL     1      43.728  13.208  10.877  1.00  0.00    -0.002 C 
HETATM   43  C1  UNL     1      44.877  12.224  10.570  1.00  0.00     0.005 C 
ENDBRANCH  41  42
ENDBRANCH   1  41
BRANCH  24  44
HETATM   44  O8  UNL     1      42.296  10.802  12.863  1.00  0.00    -0.391 OA
ATOM     45  H8  UNL     1      42.296  10.306  13.673  1.00  0.00     0.210 HD
ENDBRANCH  24  44
BRANCH  23  46
HETATM   46  C27 UNL     1      39.878   9.561  12.645  1.00  0.00     0.013 C 
HETATM   47  C28 UNL     1      39.151   8.905  13.791  1.00  0.00     0.012 C 
BRANCH  46  48
HETATM   48  C29 UNL     1      39.793   8.896  11.338  1.00  0.00     0.002 C 
HETATM   49  C30 UNL     1      38.548   8.253  10.896  1.00  0.00     0.005 C 
ENDBRANCH  46  48
ENDBRANCH  23  46
TORSDOF 11
ENDMDL
MODEL 4
REMARK VINA RESULT: -5.320129878      2.590      6.845
REMARK  11 active torsions:
REMARK  status: ('A' for Active; 'I' for Inactive)
REMARK    1  A    between atoms: C2_2  and  C3_3 
REMARK    2  A    between atoms: C3_3  and  C4_4 
REMARK    3  A    between atoms: C5_7  and  O1_8 
REMARK    4  A    between atoms: C6_10  and  C7_11 
REMARK    5  A    between atoms: C7_11  and  C8_12 
REMARK    6  A    between atoms: N2_15  and  S1_16 
REMARK    7  A    between atoms: S1_16  and  C11_19 
REMARK    8  A    between atoms: C16_27  and  C17_28 
REMARK    9  A    between atoms: C26_42  and  C27_43 
REMARK   10  A    between atoms: C27_43  and  C29_45 
REMARK   11  A    between atoms: C31_47  and  O8_48 
ROOT
HETATM    1  C4  UNL     1      37.745  14.568  12.798  1.00  0.00     0.114 C 
HETATM    2  N1  UNL     1      38.554  13.485  12.404  1.00  0.00    -0.365 N 
ATOM      3  H1  UNL     1      38.908  13.628  11.458  1.00  0.00     0.161 HD
HETATM    4  C5  UNL     1      39.014  12.282  12.923  1.00  0.00     0.138 C 
HETATM    5  C6  UNL     1      40.005  11.996  13.992  1.00  0.00     0.195 C 
HETATM    6  N2  UNL     1      41.338  12.119  13.594  1.00  0.00    -0.198 N 
HETATM    7  N3  UNL     1      42.336  12.350  14.476  1.00  0.00    -0.251 N 
HETATM    8  C14 UNL     1      42.979  11.151  15.072  1.00  0.00     0.182 C 
HETATM    9  C15 UNL     1      42.911  13.561  14.879  1.00  0.00     0.261 C 
HETATM   10  O4  UNL     1      44.188  13.739  14.764  1.00  0.00    -0.269 OA
HETATM   11  C16 UNL     1      42.225  14.773  15.467  1.00  0.00     0.181 C 
HETATM   12  N4  UNL     1      42.775  15.896  14.756  1.00  0.00    -0.347 N 
ATOM     13  H4  UNL     1      43.794  15.934  14.752  1.00  0.00     0.163 HD
HETATM   14  C20 UNL     1      42.154  16.946  14.071  1.00  0.00     0.223 C 
HETATM   15  O5  UNL     1      42.400  16.969  12.796  1.00  0.00    -0.273 OA
HETATM   16  C21 UNL     1      41.282  18.023  14.536  1.00  0.00     0.087 C 
HETATM   17  C22 UNL     1      42.027  18.922  15.512  1.00  0.00     0.020 C 
HETATM   18  C23 UNL     1      39.916  17.626  15.021  1.00  0.00     0.094 C 
HETATM   19  C24 UNL     1      39.524  18.700  16.053  1.00  0.00     0.021 C 
HETATM   20  C25 UNL     1      38.897  17.721  13.951  1.00  0.00     0.264 C 
HETATM   21  O6  UNL     1      39.077  18.618  13.094  1.00  0.00    -0.265 OA
HETATM   22  O7  UNL     1      37.838  16.889  13.903  1.00  0.00    -0.313 OA
HETATM   23  C26 UNL     1      37.336  15.969  14.831  1.00  0.00     0.166 C 
HETATM   24  C31 UNL     1      37.204  14.631  14.177  1.00  0.00     0.170 C 
ENDROOT
BRANCH   6  25
HETATM   25  S1  UNL     1      41.907  11.756  12.092  1.00  0.00     0.271 S 
HETATM   26  O2  UNL     1      41.529  10.505  11.429  1.00  0.00    -0.200 OA
HETATM   27  O3  UNL     1      41.460  12.862  11.128  1.00  0.00    -0.200 OA
BRANCH  25  28
HETATM   28  C11 UNL     1      43.665  11.872  12.058  1.00  0.00     0.170 C 
HETATM   29  C12 UNL     1      44.353  11.681  10.949  1.00  0.00     0.102 C 
HETATM   30  C13 UNL     1      45.828  11.789  10.972  1.00  0.00     0.082 C 
HETATM   31  F1  UNL     1      43.688  11.390   9.808  1.00  0.00    -0.211 F 
ENDBRANCH  25  28
ENDBRANCH   6  25
BRANCH   5  32
HETATM   32  C7  UNL     1      39.755  10.637  14.577  1.00  0.00     0.040 C 
BRANCH  32  33
HETATM   33  C8  UNL     1      38.965  10.569  15.836  1.00  0.00    -0.020 C 
HETATM   34  C9  UNL     1      37.596  10.020  15.622  1.00  0.00     0.009 C 
HETATM   35  C10 UNL     1      38.941  11.902  16.569  1.00  0.00     0.009 C 
ENDBRANCH  32  33
ENDBRANCH   5  32
BRANCH   4  36
HETATM   36  O1  UNL     1      38.533  11.179  12.420  1.00  0.00    -0.348 OA
ATOM     37  H1  UNL     1      38.520  10.407  12.974  1.00  0.00     0.219 HD
ENDBRANCH   4  36
BRANCH  11  38
HETATM   38  C17 UNL     1      42.582  14.717  16.940  1.00  0.00     0.009 C 
HETATM   39  C18 UNL     1      42.272  16.006  17.623  1.00  0.00     0.012 C 
HETATM   40  C19 UNL     1      41.970  13.537  17.666  1.00  0.00     0.012 C 
ENDBRANCH  11  38
BRANCH   1  41
HETATM   41  C3  UNL     1      36.614  14.773  11.766  1.00  0.00     0.027 C 
BRANCH  41  42
HETATM   42  C2  UNL     1      36.737  16.064  11.038  1.00  0.00    -0.002 C 
HETATM   43  C1  UNL     1      35.893  15.914   9.756  1.00  0.00     0.005 C 
ENDBRANCH  41  42
ENDBRANCH   1  41
BRANCH  24  44
HETATM   44  O8  UNL     1      35.848  14.231  14.053  1.00  0.00    -0.391 OA
ATOM     45  H8  UNL     1      35.373  15.035  13.876  1.00  0.00     0.210 HD
ENDBRANCH  24  44
BRANCH  23  46
HETATM   46  C27 UNL     1      36.135  16.479  15.569  1.00  0.00     0.013 C 
HETATM   47  C28 UNL     1      36.234  16.445  17.073  1.00  0.00     0.012 C 
BRANCH  46  48
HETATM   48  C29 UNL     1      35.391  17.600  14.979  1.00  0.00     0.002 C 
HETATM   49  C30 UNL     1      34.353  17.370  13.966  1.00  0.00     0.005 C 
ENDBRANCH  46  48
ENDBRANCH  23  46
TORSDOF 11
ENDMDL
MODEL 5
REMARK VINA RESULT: -5.312264140      2.974      7.943
REMARK  11 active torsions:
REMARK  status: ('A' for Active; 'I' for Inactive)
REMARK    1  A    between atoms: C2_2  and  C3_3 
REMARK    2  A    between atoms: C3_3  and  C4_4 
REMARK    3  A    between atoms: C5_7  and  O1_8 
REMARK    4  A    between atoms: C6_10  and  C7_11 
REMARK    5  A    between atoms: C7_11  and  C8_12 
REMARK    6  A    between atoms: N2_15  and  S1_16 
REMARK    7  A    between atoms: S1_16  and  C11_19 
REMARK    8  A    between atoms: C16_27  and  C17_28 
REMARK    9  A    between atoms: C26_42  and  C27_43 
REMARK   10  A    between atoms: C27_43  and  C29_45 
REMARK   11  A    between atoms: C31_47  and  O8_48 
ROOT
HETATM    1  C4  UNL     1      37.348  16.242  12.349  1.00  0.00     0.114 C 
HETATM    2  N1  UNL     1      37.317  14.951  11.788  1.00  0.00    -0.365 N 
ATOM      3  H1  UNL     1      37.768  14.947  10.873  1.00  0.00     0.161 HD
HETATM    4  C5  UNL     1      36.854  13.682  12.111  1.00  0.00     0.138 C 
HETATM    5  C6  UNL     1      37.330  12.698  13.118  1.00  0.00     0.195 C 
HETATM    6  N2  UNL     1      38.467  11.983  12.735  1.00  0.00    -0.198 N 
HETATM    7  N3  UNL     1      39.294  11.407  13.636  1.00  0.00    -0.251 N 
HETATM    8  C14 UNL     1      38.968  10.015  14.036  1.00  0.00     0.182 C 
HETATM    9  C15 UNL     1      40.466  11.905  14.219  1.00  0.00     0.261 C 
HETATM   10  O4  UNL     1      41.568  11.232  14.125  1.00  0.00    -0.269 OA
HETATM   11  C16 UNL     1      40.655  13.190  14.991  1.00  0.00     0.181 C 
HETATM   12  N4  UNL     1      41.859  13.772  14.459  1.00  0.00    -0.347 N 
ATOM     13  H4  UNL     1      42.664  13.146  14.455  1.00  0.00     0.163 HD
HETATM   14  C20 UNL     1      42.117  15.049  13.948  1.00  0.00     0.223 C 
HETATM   15  O5  UNL     1      42.440  15.064  12.690  1.00  0.00    -0.273 OA
HETATM   16  C21 UNL     1      42.090  16.367  14.579  1.00  0.00     0.087 C 
HETATM   17  C22 UNL     1      43.138  16.448  15.678  1.00  0.00     0.020 C 
HETATM   18  C23 UNL     1      40.745  16.887  15.005  1.00  0.00     0.094 C 
HETATM   19  C24 UNL     1      41.030  17.824  16.194  1.00  0.00     0.021 C 
HETATM   20  C25 UNL     1      40.126  17.743  13.969  1.00  0.00     0.264 C 
HETATM   21  O6  UNL     1      40.916  18.411  13.260  1.00  0.00    -0.265 OA
HETATM   22  O7  UNL     1      38.791  17.802  13.799  1.00  0.00    -0.313 OA
HETATM   23  C26 UNL     1      37.733  17.316  14.577  1.00  0.00     0.166 C 
HETATM   24  C31 UNL     1      36.843  16.469  13.724  1.00  0.00     0.170 C 
ENDROOT
BRANCH   6  25
HETATM   25  S1  UNL     1      38.814  11.526  11.192  1.00  0.00     0.271 S 
HETATM   26  O2  UNL     1      38.247  12.247  10.050  1.00  0.00    -0.200 OA
HETATM   27  O3  UNL     1      40.333  11.614  10.995  1.00  0.00    -0.200 OA
BRANCH  25  28
HETATM   28  C11 UNL     1      38.473   9.812  10.968  1.00  0.00     0.170 C 
HETATM   29  C12 UNL     1      37.262   9.377  10.679  1.00  0.00     0.102 C 
HETATM   30  C13 UNL     1      37.026   7.927  10.501  1.00  0.00     0.082 C 
HETATM   31  F1  UNL     1      36.257  10.272  10.552  1.00  0.00    -0.211 F 
ENDBRANCH  25  28
ENDBRANCH   6  25
BRANCH   5  32
HETATM   32  C7  UNL     1      36.218  11.760  13.487  1.00  0.00     0.040 C 
BRANCH  32  33
HETATM   33  C8  UNL     1      35.619  11.910  14.841  1.00  0.00    -0.020 C 
HETATM   34  C9  UNL     1      36.201  13.052  15.599  1.00  0.00     0.009 C 
HETATM   35  C10 UNL     1      35.662  10.612  15.633  1.00  0.00     0.009 C 
ENDBRANCH  32  33
ENDBRANCH   5  32
BRANCH   4  36
HETATM   36  O1  UNL     1      35.832  13.220  11.447  1.00  0.00    -0.348 OA
ATOM     37  H1  UNL     1      36.002  12.774  10.625  1.00  0.00     0.219 HD
ENDBRANCH   4  36
BRANCH  11  38
HETATM   38  C17 UNL     1      40.754  12.738  16.436  1.00  0.00     0.009 C 
HETATM   39  C18 UNL     1      42.003  13.239  17.077  1.00  0.00     0.012 C 
HETATM   40  C19 UNL     1      39.528  13.076  17.259  1.00  0.00     0.012 C 
ENDBRANCH  11  38
BRANCH   1  41
HETATM   41  C3  UNL     1      36.711  17.250  11.368  1.00  0.00     0.027 C 
BRANCH  41  42
HETATM   42  C2  UNL     1      36.525  16.679  10.007  1.00  0.00    -0.002 C 
HETATM   43  C1  UNL     1      36.399  17.884   9.052  1.00  0.00     0.005 C 
ENDBRANCH  41  42
ENDBRANCH   1  41
BRANCH  24  44
HETATM   44  O8  UNL     1      35.562  17.054  13.548  1.00  0.00    -0.391 OA
ATOM     45  H8  UNL     1      35.318  17.369  14.411  1.00  0.00     0.210 HD
ENDBRANCH  24  44
BRANCH  23  46
HETATM   46  C27 UNL     1      37.067  18.384  15.392  1.00  0.00     0.013 C 
HETATM   47  C28 UNL     1      36.892  18.068  16.856  1.00  0.00     0.012 C 
BRANCH  46  48
HETATM   48  C29 UNL     1      37.341  19.784  15.043  1.00  0.00     0.002 C 
HETATM   49  C30 UNL     1      38.259  20.599  15.849  1.00  0.00     0.005 C 
ENDBRANCH  46  48
ENDBRANCH  23  46
TORSDOF 11
ENDMDL
