MODEL 1
REMARK VINA RESULT: -9.328260499      0.000      0.000
REMARK  11 active torsions:
REMARK  status: ('A' for Active; 'I' for Inactive)
REMARK    1  A    between atoms: C2_2  and  C4_4 
REMARK    2  A    between atoms: C4_4  and  C5_5 
REMARK    3  A    between atoms: C6_8  and  O1_9 
REMARK    4  A    between atoms: C10_14  and  C11_15 
REMARK    5  A    between atoms: C12_16  and  O2_17 
REMARK    6  A    between atoms: O2_17  and  C13_18 
REMARK    7  A    between atoms: C13_18  and  C14_19 
REMARK    8  A    between atoms: C14_19  and  O3_20 
REMARK    9  A    between atoms: C17_27  and  C18_28 
REMARK   10  A    between atoms: C18_28  and  C19_29 
REMARK   11  A    between atoms: C28_40  and  C29_41 
REMARK       I    between atoms: C29_41  and  N3_43 
ROOT
HETATM    1  C5  UNL     1      45.379  11.108  11.699  1.00  0.00     0.183 C 
HETATM    2  N1  UNL     1      46.348  11.975  12.308  1.00  0.00    -0.360 N 
ATOM      3  H1  UNL     1      46.982  11.476  12.932  1.00  0.00     0.162 HD
HETATM    4  C6  UNL     1      46.621  13.324  12.246  1.00  0.00     0.117 C 
HETATM    5  C7  UNL     1      47.080  14.258  11.215  1.00  0.00     0.074 C 
HETATM    6  C8  UNL     1      47.064  13.841   9.807  1.00  0.00     0.014 C 
HETATM    7  C9  UNL     1      46.993  15.142   9.025  1.00  0.00     0.010 C 
HETATM    8  C10 UNL     1      46.947  16.270  10.025  1.00  0.00     0.024 C 
HETATM    9  C15 UNL     1      46.361  15.599  11.244  1.00  0.00     0.097 C 
HETATM   10  C16 UNL     1      46.688  16.339  12.491  1.00  0.00     0.224 C 
HETATM   11  O4  UNL     1      47.929  16.343  12.784  1.00  0.00    -0.273 OA
HETATM   12  N2  UNL     1      45.751  17.001  13.325  1.00  0.00    -0.349 N 
ATOM     13  H2  UNL     1      45.830  16.809  14.324  1.00  0.00     0.163 HD
HETATM   14  C17 UNL     1      44.716  17.899  12.949  1.00  0.00     0.158 C 
HETATM   15  C23 UNL     1      43.338  17.325  12.952  1.00  0.00     0.183 C 
HETATM   16  O5  UNL     1      42.433  18.138  12.811  1.00  0.00    -0.293 OA
HETATM   17  C24 UNL     1      42.965  15.924  13.105  1.00  0.00     0.241 C 
HETATM   18  F1  UNL     1      42.075  15.624  12.054  1.00  0.00    -0.241 F 
HETATM   19  C25 UNL     1      42.200  15.595  14.365  1.00  0.00     0.045 C 
HETATM   20  C26 UNL     1      41.671  14.167  14.181  1.00  0.00     0.006 C 
HETATM   21  C27 UNL     1      42.732  13.139  14.390  1.00  0.00     0.042 C 
HETATM   22  C28 UNL     1      42.747  12.045  13.342  1.00  0.00     0.224 C 
HETATM   23  O7  UNL     1      43.366  12.476  12.152  1.00  0.00    -0.305 OA
HETATM   24  C34 UNL     1      44.138  11.802  11.270  1.00  0.00     0.282 C 
HETATM   25  O8  UNL     1      43.820  11.750  10.076  1.00  0.00    -0.263 OA
ENDROOT
BRANCH   8  26
HETATM   26  C11 UNL     1      48.344  16.740  10.224  1.00  0.00     0.003 C 
HETATM   27  C12 UNL     1      49.345  16.333   9.477  1.00  0.00     0.131 C 
BRANCH  27  28
HETATM   28  O2  UNL     1      50.632  16.782   9.677  1.00  0.00    -0.361 OA
BRANCH  28  29
HETATM   29  C13 UNL     1      51.744  15.895   9.530  1.00  0.00     0.200 C 
BRANCH  29  30
HETATM   30  C14 UNL     1      51.277  14.499   9.270  1.00  0.00     0.190 C 
BRANCH  30  31
HETATM   31  O3  UNL     1      52.158  13.721   8.563  1.00  0.00    -0.399 OA
ATOM     32  H3  UNL     1      51.858  13.465   7.699  1.00  0.00     0.209 HD
ENDBRANCH  30  31
ENDBRANCH  29  30
ENDBRANCH  28  29
ENDBRANCH  27  28
ENDBRANCH   8  26
BRANCH   4  33
HETATM   33  O1  UNL     1      46.442  13.973  13.364  1.00  0.00    -0.349 OA
ATOM     34  H1  UNL     1      47.074  13.776  14.046  1.00  0.00     0.219 HD
ENDBRANCH   4  33
BRANCH  14  35
HETATM   35  C18 UNL     1      44.613  19.151  13.789  1.00  0.00     0.041 C 
BRANCH  35  36
HETATM   36  C19 UNL     1      44.843  20.435  13.093  1.00  0.00    -0.049 C 
HETATM   37  C20 UNL     1      45.747  20.102  11.886  1.00  0.00     0.014 C 
HETATM   38  C21 UNL     1      43.641  21.105  12.510  1.00  0.00     0.014 C 
HETATM   39  C22 UNL     1      45.613  21.384  13.980  1.00  0.00     0.014 C 
ENDBRANCH  35  36
ENDBRANCH  14  35
BRANCH   1  40
HETATM   40  C4  UNL     1      45.953  10.289  10.587  1.00  0.00     0.039 C 
BRANCH  40  41
HETATM   41  C2  UNL     1      47.386   9.944  10.617  1.00  0.00    -0.020 C 
HETATM   42  C1  UNL     1      48.177  10.100   9.374  1.00  0.00     0.009 C 
HETATM   43  C3  UNL     1      47.453   8.458  11.029  1.00  0.00     0.009 C 
ENDBRANCH  40  41
ENDBRANCH   1  40
BRANCH  22  44
HETATM   44  C29 UNL     1      41.380  11.601  13.002  1.00  0.00     0.249 C 
HETATM   45  O6  UNL     1      40.864  11.991  11.927  1.00  0.00    -0.270 OA
HETATM   46  N3  UNL     1      40.605  10.751  13.824  1.00  0.00    -0.350 N 
HETATM   47  C30 UNL     1      41.071  10.202  15.090  1.00  0.00     0.126 C 
HETATM   48  C33 UNL     1      39.252  10.266  13.598  1.00  0.00     0.126 C 
HETATM   49  C31 UNL     1      40.341   8.875  15.231  1.00  0.00     0.021 C 
HETATM   50  C32 UNL     1      39.113   8.981  14.386  1.00  0.00     0.021 C 
ENDBRANCH  22  44
TORSDOF 11
ENDMDL
MODEL 2
REMARK VINA RESULT: -8.892781917      1.229      1.767
REMARK  11 active torsions:
REMARK  status: ('A' for Active; 'I' for Inactive)
REMARK    1  A    between atoms: C2_2  and  C4_4 
REMARK    2  A    between atoms: C4_4  and  C5_5 
REMARK    3  A    between atoms: C6_8  and  O1_9 
REMARK    4  A    between atoms: C10_14  and  C11_15 
REMARK    5  A    between atoms: C12_16  and  O2_17 
REMARK    6  A    between atoms: O2_17  and  C13_18 
REMARK    7  A    between atoms: C13_18  and  C14_19 
REMARK    8  A    between atoms: C14_19  and  O3_20 
REMARK    9  A    between atoms: C17_27  and  C18_28 
REMARK   10  A    between atoms: C18_28  and  C19_29 
REMARK   11  A    between atoms: C28_40  and  C29_41 
REMARK       I    between atoms: C29_41  and  N3_43 
ROOT
HETATM    1  C5  UNL     1      45.492  11.085  11.657  1.00  0.00     0.183 C 
HETATM    2  N1  UNL     1      46.421  12.001  12.255  1.00  0.00    -0.360 N 
ATOM      3  H1  UNL     1      47.088  11.536  12.870  1.00  0.00     0.162 HD
HETATM    4  C6  UNL     1      46.621  13.362  12.192  1.00  0.00     0.117 C 
HETATM    5  C7  UNL     1      47.016  14.322  11.157  1.00  0.00     0.074 C 
HETATM    6  C8  UNL     1      47.005  13.906   9.748  1.00  0.00     0.014 C 
HETATM    7  C9  UNL     1      46.854  15.202   8.970  1.00  0.00     0.010 C 
HETATM    8  C10 UNL     1      46.761  16.325   9.973  1.00  0.00     0.024 C 
HETATM    9  C15 UNL     1      46.228  15.622  11.198  1.00  0.00     0.097 C 
HETATM   10  C16 UNL     1      46.530  16.376  12.442  1.00  0.00     0.224 C 
HETATM   11  O4  UNL     1      47.773  16.447  12.718  1.00  0.00    -0.273 OA
HETATM   12  N2  UNL     1      45.570  16.987  13.289  1.00  0.00    -0.349 N 
ATOM     13  H2  UNL     1      45.672  16.798  14.286  1.00  0.00     0.163 HD
HETATM   14  C17 UNL     1      44.484  17.829  12.927  1.00  0.00     0.158 C 
HETATM   15  C23 UNL     1      43.139  17.182  12.947  1.00  0.00     0.183 C 
HETATM   16  O5  UNL     1      42.189  17.946  12.819  1.00  0.00    -0.293 OA
HETATM   17  C24 UNL     1      42.842  15.763  13.101  1.00  0.00     0.241 C 
HETATM   18  F1  UNL     1      41.957  15.417  12.062  1.00  0.00    -0.241 F 
HETATM   19  C25 UNL     1      42.112  15.392  14.370  1.00  0.00     0.045 C 
HETATM   20  C26 UNL     1      41.658  13.939  14.191  1.00  0.00     0.006 C 
HETATM   21  C27 UNL     1      42.774  12.969  14.384  1.00  0.00     0.042 C 
HETATM   22  C28 UNL     1      42.835  11.878  13.335  1.00  0.00     0.224 C 
HETATM   23  O7  UNL     1      43.415  12.343  12.137  1.00  0.00    -0.305 OA
HETATM   24  C34 UNL     1      44.210  11.712  11.245  1.00  0.00     0.282 C 
HETATM   25  O8  UNL     1      43.881  11.644  10.055  1.00  0.00    -0.263 OA
ENDROOT
BRANCH   8  26
HETATM   26  C11 UNL     1      48.133  16.869  10.155  1.00  0.00     0.003 C 
HETATM   27  C12 UNL     1      48.496  18.050   9.706  1.00  0.00     0.131 C 
BRANCH  27  28
HETATM   28  O2  UNL     1      49.773  18.535   9.886  1.00  0.00    -0.361 OA
BRANCH  28  29
HETATM   29  C13 UNL     1      50.050  19.930   9.739  1.00  0.00     0.200 C 
BRANCH  29  30
HETATM   30  C14 UNL     1      49.083  20.564   8.792  1.00  0.00     0.190 C 
BRANCH  30  31
HETATM   31  O3  UNL     1      49.469  20.540   7.476  1.00  0.00    -0.399 OA
ATOM     32  H3  UNL     1      50.107  19.870   7.261  1.00  0.00     0.209 HD
ENDBRANCH  30  31
ENDBRANCH  29  30
ENDBRANCH  28  29
ENDBRANCH  27  28
ENDBRANCH   8  26
BRANCH   4  33
HETATM   33  O1  UNL     1      46.422  14.000  13.313  1.00  0.00    -0.349 OA
ATOM     34  H1  UNL     1      46.327  13.444  14.078  1.00  0.00     0.219 HD
ENDBRANCH   4  33
BRANCH  14  35
HETATM   35  C18 UNL     1      44.325  19.072  13.771  1.00  0.00     0.041 C 
BRANCH  35  36
HETATM   36  C19 UNL     1      44.627  20.361  13.112  1.00  0.00    -0.049 C 
HETATM   37  C20 UNL     1      45.311  21.233  14.188  1.00  0.00     0.014 C 
HETATM   38  C21 UNL     1      45.590  20.319  11.970  1.00  0.00     0.014 C 
HETATM   39  C22 UNL     1      43.349  21.062  12.715  1.00  0.00     0.014 C 
ENDBRANCH  35  36
ENDBRANCH  14  35
BRANCH   1  40
HETATM   40  C4  UNL     1      46.094  10.298  10.536  1.00  0.00     0.039 C 
BRANCH  40  41
HETATM   41  C2  UNL     1      47.547  10.045  10.538  1.00  0.00    -0.020 C 
HETATM   42  C1  UNL     1      48.319  10.346   9.309  1.00  0.00     0.009 C 
HETATM   43  C3  UNL     1      47.712   8.540  10.837  1.00  0.00     0.009 C 
ENDBRANCH  40  41
ENDBRANCH   1  40
BRANCH  22  44
HETATM   44  C29 UNL     1      41.489  11.362  13.011  1.00  0.00     0.249 C 
HETATM   45  O6  UNL     1      40.984  11.639  11.896  1.00  0.00    -0.270 OA
HETATM   46  N3  UNL     1      40.724  10.564  13.892  1.00  0.00    -0.350 N 
HETATM   47  C30 UNL     1      41.179  10.145  15.209  1.00  0.00     0.126 C 
HETATM   48  C33 UNL     1      39.390  10.018  13.685  1.00  0.00     0.126 C 
HETATM   49  C31 UNL     1      40.487   8.813  15.455  1.00  0.00     0.021 C 
HETATM   50  C32 UNL     1      39.274   8.803  14.582  1.00  0.00     0.021 C 
ENDBRANCH  22  44
TORSDOF 11
ENDMDL
MODEL 3
REMARK VINA RESULT: -8.196191638      2.570      5.382
REMARK  11 active torsions:
REMARK  status: ('A' for Active; 'I' for Inactive)
REMARK    1  A    between atoms: C2_2  and  C4_4 
REMARK    2  A    between atoms: C4_4  and  C5_5 
REMARK    3  A    between atoms: C6_8  and  O1_9 
REMARK    4  A    between atoms: C10_14  and  C11_15 
REMARK    5  A    between atoms: C12_16  and  O2_17 
REMARK    6  A    between atoms: O2_17  and  C13_18 
REMARK    7  A    between atoms: C13_18  and  C14_19 
REMARK    8  A    between atoms: C14_19  and  O3_20 
REMARK    9  A    between atoms: C17_27  and  C18_28 
REMARK   10  A    between atoms: C18_28  and  C19_29 
REMARK   11  A    between atoms: C28_40  and  C29_41 
REMARK       I    between atoms: C29_41  and  N3_43 
ROOT
HETATM    1  C5  UNL     1      42.302  12.095  14.483  1.00  0.00     0.183 C 
HETATM    2  N1  UNL     1      43.697  11.765  14.403  1.00  0.00    -0.360 N 
ATOM      3  H1  UNL     1      43.995  11.139  15.151  1.00  0.00     0.162 HD
HETATM    4  C6  UNL     1      44.727  12.098  13.551  1.00  0.00     0.117 C 
HETATM    5  C7  UNL     1      45.041  11.867  12.139  1.00  0.00     0.074 C 
HETATM    6  C8  UNL     1      43.988  11.378  11.238  1.00  0.00     0.014 C 
HETATM    7  C9  UNL     1      44.432  11.826   9.855  1.00  0.00     0.010 C 
HETATM    8  C10 UNL     1      45.726  12.583  10.018  1.00  0.00     0.024 C 
HETATM    9  C15 UNL     1      45.634  13.081  11.439  1.00  0.00     0.097 C 
HETATM   10  C16 UNL     1      46.972  13.403  11.999  1.00  0.00     0.224 C 
HETATM   11  O4  UNL     1      47.734  12.390  12.140  1.00  0.00    -0.273 OA
HETATM   12  N2  UNL     1      47.424  14.698  12.362  1.00  0.00    -0.349 N 
ATOM     13  H2  UNL     1      47.866  14.774  13.278  1.00  0.00     0.163 HD
HETATM   14  C17 UNL     1      47.340  15.903  11.615  1.00  0.00     0.158 C 
HETATM   15  C23 UNL     1      46.279  16.856  12.053  1.00  0.00     0.183 C 
HETATM   16  O5  UNL     1      46.326  17.965  11.536  1.00  0.00    -0.293 OA
HETATM   17  C24 UNL     1      45.213  16.609  13.016  1.00  0.00     0.241 C 
HETATM   18  F1  UNL     1      44.010  17.013  12.404  1.00  0.00    -0.241 F 
HETATM   19  C25 UNL     1      45.292  17.421  14.287  1.00  0.00     0.045 C 
HETATM   20  C26 UNL     1      43.951  17.221  15.005  1.00  0.00     0.006 C 
HETATM   21  C27 UNL     1      43.868  15.899  15.690  1.00  0.00     0.042 C 
HETATM   22  C28 UNL     1      42.557  15.171  15.472  1.00  0.00     0.224 C 
HETATM   23  O7  UNL     1      42.514  14.546  14.210  1.00  0.00    -0.305 OA
HETATM   24  C34 UNL     1      41.949  13.380  13.827  1.00  0.00     0.282 C 
HETATM   25  O8  UNL     1      41.118  13.360  12.912  1.00  0.00    -0.263 OA
ENDROOT
BRANCH   8  26
HETATM   26  C11 UNL     1      46.834  11.615   9.802  1.00  0.00     0.003 C 
HETATM   27  C12 UNL     1      47.695  11.726   8.815  1.00  0.00     0.131 C 
BRANCH  27  28
HETATM   28  O2  UNL     1      48.714  10.818   8.633  1.00  0.00    -0.361 OA
BRANCH  28  29
HETATM   29  C13 UNL     1      48.651   9.852   7.581  1.00  0.00     0.200 C 
BRANCH  29  30
HETATM   30  C14 UNL     1      48.595   8.466   8.138  1.00  0.00     0.190 C 
BRANCH  30  31
HETATM   31  O3  UNL     1      49.741   7.732   7.966  1.00  0.00    -0.399 OA
ATOM     32  H3  UNL     1      49.601   6.805   7.815  1.00  0.00     0.209 HD
ENDBRANCH  30  31
ENDBRANCH  29  30
ENDBRANCH  28  29
ENDBRANCH  27  28
ENDBRANCH   8  26
BRANCH   4  33
HETATM   33  O1  UNL     1      45.689  12.791  14.096  1.00  0.00    -0.349 OA
ATOM     34  H1  UNL     1      46.565  12.542  13.824  1.00  0.00     0.219 HD
ENDBRANCH   4  33
BRANCH  14  35
HETATM   35  C18 UNL     1      48.606  16.727  11.580  1.00  0.00     0.041 C 
BRANCH  35  36
HETATM   36  C19 UNL     1      49.195  16.977  10.247  1.00  0.00    -0.049 C 
HETATM   37  C20 UNL     1      48.271  16.261   9.237  1.00  0.00     0.014 C 
HETATM   38  C21 UNL     1      49.243  18.401   9.793  1.00  0.00     0.014 C 
HETATM   39  C22 UNL     1      50.556  16.331  10.142  1.00  0.00     0.014 C 
ENDBRANCH  35  36
ENDBRANCH  14  35
BRANCH   1  40
HETATM   40  C4  UNL     1      41.417  10.985  14.012  1.00  0.00     0.039 C 
BRANCH  40  41
HETATM   41  C2  UNL     1      40.329  10.515  14.889  1.00  0.00    -0.020 C 
HETATM   42  C1  UNL     1      40.336   9.100  15.329  1.00  0.00     0.009 C 
HETATM   43  C3  UNL     1      39.022  10.754  14.105  1.00  0.00     0.009 C 
ENDBRANCH  40  41
ENDBRANCH   1  40
BRANCH  22  44
HETATM   44  C29 UNL     1      41.405  16.093  15.556  1.00  0.00     0.249 C 
HETATM   45  O6  UNL     1      41.034  16.697  14.520  1.00  0.00    -0.270 OA
HETATM   46  N3  UNL     1      40.685  16.339  16.747  1.00  0.00    -0.350 N 
HETATM   47  C30 UNL     1      40.983  15.703  18.022  1.00  0.00     0.126 C 
HETATM   48  C33 UNL     1      39.553  17.232  16.947  1.00  0.00     0.126 C 
HETATM   49  C31 UNL     1      39.647  15.639  18.746  1.00  0.00     0.021 C 
HETATM   50  C32 UNL     1      38.794  16.709  18.148  1.00  0.00     0.021 C 
ENDBRANCH  22  44
TORSDOF 11
ENDMDL
MODEL 4
REMARK VINA RESULT: -8.069071349      2.264      7.404
REMARK  11 active torsions:
REMARK  status: ('A' for Active; 'I' for Inactive)
REMARK    1  A    between atoms: C2_2  and  C4_4 
REMARK    2  A    between atoms: C4_4  and  C5_5 
REMARK    3  A    between atoms: C6_8  and  O1_9 
REMARK    4  A    between atoms: C10_14  and  C11_15 
REMARK    5  A    between atoms: C12_16  and  O2_17 
REMARK    6  A    between atoms: O2_17  and  C13_18 
REMARK    7  A    between atoms: C13_18  and  C14_19 
REMARK    8  A    between atoms: C14_19  and  O3_20 
REMARK    9  A    between atoms: C17_27  and  C18_28 
REMARK   10  A    between atoms: C18_28  and  C19_29 
REMARK   11  A    between atoms: C28_40  and  C29_41 
REMARK       I    between atoms: C29_41  and  N3_43 
ROOT
HETATM    1  C5  UNL     1      43.117  14.255  14.269  1.00  0.00     0.183 C 
HETATM    2  N1  UNL     1      44.215  13.333  14.352  1.00  0.00    -0.360 N 
ATOM      3  H1  UNL     1      44.395  13.025  15.308  1.00  0.00     0.162 HD
HETATM    4  C6  UNL     1      45.080  12.767  13.443  1.00  0.00     0.117 C 
HETATM    5  C7  UNL     1      44.963  11.844  12.311  1.00  0.00     0.074 C 
HETATM    6  C8  UNL     1      43.634  11.552  11.756  1.00  0.00     0.014 C 
HETATM    7  C9  UNL     1      43.906  11.115  10.326  1.00  0.00     0.010 C 
HETATM    8  C10 UNL     1      45.396  11.196  10.104  1.00  0.00     0.024 C 
HETATM    9  C15 UNL     1      45.820  12.232  11.116  1.00  0.00     0.097 C 
HETATM   10  C16 UNL     1      47.263  12.118  11.451  1.00  0.00     0.224 C 
HETATM   11  O4  UNL     1      47.573  11.040  12.057  1.00  0.00    -0.273 OA
HETATM   12  N2  UNL     1      48.257  13.085  11.151  1.00  0.00    -0.349 N 
ATOM     13  H2  UNL     1      48.880  13.335  11.919  1.00  0.00     0.163 HD
HETATM   14  C17 UNL     1      48.496  13.751   9.919  1.00  0.00     0.158 C 
HETATM   15  C23 UNL     1      48.021  15.164   9.852  1.00  0.00     0.183 C 
HETATM   16  O5  UNL     1      48.389  15.793   8.867  1.00  0.00    -0.293 OA
HETATM   17  C24 UNL     1      47.181  15.860  10.818  1.00  0.00     0.241 C 
HETATM   18  F1  UNL     1      46.134  16.460  10.090  1.00  0.00    -0.241 F 
HETATM   19  C25 UNL     1      47.848  17.003  11.547  1.00  0.00     0.045 C 
HETATM   20  C26 UNL     1      46.729  17.755  12.276  1.00  0.00     0.006 C 
HETATM   21  C27 UNL     1      46.280  17.047  13.510  1.00  0.00     0.042 C 
HETATM   22  C28 UNL     1      44.775  16.975  13.669  1.00  0.00     0.224 C 
HETATM   23  O7  UNL     1      44.216  15.966  12.858  1.00  0.00    -0.305 OA
HETATM   24  C34 UNL     1      43.168  15.143  13.079  1.00  0.00     0.282 C 
HETATM   25  O8  UNL     1      42.219  15.114  12.287  1.00  0.00    -0.263 OA
ENDROOT
BRANCH   8  26
HETATM   26  C11 UNL     1      45.955   9.844  10.374  1.00  0.00     0.003 C 
HETATM   27  C12 UNL     1      46.873   9.288   9.614  1.00  0.00     0.131 C 
BRANCH  27  28
HETATM   28  O2  UNL     1      47.378   8.035   9.883  1.00  0.00    -0.361 OA
BRANCH  28  29
HETATM   29  C13 UNL     1      48.724   7.702   9.533  1.00  0.00     0.200 C 
BRANCH  29  30
HETATM   30  C14 UNL     1      48.949   7.883   8.066  1.00  0.00     0.190 C 
BRANCH  30  31
HETATM   31  O3  UNL     1      50.237   8.203   7.719  1.00  0.00    -0.399 OA
ATOM     32  H3  UNL     1      50.867   7.501   7.836  1.00  0.00     0.209 HD
ENDBRANCH  30  31
ENDBRANCH  29  30
ENDBRANCH  28  29
ENDBRANCH  27  28
ENDBRANCH   8  26
BRANCH   4  33
HETATM   33  O1  UNL     1      46.331  13.108  13.589  1.00  0.00    -0.349 OA
ATOM     34  H1  UNL     1      46.945  12.617  13.055  1.00  0.00     0.219 HD
ENDBRANCH   4  33
BRANCH  14  35
HETATM   35  C18 UNL     1      49.945  13.812   9.491  1.00  0.00     0.041 C 
BRANCH  35  36
HETATM   36  C19 UNL     1      50.329  12.974   8.336  1.00  0.00    -0.049 C 
HETATM   37  C20 UNL     1      49.764  11.566   8.631  1.00  0.00     0.014 C 
HETATM   38  C21 UNL     1      49.752  13.356   7.010  1.00  0.00     0.014 C 
HETATM   39  C22 UNL     1      51.831  12.844   8.254  1.00  0.00     0.014 C 
ENDBRANCH  35  36
ENDBRANCH  14  35
BRANCH   1  40
HETATM   40  C4  UNL     1      41.786  13.583  14.387  1.00  0.00     0.039 C 
BRANCH  40  41
HETATM   41  C2  UNL     1      41.655  12.402  15.259  1.00  0.00    -0.020 C 
HETATM   42  C1  UNL     1      41.328  11.097  14.639  1.00  0.00     0.009 C 
HETATM   43  C3  UNL     1      40.527  12.739  16.258  1.00  0.00     0.009 C 
ENDBRANCH  40  41
ENDBRANCH   1  40
BRANCH  22  44
HETATM   44  C29 UNL     1      44.130  18.253  13.305  1.00  0.00     0.249 C 
HETATM   45  O6  UNL     1      43.372  18.288  12.306  1.00  0.00    -0.270 OA
HETATM   46  N3  UNL     1      44.315  19.456  14.024  1.00  0.00    -0.350 N 
HETATM   47  C30 UNL     1      45.149  19.570  15.212  1.00  0.00     0.126 C 
HETATM   48  C33 UNL     1      43.747  20.767  13.748  1.00  0.00     0.126 C 
HETATM   49  C31 UNL     1      44.512  20.685  16.027  1.00  0.00     0.021 C 
HETATM   50  C32 UNL     1      43.736  21.520  15.061  1.00  0.00     0.021 C 
ENDBRANCH  22  44
TORSDOF 11
ENDMDL
MODEL 5
REMARK VINA RESULT: -8.056063967      2.483      5.643
REMARK  11 active torsions:
REMARK  status: ('A' for Active; 'I' for Inactive)
REMARK    1  A    between atoms: C2_2  and  C4_4 
REMARK    2  A    between atoms: C4_4  and  C5_5 
REMARK    3  A    between atoms: C6_8  and  O1_9 
REMARK    4  A    between atoms: C10_14  and  C11_15 
REMARK    5  A    between atoms: C12_16  and  O2_17 
REMARK    6  A    between atoms: O2_17  and  C13_18 
REMARK    7  A    between atoms: C13_18  and  C14_19 
REMARK    8  A    between atoms: C14_19  and  O3_20 
REMARK    9  A    between atoms: C17_27  and  C18_28 
REMARK   10  A    between atoms: C18_28  and  C19_29 
REMARK   11  A    between atoms: C28_40  and  C29_41 
REMARK       I    between atoms: C29_41  and  N3_43 
ROOT
HETATM    1  C5  UNL     1      42.290  12.202  14.484  1.00  0.00     0.183 C 
HETATM    2  N1  UNL     1      43.685  11.874  14.410  1.00  0.00    -0.360 N 
ATOM      3  H1  UNL     1      43.983  11.256  15.165  1.00  0.00     0.162 HD
HETATM    4  C6  UNL     1      44.716  12.200  13.557  1.00  0.00     0.117 C 
HETATM    5  C7  UNL     1      45.033  11.956  12.148  1.00  0.00     0.074 C 
HETATM    6  C8  UNL     1      43.983  11.456  11.250  1.00  0.00     0.014 C 
HETATM    7  C9  UNL     1      44.429  11.890   9.863  1.00  0.00     0.010 C 
HETATM    8  C10 UNL     1      45.721  12.652  10.021  1.00  0.00     0.024 C 
HETATM    9  C15 UNL     1      45.626  13.164  11.437  1.00  0.00     0.097 C 
HETATM   10  C16 UNL     1      46.963  13.493  11.996  1.00  0.00     0.224 C 
HETATM   11  O4  UNL     1      47.726  12.483  12.149  1.00  0.00    -0.273 OA
HETATM   12  N2  UNL     1      47.412  14.792  12.347  1.00  0.00    -0.349 N 
ATOM     13  H2  UNL     1      47.852  14.878  13.263  1.00  0.00     0.163 HD
HETATM   14  C17 UNL     1      47.327  15.989  11.588  1.00  0.00     0.158 C 
HETATM   15  C23 UNL     1      46.263  16.945  12.014  1.00  0.00     0.183 C 
HETATM   16  O5  UNL     1      46.310  18.049  11.486  1.00  0.00    -0.293 OA
HETATM   17  C24 UNL     1      45.196  16.706  12.977  1.00  0.00     0.241 C 
HETATM   18  F1  UNL     1      43.994  17.102  12.359  1.00  0.00    -0.241 F 
HETATM   19  C25 UNL     1      45.271  17.531  14.240  1.00  0.00     0.045 C 
HETATM   20  C26 UNL     1      43.930  17.336  14.957  1.00  0.00     0.006 C 
HETATM   21  C27 UNL     1      43.847  16.021  15.656  1.00  0.00     0.042 C 
HETATM   22  C28 UNL     1      42.537  15.289  15.443  1.00  0.00     0.224 C 
HETATM   23  O7  UNL     1      42.499  14.651  14.186  1.00  0.00    -0.305 OA
HETATM   24  C34 UNL     1      41.936  13.480  13.814  1.00  0.00     0.282 C 
HETATM   25  O8  UNL     1      41.106  13.450  12.898  1.00  0.00    -0.263 OA
ENDROOT
BRANCH   8  26
HETATM   26  C11 UNL     1      46.831  11.683   9.817  1.00  0.00     0.003 C 
HETATM   27  C12 UNL     1      46.629  10.425   9.492  1.00  0.00     0.131 C 
BRANCH  27  28
HETATM   28  O2  UNL     1      47.671   9.545   9.307  1.00  0.00    -0.361 OA
BRANCH  28  29
HETATM   29  C13 UNL     1      47.784   8.369  10.114  1.00  0.00     0.200 C 
BRANCH  29  30
HETATM   30  C14 UNL     1      47.428   8.667  11.535  1.00  0.00     0.190 C 
BRANCH  30  31
HETATM   31  O3  UNL     1      46.487   7.829  12.078  1.00  0.00    -0.399 OA
ATOM     32  H3  UNL     1      45.915   8.235  12.719  1.00  0.00     0.209 HD
ENDBRANCH  30  31
ENDBRANCH  29  30
ENDBRANCH  28  29
ENDBRANCH  27  28
ENDBRANCH   8  26
BRANCH   4  33
HETATM   33  O1  UNL     1      45.676  12.900  14.097  1.00  0.00    -0.349 OA
ATOM     34  H1  UNL     1      45.928  12.626  14.971  1.00  0.00     0.219 HD
ENDBRANCH   4  33
BRANCH  14  35
HETATM   35  C18 UNL     1      48.592  16.816  11.547  1.00  0.00     0.041 C 
BRANCH  35  36
HETATM   36  C19 UNL     1      49.240  16.968  10.226  1.00  0.00    -0.049 C 
HETATM   37  C20 UNL     1      49.350  18.490   9.984  1.00  0.00     0.014 C 
HETATM   38  C21 UNL     1      50.637  16.449  10.103  1.00  0.00     0.014 C 
HETATM   39  C22 UNL     1      48.357  16.405   9.138  1.00  0.00     0.014 C 
ENDBRANCH  35  36
ENDBRANCH  14  35
BRANCH   1  40
HETATM   40  C4  UNL     1      41.407  11.087  14.023  1.00  0.00     0.039 C 
BRANCH  40  41
HETATM   41  C2  UNL     1      40.226  10.727  14.829  1.00  0.00    -0.020 C 
HETATM   42  C1  UNL     1      39.862  11.593  15.975  1.00  0.00     0.009 C 
HETATM   43  C3  UNL     1      40.507   9.315  15.382  1.00  0.00     0.009 C 
ENDBRANCH  40  41
ENDBRANCH   1  40
BRANCH  22  44
HETATM   44  C29 UNL     1      41.384  16.209  15.515  1.00  0.00     0.249 C 
HETATM   45  O6  UNL     1      40.994  16.778  14.466  1.00  0.00    -0.270 OA
HETATM   46  N3  UNL     1      40.682  16.493  16.709  1.00  0.00    -0.350 N 
HETATM   47  C30 UNL     1      41.003  15.899  17.999  1.00  0.00     0.126 C 
HETATM   48  C33 UNL     1      39.551  17.388  16.898  1.00  0.00     0.126 C 
HETATM   49  C31 UNL     1      39.680  15.855  18.746  1.00  0.00     0.021 C 
HETATM   50  C32 UNL     1      38.813  16.903  18.127  1.00  0.00     0.021 C 
ENDBRANCH  22  44
TORSDOF 11
ENDMDL
