MODEL 1
REMARK VINA RESULT: -7.644989932      0.000      0.000
REMARK  13 active torsions:
REMARK  status: ('A' for Active; 'I' for Inactive)
REMARK    1  A    between atoms: C2_2  and  C3_3 
REMARK    2  A    between atoms: C3_3  and  C4_4 
REMARK    3  A    between atoms: C12_12  and  O1_13 
REMARK    4  A    between atoms: N1_15  and  C13_16 
REMARK    5  A    between atoms: C13_16  and  C15_18 
REMARK    6  A    between atoms: C15_18  and  O2_19 
REMARK    7  A    between atoms: C19_24  and  C20_25 
REMARK    8  A    between atoms: C20_25  and  N2_26 
REMARK    9  A    between atoms: N2_26  and  O3_27 
REMARK       I    between atoms: N2_26  and  C21_29 
REMARK       I    between atoms: C21_29  and  N3_31 
REMARK   10  A    between atoms: N3_31  and  C22_33 
REMARK   11  A    between atoms: N4_39  and  C28_40 
REMARK   12  A    between atoms: C28_40  and  C30_42 
REMARK   13  A    between atoms: C30_42  and  O5_43 
ROOT
HETATM    1  C4  UNL     1      46.332  19.304  11.402  1.00  0.00    -0.050 A 
HETATM    2  C5  UNL     1      45.502  18.599  12.240  1.00  0.00     0.039 A 
HETATM    3  C6  UNL     1      45.539  17.189  12.393  1.00  0.00     0.061 A 
HETATM    4  C7  UNL     1      46.447  16.484  11.674  1.00  0.00     0.049 A 
HETATM    5  C8  UNL     1      47.294  17.242  10.816  1.00  0.00    -0.039 A 
HETATM    6  C9  UNL     1      48.352  16.573   9.977  1.00  0.00     0.050 C 
HETATM    7  C10 UNL     1      47.247  18.605  10.678  1.00  0.00    -0.049 A 
HETATM    8  C11 UNL     1      48.210  19.302   9.739  1.00  0.00     0.049 C 
HETATM    9  C12 UNL     1      46.734  15.055  11.609  1.00  0.00     0.151 C 
HETATM   10  N1  UNL     1      45.931  13.909  11.426  1.00  0.00    -0.354 N 
HETATM   11  C16 UNL     1      44.511  13.953  11.032  1.00  0.00     0.130 C 
HETATM   12  C17 UNL     1      43.692  12.766  11.314  1.00  0.00     0.006 C 
HETATM   13  C18 UNL     1      43.498  11.934  10.013  1.00  0.00     0.012 C 
HETATM   14  C19 UNL     1      42.257  13.111  11.802  1.00  0.00     0.016 C 
HETATM   15  C25 UNL     1      42.120  13.195  13.271  1.00  0.00     0.002 C 
HETATM   16  C26 UNL     1      40.988  14.153  13.622  1.00  0.00     0.011 C 
HETATM   17  C27 UNL     1      43.293  13.476  14.114  1.00  0.00     0.114 C 
HETATM   18  N4  UNL     1      43.304  14.696  14.884  1.00  0.00    -0.186 NA
HETATM   19  S1  UNL     1      44.699  15.678  14.670  1.00  0.00     0.305 S 
HETATM   20  O6  UNL     1      45.984  14.973  14.790  1.00  0.00    -0.188 OA
HETATM   21  O7  UNL     1      44.677  16.633  15.895  1.00  0.00    -0.188 OA
HETATM   22  N5  UNL     1      44.562  16.740  13.332  1.00  0.00    -0.267 N 
HETATM   23  C31 UNL     1      43.193  17.274  13.142  1.00  0.00     0.171 C 
ENDROOT
BRANCH  14  24
HETATM   24  C20 UNL     1      41.326  12.003  11.280  1.00  0.00     0.166 C 
BRANCH  24  25
HETATM   25  N2  UNL     1      40.524  11.370  12.270  1.00  0.00    -0.210 N 
HETATM   26  C21 UNL     1      39.153  11.664  12.403  1.00  0.00     0.342 C 
HETATM   27  O4  UNL     1      38.485  11.067  13.315  1.00  0.00    -0.245 OA
HETATM   28  N3  UNL     1      38.422  12.583  11.605  1.00  0.00    -0.337 N 
ATOM     29  H3  UNL     1      38.918  13.077  10.863  1.00  0.00     0.164 HD
BRANCH  25  30
HETATM   30  O3  UNL     1      41.072  10.442  13.074  1.00  0.00    -0.283 OA
ATOM     31  H3  UNL     1      41.588  10.718  13.824  1.00  0.00     0.245 HD
ENDBRANCH  25  30
BRANCH  28  32
HETATM   32  C22 UNL     1      37.025  12.853  11.783  1.00  0.00     0.078 C 
HETATM   33  C23 UNL     1      36.326  13.015  10.426  1.00  0.00     0.032 C 
HETATM   34  C24 UNL     1      36.747  14.094  12.597  1.00  0.00     0.032 C 
ENDBRANCH  28  32
ENDBRANCH  24  25
ENDBRANCH  14  24
BRANCH  10  35
HETATM   35  C13 UNL     1      46.473  12.586  11.568  1.00  0.00     0.105 C 
HETATM   36  C14 UNL     1      47.578  12.445  10.501  1.00  0.00     0.034 C 
BRANCH  35  37
HETATM   37  C15 UNL     1      46.988  12.128  12.890  1.00  0.00     0.189 C 
BRANCH  37  38
HETATM   38  O2  UNL     1      46.163  12.142  13.966  1.00  0.00    -0.399 OA
ATOM     39  H2  UNL     1      45.463  11.503  14.025  1.00  0.00     0.209 HD
ENDBRANCH  37  38
ENDBRANCH  35  37
ENDBRANCH  10  35
BRANCH  18  40
HETATM   40  C28 UNL     1      43.015  14.485  16.291  1.00  0.00     0.095 C 
HETATM   41  C29 UNL     1      42.473  13.110  16.602  1.00  0.00     0.029 C 
BRANCH  40  42
HETATM   42  C30 UNL     1      42.236  15.573  16.946  1.00  0.00     0.184 C 
BRANCH  42  43
HETATM   43  O5  UNL     1      43.024  16.005  18.043  1.00  0.00    -0.399 OA
ATOM     44  H5  UNL     1      42.820  16.925  18.161  1.00  0.00     0.209 HD
ENDBRANCH  42  43
ENDBRANCH  40  42
ENDBRANCH  18  40
BRANCH   9  45
HETATM   45  O1  UNL     1      48.009  14.762  11.739  1.00  0.00    -0.345 OA
ATOM     46  H1  UNL     1      48.462  14.635  10.913  1.00  0.00     0.219 HD
ENDBRANCH   9  45
BRANCH   1  47
HETATM   47  C3  UNL     1      46.261  20.777  11.263  1.00  0.00     0.039 C 
BRANCH  47  48
HETATM   48  C2  UNL     1      45.345  21.400  12.292  1.00  0.00     0.000 C 
HETATM   49  C1  UNL     1      44.488  22.485  11.704  1.00  0.00     0.005 C 
ENDBRANCH  47  48
ENDBRANCH   1  47
TORSDOF 13
ENDMDL
MODEL 2
REMARK VINA RESULT: -7.545131758      1.265      1.976
REMARK  13 active torsions:
REMARK  status: ('A' for Active; 'I' for Inactive)
REMARK    1  A    between atoms: C2_2  and  C3_3 
REMARK    2  A    between atoms: C3_3  and  C4_4 
REMARK    3  A    between atoms: C12_12  and  O1_13 
REMARK    4  A    between atoms: N1_15  and  C13_16 
REMARK    5  A    between atoms: C13_16  and  C15_18 
REMARK    6  A    between atoms: C15_18  and  O2_19 
REMARK    7  A    between atoms: C19_24  and  C20_25 
REMARK    8  A    between atoms: C20_25  and  N2_26 
REMARK    9  A    between atoms: N2_26  and  O3_27 
REMARK       I    between atoms: N2_26  and  C21_29 
REMARK       I    between atoms: C21_29  and  N3_31 
REMARK   10  A    between atoms: N3_31  and  C22_33 
REMARK   11  A    between atoms: N4_39  and  C28_40 
REMARK   12  A    between atoms: C28_40  and  C30_42 
REMARK   13  A    between atoms: C30_42  and  O5_43 
ROOT
HETATM    1  C4  UNL     1      45.814  19.305  11.720  1.00  0.00    -0.050 A 
HETATM    2  C5  UNL     1      44.996  18.540  12.516  1.00  0.00     0.039 A 
HETATM    3  C6  UNL     1      45.104  17.131  12.643  1.00  0.00     0.061 A 
HETATM    4  C7  UNL     1      46.072  16.491  11.943  1.00  0.00     0.049 A 
HETATM    5  C8  UNL     1      46.905  17.311  11.127  1.00  0.00    -0.039 A 
HETATM    6  C9  UNL     1      48.023  16.717  10.313  1.00  0.00     0.050 C 
HETATM    7  C10 UNL     1      46.788  18.672  11.014  1.00  0.00    -0.049 A 
HETATM    8  C11 UNL     1      47.742  19.439  10.121  1.00  0.00     0.049 C 
HETATM    9  C12 UNL     1      46.438  15.081  11.860  1.00  0.00     0.151 C 
HETATM   10  N1  UNL     1      45.704  13.898  11.629  1.00  0.00    -0.354 N 
HETATM   11  C16 UNL     1      44.298  13.874  11.188  1.00  0.00     0.130 C 
HETATM   12  C17 UNL     1      43.536  12.639  11.420  1.00  0.00     0.006 C 
HETATM   13  C18 UNL     1      43.430  11.825  10.098  1.00  0.00     0.012 C 
HETATM   14  C19 UNL     1      42.069  12.896  11.865  1.00  0.00     0.016 C 
HETATM   15  C25 UNL     1      41.879  12.943  13.330  1.00  0.00     0.002 C 
HETATM   16  C26 UNL     1      40.687  13.831  13.660  1.00  0.00     0.011 C 
HETATM   17  C27 UNL     1      43.008  13.269  14.217  1.00  0.00     0.114 C 
HETATM   18  N4  UNL     1      42.927  14.472  15.010  1.00  0.00    -0.186 NA
HETATM   19  S1  UNL     1      44.274  15.531  14.862  1.00  0.00     0.305 S 
HETATM   20  O6  UNL     1      45.590  14.893  15.012  1.00  0.00    -0.188 OA
HETATM   21  O7  UNL     1      44.159  16.457  16.103  1.00  0.00    -0.188 OA
HETATM   22  N5  UNL     1      44.123  16.611  13.541  1.00  0.00    -0.267 N 
HETATM   23  C31 UNL     1      42.734  17.075  13.314  1.00  0.00     0.171 C 
ENDROOT
BRANCH  14  24
HETATM   24  C20 UNL     1      41.217  11.751  11.291  1.00  0.00     0.166 C 
BRANCH  24  25
HETATM   25  N2  UNL     1      39.840  11.785  11.647  1.00  0.00    -0.210 N 
HETATM   26  C21 UNL     1      39.311  10.913  12.619  1.00  0.00     0.342 C 
HETATM   27  O4  UNL     1      38.064  10.986  12.893  1.00  0.00    -0.245 OA
HETATM   28  N3  UNL     1      40.045   9.935  13.341  1.00  0.00    -0.337 N 
ATOM     29  H3  UNL     1      41.043   9.847  13.154  1.00  0.00     0.164 HD
BRANCH  25  30
HETATM   30  O3  UNL     1      39.029  12.691  11.075  1.00  0.00    -0.283 OA
ATOM     31  H3  UNL     1      38.454  12.425  10.366  1.00  0.00     0.245 HD
ENDBRANCH  25  30
BRANCH  28  32
HETATM   32  C22 UNL     1      39.458   9.065  14.319  1.00  0.00     0.078 C 
HETATM   33  C23 UNL     1      40.433   8.819  15.479  1.00  0.00     0.032 C 
HETATM   34  C24 UNL     1      39.050   7.721  13.766  1.00  0.00     0.032 C 
ENDBRANCH  28  32
ENDBRANCH  24  25
ENDBRANCH  14  24
BRANCH  10  35
HETATM   35  C13 UNL     1      46.313  12.603  11.764  1.00  0.00     0.105 C 
HETATM   36  C14 UNL     1      47.498  12.567  10.777  1.00  0.00     0.034 C 
BRANCH  35  37
HETATM   37  C15 UNL     1      46.757  12.123  13.103  1.00  0.00     0.189 C 
BRANCH  37  38
HETATM   38  O2  UNL     1      45.907  12.205  14.155  1.00  0.00    -0.399 OA
ATOM     39  H2  UNL     1      45.937  11.539  14.832  1.00  0.00     0.209 HD
ENDBRANCH  37  38
ENDBRANCH  35  37
ENDBRANCH  10  35
BRANCH  18  40
HETATM   40  C28 UNL     1      42.605  14.216  16.403  1.00  0.00     0.095 C 
HETATM   41  C29 UNL     1      42.566  12.749  16.760  1.00  0.00     0.029 C 
BRANCH  40  42
HETATM   42  C30 UNL     1      41.429  14.968  16.926  1.00  0.00     0.184 C 
BRANCH  42  43
HETATM   43  O5  UNL     1      41.957  15.939  17.815  1.00  0.00    -0.399 OA
ATOM     44  H5  UNL     1      42.125  15.480  18.629  1.00  0.00     0.209 HD
ENDBRANCH  42  43
ENDBRANCH  40  42
ENDBRANCH  18  40
BRANCH   9  45
HETATM   45  O1  UNL     1      47.722  14.854  12.027  1.00  0.00    -0.345 OA
ATOM     46  H1  UNL     1      48.078  15.224  12.827  1.00  0.00     0.219 HD
ENDBRANCH   9  45
BRANCH   1  47
HETATM   47  C3  UNL     1      45.667  20.775  11.606  1.00  0.00     0.039 C 
BRANCH  47  48
HETATM   48  C2  UNL     1      44.334  21.255  12.134  1.00  0.00     0.000 C 
HETATM   49  C1  UNL     1      44.114  22.718  11.871  1.00  0.00     0.005 C 
ENDBRANCH  47  48
ENDBRANCH   1  47
TORSDOF 13
ENDMDL
MODEL 3
REMARK VINA RESULT: -7.478996775      3.471      5.394
REMARK  13 active torsions:
REMARK  status: ('A' for Active; 'I' for Inactive)
REMARK    1  A    between atoms: C2_2  and  C3_3 
REMARK    2  A    between atoms: C3_3  and  C4_4 
REMARK    3  A    between atoms: C12_12  and  O1_13 
REMARK    4  A    between atoms: N1_15  and  C13_16 
REMARK    5  A    between atoms: C13_16  and  C15_18 
REMARK    6  A    between atoms: C15_18  and  O2_19 
REMARK    7  A    between atoms: C19_24  and  C20_25 
REMARK    8  A    between atoms: C20_25  and  N2_26 
REMARK    9  A    between atoms: N2_26  and  O3_27 
REMARK       I    between atoms: N2_26  and  C21_29 
REMARK       I    between atoms: C21_29  and  N3_31 
REMARK   10  A    between atoms: N3_31  and  C22_33 
REMARK   11  A    between atoms: N4_39  and  C28_40 
REMARK   12  A    between atoms: C28_40  and  C30_42 
REMARK   13  A    between atoms: C30_42  and  O5_43 
ROOT
HETATM    1  C4  UNL     1      46.675  16.746  11.072  1.00  0.00    -0.050 A 
HETATM    2  C5  UNL     1      46.019  17.601  11.925  1.00  0.00     0.039 A 
HETATM    3  C6  UNL     1      45.029  17.190  12.855  1.00  0.00     0.061 A 
HETATM    4  C7  UNL     1      44.704  15.876  12.915  1.00  0.00     0.049 A 
HETATM    5  C8  UNL     1      45.401  15.014  12.020  1.00  0.00    -0.039 A 
HETATM    6  C9  UNL     1      45.137  13.531  12.002  1.00  0.00     0.050 C 
HETATM    7  C10 UNL     1      46.356  15.425  11.126  1.00  0.00    -0.049 A 
HETATM    8  C11 UNL     1      47.038  14.411  10.231  1.00  0.00     0.049 C 
HETATM    9  C12 UNL     1      43.750  15.149  13.745  1.00  0.00     0.151 C 
HETATM   10  N1  UNL     1      42.386  15.341  14.054  1.00  0.00    -0.354 N 
HETATM   11  C16 UNL     1      41.515  16.314  13.369  1.00  0.00     0.130 C 
HETATM   12  C17 UNL     1      40.290  16.731  14.062  1.00  0.00     0.006 C 
HETATM   13  C18 UNL     1      39.061  15.985  13.465  1.00  0.00     0.012 C 
HETATM   14  C19 UNL     1      39.973  18.245  13.895  1.00  0.00     0.016 C 
HETATM   15  C25 UNL     1      40.523  19.101  14.966  1.00  0.00     0.002 C 
HETATM   16  C26 UNL     1      40.781  20.499  14.419  1.00  0.00     0.011 C 
HETATM   17  C27 UNL     1      41.680  18.652  15.759  1.00  0.00     0.114 C 
HETATM   18  N4  UNL     1      42.902  19.414  15.674  1.00  0.00    -0.186 NA
HETATM   19  S1  UNL     1      44.305  18.495  15.293  1.00  0.00     0.305 S 
HETATM   20  O6  UNL     1      44.500  17.285  16.105  1.00  0.00    -0.188 OA
HETATM   21  O7  UNL     1      45.482  19.420  15.708  1.00  0.00    -0.188 OA
HETATM   22  N5  UNL     1      44.528  18.296  13.606  1.00  0.00    -0.267 N 
HETATM   23  C31 UNL     1      44.133  19.485  12.815  1.00  0.00     0.171 C 
ENDROOT
BRANCH  14  24
HETATM   24  C20 UNL     1      38.442  18.387  13.884  1.00  0.00     0.166 C 
BRANCH  24  25
HETATM   25  N2  UNL     1      37.919  19.219  12.856  1.00  0.00    -0.210 N 
HETATM   26  C21 UNL     1      37.074  18.704  11.853  1.00  0.00     0.342 C 
HETATM   27  O4  UNL     1      36.639  19.501  10.952  1.00  0.00    -0.245 OA
HETATM   28  N3  UNL     1      36.649  17.355  11.741  1.00  0.00    -0.337 N 
ATOM     29  H3  UNL     1      36.972  16.688  12.442  1.00  0.00     0.164 HD
BRANCH  25  30
HETATM   30  O3  UNL     1      38.202  20.533  12.858  1.00  0.00    -0.283 OA
ATOM     31  H3  UNL     1      38.952  20.852  12.368  1.00  0.00     0.245 HD
ENDBRANCH  25  30
BRANCH  28  32
HETATM   32  C22 UNL     1      35.791  16.877  10.695  1.00  0.00     0.078 C 
HETATM   33  C23 UNL     1      34.385  16.588  11.238  1.00  0.00     0.032 C 
HETATM   34  C24 UNL     1      36.295  15.622  10.025  1.00  0.00     0.032 C 
ENDBRANCH  28  32
ENDBRANCH  24  25
ENDBRANCH  14  24
BRANCH  10  35
HETATM   35  C13 UNL     1      41.726  14.543  15.051  1.00  0.00     0.105 C 
HETATM   36  C14 UNL     1      41.313  13.227  14.360  1.00  0.00     0.034 C 
BRANCH  35  37
HETATM   37  C15 UNL     1      42.411  14.242  16.340  1.00  0.00     0.189 C 
BRANCH  37  38
HETATM   38  O2  UNL     1      42.982  15.252  17.041  1.00  0.00    -0.399 OA
ATOM     39  H2  UNL     1      42.504  15.649  17.759  1.00  0.00     0.209 HD
ENDBRANCH  37  38
ENDBRANCH  35  37
ENDBRANCH  10  35
BRANCH  18  40
HETATM   40  C28 UNL     1      43.124  20.267  16.828  1.00  0.00     0.095 C 
HETATM   41  C29 UNL     1      42.034  20.179  17.869  1.00  0.00     0.029 C 
BRANCH  40  42
HETATM   42  C30 UNL     1      43.506  21.672  16.509  1.00  0.00     0.184 C 
BRANCH  42  43
HETATM   43  O5  UNL     1      44.810  21.847  17.040  1.00  0.00    -0.399 OA
ATOM     44  H5  UNL     1      44.731  21.695  17.974  1.00  0.00     0.209 HD
ENDBRANCH  42  43
ENDBRANCH  40  42
ENDBRANCH  18  40
BRANCH   9  45
HETATM   45  O1  UNL     1      44.254  14.084  14.329  1.00  0.00    -0.345 OA
ATOM     46  H1  UNL     1      43.622  13.390  14.476  1.00  0.00     0.219 HD
ENDBRANCH   9  45
BRANCH   1  47
HETATM   47  C3  UNL     1      47.700  17.212  10.109  1.00  0.00     0.039 C 
BRANCH  47  48
HETATM   48  C2  UNL     1      47.726  18.719   9.993  1.00  0.00     0.000 C 
HETATM   49  C1  UNL     1      48.053  19.174   8.599  1.00  0.00     0.005 C 
ENDBRANCH  47  48
ENDBRANCH   1  47
TORSDOF 13
ENDMDL
MODEL 4
REMARK VINA RESULT: -7.447200524      4.009      5.646
REMARK  13 active torsions:
REMARK  status: ('A' for Active; 'I' for Inactive)
REMARK    1  A    between atoms: C2_2  and  C3_3 
REMARK    2  A    between atoms: C3_3  and  C4_4 
REMARK    3  A    between atoms: C12_12  and  O1_13 
REMARK    4  A    between atoms: N1_15  and  C13_16 
REMARK    5  A    between atoms: C13_16  and  C15_18 
REMARK    6  A    between atoms: C15_18  and  O2_19 
REMARK    7  A    between atoms: C19_24  and  C20_25 
REMARK    8  A    between atoms: C20_25  and  N2_26 
REMARK    9  A    between atoms: N2_26  and  O3_27 
REMARK       I    between atoms: N2_26  and  C21_29 
REMARK       I    between atoms: C21_29  and  N3_31 
REMARK   10  A    between atoms: N3_31  and  C22_33 
REMARK   11  A    between atoms: N4_39  and  C28_40 
REMARK   12  A    between atoms: C28_40  and  C30_42 
REMARK   13  A    between atoms: C30_42  and  O5_43 
ROOT
HETATM    1  C4  UNL     1      46.785  21.919  10.875  1.00  0.00    -0.050 A 
HETATM    2  C5  UNL     1      45.951  22.109  11.950  1.00  0.00     0.039 A 
HETATM    3  C6  UNL     1      45.404  21.055  12.727  1.00  0.00     0.061 A 
HETATM    4  C7  UNL     1      45.718  19.778  12.397  1.00  0.00     0.049 A 
HETATM    5  C8  UNL     1      46.585  19.613  11.279  1.00  0.00    -0.039 A 
HETATM    6  C9  UNL     1      47.017  18.243  10.825  1.00  0.00     0.050 C 
HETATM    7  C10 UNL     1      47.107  20.641  10.537  1.00  0.00    -0.049 A 
HETATM    8  C11 UNL     1      48.029  20.340   9.374  1.00  0.00     0.049 C 
HETATM    9  C12 UNL     1      45.329  18.501  12.985  1.00  0.00     0.151 C 
HETATM   10  N1  UNL     1      44.089  17.937  13.352  1.00  0.00    -0.354 N 
HETATM   11  C16 UNL     1      42.782  18.519  12.996  1.00  0.00     0.130 C 
HETATM   12  C17 UNL     1      41.619  18.112  13.795  1.00  0.00     0.006 C 
HETATM   13  C18 UNL     1      40.784  17.054  13.016  1.00  0.00     0.012 C 
HETATM   14  C19 UNL     1      40.635  19.279  14.088  1.00  0.00     0.016 C 
HETATM   15  C25 UNL     1      40.894  19.986  15.360  1.00  0.00     0.002 C 
HETATM   16  C26 UNL     1      40.410  21.426  15.249  1.00  0.00     0.011 C 
HETATM   17  C27 UNL     1      42.234  19.953  15.970  1.00  0.00     0.114 C 
HETATM   18  N4  UNL     1      42.954  21.196  16.102  1.00  0.00    -0.186 NA
HETATM   19  S1  UNL     1      44.545  21.185  15.451  1.00  0.00     0.305 S 
HETATM   20  O6  UNL     1      45.383  20.049  15.864  1.00  0.00    -0.188 OA
HETATM   21  O7  UNL     1      45.227  22.416  16.108  1.00  0.00    -0.188 OA
HETATM   22  N5  UNL     1      44.578  21.556  13.778  1.00  0.00    -0.267 N 
HETATM   23  C31 UNL     1      43.577  22.573  13.380  1.00  0.00     0.171 C 
ENDROOT
BRANCH  14  24
HETATM   24  C20 UNL     1      39.221  18.675  14.137  1.00  0.00     0.166 C 
BRANCH  24  25
HETATM   25  N2  UNL     1      38.288  19.243  13.224  1.00  0.00    -0.210 N 
HETATM   26  C21 UNL     1      37.320  18.452  12.577  1.00  0.00     0.342 C 
HETATM   27  O4  UNL     1      36.512  19.018  11.763  1.00  0.00    -0.245 OA
HETATM   28  N3  UNL     1      37.148  17.053  12.743  1.00  0.00    -0.337 N 
ATOM     29  H3  UNL     1      37.770  16.564  13.387  1.00  0.00     0.164 HD
BRANCH  25  30
HETATM   30  O3  UNL     1      38.304  20.568  12.999  1.00  0.00    -0.283 OA
ATOM     31  H3  UNL     1      37.754  20.934  12.316  1.00  0.00     0.245 HD
ENDBRANCH  25  30
BRANCH  28  32
HETATM   32  C22 UNL     1      36.147  16.289  12.055  1.00  0.00     0.078 C 
HETATM   33  C23 UNL     1      35.643  15.138  12.937  1.00  0.00     0.032 C 
HETATM   34  C24 UNL     1      36.628  15.696  10.753  1.00  0.00     0.032 C 
ENDBRANCH  28  32
ENDBRANCH  24  25
ENDBRANCH  14  24
BRANCH  10  35
HETATM   35  C13 UNL     1      44.016  16.696  14.073  1.00  0.00     0.105 C 
HETATM   36  C14 UNL     1      44.448  15.588  13.091  1.00  0.00     0.034 C 
BRANCH  35  37
HETATM   37  C15 UNL     1      44.747  16.539  15.363  1.00  0.00     0.189 C 
BRANCH  37  38
HETATM   38  O2  UNL     1      45.967  15.948  15.369  1.00  0.00    -0.399 OA
ATOM     39  H2  UNL     1      46.567  16.125  16.083  1.00  0.00     0.209 HD
ENDBRANCH  37  38
ENDBRANCH  35  37
ENDBRANCH  10  35
BRANCH  18  40
HETATM   40  C28 UNL     1      42.939  21.723  17.455  1.00  0.00     0.095 C 
HETATM   41  C29 UNL     1      42.301  20.797  18.463  1.00  0.00     0.029 C 
BRANCH  40  42
HETATM   42  C30 UNL     1      42.459  23.129  17.578  1.00  0.00     0.184 C 
BRANCH  42  43
HETATM   43  O5  UNL     1      43.517  23.845  18.195  1.00  0.00    -0.399 OA
ATOM     44  H5  UNL     1      43.335  24.763  18.035  1.00  0.00     0.209 HD
ENDBRANCH  42  43
ENDBRANCH  40  42
ENDBRANCH  18  40
BRANCH   9  45
HETATM   45  O1  UNL     1      46.340  17.693  13.220  1.00  0.00    -0.345 OA
ATOM     46  H1  UNL     1      46.086  16.859  13.598  1.00  0.00     0.219 HD
ENDBRANCH   9  45
BRANCH   1  47
HETATM   47  C3  UNL     1      47.333  23.044  10.082  1.00  0.00     0.039 C 
BRANCH  47  48
HETATM   48  C2  UNL     1      46.271  23.717   9.243  1.00  0.00     0.000 C 
HETATM   49  C1  UNL     1      46.491  23.501   7.772  1.00  0.00     0.005 C 
ENDBRANCH  47  48
ENDBRANCH   1  47
TORSDOF 13
ENDMDL
MODEL 5
REMARK VINA RESULT: -7.382659123      4.017      6.534
REMARK  13 active torsions:
REMARK  status: ('A' for Active; 'I' for Inactive)
REMARK    1  A    between atoms: C2_2  and  C3_3 
REMARK    2  A    between atoms: C3_3  and  C4_4 
REMARK    3  A    between atoms: C12_12  and  O1_13 
REMARK    4  A    between atoms: N1_15  and  C13_16 
REMARK    5  A    between atoms: C13_16  and  C15_18 
REMARK    6  A    between atoms: C15_18  and  O2_19 
REMARK    7  A    between atoms: C19_24  and  C20_25 
REMARK    8  A    between atoms: C20_25  and  N2_26 
REMARK    9  A    between atoms: N2_26  and  O3_27 
REMARK       I    between atoms: N2_26  and  C21_29 
REMARK       I    between atoms: C21_29  and  N3_31 
REMARK   10  A    between atoms: N3_31  and  C22_33 
REMARK   11  A    between atoms: N4_39  and  C28_40 
REMARK   12  A    between atoms: C28_40  and  C30_42 
REMARK   13  A    between atoms: C30_42  and  O5_43 
ROOT
HETATM    1  C4  UNL     1      47.007  17.043  10.832  1.00  0.00    -0.050 A 
HETATM    2  C5  UNL     1      46.447  17.978  11.670  1.00  0.00     0.039 A 
HETATM    3  C6  UNL     1      45.471  17.679  12.654  1.00  0.00     0.061 A 
HETATM    4  C7  UNL     1      45.060  16.394  12.788  1.00  0.00     0.049 A 
HETATM    5  C8  UNL     1      45.659  15.447  11.908  1.00  0.00    -0.039 A 
HETATM    6  C9  UNL     1      45.294  13.987  11.969  1.00  0.00     0.050 C 
HETATM    7  C10 UNL     1      46.602  15.752  10.960  1.00  0.00    -0.049 A 
HETATM    8  C11 UNL     1      47.176  14.654  10.087  1.00  0.00     0.049 C 
HETATM    9  C12 UNL     1      44.094  15.773  13.687  1.00  0.00     0.151 C 
HETATM   10  N1  UNL     1      42.760  16.073  14.039  1.00  0.00    -0.354 N 
HETATM   11  C16 UNL     1      41.930  17.073  13.343  1.00  0.00     0.130 C 
HETATM   12  C17 UNL     1      40.765  17.605  14.063  1.00  0.00     0.006 C 
HETATM   13  C18 UNL     1      39.465  16.920  13.548  1.00  0.00     0.012 C 
HETATM   14  C19 UNL     1      40.546  19.128  13.838  1.00  0.00     0.016 C 
HETATM   15  C25 UNL     1      41.197  19.989  14.847  1.00  0.00     0.002 C 
HETATM   16  C26 UNL     1      41.526  21.340  14.225  1.00  0.00     0.011 C 
HETATM   17  C27 UNL     1      42.352  19.496  15.614  1.00  0.00     0.114 C 
HETATM   18  N4  UNL     1      43.619  20.166  15.447  1.00  0.00    -0.186 NA
HETATM   19  S1  UNL     1      44.939  19.136  15.056  1.00  0.00     0.305 S 
HETATM   20  O6  UNL     1      45.084  17.951  15.915  1.00  0.00    -0.188 OA
HETATM   21  O7  UNL     1      46.192  19.994  15.381  1.00  0.00    -0.188 OA
HETATM   22  N5  UNL     1      45.078  18.848  13.372  1.00  0.00    -0.267 N 
HETATM   23  C31 UNL     1      44.732  20.026  12.543  1.00  0.00     0.171 C 
ENDROOT
BRANCH  14  24
HETATM   24  C20 UNL     1      39.028  19.376  13.879  1.00  0.00     0.166 C 
BRANCH  24  25
HETATM   25  N2  UNL     1      38.533  19.894  15.107  1.00  0.00    -0.210 N 
HETATM   26  C21 UNL     1      38.071  21.221  15.212  1.00  0.00     0.342 C 
HETATM   27  O4  UNL     1      37.642  21.631  16.344  1.00  0.00    -0.245 OA
HETATM   28  N3  UNL     1      38.035  22.170  14.157  1.00  0.00    -0.337 N 
ATOM     29  H3  UNL     1      38.366  21.880  13.237  1.00  0.00     0.164 HD
BRANCH  25  30
HETATM   30  O3  UNL     1      38.466  19.094  16.186  1.00  0.00    -0.283 OA
ATOM     31  H3  UNL     1      38.323  19.476  17.045  1.00  0.00     0.245 HD
ENDBRANCH  25  30
BRANCH  28  32
HETATM   32  C22 UNL     1      37.560  23.514  14.315  1.00  0.00     0.078 C 
HETATM   33  C23 UNL     1      36.705  23.931  13.111  1.00  0.00     0.032 C 
HETATM   34  C24 UNL     1      38.664  24.532  14.473  1.00  0.00     0.032 C 
ENDBRANCH  28  32
ENDBRANCH  24  25
ENDBRANCH  14  24
BRANCH  10  35
HETATM   35  C13 UNL     1      42.089  15.367  15.096  1.00  0.00     0.105 C 
HETATM   36  C14 UNL     1      41.592  14.037  14.493  1.00  0.00     0.034 C 
BRANCH  35  37
HETATM   37  C15 UNL     1      42.794  15.105  16.383  1.00  0.00     0.189 C 
BRANCH  37  38
HETATM   38  O2  UNL     1      43.427  16.123  17.014  1.00  0.00    -0.399 OA
ATOM     39  H2  UNL     1      43.215  17.019  16.782  1.00  0.00     0.209 HD
ENDBRANCH  37  38
ENDBRANCH  35  37
ENDBRANCH  10  35
BRANCH  18  40
HETATM   40  C28 UNL     1      43.946  21.051  16.551  1.00  0.00     0.095 C 
HETATM   41  C29 UNL     1      42.961  20.988  17.694  1.00  0.00     0.029 C 
BRANCH  40  42
HETATM   42  C30 UNL     1      44.287  22.448  16.159  1.00  0.00     0.184 C 
BRANCH  42  43
HETATM   43  O5  UNL     1      45.661  22.611  16.471  1.00  0.00    -0.399 OA
ATOM     44  H5  UNL     1      45.719  23.417  16.969  1.00  0.00     0.209 HD
ENDBRANCH  42  43
ENDBRANCH  40  42
ENDBRANCH  18  40
BRANCH   9  45
HETATM   45  O1  UNL     1      44.548  14.702  14.300  1.00  0.00    -0.345 OA
ATOM     46  H1  UNL     1      44.906  14.875  15.163  1.00  0.00     0.219 HD
ENDBRANCH   9  45
BRANCH   1  47
HETATM   47  C3  UNL     1      48.020  17.394   9.810  1.00  0.00     0.039 C 
BRANCH  47  48
HETATM   48  C2  UNL     1      48.235  18.887   9.713  1.00  0.00     0.000 C 
HETATM   49  C1  UNL     1      48.052  19.397   8.312  1.00  0.00     0.005 C 
ENDBRANCH  47  48
ENDBRANCH   1  47
TORSDOF 13
ENDMDL
