MODEL 1
REMARK VINA RESULT: -7.634676297      0.000      0.000
REMARK  10 active torsions:
REMARK  status: ('A' for Active; 'I' for Inactive)
REMARK    1  A    between atoms: C2_2  and  C3_3 
REMARK    2  A    between atoms: C3_3  and  C5_5 
REMARK    3  A    between atoms: C12_18  and  O3_19 
REMARK    4  A    between atoms: O3_19  and  C13_20 
REMARK    5  A    between atoms: C20_28  and  O4_29 
REMARK    6  A    between atoms: C21_31  and  O5_32 
REMARK    7  A    between atoms: C22_34  and  C23_35 
REMARK    8  A    between atoms: C23_35  and  C24_36 
REMARK    9  A    between atoms: C28_43  and  C29_44 
REMARK   10  A    between atoms: C29_44  and  C30_45 
ROOT
HETATM    1  C5  UNL     1      41.959  16.463  16.496  1.00  0.00     0.188 C 
HETATM    2  N1  UNL     1      42.874  17.466  16.031  1.00  0.00    -0.345 N 
ATOM      3  H1  UNL     1      43.442  17.894  16.762  1.00  0.00     0.163 HD
HETATM    4  C6  UNL     1      43.113  17.946  14.763  1.00  0.00     0.246 C 
HETATM    5  O1  UNL     1      42.931  19.201  14.533  1.00  0.00    -0.271 OA
HETATM    6  C7  UNL     1      43.582  17.185  13.545  1.00  0.00     0.106 C 
HETATM    7  C8  UNL     1      44.638  18.066  12.832  1.00  0.00     0.048 C 
HETATM    8  C9  UNL     1      42.436  17.134  12.602  1.00  0.00     0.048 C 
HETATM    9  N2  UNL     1      44.245  15.972  13.859  1.00  0.00    -0.342 N 
ATOM     10  H2  UNL     1      45.005  16.100  14.527  1.00  0.00     0.163 HD
HETATM   11  C10 UNL     1      44.096  14.653  13.464  1.00  0.00     0.244 C 
HETATM   12  O2  UNL     1      43.937  13.815  14.437  1.00  0.00    -0.271 OA
HETATM   13  C11 UNL     1      44.085  14.042  12.135  1.00  0.00     0.207 C 
HETATM   14  C12 UNL     1      45.529  13.922  11.620  1.00  0.00     0.155 C 
HETATM   15  C18 UNL     1      46.053  12.955  12.671  1.00  0.00     0.054 C 
HETATM   16  C19 UNL     1      44.943  11.960  12.866  1.00  0.00     0.129 C 
HETATM   17  N3  UNL     1      43.797  12.605  12.185  1.00  0.00    -0.344 N 
HETATM   18  C20 UNL     1      42.676  11.945  11.648  1.00  0.00     0.171 C 
HETATM   19  C21 UNL     1      41.283  12.050  11.895  1.00  0.00     0.116 C 
HETATM   20  C22 UNL     1      40.537  12.343  13.140  1.00  0.00     0.146 C 
HETATM   21  N4  UNL     1      40.419  13.765  13.341  1.00  0.00    -0.348 N 
ATOM     22  H4  UNL     1      41.023  14.316  12.731  1.00  0.00     0.163 HD
HETATM   23  C27 UNL     1      39.651  14.529  14.194  1.00  0.00     0.247 C 
HETATM   24  O6  UNL     1      38.904  15.453  13.673  1.00  0.00    -0.271 OA
HETATM   25  C28 UNL     1      39.506  14.499  15.668  1.00  0.00     0.224 C 
HETATM   26  O7  UNL     1      39.509  15.850  16.182  1.00  0.00    -0.305 OA
HETATM   27  C33 UNL     1      40.537  16.724  16.112  1.00  0.00     0.283 C 
HETATM   28  O8  UNL     1      40.315  17.908  15.680  1.00  0.00    -0.263 OA
ENDROOT
BRANCH  14  29
HETATM   29  O3  UNL     1      46.215  15.079  11.502  1.00  0.00    -0.378 OA
BRANCH  29  30
HETATM   30  C13 UNL     1      47.210  14.959  10.534  1.00  0.00     0.122 C 
HETATM   31  C14 UNL     1      46.753  14.525   9.188  1.00  0.00     0.032 C 
HETATM   32  C15 UNL     1      47.548  15.407   8.198  1.00  0.00     0.002 C 
HETATM   33  C16 UNL     1      47.465  16.729   8.951  1.00  0.00     0.002 C 
HETATM   34  C17 UNL     1      47.826  16.328  10.352  1.00  0.00     0.032 C 
ENDBRANCH  29  30
ENDBRANCH  14  29
BRANCH  18  35
HETATM   35  O4  UNL     1      42.987  11.051  10.730  1.00  0.00    -0.344 OA
ATOM     36  H4  UNL     1      42.485  11.143   9.929  1.00  0.00     0.219 HD
ENDBRANCH  18  35
BRANCH  19  37
HETATM   37  O5  UNL     1      40.524  11.859  10.857  1.00  0.00    -0.359 OA
ATOM     38  H5  UNL     1      40.127  12.643  10.499  1.00  0.00     0.217 HD
ENDBRANCH  19  37
BRANCH  20  39
HETATM   39  C23 UNL     1      40.921  11.549  14.339  1.00  0.00     0.036 C 
BRANCH  39  40
HETATM   40  C24 UNL     1      39.922  10.602  14.889  1.00  0.00    -0.020 C 
HETATM   41  C25 UNL     1      38.653  10.556  14.022  1.00  0.00     0.009 C 
HETATM   42  C26 UNL     1      40.375   9.275  15.345  1.00  0.00     0.009 C 
ENDBRANCH  39  40
ENDBRANCH  20  39
BRANCH   1  43
HETATM   43  C3  UNL     1      41.943  16.243  17.966  1.00  0.00     0.014 C 
HETATM   44  C4  UNL     1      41.081  17.212  18.746  1.00  0.00     0.012 C 
BRANCH  43  45
HETATM   45  C2  UNL     1      41.812  14.856  18.468  1.00  0.00     0.002 C 
HETATM   46  C1  UNL     1      42.300  13.743  17.632  1.00  0.00     0.005 C 
ENDBRANCH  43  45
ENDBRANCH   1  43
BRANCH  25  47
HETATM   47  C29 UNL     1      38.151  13.941  16.067  1.00  0.00     0.046 C 
BRANCH  47  48
HETATM   48  C30 UNL     1      38.339  13.031  17.244  1.00  0.00    -0.020 C 
HETATM   49  C31 UNL     1      37.416  11.866  17.295  1.00  0.00     0.009 C 
HETATM   50  C32 UNL     1      38.252  13.798  18.548  1.00  0.00     0.009 C 
ENDBRANCH  47  48
ENDBRANCH  25  47
TORSDOF 10
ENDMDL
MODEL 2
REMARK VINA RESULT: -7.276397941      0.861      1.050
REMARK  10 active torsions:
REMARK  status: ('A' for Active; 'I' for Inactive)
REMARK    1  A    between atoms: C2_2  and  C3_3 
REMARK    2  A    between atoms: C3_3  and  C5_5 
REMARK    3  A    between atoms: C12_18  and  O3_19 
REMARK    4  A    between atoms: O3_19  and  C13_20 
REMARK    5  A    between atoms: C20_28  and  O4_29 
REMARK    6  A    between atoms: C21_31  and  O5_32 
REMARK    7  A    between atoms: C22_34  and  C23_35 
REMARK    8  A    between atoms: C23_35  and  C24_36 
REMARK    9  A    between atoms: C28_43  and  C29_44 
REMARK   10  A    between atoms: C29_44  and  C30_45 
ROOT
HETATM    1  C5  UNL     1      41.681  17.262  16.601  1.00  0.00     0.188 C 
HETATM    2  N1  UNL     1      42.594  18.273  16.149  1.00  0.00    -0.345 N 
ATOM      3  H1  UNL     1      43.090  18.761  16.895  1.00  0.00     0.163 HD
HETATM    4  C6  UNL     1      42.911  18.694  14.878  1.00  0.00     0.246 C 
HETATM    5  O1  UNL     1      42.704  19.927  14.566  1.00  0.00    -0.271 OA
HETATM    6  C7  UNL     1      43.497  17.888  13.742  1.00  0.00     0.106 C 
HETATM    7  C8  UNL     1      44.573  18.770  13.060  1.00  0.00     0.048 C 
HETATM    8  C9  UNL     1      42.428  17.743  12.722  1.00  0.00     0.048 C 
HETATM    9  N2  UNL     1      44.176  16.720  14.171  1.00  0.00    -0.342 N 
ATOM     10  H2  UNL     1      44.878  16.913  14.885  1.00  0.00     0.163 HD
HETATM   11  C10 UNL     1      44.102  15.377  13.840  1.00  0.00     0.244 C 
HETATM   12  O2  UNL     1      43.899  14.587  14.844  1.00  0.00    -0.271 OA
HETATM   13  C11 UNL     1      44.213  14.696  12.550  1.00  0.00     0.207 C 
HETATM   14  C12 UNL     1      45.695  14.605  12.151  1.00  0.00     0.155 C 
HETATM   15  C18 UNL     1      46.171  13.716  13.289  1.00  0.00     0.054 C 
HETATM   16  C19 UNL     1      45.084  12.691  13.457  1.00  0.00     0.129 C 
HETATM   17  N3  UNL     1      43.971  13.255  12.659  1.00  0.00    -0.344 N 
HETATM   18  C20 UNL     1      42.918  12.524  12.078  1.00  0.00     0.171 C 
HETATM   19  C21 UNL     1      41.508  12.588  12.216  1.00  0.00     0.116 C 
HETATM   20  C22 UNL     1      40.660  12.918  13.385  1.00  0.00     0.146 C 
HETATM   21  N4  UNL     1      40.478  14.344  13.497  1.00  0.00    -0.348 N 
ATOM     22  H4  UNL     1      41.107  14.884  12.903  1.00  0.00     0.163 HD
HETATM   23  C27 UNL     1      39.621  15.121  14.246  1.00  0.00     0.247 C 
HETATM   24  O6  UNL     1      38.885  15.987  13.622  1.00  0.00    -0.271 OA
HETATM   25  C28 UNL     1      39.367  15.163  15.705  1.00  0.00     0.224 C 
HETATM   26  O7  UNL     1      39.284  16.540  16.142  1.00  0.00    -0.305 OA
HETATM   27  C33 UNL     1      40.284  17.447  16.100  1.00  0.00     0.283 C 
HETATM   28  O8  UNL     1      40.055  18.597  15.587  1.00  0.00    -0.263 OA
ENDROOT
BRANCH  14  29
HETATM   29  O3  UNL     1      46.347  15.779  12.019  1.00  0.00    -0.378 OA
BRANCH  29  30
HETATM   30  C13 UNL     1      47.320  15.688  11.025  1.00  0.00     0.122 C 
HETATM   31  C14 UNL     1      46.831  15.300   9.676  1.00  0.00     0.032 C 
HETATM   32  C15 UNL     1      47.608  16.212   8.698  1.00  0.00     0.002 C 
HETATM   33  C16 UNL     1      47.547  17.509   9.496  1.00  0.00     0.002 C 
HETATM   34  C17 UNL     1      47.937  17.061  10.874  1.00  0.00     0.032 C 
ENDBRANCH  29  30
ENDBRANCH  14  29
BRANCH  18  35
HETATM   35  O4  UNL     1      43.328  11.595  11.237  1.00  0.00    -0.344 OA
ATOM     36  H4  UNL     1      44.244  11.678  11.002  1.00  0.00     0.219 HD
ENDBRANCH  18  35
BRANCH  19  37
HETATM   37  O5  UNL     1      40.836  12.313  11.137  1.00  0.00    -0.359 OA
ATOM     38  H5  UNL     1      41.335  12.360  10.330  1.00  0.00     0.217 HD
ENDBRANCH  19  37
BRANCH  20  39
HETATM   39  C23 UNL     1      40.979  12.204  14.651  1.00  0.00     0.036 C 
BRANCH  39  40
HETATM   40  C24 UNL     1      41.273  10.754  14.570  1.00  0.00    -0.020 C 
HETATM   41  C25 UNL     1      42.655  10.426  15.157  1.00  0.00     0.009 C 
HETATM   42  C26 UNL     1      40.223   9.793  14.957  1.00  0.00     0.009 C 
ENDBRANCH  39  40
ENDBRANCH  20  39
BRANCH   1  43
HETATM   43  C3  UNL     1      41.561  17.120  18.075  1.00  0.00     0.014 C 
HETATM   44  C4  UNL     1      40.670  18.143  18.745  1.00  0.00     0.012 C 
BRANCH  43  45
HETATM   45  C2  UNL     1      41.368  15.763  18.638  1.00  0.00     0.002 C 
HETATM   46  C1  UNL     1      42.319  14.696  18.277  1.00  0.00     0.005 C 
ENDBRANCH  43  45
ENDBRANCH   1  43
BRANCH  25  47
HETATM   47  C29 UNL     1      38.005  14.575  16.034  1.00  0.00     0.046 C 
BRANCH  47  48
HETATM   48  C30 UNL     1      38.188  13.136  16.414  1.00  0.00    -0.020 C 
HETATM   49  C31 UNL     1      36.928  12.370  16.606  1.00  0.00     0.009 C 
HETATM   50  C32 UNL     1      39.052  13.002  17.652  1.00  0.00     0.009 C 
ENDBRANCH  47  48
ENDBRANCH  25  47
TORSDOF 10
ENDMDL
MODEL 3
REMARK VINA RESULT: -7.025676841      2.212      6.953
REMARK  10 active torsions:
REMARK  status: ('A' for Active; 'I' for Inactive)
REMARK    1  A    between atoms: C2_2  and  C3_3 
REMARK    2  A    between atoms: C3_3  and  C5_5 
REMARK    3  A    between atoms: C12_18  and  O3_19 
REMARK    4  A    between atoms: O3_19  and  C13_20 
REMARK    5  A    between atoms: C20_28  and  O4_29 
REMARK    6  A    between atoms: C21_31  and  O5_32 
REMARK    7  A    between atoms: C22_34  and  C23_35 
REMARK    8  A    between atoms: C23_35  and  C24_36 
REMARK    9  A    between atoms: C28_43  and  C29_44 
REMARK   10  A    between atoms: C29_44  and  C30_45 
ROOT
HETATM    1  C5  UNL     1      41.569  17.461  15.078  1.00  0.00     0.188 C 
HETATM    2  N1  UNL     1      40.620  16.478  15.516  1.00  0.00    -0.345 N 
ATOM      3  H1  UNL     1      39.644  16.762  15.428  1.00  0.00     0.163 HD
HETATM    4  C6  UNL     1      40.806  15.216  16.035  1.00  0.00     0.246 C 
HETATM    5  O1  UNL     1      40.353  14.960  17.213  1.00  0.00    -0.271 OA
HETATM    6  C7  UNL     1      41.492  14.032  15.394  1.00  0.00     0.106 C 
HETATM    7  C8  UNL     1      40.633  12.781  15.706  1.00  0.00     0.048 C 
HETATM    8  C9  UNL     1      42.757  13.814  16.140  1.00  0.00     0.048 C 
HETATM    9  N2  UNL     1      41.553  14.111  13.981  1.00  0.00    -0.342 N 
ATOM     10  H2  UNL     1      40.641  14.282  13.556  1.00  0.00     0.163 HD
HETATM   11  C10 UNL     1      42.569  14.010  13.046  1.00  0.00     0.244 C 
HETATM   12  O2  UNL     1      42.667  15.024  12.247  1.00  0.00    -0.271 OA
HETATM   13  C11 UNL     1      43.554  12.956  12.804  1.00  0.00     0.207 C 
HETATM   14  C12 UNL     1      42.884  11.800  12.045  1.00  0.00     0.155 C 
HETATM   15  C18 UNL     1      42.548  12.548  10.764  1.00  0.00     0.054 C 
HETATM   16  C19 UNL     1      43.758  13.399  10.488  1.00  0.00     0.129 C 
HETATM   17  N3  UNL     1      44.515  13.320  11.758  1.00  0.00    -0.344 N 
HETATM   18  C20 UNL     1      45.901  13.509  11.907  1.00  0.00     0.171 C 
HETATM   19  C21 UNL     1      46.674  14.413  12.680  1.00  0.00     0.116 C 
HETATM   20  C22 UNL     1      46.421  15.819  13.073  1.00  0.00     0.146 C 
HETATM   21  N4  UNL     1      45.625  15.877  14.273  1.00  0.00    -0.348 N 
ATOM     22  H4  UNL     1      45.205  14.983  14.528  1.00  0.00     0.163 HD
HETATM   23  C27 UNL     1      45.318  16.900  15.143  1.00  0.00     0.247 C 
HETATM   24  O6  UNL     1      45.572  16.722  16.402  1.00  0.00    -0.271 OA
HETATM   25  C28 UNL     1      44.721  18.236  14.907  1.00  0.00     0.224 C 
HETATM   26  O7  UNL     1      43.729  18.509  15.924  1.00  0.00    -0.305 OA
HETATM   27  C33 UNL     1      42.582  17.822  16.118  1.00  0.00     0.283 C 
HETATM   28  O8  UNL     1      42.293  17.421  17.299  1.00  0.00    -0.263 OA
ENDROOT
BRANCH  14  29
HETATM   29  O3  UNL     1      41.839  11.210  12.663  1.00  0.00    -0.378 OA
BRANCH  29  30
HETATM   30  C13 UNL     1      40.767  11.068  11.783  1.00  0.00     0.122 C 
HETATM   31  C14 UNL     1      40.407   9.671  11.426  1.00  0.00     0.032 C 
HETATM   32  C15 UNL     1      38.861   9.646  11.443  1.00  0.00     0.002 C 
HETATM   33  C16 UNL     1      38.632  10.497  12.688  1.00  0.00     0.002 C 
HETATM   34  C17 UNL     1      39.551  11.661  12.458  1.00  0.00     0.032 C 
ENDBRANCH  29  30
ENDBRANCH  14  29
BRANCH  18  35
HETATM   35  O4  UNL     1      46.623  12.678  11.182  1.00  0.00    -0.344 OA
ATOM     36  H4  UNL     1      47.472  12.486  11.563  1.00  0.00     0.219 HD
ENDBRANCH  18  35
BRANCH  19  37
HETATM   37  O5  UNL     1      47.799  13.935  13.124  1.00  0.00    -0.359 OA
ATOM     38  H5  UNL     1      48.255  14.491  13.744  1.00  0.00     0.217 HD
ENDBRANCH  19  37
BRANCH  20  39
HETATM   39  C23 UNL     1      46.015  16.744  11.980  1.00  0.00     0.036 C 
BRANCH  39  40
HETATM   40  C24 UNL     1      47.067  17.216  11.049  1.00  0.00    -0.020 C 
HETATM   41  C25 UNL     1      47.160  16.319   9.804  1.00  0.00     0.009 C 
HETATM   42  C26 UNL     1      47.157  18.656  10.748  1.00  0.00     0.009 C 
ENDBRANCH  39  40
ENDBRANCH  20  39
BRANCH   1  43
HETATM   43  C3  UNL     1      40.991  18.750  14.618  1.00  0.00     0.014 C 
HETATM   44  C4  UNL     1      41.524  19.252  13.294  1.00  0.00     0.012 C 
BRANCH  43  45
HETATM   45  C2  UNL     1      39.528  18.948  14.738  1.00  0.00     0.002 C 
HETATM   46  C1  UNL     1      38.705  18.967  13.515  1.00  0.00     0.005 C 
ENDBRANCH  43  45
ENDBRANCH   1  43
BRANCH  25  47
HETATM   47  C29 UNL     1      45.759  19.331  15.082  1.00  0.00     0.046 C 
BRANCH  47  48
HETATM   48  C30 UNL     1      45.181  20.619  14.575  1.00  0.00    -0.020 C 
HETATM   49  C31 UNL     1      44.979  20.682  13.102  1.00  0.00     0.009 C 
HETATM   50  C32 UNL     1      46.013  21.805  15.020  1.00  0.00     0.009 C 
ENDBRANCH  47  48
ENDBRANCH  25  47
TORSDOF 10
ENDMDL
MODEL 4
REMARK VINA RESULT: -6.793775418      2.015      7.147
REMARK  10 active torsions:
REMARK  status: ('A' for Active; 'I' for Inactive)
REMARK    1  A    between atoms: C2_2  and  C3_3 
REMARK    2  A    between atoms: C3_3  and  C5_5 
REMARK    3  A    between atoms: C12_18  and  O3_19 
REMARK    4  A    between atoms: O3_19  and  C13_20 
REMARK    5  A    between atoms: C20_28  and  O4_29 
REMARK    6  A    between atoms: C21_31  and  O5_32 
REMARK    7  A    between atoms: C22_34  and  C23_35 
REMARK    8  A    between atoms: C23_35  and  C24_36 
REMARK    9  A    between atoms: C28_43  and  C29_44 
REMARK   10  A    between atoms: C29_44  and  C30_45 
ROOT
HETATM    1  C5  UNL     1      41.066  17.278  15.164  1.00  0.00     0.188 C 
HETATM    2  N1  UNL     1      40.098  16.609  15.985  1.00  0.00    -0.345 N 
ATOM      3  H1  UNL     1      39.156  16.999  15.934  1.00  0.00     0.163 HD
HETATM    4  C6  UNL     1      40.227  15.529  16.829  1.00  0.00     0.246 C 
HETATM    5  O1  UNL     1      39.940  15.682  18.075  1.00  0.00    -0.271 OA
HETATM    6  C7  UNL     1      40.672  14.125  16.493  1.00  0.00     0.106 C 
HETATM    7  C8  UNL     1      39.743  13.152  17.263  1.00  0.00     0.048 C 
HETATM    8  C9  UNL     1      42.008  13.938  17.113  1.00  0.00     0.048 C 
HETATM    9  N2  UNL     1      40.517  13.796  15.123  1.00  0.00    -0.342 N 
ATOM     10  H2  UNL     1      39.574  13.975  14.779  1.00  0.00     0.163 HD
HETATM   11  C10 UNL     1      41.357  13.289  14.145  1.00  0.00     0.244 C 
HETATM   12  O2  UNL     1      41.436  14.012  13.075  1.00  0.00    -0.271 OA
HETATM   13  C11 UNL     1      42.172  12.075  14.112  1.00  0.00     0.207 C 
HETATM   14  C12 UNL     1      41.270  10.866  13.817  1.00  0.00     0.155 C 
HETATM   15  C18 UNL     1      40.820  11.268  12.421  1.00  0.00     0.054 C 
HETATM   16  C19 UNL     1      42.055  11.818  11.762  1.00  0.00     0.129 C 
HETATM   17  N3  UNL     1      42.990  11.985  12.899  1.00  0.00    -0.344 N 
HETATM   18  C20 UNL     1      44.394  12.000  12.817  1.00  0.00     0.171 C 
HETATM   19  C21 UNL     1      45.372  12.959  13.188  1.00  0.00     0.116 C 
HETATM   20  C22 UNL     1      45.336  14.439  13.173  1.00  0.00     0.146 C 
HETATM   21  N4  UNL     1      44.750  14.948  14.387  1.00  0.00    -0.348 N 
ATOM     22  H4  UNL     1      44.283  14.234  14.945  1.00  0.00     0.163 HD
HETATM   23  C27 UNL     1      44.696  16.208  14.944  1.00  0.00     0.247 C 
HETATM   24  O6  UNL     1      45.125  16.352  16.159  1.00  0.00    -0.271 OA
HETATM   25  C28 UNL     1      44.216  17.497  14.394  1.00  0.00     0.224 C 
HETATM   26  O7  UNL     1      43.432  18.187  15.395  1.00  0.00    -0.305 OA
HETATM   27  C33 UNL     1      42.263  17.760  15.921  1.00  0.00     0.283 C 
HETATM   28  O8  UNL     1      42.123  17.752  17.193  1.00  0.00    -0.263 OA
ENDROOT
BRANCH  14  29
HETATM   29  O3  UNL     1      40.279  10.634  14.703  1.00  0.00    -0.378 OA
BRANCH  29  30
HETATM   30  C13 UNL     1      39.176  10.070  14.065  1.00  0.00     0.122 C 
HETATM   31  C14 UNL     1      38.958   8.620  14.313  1.00  0.00     0.032 C 
HETATM   32  C15 UNL     1      37.431   8.478  14.504  1.00  0.00     0.002 C 
HETATM   33  C16 UNL     1      37.186   9.728  15.342  1.00  0.00     0.002 C 
HETATM   34  C17 UNL     1      37.945  10.779  14.585  1.00  0.00     0.032 C 
ENDBRANCH  29  30
ENDBRANCH  14  29
BRANCH  18  35
HETATM   35  O4  UNL     1      44.899  10.902  12.292  1.00  0.00    -0.344 OA
ATOM     36  H4  UNL     1      45.550  11.071  11.621  1.00  0.00     0.219 HD
ENDBRANCH  18  35
BRANCH  19  37
HETATM   37  O5  UNL     1      46.495  12.462  13.617  1.00  0.00    -0.359 OA
ATOM     38  H5  UNL     1      47.256  13.015  13.486  1.00  0.00     0.217 HD
ENDBRANCH  19  37
BRANCH  20  39
HETATM   39  C23 UNL     1      44.865  15.073  11.911  1.00  0.00     0.036 C 
BRANCH  39  40
HETATM   40  C24 UNL     1      45.888  15.482  10.920  1.00  0.00    -0.020 C 
HETATM   41  C25 UNL     1      46.949  16.398  11.551  1.00  0.00     0.009 C 
HETATM   42  C26 UNL     1      46.451  14.461  10.016  1.00  0.00     0.009 C 
ENDBRANCH  39  40
ENDBRANCH  20  39
BRANCH   1  43
HETATM   43  C3  UNL     1      40.564  18.459  14.414  1.00  0.00     0.014 C 
HETATM   44  C4  UNL     1      39.245  18.249  13.702  1.00  0.00     0.012 C 
BRANCH  43  45
HETATM   45  C2  UNL     1      40.639  19.788  15.063  1.00  0.00     0.002 C 
HETATM   46  C1  UNL     1      41.297  20.898  14.349  1.00  0.00     0.005 C 
ENDBRANCH  43  45
ENDBRANCH   1  43
BRANCH  25  47
HETATM   47  C29 UNL     1      45.380  18.431  14.110  1.00  0.00     0.046 C 
BRANCH  47  48
HETATM   48  C30 UNL     1      44.836  19.716  13.562  1.00  0.00    -0.020 C 
HETATM   49  C31 UNL     1      45.227  20.017  12.158  1.00  0.00     0.009 C 
HETATM   50  C32 UNL     1      45.201  20.889  14.449  1.00  0.00     0.009 C 
ENDBRANCH  47  48
ENDBRANCH  25  47
TORSDOF 10
ENDMDL
MODEL 5
REMARK VINA RESULT: -6.742450647      1.919      7.534
REMARK  10 active torsions:
REMARK  status: ('A' for Active; 'I' for Inactive)
REMARK    1  A    between atoms: C2_2  and  C3_3 
REMARK    2  A    between atoms: C3_3  and  C5_5 
REMARK    3  A    between atoms: C12_18  and  O3_19 
REMARK    4  A    between atoms: O3_19  and  C13_20 
REMARK    5  A    between atoms: C20_28  and  O4_29 
REMARK    6  A    between atoms: C21_31  and  O5_32 
REMARK    7  A    between atoms: C22_34  and  C23_35 
REMARK    8  A    between atoms: C23_35  and  C24_36 
REMARK    9  A    between atoms: C28_43  and  C29_44 
REMARK   10  A    between atoms: C29_44  and  C30_45 
ROOT
HETATM    1  C5  UNL     1      43.300  18.539  14.052  1.00  0.00     0.188 C 
HETATM    2  N1  UNL     1      42.414  18.913  15.116  1.00  0.00    -0.345 N 
ATOM      3  H1  UNL     1      41.934  19.802  14.976  1.00  0.00     0.163 HD
HETATM    4  C6  UNL     1      42.105  18.274  16.296  1.00  0.00     0.246 C 
HETATM    5  O1  UNL     1      42.344  18.878  17.407  1.00  0.00    -0.271 OA
HETATM    6  C7  UNL     1      41.494  16.905  16.487  1.00  0.00     0.106 C 
HETATM    7  C8  UNL     1      40.440  17.027  17.617  1.00  0.00     0.048 C 
HETATM    8  C9  UNL     1      42.555  16.036  17.056  1.00  0.00     0.048 C 
HETATM    9  N2  UNL     1      40.784  16.440  15.352  1.00  0.00    -0.342 N 
ATOM     10  H2  UNL     1      40.090  17.109  15.020  1.00  0.00     0.163 HD
HETATM   11  C10 UNL     1      40.820  15.283  14.591  1.00  0.00     0.244 C 
HETATM   12  O2  UNL     1      41.005  15.478  13.325  1.00  0.00    -0.271 OA
HETATM   13  C11 UNL     1      40.687  13.877  14.971  1.00  0.00     0.207 C 
HETATM   14  C12 UNL     1      39.202  13.553  15.202  1.00  0.00     0.155 C 
HETATM   15  C18 UNL     1      38.705  13.793  13.785  1.00  0.00     0.054 C 
HETATM   16  C19 UNL     1      39.765  13.197  12.900  1.00  0.00     0.129 C 
HETATM   17  N3  UNL     1      40.890  12.971  13.836  1.00  0.00    -0.344 N 
HETATM   18  C20 UNL     1      41.921  12.028  13.676  1.00  0.00     0.171 C 
HETATM   19  C21 UNL     1      43.333  12.143  13.604  1.00  0.00     0.116 C 
HETATM   20  C22 UNL     1      44.193  13.207  13.036  1.00  0.00     0.146 C 
HETATM   21  N4  UNL     1      44.414  14.254  14.001  1.00  0.00    -0.348 N 
ATOM     22  H4  UNL     1      43.798  14.198  14.812  1.00  0.00     0.163 HD
HETATM   23  C27 UNL     1      45.294  15.314  14.047  1.00  0.00     0.247 C 
HETATM   24  O6  UNL     1      46.051  15.429  15.092  1.00  0.00    -0.271 OA
HETATM   25  C28 UNL     1      45.554  16.407  13.081  1.00  0.00     0.224 C 
HETATM   26  O7  UNL     1      45.675  17.661  13.791  1.00  0.00    -0.305 OA
HETATM   27  C33 UNL     1      44.700  18.268  14.503  1.00  0.00     0.283 C 
HETATM   28  O8  UNL     1      44.960  18.668  15.691  1.00  0.00    -0.263 OA
ENDROOT
BRANCH  14  29
HETATM   29  O3  UNL     1      38.582  14.267  16.165  1.00  0.00    -0.378 OA
BRANCH  29  30
HETATM   30  C13 UNL     1      38.456  13.513  17.329  1.00  0.00     0.122 C 
HETATM   31  C14 UNL     1      37.377  13.936  18.260  1.00  0.00     0.032 C 
HETATM   32  C15 UNL     1      36.736  12.616  18.746  1.00  0.00     0.002 C 
HETATM   33  C16 UNL     1      36.734  11.860  17.423  1.00  0.00     0.002 C 
HETATM   34  C17 UNL     1      38.126  12.097  16.912  1.00  0.00     0.032 C 
ENDBRANCH  29  30
ENDBRANCH  14  29
BRANCH  18  35
HETATM   35  O4  UNL     1      41.483  10.788  13.574  1.00  0.00    -0.344 OA
ATOM     36  H4  UNL     1      42.168  10.138  13.677  1.00  0.00     0.219 HD
ENDBRANCH  18  35
BRANCH  19  37
HETATM   37  O5  UNL     1      43.994  11.151  14.124  1.00  0.00    -0.359 OA
ATOM     38  H5  UNL     1      44.299  11.292  15.012  1.00  0.00     0.217 HD
ENDBRANCH  19  37
BRANCH  20  39
HETATM   39  C23 UNL     1      43.858  13.656  11.658  1.00  0.00     0.036 C 
BRANCH  39  40
HETATM   40  C24 UNL     1      44.274  12.790  10.529  1.00  0.00    -0.020 C 
HETATM   41  C25 UNL     1      45.755  12.393  10.639  1.00  0.00     0.009 C 
HETATM   42  C26 UNL     1      43.393  11.680  10.123  1.00  0.00     0.009 C 
ENDBRANCH  39  40
ENDBRANCH  20  39
BRANCH   1  43
HETATM   43  C3  UNL     1      43.421  19.520  12.943  1.00  0.00     0.014 C 
HETATM   44  C4  UNL     1      42.621  20.792  13.127  1.00  0.00     0.012 C 
BRANCH  43  45
HETATM   45  C2  UNL     1      44.765  19.787  12.382  1.00  0.00     0.002 C 
HETATM   46  C1  UNL     1      45.127  21.168  12.013  1.00  0.00     0.005 C 
ENDBRANCH  43  45
ENDBRANCH   1  43
BRANCH  25  47
HETATM   47  C29 UNL     1      46.900  16.220  12.402  1.00  0.00     0.046 C 
BRANCH  47  48
HETATM   48  C30 UNL     1      46.767  16.626  10.964  1.00  0.00    -0.020 C 
HETATM   49  C31 UNL     1      47.154  15.583   9.977  1.00  0.00     0.009 C 
HETATM   50  C32 UNL     1      47.541  17.898  10.681  1.00  0.00     0.009 C 
ENDBRANCH  47  48
ENDBRANCH  25  47
TORSDOF 10
ENDMDL
