MODEL 1
REMARK VINA RESULT: -6.387332331      0.000      0.000
REMARK  8 active torsions:
REMARK  status: ('A' for Active; 'I' for Inactive)
REMARK    1  A    between atoms: O1_2  and  C2_3 
REMARK    2  A    between atoms: C2_3  and  C3_5 
REMARK    3  A    between atoms: C3_5  and  C4_6 
REMARK    4  A    between atoms: C4_6  and  C5_7 
REMARK    5  A    between atoms: C6_8  and  O3_9 
REMARK    6  A    between atoms: C8_13  and  C9_14 
REMARK    7  A    between atoms: C12_19  and  N1_20 
REMARK    8  A    between atoms: N2_23  and  O6_24 
ROOT
HETATM    1  C5  UNL     1     -30.717 -10.554 -16.620  1.00  0.00     0.076 A 
HETATM    2  C6  UNL     1     -30.393 -11.405 -15.624  1.00  0.00     0.115 A 
HETATM    3  C7  UNL     1     -31.201 -12.536 -15.776  1.00  0.00     0.099 A 
HETATM    4 CL1  UNL     1     -31.205 -13.962 -14.761  1.00  0.00    -0.079 Cl
HETATM    5  C8  UNL     1     -32.022 -12.339 -16.891  1.00  0.00     0.107 A 
HETATM    6  N2  UNL     1     -31.696 -11.157 -17.354  1.00  0.00    -0.223 N 
ENDROOT
BRANCH   5   7
HETATM    7  C9  UNL     1     -32.927 -13.394 -17.393  1.00  0.00     0.070 A 
HETATM    8  S1  UNL     1     -34.238 -14.014 -16.427  1.00  0.00    -0.078 SA
HETATM    9  C10 UNL     1     -34.882 -15.131 -17.530  1.00  0.00     0.054 A 
HETATM   10 BR1  UNL     1     -36.391 -16.317 -17.331  1.00  0.00    -0.043 Br
HETATM   11  C11 UNL     1     -34.072 -14.991 -18.609  1.00  0.00     0.064 A 
HETATM   12  C12 UNL     1     -33.057 -14.083 -18.534  1.00  0.00     0.124 A 
BRANCH  12  13
HETATM   13  N1  UNL     1     -32.221 -13.870 -19.712  1.00  0.00    -0.114 N 
HETATM   14  O4  UNL     1     -31.145 -14.457 -19.879  1.00  0.00    -0.532 OA
HETATM   15  O5  UNL     1     -32.589 -12.898 -20.638  1.00  0.00    -0.532 OA
ENDBRANCH  12  13
ENDBRANCH   5   7
BRANCH   6  16
HETATM   16  O6  UNL     1     -32.185 -10.553 -18.508  1.00  0.00    -0.282 OA
ATOM     17  H6  UNL     1     -31.752 -10.687 -19.342  1.00  0.00     0.245 HD
ENDBRANCH   6  16
BRANCH   2  18
HETATM   18  O3  UNL     1     -29.482 -11.347 -14.583  1.00  0.00    -0.357 OA
ATOM     19  H3  UNL     1     -29.403 -11.813 -13.758  1.00  0.00     0.217 HD
ENDBRANCH   2  18
BRANCH   1  20
HETATM   20  C4  UNL     1     -30.193  -9.225 -16.953  1.00  0.00     0.072 C 
BRANCH  20  21
HETATM   21  C3  UNL     1     -28.758  -9.125 -17.228  1.00  0.00     0.117 C 
BRANCH  21  22
HETATM   22  C2  UNL     1     -28.537  -9.541 -18.671  1.00  0.00     0.258 C 
HETATM   23  O2  UNL     1     -27.387  -9.532 -19.160  1.00  0.00    -0.265 OA
BRANCH  22  24
HETATM   24  O1  UNL     1     -29.592  -9.936 -19.469  1.00  0.00    -0.326 OA
HETATM   25  C1  UNL     1     -29.499 -10.040 -20.878  1.00  0.00     0.213 C 
ENDBRANCH  22  24
ENDBRANCH  21  22
ENDBRANCH  20  21
ENDBRANCH   1  20
TORSDOF 8
ENDMDL
MODEL 2
REMARK VINA RESULT: -6.250887985      1.446      2.246
REMARK  8 active torsions:
REMARK  status: ('A' for Active; 'I' for Inactive)
REMARK    1  A    between atoms: O1_2  and  C2_3 
REMARK    2  A    between atoms: C2_3  and  C3_5 
REMARK    3  A    between atoms: C3_5  and  C4_6 
REMARK    4  A    between atoms: C4_6  and  C5_7 
REMARK    5  A    between atoms: C6_8  and  O3_9 
REMARK    6  A    between atoms: C8_13  and  C9_14 
REMARK    7  A    between atoms: C12_19  and  N1_20 
REMARK    8  A    between atoms: N2_23  and  O6_24 
ROOT
HETATM    1  C5  UNL     1     -29.736 -11.085 -16.754  1.00  0.00     0.076 A 
HETATM    2  C6  UNL     1     -29.563 -11.860 -15.664  1.00  0.00     0.115 A 
HETATM    3  C7  UNL     1     -30.590 -12.809 -15.672  1.00  0.00     0.099 A 
HETATM    4 CL1  UNL     1     -30.855 -14.073 -14.489  1.00  0.00    -0.079 Cl
HETATM    5  C8  UNL     1     -31.387 -12.580 -16.797  1.00  0.00     0.107 A 
HETATM    6  N2  UNL     1     -30.840 -11.555 -17.404  1.00  0.00    -0.223 N 
ENDROOT
BRANCH   5   7
HETATM    7  C9  UNL     1     -32.504 -13.476 -17.161  1.00  0.00     0.070 A 
HETATM    8  S1  UNL     1     -33.753 -13.894 -16.020  1.00  0.00    -0.078 SA
HETATM    9  C10 UNL     1     -34.706 -14.886 -17.014  1.00  0.00     0.054 A 
HETATM   10 BR1  UNL     1     -36.340 -15.826 -16.600  1.00  0.00    -0.043 Br
HETATM   11  C11 UNL     1     -34.037 -14.863 -18.194  1.00  0.00     0.064 A 
HETATM   12  C12 UNL     1     -32.893 -14.125 -18.266  1.00  0.00     0.124 A 
BRANCH  12  13
HETATM   13  N1  UNL     1     -32.200 -14.031 -19.549  1.00  0.00    -0.114 N 
HETATM   14  O4  UNL     1     -31.136 -14.620 -19.774  1.00  0.00    -0.532 OA
HETATM   15  O5  UNL     1     -32.695 -13.172 -20.525  1.00  0.00    -0.532 OA
ENDBRANCH  12  13
ENDBRANCH   5   7
BRANCH   6  16
HETATM   16  O6  UNL     1     -31.231 -11.003 -18.619  1.00  0.00    -0.282 OA
ATOM     17  H6  UNL     1     -32.011 -10.464 -18.675  1.00  0.00     0.245 HD
ENDBRANCH   6  16
BRANCH   2  18
HETATM   18  O3  UNL     1     -28.627 -11.870 -14.643  1.00  0.00    -0.357 OA
ATOM     19  H3  UNL     1     -28.034 -12.532 -14.308  1.00  0.00     0.217 HD
ENDBRANCH   2  18
BRANCH   1  20
HETATM   20  C4  UNL     1     -28.961  -9.942 -17.252  1.00  0.00     0.072 C 
BRANCH  20  21
HETATM   21  C3  UNL     1     -29.091  -8.681 -16.520  1.00  0.00     0.117 C 
BRANCH  21  22
HETATM   22  C2  UNL     1     -30.571  -8.361 -16.415  1.00  0.00     0.258 C 
HETATM   23  O2  UNL     1     -31.248  -8.163 -17.447  1.00  0.00    -0.265 OA
BRANCH  22  24
HETATM   24  O1  UNL     1     -31.198  -8.283 -15.188  1.00  0.00    -0.326 OA
HETATM   25  C1  UNL     1     -30.596  -8.715 -13.982  1.00  0.00     0.213 C 
ENDBRANCH  22  24
ENDBRANCH  21  22
ENDBRANCH  20  21
ENDBRANCH   1  20
TORSDOF 8
ENDMDL
MODEL 3
REMARK VINA RESULT: -6.237944274      3.562      5.527
REMARK  8 active torsions:
REMARK  status: ('A' for Active; 'I' for Inactive)
REMARK    1  A    between atoms: O1_2  and  C2_3 
REMARK    2  A    between atoms: C2_3  and  C3_5 
REMARK    3  A    between atoms: C3_5  and  C4_6 
REMARK    4  A    between atoms: C4_6  and  C5_7 
REMARK    5  A    between atoms: C6_8  and  O3_9 
REMARK    6  A    between atoms: C8_13  and  C9_14 
REMARK    7  A    between atoms: C12_19  and  N1_20 
REMARK    8  A    between atoms: N2_23  and  O6_24 
ROOT
HETATM    1  C5  UNL     1     -32.066 -12.882 -17.543  1.00  0.00     0.076 A 
HETATM    2  C6  UNL     1     -33.211 -12.969 -16.833  1.00  0.00     0.115 A 
HETATM    3  C7  UNL     1     -33.067 -12.131 -15.724  1.00  0.00     0.099 A 
HETATM    4 CL1  UNL     1     -34.250 -11.855 -14.463  1.00  0.00    -0.079 Cl
HETATM    5  C8  UNL     1     -31.803 -11.538 -15.786  1.00  0.00     0.107 A 
HETATM    6  N2  UNL     1     -31.253 -12.011 -16.878  1.00  0.00    -0.223 N 
ENDROOT
BRANCH   5   7
HETATM    7  C9  UNL     1     -31.371 -10.511 -14.814  1.00  0.00     0.070 A 
HETATM    8  S1  UNL     1     -31.479 -10.772 -13.095  1.00  0.00    -0.078 SA
HETATM    9  C10 UNL     1     -30.835  -9.298 -12.557  1.00  0.00     0.054 A 
HETATM   10 BR1  UNL     1     -30.556  -8.669 -10.754  1.00  0.00    -0.043 Br
HETATM   11  C11 UNL     1     -30.553  -8.650 -13.715  1.00  0.00     0.064 A 
HETATM   12  C12 UNL     1     -30.832  -9.288 -14.888  1.00  0.00     0.124 A 
BRANCH  12  13
HETATM   13  N1  UNL     1     -30.468  -8.634 -16.143  1.00  0.00    -0.114 N 
HETATM   14  O4  UNL     1     -31.290  -8.024 -16.836  1.00  0.00    -0.532 OA
HETATM   15  O5  UNL     1     -29.175  -8.783 -16.635  1.00  0.00    -0.532 OA
ENDBRANCH  12  13
ENDBRANCH   5   7
BRANCH   6  16
HETATM   16  O6  UNL     1     -30.020 -11.651 -17.411  1.00  0.00    -0.282 OA
ATOM     17  H6  UNL     1     -29.670 -12.108 -18.166  1.00  0.00     0.245 HD
ENDBRANCH   6  16
BRANCH   2  18
HETATM   18  O3  UNL     1     -34.386 -13.681 -17.009  1.00  0.00    -0.357 OA
ATOM     19  H3  UNL     1     -35.304 -13.453 -16.929  1.00  0.00     0.217 HD
ENDBRANCH   2  18
BRANCH   1  20
HETATM   20  C4  UNL     1     -31.660 -13.535 -18.792  1.00  0.00     0.072 C 
BRANCH  20  21
HETATM   21  C3  UNL     1     -32.203 -12.987 -20.037  1.00  0.00     0.117 C 
BRANCH  21  22
HETATM   22  C2  UNL     1     -31.096 -12.198 -20.712  1.00  0.00     0.258 C 
HETATM   23  O2  UNL     1     -30.614 -12.589 -21.797  1.00  0.00    -0.265 OA
BRANCH  22  24
HETATM   24  O1  UNL     1     -30.601 -11.039 -20.149  1.00  0.00    -0.326 OA
HETATM   25  C1  UNL     1     -29.712 -10.167 -20.824  1.00  0.00     0.213 C 
ENDBRANCH  22  24
ENDBRANCH  21  22
ENDBRANCH  20  21
ENDBRANCH   1  20
TORSDOF 8
ENDMDL
MODEL 4
REMARK VINA RESULT: -6.182586107      3.992      6.002
REMARK  8 active torsions:
REMARK  status: ('A' for Active; 'I' for Inactive)
REMARK    1  A    between atoms: O1_2  and  C2_3 
REMARK    2  A    between atoms: C2_3  and  C3_5 
REMARK    3  A    between atoms: C3_5  and  C4_6 
REMARK    4  A    between atoms: C4_6  and  C5_7 
REMARK    5  A    between atoms: C6_8  and  O3_9 
REMARK    6  A    between atoms: C8_13  and  C9_14 
REMARK    7  A    between atoms: C12_19  and  N1_20 
REMARK    8  A    between atoms: N2_23  and  O6_24 
ROOT
HETATM    1  C5  UNL     1     -30.305 -11.820 -13.018  1.00  0.00     0.076 A 
HETATM    2  C6  UNL     1     -30.606 -10.505 -13.046  1.00  0.00     0.115 A 
HETATM    3  C7  UNL     1     -30.708 -10.140 -14.391  1.00  0.00     0.099 A 
HETATM    4 CL1  UNL     1     -31.082  -8.547 -15.017  1.00  0.00    -0.079 Cl
HETATM    5  C8  UNL     1     -30.456 -11.272 -15.172  1.00  0.00     0.107 A 
HETATM    6  N2  UNL     1     -30.227 -12.237 -14.315  1.00  0.00    -0.223 N 
ENDROOT
BRANCH   5   7
HETATM    7  C9  UNL     1     -30.587 -11.253 -16.644  1.00  0.00     0.070 A 
HETATM    8  S1  UNL     1     -29.555 -10.269 -17.644  1.00  0.00    -0.078 SA
HETATM    9  C10 UNL     1     -30.169 -10.695 -19.167  1.00  0.00     0.054 A 
HETATM   10 BR1  UNL     1     -29.630 -10.087 -20.918  1.00  0.00    -0.043 Br
HETATM   11  C11 UNL     1     -31.147 -11.584 -18.862  1.00  0.00     0.064 A 
HETATM   12  C12 UNL     1     -31.359 -11.874 -17.546  1.00  0.00     0.124 A 
BRANCH  12  13
HETATM   13  N1  UNL     1     -32.359 -12.882 -17.204  1.00  0.00    -0.114 N 
HETATM   14  O4  UNL     1     -33.570 -12.631 -17.169  1.00  0.00    -0.532 OA
HETATM   15  O5  UNL     1     -31.938 -14.146 -16.804  1.00  0.00    -0.532 OA
ENDBRANCH  12  13
ENDBRANCH   5   7
BRANCH   6  16
HETATM   16  O6  UNL     1     -30.006 -13.577 -14.613  1.00  0.00    -0.282 OA
ATOM     17  H6  UNL     1     -29.314 -14.060 -14.177  1.00  0.00     0.245 HD
ENDBRANCH   6  16
BRANCH   2  18
HETATM   18  O3  UNL     1     -30.813  -9.556 -12.059  1.00  0.00    -0.357 OA
ATOM     19  H3  UNL     1     -30.227  -9.009 -11.548  1.00  0.00     0.217 HD
ENDBRANCH   2  18
BRANCH   1  20
HETATM   20  C4  UNL     1     -30.085 -12.730 -11.888  1.00  0.00     0.072 C 
BRANCH  20  21
HETATM   21  C3  UNL     1     -31.271 -13.337 -11.282  1.00  0.00     0.117 C 
BRANCH  21  22
HETATM   22  C2  UNL     1     -31.449 -14.712 -11.898  1.00  0.00     0.258 C 
HETATM   23  O2  UNL     1     -30.947 -15.718 -11.352  1.00  0.00    -0.265 OA
BRANCH  22  24
HETATM   24  O1  UNL     1     -32.164 -14.883 -13.067  1.00  0.00    -0.326 OA
HETATM   25  C1  UNL     1     -33.323 -14.134 -13.383  1.00  0.00     0.213 C 
ENDBRANCH  22  24
ENDBRANCH  21  22
ENDBRANCH  20  21
ENDBRANCH   1  20
TORSDOF 8
ENDMDL
MODEL 5
REMARK VINA RESULT: -6.167396609      3.691      4.971
REMARK  8 active torsions:
REMARK  status: ('A' for Active; 'I' for Inactive)
REMARK    1  A    between atoms: O1_2  and  C2_3 
REMARK    2  A    between atoms: C2_3  and  C3_5 
REMARK    3  A    between atoms: C3_5  and  C4_6 
REMARK    4  A    between atoms: C4_6  and  C5_7 
REMARK    5  A    between atoms: C6_8  and  O3_9 
REMARK    6  A    between atoms: C8_13  and  C9_14 
REMARK    7  A    between atoms: C12_19  and  N1_20 
REMARK    8  A    between atoms: N2_23  and  O6_24 
ROOT
HETATM    1  C5  UNL     1     -31.762 -12.975 -17.251  1.00  0.00     0.076 A 
HETATM    2  C6  UNL     1     -31.373 -11.793 -16.729  1.00  0.00     0.115 A 
HETATM    3  C7  UNL     1     -31.864 -11.744 -15.421  1.00  0.00     0.099 A 
HETATM    4 CL1  UNL     1     -31.657 -10.437 -14.275  1.00  0.00    -0.079 Cl
HETATM    5  C8  UNL     1     -32.561 -12.930 -15.171  1.00  0.00     0.107 A 
HETATM    6  N2  UNL     1     -32.469 -13.623 -16.281  1.00  0.00    -0.223 N 
ENDROOT
BRANCH   5   7
HETATM    7  C9  UNL     1     -33.120 -13.245 -13.840  1.00  0.00     0.070 A 
HETATM    8  S1  UNL     1     -32.422 -14.473 -12.820  1.00  0.00    -0.078 SA
HETATM    9  C10 UNL     1     -33.460 -14.337 -11.485  1.00  0.00     0.054 A 
HETATM   10 BR1  UNL     1     -33.458 -15.324  -9.827  1.00  0.00    -0.043 Br
HETATM   11  C11 UNL     1     -34.309 -13.349 -11.862  1.00  0.00     0.064 A 
HETATM   12  C12 UNL     1     -34.126 -12.781 -13.089  1.00  0.00     0.124 A 
BRANCH  12  13
HETATM   13  N1  UNL     1     -34.987 -11.668 -13.480  1.00  0.00    -0.114 N 
HETATM   14  O4  UNL     1     -35.722 -11.714 -14.474  1.00  0.00    -0.532 OA
HETATM   15  O5  UNL     1     -34.910 -10.471 -12.774  1.00  0.00    -0.532 OA
ENDBRANCH  12  13
ENDBRANCH   5   7
BRANCH   6  16
HETATM   16  O6  UNL     1     -32.939 -14.915 -16.494  1.00  0.00    -0.282 OA
ATOM     17  H6  UNL     1     -33.083 -15.502 -15.762  1.00  0.00     0.245 HD
ENDBRANCH   6  16
BRANCH   2  18
HETATM   18  O3  UNL     1     -30.640 -10.729 -17.228  1.00  0.00    -0.357 OA
ATOM     19  H3  UNL     1     -30.630  -9.798 -17.037  1.00  0.00     0.217 HD
ENDBRANCH   2  18
BRANCH   1  20
HETATM   20  C4  UNL     1     -31.530 -13.561 -18.576  1.00  0.00     0.072 C 
BRANCH  20  21
HETATM   21  C3  UNL     1     -32.212 -12.934 -19.710  1.00  0.00     0.117 C 
BRANCH  21  22
HETATM   22  C2  UNL     1     -31.163 -12.205 -20.530  1.00  0.00     0.258 C 
HETATM   23  O2  UNL     1     -30.821 -12.644 -21.649  1.00  0.00    -0.265 OA
BRANCH  22  24
HETATM   24  O1  UNL     1     -30.567 -11.051 -20.062  1.00  0.00    -0.326 OA
HETATM   25  C1  UNL     1     -29.725 -10.238 -20.857  1.00  0.00     0.213 C 
ENDBRANCH  22  24
ENDBRANCH  21  22
ENDBRANCH  20  21
ENDBRANCH   1  20
TORSDOF 8
ENDMDL
