MODEL 1
REMARK VINA RESULT: -7.292419677      0.000      0.000
REMARK  8 active torsions:
REMARK  status: ('A' for Active; 'I' for Inactive)
REMARK    1  A    between atoms: O1_2  and  C2_3 
REMARK    2  A    between atoms: C2_3  and  C3_5 
REMARK    3  A    between atoms: C3_5  and  S1_6 
REMARK    4  A    between atoms: S1_6  and  C4_7 
REMARK    5  A    between atoms: N3_13  and  C6_15 
REMARK    6  A    between atoms: C6_15  and  S2_19 
REMARK    7  A    between atoms: S2_19  and  C7_20 
REMARK    8  A    between atoms: C7_20  and  C8_21 
ROOT
HETATM    1  C4  UNL     1     -29.421  -9.876 -12.049  1.00  0.00     0.130 A 
HETATM    2  N1  UNL     1     -28.818 -10.796 -12.768  1.00  0.00    -0.286 N 
ATOM      3  H1  UNL     1     -27.846 -10.670 -13.052  1.00  0.00     0.188 HD
HETATM    4  N2  UNL     1     -29.441 -11.824 -13.101  1.00  0.00    -0.278 N 
ATOM      5  H2  UNL     1     -28.978 -12.546 -13.652  1.00  0.00     0.189 HD
HETATM    6  C5  UNL     1     -30.761 -11.983 -12.722  1.00  0.00     0.167 A 
HETATM    7  N3  UNL     1     -31.568 -12.907 -12.962  1.00  0.00    -0.316 N 
ATOM      8  H3  UNL     1     -32.479 -12.741 -12.534  1.00  0.00     0.170 HD
HETATM    9  S3  UNL     1     -30.975 -10.506 -11.839  1.00  0.00    -0.026 SA
ENDROOT
BRANCH   7  10
HETATM   10  C6  UNL     1     -31.534 -14.090 -13.657  1.00  0.00     0.140 C 
HETATM   11  N4  UNL     1     -31.603 -15.215 -12.909  1.00  0.00    -0.380 N 
ATOM     12  H42 UNL     1     -31.766 -15.198 -11.901  1.00  0.00     0.158 HD
ATOM     13  H41 UNL     1     -31.579 -16.094 -13.425  1.00  0.00     0.158 HD
BRANCH  10  14
HETATM   14  S2  UNL     1     -31.251 -14.121 -15.399  1.00  0.00    -0.090 SA
BRANCH  14  15
HETATM   15  C7  UNL     1     -32.345 -12.811 -16.179  1.00  0.00     0.124 C 
BRANCH  15  16
HETATM   16  C8  UNL     1     -32.279 -13.046 -17.631  1.00  0.00    -0.005 A 
HETATM   17  C9  UNL     1     -31.398 -12.325 -18.397  1.00  0.00     0.042 A 
HETATM   18 CL1  UNL     1     -30.164 -11.362 -17.550  1.00  0.00    -0.084 Cl
HETATM   19  C10 UNL     1     -31.377 -12.359 -19.797  1.00  0.00     0.024 A 
HETATM   20  C11 UNL     1     -32.324 -13.202 -20.392  1.00  0.00     0.003 A 
HETATM   21  C12 UNL     1     -33.203 -13.922 -19.635  1.00  0.00     0.024 A 
HETATM   22  C13 UNL     1     -33.176 -13.841 -18.260  1.00  0.00     0.042 A 
HETATM   23 CL2  UNL     1     -34.320 -14.710 -17.307  1.00  0.00    -0.084 Cl
ENDBRANCH  15  16
ENDBRANCH  14  15
ENDBRANCH  10  14
ENDBRANCH   7  10
BRANCH   1  24
HETATM   24  S1  UNL     1     -28.822  -8.209 -11.572  1.00  0.00    -0.094 SA
BRANCH  24  25
HETATM   25  C3  UNL     1     -30.299  -7.181 -11.296  1.00  0.00     0.192 C 
BRANCH  25  26
HETATM   26  C2  UNL     1     -30.582  -6.975  -9.872  1.00  0.00     0.268 C 
HETATM   27  O2  UNL     1     -30.466  -7.863  -9.006  1.00  0.00    -0.264 OA
BRANCH  26  28
HETATM   28  O1  UNL     1     -31.000  -5.715  -9.398  1.00  0.00    -0.326 OA
HETATM   29  C1  UNL     1     -30.102  -4.618  -9.827  1.00  0.00     0.213 C 
ENDBRANCH  26  28
ENDBRANCH  25  26
ENDBRANCH  24  25
ENDBRANCH   1  24
TORSDOF 8
ENDMDL
MODEL 2
REMARK VINA RESULT: -7.229783174      0.752      1.871
REMARK  8 active torsions:
REMARK  status: ('A' for Active; 'I' for Inactive)
REMARK    1  A    between atoms: O1_2  and  C2_3 
REMARK    2  A    between atoms: C2_3  and  C3_5 
REMARK    3  A    between atoms: C3_5  and  S1_6 
REMARK    4  A    between atoms: S1_6  and  C4_7 
REMARK    5  A    between atoms: N3_13  and  C6_15 
REMARK    6  A    between atoms: C6_15  and  S2_19 
REMARK    7  A    between atoms: S2_19  and  C7_20 
REMARK    8  A    between atoms: C7_20  and  C8_21 
ROOT
HETATM    1  C4  UNL     1     -29.696 -10.072 -12.129  1.00  0.00     0.130 A 
HETATM    2  N1  UNL     1     -29.078 -11.180 -12.473  1.00  0.00    -0.286 N 
ATOM      3  H1  UNL     1     -28.074 -11.274 -12.326  1.00  0.00     0.188 HD
HETATM    4  N2  UNL     1     -29.729 -12.116 -12.979  1.00  0.00    -0.278 N 
ATOM      5  H2  UNL     1     -29.259 -12.982 -13.241  1.00  0.00     0.189 HD
HETATM    6  C5  UNL     1     -31.090 -11.979 -13.184  1.00  0.00     0.167 A 
HETATM    7  N3  UNL     1     -31.917 -12.767 -13.690  1.00  0.00    -0.316 N 
ATOM      8  H3  UNL     1     -32.860 -12.379 -13.697  1.00  0.00     0.170 HD
HETATM    9  S3  UNL     1     -31.302 -10.375 -12.560  1.00  0.00    -0.026 SA
ENDROOT
BRANCH   7  10
HETATM   10  C6  UNL     1     -31.874 -14.025 -14.237  1.00  0.00     0.140 C 
HETATM   11  N4  UNL     1     -31.763 -15.047 -13.357  1.00  0.00    -0.380 N 
ATOM     12  H42 UNL     1     -31.805 -14.911 -12.347  1.00  0.00     0.158 HD
ATOM     13  H41 UNL     1     -31.731 -15.982 -13.764  1.00  0.00     0.158 HD
BRANCH  10  14
HETATM   14  S2  UNL     1     -31.802 -14.261 -15.985  1.00  0.00    -0.090 SA
BRANCH  14  15
HETATM   15  C7  UNL     1     -33.102 -13.155 -16.765  1.00  0.00     0.124 C 
BRANCH  15  16
HETATM   16  C8  UNL     1     -32.552 -12.750 -18.070  1.00  0.00    -0.005 A 
HETATM   17  C9  UNL     1     -32.761 -13.543 -19.170  1.00  0.00     0.042 A 
HETATM   18 CL1  UNL     1     -33.948 -14.862 -19.026  1.00  0.00    -0.084 Cl
HETATM   19  C10 UNL     1     -32.144 -13.329 -20.410  1.00  0.00     0.024 A 
HETATM   20  C11 UNL     1     -31.286 -12.224 -20.471  1.00  0.00     0.003 A 
HETATM   21  C12 UNL     1     -31.075 -11.432 -19.380  1.00  0.00     0.024 A 
HETATM   22  C13 UNL     1     -31.708 -11.699 -18.186  1.00  0.00     0.042 A 
HETATM   23 CL2  UNL     1     -31.401 -10.729 -16.794  1.00  0.00    -0.084 Cl
ENDBRANCH  15  16
ENDBRANCH  14  15
ENDBRANCH  10  14
ENDBRANCH   7  10
BRANCH   1  24
HETATM   24  S1  UNL     1     -28.981  -8.489 -11.540  1.00  0.00    -0.094 SA
BRANCH  24  25
HETATM   25  C3  UNL     1     -30.378  -7.354 -11.264  1.00  0.00     0.192 C 
BRANCH  25  26
HETATM   26  C2  UNL     1     -30.613  -7.087  -9.841  1.00  0.00     0.268 C 
HETATM   27  O2  UNL     1     -30.486  -7.942  -8.945  1.00  0.00    -0.264 OA
BRANCH  26  28
HETATM   28  O1  UNL     1     -30.993  -5.802  -9.405  1.00  0.00    -0.326 OA
HETATM   29  C1  UNL     1     -30.121  -4.734  -9.948  1.00  0.00     0.213 C 
ENDBRANCH  26  28
ENDBRANCH  25  26
ENDBRANCH  24  25
ENDBRANCH   1  24
TORSDOF 8
ENDMDL
MODEL 3
REMARK VINA RESULT: -7.166173353      1.056      2.158
REMARK  8 active torsions:
REMARK  status: ('A' for Active; 'I' for Inactive)
REMARK    1  A    between atoms: O1_2  and  C2_3 
REMARK    2  A    between atoms: C2_3  and  C3_5 
REMARK    3  A    between atoms: C3_5  and  S1_6 
REMARK    4  A    between atoms: S1_6  and  C4_7 
REMARK    5  A    between atoms: N3_13  and  C6_15 
REMARK    6  A    between atoms: C6_15  and  S2_19 
REMARK    7  A    between atoms: S2_19  and  C7_20 
REMARK    8  A    between atoms: C7_20  and  C8_21 
ROOT
HETATM    1  C4  UNL     1     -29.693 -10.117 -12.116  1.00  0.00     0.130 A 
HETATM    2  N1  UNL     1     -29.077 -11.227 -12.459  1.00  0.00    -0.286 N 
ATOM      3  H1  UNL     1     -28.074 -11.326 -12.306  1.00  0.00     0.188 HD
HETATM    4  N2  UNL     1     -29.729 -12.158 -12.974  1.00  0.00    -0.278 N 
ATOM      5  H2  UNL     1     -29.260 -13.025 -13.236  1.00  0.00     0.189 HD
HETATM    6  C5  UNL     1     -31.087 -12.014 -13.188  1.00  0.00     0.167 A 
HETATM    7  N3  UNL     1     -31.914 -12.797 -13.703  1.00  0.00    -0.316 N 
ATOM      8  H3  UNL     1     -32.856 -12.405 -13.716  1.00  0.00     0.170 HD
HETATM    9  S3  UNL     1     -31.297 -10.412 -12.559  1.00  0.00    -0.026 SA
ENDROOT
BRANCH   7  10
HETATM   10  C6  UNL     1     -31.873 -14.053 -14.255  1.00  0.00     0.140 C 
HETATM   11  N4  UNL     1     -31.760 -15.078 -13.379  1.00  0.00    -0.380 N 
ATOM     12  H42 UNL     1     -31.799 -14.945 -12.368  1.00  0.00     0.158 HD
ATOM     13  H41 UNL     1     -31.729 -16.011 -13.789  1.00  0.00     0.158 HD
BRANCH  10  14
HETATM   14  S2  UNL     1     -31.806 -14.282 -16.004  1.00  0.00    -0.090 SA
BRANCH  14  15
HETATM   15  C7  UNL     1     -33.105 -13.171 -16.776  1.00  0.00     0.124 C 
BRANCH  15  16
HETATM   16  C8  UNL     1     -32.550 -12.749 -18.074  1.00  0.00    -0.005 A 
HETATM   17  C9  UNL     1     -32.747 -13.531 -19.184  1.00  0.00     0.042 A 
HETATM   18 CL1  UNL     1     -33.927 -14.859 -19.060  1.00  0.00    -0.084 Cl
HETATM   19  C10 UNL     1     -32.125 -13.301 -20.418  1.00  0.00     0.024 A 
HETATM   20  C11 UNL     1     -31.273 -12.190 -20.463  1.00  0.00     0.003 A 
HETATM   21  C12 UNL     1     -31.074 -11.408 -19.362  1.00  0.00     0.024 A 
HETATM   22  C13 UNL     1     -31.712 -11.691 -18.174  1.00  0.00     0.042 A 
HETATM   23 CL2  UNL     1     -31.419 -10.734 -16.771  1.00  0.00    -0.084 Cl
ENDBRANCH  15  16
ENDBRANCH  14  15
ENDBRANCH  10  14
ENDBRANCH   7  10
BRANCH   1  24
HETATM   24  S1  UNL     1     -28.975  -8.540 -11.515  1.00  0.00    -0.094 SA
BRANCH  24  25
HETATM   25  C3  UNL     1     -29.978  -8.018 -10.088  1.00  0.00     0.192 C 
BRANCH  25  26
HETATM   26  C2  UNL     1     -30.758  -6.807 -10.362  1.00  0.00     0.268 C 
HETATM   27  O2  UNL     1     -31.223  -6.066  -9.477  1.00  0.00    -0.264 OA
BRANCH  26  28
HETATM   28  O1  UNL     1     -31.014  -6.403 -11.688  1.00  0.00    -0.326 OA
HETATM   29  C1  UNL     1     -32.351  -6.827 -12.166  1.00  0.00     0.213 C 
ENDBRANCH  26  28
ENDBRANCH  25  26
ENDBRANCH  24  25
ENDBRANCH   1  24
TORSDOF 8
ENDMDL
MODEL 4
REMARK VINA RESULT: -7.146024216      3.914      5.356
REMARK  8 active torsions:
REMARK  status: ('A' for Active; 'I' for Inactive)
REMARK    1  A    between atoms: O1_2  and  C2_3 
REMARK    2  A    between atoms: C2_3  and  C3_5 
REMARK    3  A    between atoms: C3_5  and  S1_6 
REMARK    4  A    between atoms: S1_6  and  C4_7 
REMARK    5  A    between atoms: N3_13  and  C6_15 
REMARK    6  A    between atoms: C6_15  and  S2_19 
REMARK    7  A    between atoms: S2_19  and  C7_20 
REMARK    8  A    between atoms: C7_20  and  C8_21 
ROOT
HETATM    1  C4  UNL     1     -30.478 -12.241 -11.578  1.00  0.00     0.130 A 
HETATM    2  N1  UNL     1     -29.263 -12.199 -12.079  1.00  0.00    -0.286 N 
ATOM      3  H1  UNL     1     -28.498 -12.681 -11.608  1.00  0.00     0.188 HD
HETATM    4  N2  UNL     1     -29.053 -11.566 -13.133  1.00  0.00    -0.278 N 
ATOM      5  H2  UNL     1     -28.115 -11.534 -13.531  1.00  0.00     0.189 HD
HETATM    6  C5  UNL     1     -30.093 -10.906 -13.760  1.00  0.00     0.167 A 
HETATM    7  N3  UNL     1     -30.102 -10.204 -14.794  1.00  0.00    -0.316 N 
ATOM      8  H3  UNL     1     -31.035  -9.854 -15.012  1.00  0.00     0.170 HD
HETATM    9  S3  UNL     1     -31.378 -11.316 -12.670  1.00  0.00    -0.026 SA
ENDROOT
BRANCH   7  10
HETATM   10  C6  UNL     1     -29.170  -9.786 -15.711  1.00  0.00     0.140 C 
HETATM   11  N4  UNL     1     -28.362  -8.778 -15.312  1.00  0.00    -0.380 N 
ATOM     12  H42 UNL     1     -28.370  -8.409 -14.361  1.00  0.00     0.158 HD
ATOM     13  H41 UNL     1     -27.669  -8.468 -15.993  1.00  0.00     0.158 HD
BRANCH  10  14
HETATM   14  S2  UNL     1     -29.156 -10.424 -17.357  1.00  0.00    -0.090 SA
BRANCH  14  15
HETATM   15  C7  UNL     1     -30.760  -9.910 -18.183  1.00  0.00     0.124 C 
BRANCH  15  16
HETATM   16  C8  UNL     1     -31.166 -11.055 -19.017  1.00  0.00    -0.005 A 
HETATM   17  C9  UNL     1     -31.911 -12.066 -18.465  1.00  0.00     0.042 A 
HETATM   18 CL1  UNL     1     -32.611 -11.791 -16.851  1.00  0.00    -0.084 Cl
HETATM   19  C10 UNL     1     -32.204 -13.266 -19.126  1.00  0.00     0.024 A 
HETATM   20  C11 UNL     1     -31.688 -13.378 -20.424  1.00  0.00     0.003 A 
HETATM   21  C12 UNL     1     -30.946 -12.375 -20.977  1.00  0.00     0.024 A 
HETATM   22  C13 UNL     1     -30.689 -11.220 -20.272  1.00  0.00     0.042 A 
HETATM   23 CL2  UNL     1     -29.708  -9.976 -20.953  1.00  0.00    -0.084 Cl
ENDBRANCH  15  16
ENDBRANCH  14  15
ENDBRANCH  10  14
ENDBRANCH   7  10
BRANCH   1  24
HETATM   24  S1  UNL     1     -31.042 -12.932  -9.976  1.00  0.00    -0.094 SA
BRANCH  24  25
HETATM   25  C3  UNL     1     -32.162 -14.313 -10.366  1.00  0.00     0.192 C 
BRANCH  25  26
HETATM   26  C2  UNL     1     -31.732 -15.069 -11.547  1.00  0.00     0.268 C 
HETATM   27  O2  UNL     1     -30.889 -15.985 -11.515  1.00  0.00    -0.264 OA
BRANCH  26  28
HETATM   28  O1  UNL     1     -32.282 -14.793 -12.815  1.00  0.00    -0.326 OA
HETATM   29  C1  UNL     1     -33.693 -14.348 -12.740  1.00  0.00     0.213 C 
ENDBRANCH  26  28
ENDBRANCH  25  26
ENDBRANCH  24  25
ENDBRANCH   1  24
TORSDOF 8
ENDMDL
MODEL 5
REMARK VINA RESULT: -7.139303666      0.777      1.130
REMARK  8 active torsions:
REMARK  status: ('A' for Active; 'I' for Inactive)
REMARK    1  A    between atoms: O1_2  and  C2_3 
REMARK    2  A    between atoms: C2_3  and  C3_5 
REMARK    3  A    between atoms: C3_5  and  S1_6 
REMARK    4  A    between atoms: S1_6  and  C4_7 
REMARK    5  A    between atoms: N3_13  and  C6_15 
REMARK    6  A    between atoms: C6_15  and  S2_19 
REMARK    7  A    between atoms: S2_19  and  C7_20 
REMARK    8  A    between atoms: C7_20  and  C8_21 
ROOT
HETATM    1  C4  UNL     1     -29.515 -10.212 -11.431  1.00  0.00     0.130 A 
HETATM    2  N1  UNL     1     -28.858 -11.222 -11.956  1.00  0.00    -0.286 N 
ATOM      3  H1  UNL     1     -27.839 -11.239 -11.933  1.00  0.00     0.188 HD
HETATM    4  N2  UNL     1     -29.490 -12.160 -12.483  1.00  0.00    -0.278 N 
ATOM      5  H2  UNL     1     -28.988 -12.951 -12.886  1.00  0.00     0.189 HD
HETATM    6  C5  UNL     1     -30.872 -12.126 -12.521  1.00  0.00     0.167 A 
HETATM    7  N3  UNL     1     -31.689 -12.934 -13.012  1.00  0.00    -0.316 N 
ATOM      8  H3  UNL     1     -32.654 -12.633 -12.874  1.00  0.00     0.170 HD
HETATM    9  S3  UNL     1     -31.133 -10.616 -11.711  1.00  0.00    -0.026 SA
ENDROOT
BRANCH   7  10
HETATM   10  C6  UNL     1     -31.614 -14.124 -13.691  1.00  0.00     0.140 C 
HETATM   11  N4  UNL     1     -31.646 -15.241 -12.928  1.00  0.00    -0.380 N 
ATOM     12  H42 UNL     1     -31.811 -15.215 -11.921  1.00  0.00     0.158 HD
ATOM     13  H41 UNL     1     -31.590 -16.125 -13.432  1.00  0.00     0.158 HD
BRANCH  10  14
HETATM   14  S2  UNL     1     -31.327 -14.168 -15.432  1.00  0.00    -0.090 SA
BRANCH  14  15
HETATM   15  C7  UNL     1     -32.394 -12.841 -16.221  1.00  0.00     0.124 C 
BRANCH  15  16
HETATM   16  C8  UNL     1     -32.298 -13.062 -17.674  1.00  0.00    -0.005 A 
HETATM   17  C9  UNL     1     -31.386 -12.349 -18.411  1.00  0.00     0.042 A 
HETATM   18 CL1  UNL     1     -30.155 -11.417 -17.525  1.00  0.00    -0.084 Cl
HETATM   19  C10 UNL     1     -31.333 -12.368 -19.811  1.00  0.00     0.024 A 
HETATM   20  C11 UNL     1     -32.281 -13.187 -20.437  1.00  0.00     0.003 A 
HETATM   21  C12 UNL     1     -33.190 -13.899 -19.708  1.00  0.00     0.024 A 
HETATM   22  C13 UNL     1     -33.194 -13.833 -18.333  1.00  0.00     0.042 A 
HETATM   23 CL2  UNL     1     -34.375 -14.692 -17.416  1.00  0.00    -0.084 Cl
ENDBRANCH  15  16
ENDBRANCH  14  15
ENDBRANCH  10  14
ENDBRANCH   7  10
BRANCH   1  24
HETATM   24  S1  UNL     1     -28.862  -8.635 -10.760  1.00  0.00    -0.094 SA
BRANCH  24  25
HETATM   25  C3  UNL     1     -30.130  -7.981  -9.629  1.00  0.00     0.192 C 
BRANCH  25  26
HETATM   26  C2  UNL     1     -30.712  -6.722 -10.106  1.00  0.00     0.268 C 
HETATM   27  O2  UNL     1     -31.086  -5.803  -9.355  1.00  0.00    -0.264 OA
BRANCH  26  28
HETATM   28  O1  UNL     1     -30.868  -6.481 -11.486  1.00  0.00    -0.326 OA
HETATM   29  C1  UNL     1     -32.175  -6.949 -12.003  1.00  0.00     0.213 C 
ENDBRANCH  26  28
ENDBRANCH  25  26
ENDBRANCH  24  25
ENDBRANCH   1  24
TORSDOF 8
ENDMDL
