MODEL 1
REMARK VINA RESULT: -8.006368994      0.000      0.000
REMARK  6 active torsions:
REMARK  status: ('A' for Active; 'I' for Inactive)
REMARK    1  A    between atoms: C1_2  and  C2_3 
REMARK       I    between atoms: C1_2  and  N2_17 
REMARK    2  A    between atoms: N1_4  and  C3_6 
REMARK    3  A    between atoms: C3_6  and  C4_7 
REMARK    4  A    between atoms: C5_8  and  O2_9 
REMARK    5  A    between atoms: N2_17  and  C10_19 
REMARK    6  A    between atoms: C11_20  and  N3_21 
ROOT
HETATM    1  O1  UNL     1     -31.581 -15.033 -16.120  1.00  0.00    -0.267 OA
HETATM    2  C1  UNL     1     -32.047 -13.851 -16.102  1.00  0.00     0.261 C 
HETATM    3  N2  UNL     1     -33.187 -13.552 -16.819  1.00  0.00    -0.319 N 
ATOM      4  H2  UNL     1     -33.510 -12.586 -16.766  1.00  0.00     0.169 HD
ENDROOT
BRANCH   2   5
HETATM    5  C2  UNL     1     -31.315 -12.869 -15.304  1.00  0.00     0.162 C 
HETATM    6  N1  UNL     1     -31.238 -11.680 -15.487  1.00  0.00    -0.369 N 
ATOM      7  H1  UNL     1     -30.648 -11.367 -14.716  1.00  0.00     0.164 HD
BRANCH   6   8
HETATM    8  C3  UNL     1     -31.508 -10.515 -16.165  1.00  0.00     0.105 C 
BRANCH   8   9
HETATM    9  C4  UNL     1     -30.411 -10.194 -17.177  1.00  0.00     0.053 A 
HETATM   10  C5  UNL     1     -29.209  -9.685 -16.671  1.00  0.00     0.080 A 
HETATM   11  C6  UNL     1     -28.199  -9.325 -17.501  1.00  0.00     0.039 A 
HETATM   12  C7  UNL     1     -28.326  -9.447 -18.895  1.00  0.00     0.030 A 
HETATM   13  C8  UNL     1     -29.531  -9.963 -19.389  1.00  0.00     0.073 A 
HETATM   14 CL1  UNL     1     -29.672 -10.108 -21.117  1.00  0.00    -0.081 Cl
HETATM   15  C9  UNL     1     -30.560 -10.329 -18.527  1.00  0.00     0.152 A 
HETATM   16  F1  UNL     1     -31.739 -10.814 -19.046  1.00  0.00    -0.203 F 
BRANCH  10  17
HETATM   17  O2  UNL     1     -29.099  -9.567 -15.278  1.00  0.00    -0.360 OA
ATOM     18  H2  UNL     1     -28.224  -9.582 -14.909  1.00  0.00     0.217 HD
ENDBRANCH  10  17
ENDBRANCH   8   9
ENDBRANCH   6   8
ENDBRANCH   2   5
BRANCH   3  19
HETATM   19  C10 UNL     1     -33.961 -14.427 -17.619  1.00  0.00     0.088 A 
HETATM   20  C11 UNL     1     -33.712 -14.583 -18.973  1.00  0.00     0.131 A 
HETATM   21  C12 UNL     1     -34.513 -15.531 -19.630  1.00  0.00     0.041 A 
HETATM   22  C13 UNL     1     -35.482 -16.262 -19.010  1.00  0.00     0.041 A 
HETATM   23  C14 UNL     1     -35.718 -16.083 -17.628  1.00  0.00     0.099 A 
HETATM   24  O5  UNL     1     -36.598 -16.710 -16.948  1.00  0.00    -0.268 OA
HETATM   25  C16 UNL     1     -34.942 -15.163 -16.978  1.00  0.00     0.073 A 
HETATM   26  C15 UNL     1     -36.736 -16.468 -15.686  1.00  0.00     0.332 A 
HETATM   27  O6  UNL     1     -37.582 -17.019 -14.875  1.00  0.00    -0.251 OA
HETATM   28  S1  UNL     1     -35.563 -15.273 -15.400  1.00  0.00    -0.016 SA
BRANCH  20  29
HETATM   29  N3  UNL     1     -32.734 -13.811 -19.623  1.00  0.00    -0.113 N 
HETATM   30  O3  UNL     1     -33.053 -12.972 -20.463  1.00  0.00    -0.532 OA
HETATM   31  O4  UNL     1     -31.404 -13.992 -19.378  1.00  0.00    -0.532 OA
ENDBRANCH  20  29
ENDBRANCH   3  19
TORSDOF 6
ENDMDL
MODEL 2
REMARK VINA RESULT: -7.999698915      2.138      3.967
REMARK  6 active torsions:
REMARK  status: ('A' for Active; 'I' for Inactive)
REMARK    1  A    between atoms: C1_2  and  C2_3 
REMARK       I    between atoms: C1_2  and  N2_17 
REMARK    2  A    between atoms: N1_4  and  C3_6 
REMARK    3  A    between atoms: C3_6  and  C4_7 
REMARK    4  A    between atoms: C5_8  and  O2_9 
REMARK    5  A    between atoms: N2_17  and  C10_19 
REMARK    6  A    between atoms: C11_20  and  N3_21 
ROOT
HETATM    1  O1  UNL     1     -31.348 -14.497 -15.410  1.00  0.00    -0.267 OA
HETATM    2  C1  UNL     1     -32.111 -13.518 -15.138  1.00  0.00     0.261 C 
HETATM    3  N2  UNL     1     -33.208 -13.262 -15.935  1.00  0.00    -0.319 N 
ATOM      4  H2  UNL     1     -33.780 -12.462 -15.666  1.00  0.00     0.169 HD
ENDROOT
BRANCH   2   5
HETATM    5  C2  UNL     1     -31.755 -12.713 -13.971  1.00  0.00     0.162 C 
HETATM    6  N1  UNL     1     -30.803 -11.985 -13.841  1.00  0.00    -0.369 N 
ATOM      7  H1  UNL     1     -30.926 -11.614 -12.899  1.00  0.00     0.164 HD
BRANCH   6   8
HETATM    8  C3  UNL     1     -29.644 -11.380 -14.265  1.00  0.00     0.105 C 
BRANCH   8   9
HETATM    9  C4  UNL     1     -29.921 -10.359 -15.365  1.00  0.00     0.053 A 
HETATM   10  C5  UNL     1     -30.647  -9.218 -15.006  1.00  0.00     0.080 A 
HETATM   11  C6  UNL     1     -30.982  -8.283 -15.929  1.00  0.00     0.039 A 
HETATM   12  C7  UNL     1     -30.617  -8.431 -17.278  1.00  0.00     0.030 A 
HETATM   13  C8  UNL     1     -29.886  -9.574 -17.625  1.00  0.00     0.073 A 
HETATM   14 CL1  UNL     1     -29.440  -9.742 -19.298  1.00  0.00    -0.081 Cl
HETATM   15  C9  UNL     1     -29.547 -10.525 -16.668  1.00  0.00     0.152 A 
HETATM   16  F1  UNL     1     -28.845 -11.648 -17.046  1.00  0.00    -0.203 F 
BRANCH  10  17
HETATM   17  O2  UNL     1     -31.007  -9.087 -13.657  1.00  0.00    -0.360 OA
ATOM     18  H2  UNL     1     -31.762  -8.545 -13.460  1.00  0.00     0.217 HD
ENDBRANCH  10  17
ENDBRANCH   8   9
ENDBRANCH   6   8
ENDBRANCH   2   5
BRANCH   3  19
HETATM   19  C10 UNL     1     -33.633 -13.977 -17.080  1.00  0.00     0.088 A 
HETATM   20  C11 UNL     1     -34.678 -14.886 -17.021  1.00  0.00     0.131 A 
HETATM   21  C12 UNL     1     -35.038 -15.474 -18.244  1.00  0.00     0.041 A 
HETATM   22  C13 UNL     1     -34.420 -15.196 -19.427  1.00  0.00     0.041 A 
HETATM   23  C14 UNL     1     -33.356 -14.268 -19.461  1.00  0.00     0.099 A 
HETATM   24  O5  UNL     1     -32.707 -13.935 -20.509  1.00  0.00    -0.268 OA
HETATM   25  C16 UNL     1     -32.998 -13.687 -18.275  1.00  0.00     0.073 A 
HETATM   26  C15 UNL     1     -31.744 -13.076 -20.430  1.00  0.00     0.332 A 
HETATM   27  O6  UNL     1     -31.000 -12.648 -21.400  1.00  0.00    -0.251 OA
HETATM   28  S1  UNL     1     -31.718 -12.689 -18.776  1.00  0.00    -0.016 SA
BRANCH  20  29
HETATM   29  N3  UNL     1     -35.298 -15.196 -15.799  1.00  0.00    -0.113 N 
HETATM   30  O3  UNL     1     -35.678 -16.341 -15.561  1.00  0.00    -0.532 OA
HETATM   31  O4  UNL     1     -35.539 -14.238 -14.857  1.00  0.00    -0.532 OA
ENDBRANCH  20  29
ENDBRANCH   3  19
TORSDOF 6
ENDMDL
MODEL 3
REMARK VINA RESULT: -7.983438547      3.194      6.778
REMARK  6 active torsions:
REMARK  status: ('A' for Active; 'I' for Inactive)
REMARK    1  A    between atoms: C1_2  and  C2_3 
REMARK       I    between atoms: C1_2  and  N2_17 
REMARK    2  A    between atoms: N1_4  and  C3_6 
REMARK    3  A    between atoms: C3_6  and  C4_7 
REMARK    4  A    between atoms: C5_8  and  O2_9 
REMARK    5  A    between atoms: N2_17  and  C10_19 
REMARK    6  A    between atoms: C11_20  and  N3_21 
ROOT
HETATM    1  O1  UNL     1     -32.808 -13.025 -15.050  1.00  0.00    -0.267 OA
HETATM    2  C1  UNL     1     -31.782 -13.732 -15.298  1.00  0.00     0.261 C 
HETATM    3  N2  UNL     1     -30.724 -13.740 -14.413  1.00  0.00    -0.319 N 
ATOM      4  H2  UNL     1     -29.929 -14.326 -14.668  1.00  0.00     0.169 HD
ENDROOT
BRANCH   2   5
HETATM    5  C2  UNL     1     -31.800 -14.501 -16.541  1.00  0.00     0.162 C 
HETATM    6  N1  UNL     1     -32.270 -14.175 -17.602  1.00  0.00    -0.369 N 
ATOM      7  H1  UNL     1     -32.071 -14.979 -18.198  1.00  0.00     0.164 HD
BRANCH   6   8
HETATM    8  C3  UNL     1     -32.927 -13.315 -18.450  1.00  0.00     0.105 C 
BRANCH   8   9
HETATM    9  C4  UNL     1     -31.995 -12.219 -18.960  1.00  0.00     0.053 A 
HETATM   10  C5  UNL     1     -31.406 -12.417 -20.213  1.00  0.00     0.080 A 
HETATM   11  C6  UNL     1     -30.526 -11.520 -20.722  1.00  0.00     0.039 A 
HETATM   12  C7  UNL     1     -30.173 -10.363 -20.006  1.00  0.00     0.030 A 
HETATM   13  C8  UNL     1     -30.774 -10.172 -18.755  1.00  0.00     0.073 A 
HETATM   14 CL1  UNL     1     -30.328  -8.736 -17.882  1.00  0.00    -0.081 Cl
HETATM   15  C9  UNL     1     -31.676 -11.100 -18.245  1.00  0.00     0.152 A 
HETATM   16  F1  UNL     1     -32.233 -10.893 -17.003  1.00  0.00    -0.203 F 
BRANCH  10  17
HETATM   17  O2  UNL     1     -31.765 -13.578 -20.914  1.00  0.00    -0.360 OA
ATOM     18  H2  UNL     1     -31.908 -13.493 -21.849  1.00  0.00     0.217 HD
ENDBRANCH  10  17
ENDBRANCH   8   9
ENDBRANCH   6   8
ENDBRANCH   2   5
BRANCH   3  19
HETATM   19  C10 UNL     1     -30.611 -13.033 -13.191  1.00  0.00     0.088 A 
HETATM   20  C11 UNL     1     -31.001 -13.598 -11.987  1.00  0.00     0.131 A 
HETATM   21  C12 UNL     1     -30.772 -12.811 -10.848  1.00  0.00     0.041 A 
HETATM   22  C13 UNL     1     -30.210 -11.570 -10.887  1.00  0.00     0.041 A 
HETATM   23  C14 UNL     1     -29.822 -11.015 -12.127  1.00  0.00     0.099 A 
HETATM   24  O5  UNL     1     -29.290  -9.865 -12.281  1.00  0.00    -0.268 OA
HETATM   25  C16 UNL     1     -30.039 -11.774 -13.244  1.00  0.00     0.073 A 
HETATM   26  C15 UNL     1     -28.976  -9.448 -13.463  1.00  0.00     0.332 A 
HETATM   27  O6  UNL     1     -28.437  -8.311 -13.771  1.00  0.00    -0.251 OA
HETATM   28  S1  UNL     1     -29.452 -10.741 -14.457  1.00  0.00    -0.016 SA
BRANCH  20  29
HETATM   29  N3  UNL     1     -31.608 -14.865 -11.946  1.00  0.00    -0.113 N 
HETATM   30  O3  UNL     1     -32.789 -15.006 -12.255  1.00  0.00    -0.532 OA
HETATM   31  O4  UNL     1     -30.925 -15.969 -11.522  1.00  0.00    -0.532 OA
ENDBRANCH  20  29
ENDBRANCH   3  19
TORSDOF 6
ENDMDL
MODEL 4
REMARK VINA RESULT: -7.973459309      3.592      6.573
REMARK  6 active torsions:
REMARK  status: ('A' for Active; 'I' for Inactive)
REMARK    1  A    between atoms: C1_2  and  C2_3 
REMARK       I    between atoms: C1_2  and  N2_17 
REMARK    2  A    between atoms: N1_4  and  C3_6 
REMARK    3  A    between atoms: C3_6  and  C4_7 
REMARK    4  A    between atoms: C5_8  and  O2_9 
REMARK    5  A    between atoms: N2_17  and  C10_19 
REMARK    6  A    between atoms: C11_20  and  N3_21 
ROOT
HETATM    1  O1  UNL     1     -33.385 -12.097 -16.529  1.00  0.00    -0.267 OA
HETATM    2  C1  UNL     1     -32.726 -13.165 -16.728  1.00  0.00     0.261 C 
HETATM    3  N2  UNL     1     -31.528 -13.115 -17.410  1.00  0.00    -0.319 N 
ATOM      4  H2  UNL     1     -31.048 -14.006 -17.539  1.00  0.00     0.169 HD
ENDROOT
BRANCH   2   5
HETATM    5  C2  UNL     1     -33.306 -14.401 -16.206  1.00  0.00     0.162 C 
HETATM    6  N1  UNL     1     -33.754 -14.597 -15.103  1.00  0.00    -0.369 N 
ATOM      7  H1  UNL     1     -34.059 -15.569 -15.149  1.00  0.00     0.164 HD
BRANCH   6   8
HETATM    8  C3  UNL     1     -34.079 -14.228 -13.819  1.00  0.00     0.105 C 
BRANCH   8   9
HETATM    9  C4  UNL     1     -32.995 -13.348 -13.204  1.00  0.00     0.053 A 
HETATM   10  C5  UNL     1     -31.850 -13.992 -12.722  1.00  0.00     0.080 A 
HETATM   11  C6  UNL     1     -30.859 -13.294 -12.113  1.00  0.00     0.039 A 
HETATM   12  C7  UNL     1     -30.951 -11.902 -11.943  1.00  0.00     0.030 A 
HETATM   13  C8  UNL     1     -32.099 -11.268 -12.434  1.00  0.00     0.073 A 
HETATM   14 CL1  UNL     1     -32.197  -9.544 -12.216  1.00  0.00    -0.081 Cl
HETATM   15  C9  UNL     1     -33.108 -11.995 -13.057  1.00  0.00     0.152 A 
HETATM   16  F1  UNL     1     -34.233 -11.343 -13.511  1.00  0.00    -0.203 F 
BRANCH  10  17
HETATM   17  O2  UNL     1     -31.775 -15.381 -12.896  1.00  0.00    -0.360 OA
ATOM     18  H2  UNL     1     -32.460 -15.906 -12.500  1.00  0.00     0.217 HD
ENDBRANCH  10  17
ENDBRANCH   8   9
ENDBRANCH   6   8
ENDBRANCH   2   5
BRANCH   3  19
HETATM   19  C10 UNL     1     -30.887 -11.976 -17.953  1.00  0.00     0.088 A 
HETATM   20  C11 UNL     1     -31.046 -11.618 -19.283  1.00  0.00     0.131 A 
HETATM   21  C12 UNL     1     -30.407 -10.430 -19.670  1.00  0.00     0.041 A 
HETATM   22  C13 UNL     1     -29.669  -9.658 -18.823  1.00  0.00     0.041 A 
HETATM   23  C14 UNL     1     -29.520 -10.045 -17.472  1.00  0.00     0.099 A 
HETATM   24  O5  UNL     1     -28.852  -9.401 -16.595  1.00  0.00    -0.268 OA
HETATM   25  C16 UNL     1     -30.140 -11.200 -17.084  1.00  0.00     0.073 A 
HETATM   26  C15 UNL     1     -28.775  -9.844 -15.384  1.00  0.00     0.332 A 
HETATM   27  O6  UNL     1     -28.136  -9.305 -14.395  1.00  0.00    -0.251 OA
HETATM   28  S1  UNL     1     -29.694 -11.272 -15.446  1.00  0.00    -0.016 SA
BRANCH  20  29
HETATM   29  N3  UNL     1     -31.782 -12.427 -20.166  1.00  0.00    -0.113 N 
HETATM   30  O3  UNL     1     -33.007 -12.487 -20.088  1.00  0.00    -0.532 OA
HETATM   31  O4  UNL     1     -31.165 -13.201 -21.106  1.00  0.00    -0.532 OA
ENDBRANCH  20  29
ENDBRANCH   3  19
TORSDOF 6
ENDMDL
MODEL 5
REMARK VINA RESULT: -7.823263520      3.175      7.334
REMARK  6 active torsions:
REMARK  status: ('A' for Active; 'I' for Inactive)
REMARK    1  A    between atoms: C1_2  and  C2_3 
REMARK       I    between atoms: C1_2  and  N2_17 
REMARK    2  A    between atoms: N1_4  and  C3_6 
REMARK    3  A    between atoms: C3_6  and  C4_7 
REMARK    4  A    between atoms: C5_8  and  O2_9 
REMARK    5  A    between atoms: N2_17  and  C10_19 
REMARK    6  A    between atoms: C11_20  and  N3_21 
ROOT
HETATM    1  O1  UNL     1     -32.321 -11.402 -18.891  1.00  0.00    -0.267 OA
HETATM    2  C1  UNL     1     -31.390 -12.227 -18.632  1.00  0.00     0.261 C 
HETATM    3  N2  UNL     1     -30.385 -11.874 -17.756  1.00  0.00    -0.319 N 
ATOM      4  H2  UNL     1     -29.666 -12.579 -17.591  1.00  0.00     0.169 HD
ENDROOT
BRANCH   2   5
HETATM    5  C2  UNL     1     -31.456 -13.523 -19.305  1.00  0.00     0.162 C 
HETATM    6  N1  UNL     1     -32.442 -14.115 -19.669  1.00  0.00    -0.369 N 
ATOM      7  H1  UNL     1     -32.059 -14.961 -20.090  1.00  0.00     0.164 HD
BRANCH   6   8
HETATM    8  C3  UNL     1     -33.798 -14.275 -19.829  1.00  0.00     0.105 C 
BRANCH   8   9
HETATM    9  C4  UNL     1     -34.405 -15.058 -18.668  1.00  0.00     0.053 A 
HETATM   10  C5  UNL     1     -34.901 -16.335 -18.953  1.00  0.00     0.080 A 
HETATM   11  C6  UNL     1     -35.502 -17.082 -17.994  1.00  0.00     0.039 A 
HETATM   12  C7  UNL     1     -35.651 -16.597 -16.683  1.00  0.00     0.030 A 
HETATM   13  C8  UNL     1     -35.146 -15.320 -16.409  1.00  0.00     0.073 A 
HETATM   14 CL1  UNL     1     -35.338 -14.734 -14.782  1.00  0.00    -0.081 Cl
HETATM   15  C9  UNL     1     -34.530 -14.564 -17.401  1.00  0.00     0.152 A 
HETATM   16  F1  UNL     1     -34.063 -13.304 -17.103  1.00  0.00    -0.203 F 
BRANCH  10  17
HETATM   17  O2  UNL     1     -34.747 -16.804 -20.265  1.00  0.00    -0.360 OA
ATOM     18  H2  UNL     1     -34.134 -17.516 -20.403  1.00  0.00     0.217 HD
ENDBRANCH  10  17
ENDBRANCH   8   9
ENDBRANCH   6   8
ENDBRANCH   2   5
BRANCH   3  19
HETATM   19  C10 UNL     1     -30.232 -10.651 -17.060  1.00  0.00     0.088 A 
HETATM   20  C11 UNL     1     -29.536  -9.585 -17.609  1.00  0.00     0.131 A 
HETATM   21  C12 UNL     1     -29.520  -8.413 -16.838  1.00  0.00     0.041 A 
HETATM   22  C13 UNL     1     -30.132  -8.296 -15.626  1.00  0.00     0.041 A 
HETATM   23  C14 UNL     1     -30.833  -9.397 -15.086  1.00  0.00     0.099 A 
HETATM   24  O5  UNL     1     -31.440  -9.400 -13.963  1.00  0.00    -0.268 OA
HETATM   25  C16 UNL     1     -30.858 -10.545 -15.830  1.00  0.00     0.073 A 
HETATM   26  C15 UNL     1     -32.050 -10.465 -13.558  1.00  0.00     0.332 A 
HETATM   27  O6  UNL     1     -32.699 -10.617 -12.448  1.00  0.00    -0.251 OA
HETATM   28  S1  UNL     1     -31.769 -11.565 -14.822  1.00  0.00    -0.016 SA
BRANCH  20  29
HETATM   29  N3  UNL     1     -28.880  -9.711 -18.845  1.00  0.00    -0.113 N 
HETATM   30  O3  UNL     1     -27.657  -9.603 -18.920  1.00  0.00    -0.532 OA
HETATM   31  O4  UNL     1     -29.572  -9.912 -20.004  1.00  0.00    -0.532 OA
ENDBRANCH  20  29
ENDBRANCH   3  19
TORSDOF 6
ENDMDL
