MODEL 1
REMARK VINA RESULT: -7.176095519      0.000      0.000
REMARK  7 active torsions:
REMARK  status: ('A' for Active; 'I' for Inactive)
REMARK    1  A    between atoms: C2_3  and  O1_4 
REMARK    2  A    between atoms: C3_6  and  N2_7 
REMARK    3  A    between atoms: N3_9  and  C4_11 
REMARK    4  A    between atoms: C4_11  and  C5_12 
REMARK    5  A    between atoms: C5_12  and  C6_13 
REMARK    6  A    between atoms: N4_16  and  N5_18 
REMARK    7  A    between atoms: C7_20  and  C8_21 
ROOT
HETATM    1  C4  UNL     1     -33.075 -11.851 -14.085  1.00  0.00     0.120 C 
HETATM    2  N4  UNL     1     -33.108 -12.277 -15.281  1.00  0.00    -0.288 N 
ATOM      3  H4  UNL     1     -33.679 -13.087 -15.524  1.00  0.00     0.188 HD
ENDROOT
BRANCH   1   4
HETATM    4  N3  UNL     1     -32.282 -10.731 -13.757  1.00  0.00    -0.286 N 
HETATM    5  N2  UNL     1     -31.485 -10.758 -12.762  1.00  0.00    -0.289 N 
ATOM      6  H2  UNL     1     -31.386 -11.581 -12.167  1.00  0.00     0.188 HD
ATOM      7  H3  UNL     1     -32.347  -9.886 -14.325  1.00  0.00     0.188 HD
BRANCH   5   8
HETATM    8  C3  UNL     1     -30.731  -9.546 -12.534  1.00  0.00     0.145 A 
HETATM    9  C2  UNL     1     -31.209  -8.304 -12.201  1.00  0.00     0.181 A 
HETATM   10  N1  UNL     1     -30.344  -7.344 -12.041  1.00  0.00    -0.291 N 
HETATM   11  C1  UNL     1     -30.745  -5.959 -11.680  1.00  0.00     0.162 C 
HETATM   12  C14 UNL     1     -29.050  -7.615 -12.209  1.00  0.00     0.294 A 
HETATM   13  S1  UNL     1     -29.047  -9.274 -12.603  1.00  0.00    -0.005 SA
HETATM   14  O4  UNL     1     -28.051  -6.815 -12.098  1.00  0.00    -0.259 OA
BRANCH   9  15
HETATM   15  O1  UNL     1     -32.619  -8.140 -12.050  1.00  0.00    -0.344 OA
ATOM     16  H1  UNL     1     -33.264  -8.537 -12.624  1.00  0.00     0.219 HD
ENDBRANCH   9  15
ENDBRANCH   5   8
ENDBRANCH   1   4
BRANCH   1  17
HETATM   17  C5  UNL     1     -33.856 -12.514 -13.026  1.00  0.00     0.192 C 
BRANCH  17  18
HETATM   18  C6  UNL     1     -34.759 -11.658 -12.269  1.00  0.00     0.179 C 
HETATM   19  O2  UNL     1     -35.562 -12.140 -11.439  1.00  0.00    -0.648 OA
HETATM   20  O3  UNL     1     -34.711 -10.290 -12.488  1.00  0.00    -0.648 OA
ENDBRANCH  17  18
ENDBRANCH   1  17
BRANCH   2  21
HETATM   21  N5  UNL     1     -32.357 -11.628 -16.258  1.00  0.00    -0.310 N 
HETATM   22  C7  UNL     1     -31.425 -12.206 -16.938  1.00  0.00     0.122 C 
ATOM     23  H5  UNL     1     -32.555 -10.645 -16.446  1.00  0.00     0.186 HD
BRANCH  22  24
HETATM   24  C8  UNL     1     -30.719 -11.406 -17.930  1.00  0.00     0.024 A 
HETATM   25  C9  UNL     1     -31.132 -11.382 -19.253  1.00  0.00     0.047 A 
HETATM   26 CL1  UNL     1     -32.525 -12.332 -19.716  1.00  0.00    -0.083 Cl
HETATM   27  C10 UNL     1     -30.452 -10.620 -20.176  1.00  0.00     0.025 A 
HETATM   28  C11 UNL     1     -29.364  -9.883 -19.795  1.00  0.00     0.003 A 
HETATM   29  C12 UNL     1     -28.967  -9.923 -18.464  1.00  0.00     0.025 A 
HETATM   30  C13 UNL     1     -29.627 -10.674 -17.517  1.00  0.00     0.047 A 
HETATM   31 CL2  UNL     1     -29.107 -10.707 -15.847  1.00  0.00    -0.083 Cl
ENDBRANCH  22  24
ENDBRANCH   2  21
TORSDOF 7
ENDMDL
MODEL 2
REMARK VINA RESULT: -7.169380155      0.047      1.769
REMARK  7 active torsions:
REMARK  status: ('A' for Active; 'I' for Inactive)
REMARK    1  A    between atoms: C2_3  and  O1_4 
REMARK    2  A    between atoms: C3_6  and  N2_7 
REMARK    3  A    between atoms: N3_9  and  C4_11 
REMARK    4  A    between atoms: C4_11  and  C5_12 
REMARK    5  A    between atoms: C5_12  and  C6_13 
REMARK    6  A    between atoms: N4_16  and  N5_18 
REMARK    7  A    between atoms: C7_20  and  C8_21 
ROOT
HETATM    1  C4  UNL     1     -33.080 -11.853 -14.084  1.00  0.00     0.120 C 
HETATM    2  N4  UNL     1     -33.114 -12.280 -15.281  1.00  0.00    -0.288 N 
ATOM      3  H4  UNL     1     -33.686 -13.089 -15.523  1.00  0.00     0.188 HD
ENDROOT
BRANCH   1   4
HETATM    4  N3  UNL     1     -32.287 -10.733 -13.757  1.00  0.00    -0.286 N 
HETATM    5  N2  UNL     1     -31.474 -10.768 -12.775  1.00  0.00    -0.289 N 
ATOM      6  H2  UNL     1     -31.363 -11.596 -12.190  1.00  0.00     0.188 HD
ATOM      7  H3  UNL     1     -32.364  -9.883 -14.315  1.00  0.00     0.188 HD
BRANCH   5   8
HETATM    8  C3  UNL     1     -30.721  -9.555 -12.546  1.00  0.00     0.145 A 
HETATM    9  C2  UNL     1     -31.199  -8.317 -12.198  1.00  0.00     0.181 A 
HETATM   10  N1  UNL     1     -30.336  -7.356 -12.041  1.00  0.00    -0.291 N 
HETATM   11  C1  UNL     1     -30.738  -5.975 -11.665  1.00  0.00     0.162 C 
HETATM   12  C14 UNL     1     -29.043  -7.622 -12.224  1.00  0.00     0.294 A 
HETATM   13  S1  UNL     1     -29.040  -9.278 -12.631  1.00  0.00    -0.005 SA
HETATM   14  O4  UNL     1     -28.046  -6.819 -12.119  1.00  0.00    -0.259 OA
BRANCH   9  15
HETATM   15  O1  UNL     1     -32.609  -8.158 -12.031  1.00  0.00    -0.344 OA
ATOM     16  H1  UNL     1     -33.203  -8.873 -11.832  1.00  0.00     0.219 HD
ENDBRANCH   9  15
ENDBRANCH   5   8
ENDBRANCH   1   4
BRANCH   1  17
HETATM   17  C5  UNL     1     -33.861 -12.515 -13.025  1.00  0.00     0.192 C 
BRANCH  17  18
HETATM   18  C6  UNL     1     -34.753 -11.657 -12.259  1.00  0.00     0.179 C 
HETATM   19  O2  UNL     1     -35.547 -12.136 -11.418  1.00  0.00    -0.648 OA
HETATM   20  O3  UNL     1     -34.706 -10.290 -12.481  1.00  0.00    -0.648 OA
ENDBRANCH  17  18
ENDBRANCH   1  17
BRANCH   2  21
HETATM   21  N5  UNL     1     -32.364 -11.631 -16.258  1.00  0.00    -0.310 N 
HETATM   22  C7  UNL     1     -31.434 -12.210 -16.940  1.00  0.00     0.122 C 
ATOM     23  H5  UNL     1     -32.560 -10.648 -16.444  1.00  0.00     0.186 HD
BRANCH  22  24
HETATM   24  C8  UNL     1     -30.727 -11.411 -17.932  1.00  0.00     0.024 A 
HETATM   25  C9  UNL     1     -29.639 -10.629 -17.576  1.00  0.00     0.047 A 
HETATM   26 CL1  UNL     1     -29.122 -10.619 -15.906  1.00  0.00    -0.083 Cl
HETATM   27  C10 UNL     1     -28.984  -9.881 -18.528  1.00  0.00     0.025 A 
HETATM   28  C11 UNL     1     -29.403  -9.903 -19.830  1.00  0.00     0.003 A 
HETATM   29  C12 UNL     1     -30.496 -10.692 -20.165  1.00  0.00     0.025 A 
HETATM   30  C13 UNL     1     -31.172 -11.451 -19.236  1.00  0.00     0.047 A 
HETATM   31 CL2  UNL     1     -32.546 -12.438 -19.683  1.00  0.00    -0.083 Cl
ENDBRANCH  22  24
ENDBRANCH   2  21
TORSDOF 7
ENDMDL
MODEL 3
REMARK VINA RESULT: -7.001496513      4.129      5.607
REMARK  7 active torsions:
REMARK  status: ('A' for Active; 'I' for Inactive)
REMARK    1  A    between atoms: C2_3  and  O1_4 
REMARK    2  A    between atoms: C3_6  and  N2_7 
REMARK    3  A    between atoms: N3_9  and  C4_11 
REMARK    4  A    between atoms: C4_11  and  C5_12 
REMARK    5  A    between atoms: C5_12  and  C6_13 
REMARK    6  A    between atoms: N4_16  and  N5_18 
REMARK    7  A    between atoms: C7_20  and  C8_21 
ROOT
HETATM    1  C4  UNL     1     -34.726 -15.151 -17.568  1.00  0.00     0.120 C 
HETATM    2  N4  UNL     1     -34.060 -14.833 -18.603  1.00  0.00    -0.288 N 
ATOM      3  H4  UNL     1     -34.110 -15.407 -19.444  1.00  0.00     0.188 HD
ENDROOT
BRANCH   1   4
HETATM    4  N3  UNL     1     -34.651 -14.352 -16.408  1.00  0.00    -0.286 N 
HETATM    5  N2  UNL     1     -34.236 -14.836 -15.303  1.00  0.00    -0.289 N 
ATOM      6  H2  UNL     1     -33.944 -15.809 -15.211  1.00  0.00     0.188 HD
ATOM      7  H3  UNL     1     -34.931 -13.373 -16.453  1.00  0.00     0.188 HD
BRANCH   5   8
HETATM    8  C3  UNL     1     -34.207 -13.913 -14.191  1.00  0.00     0.145 A 
HETATM    9  C2  UNL     1     -33.402 -13.953 -13.080  1.00  0.00     0.181 A 
HETATM   10  N1  UNL     1     -33.545 -13.011 -12.193  1.00  0.00    -0.291 N 
HETATM   11  C1  UNL     1     -32.729 -12.952 -10.952  1.00  0.00     0.162 C 
HETATM   12  C14 UNL     1     -34.458 -12.064 -12.408  1.00  0.00     0.294 A 
HETATM   13  S1  UNL     1     -35.138 -12.511 -13.906  1.00  0.00    -0.005 SA
HETATM   14  O4  UNL     1     -34.749 -11.060 -11.662  1.00  0.00    -0.259 OA
BRANCH   9  15
HETATM   15  O1  UNL     1     -32.461 -15.021 -12.965  1.00  0.00    -0.344 OA
ATOM     16  H1  UNL     1     -32.224 -15.598 -13.681  1.00  0.00     0.219 HD
ENDBRANCH   9  15
ENDBRANCH   5   8
ENDBRANCH   1   4
BRANCH   1  17
HETATM   17  C5  UNL     1     -35.580 -16.351 -17.562  1.00  0.00     0.192 C 
BRANCH  17  18
HETATM   18  C6  UNL     1     -35.618 -17.114 -18.801  1.00  0.00     0.179 C 
HETATM   19  O2  UNL     1     -35.325 -18.331 -18.820  1.00  0.00    -0.648 OA
HETATM   20  O3  UNL     1     -35.988 -16.463 -19.967  1.00  0.00    -0.648 OA
ENDBRANCH  17  18
ENDBRANCH   1  17
BRANCH   2  21
HETATM   21  N5  UNL     1     -33.261 -13.693 -18.576  1.00  0.00    -0.310 N 
HETATM   22  C7  UNL     1     -31.976 -13.723 -18.686  1.00  0.00     0.122 C 
ATOM     23  H5  UNL     1     -33.715 -12.787 -18.463  1.00  0.00     0.186 HD
BRANCH  22  24
HETATM   24  C8  UNL     1     -31.264 -12.453 -18.641  1.00  0.00     0.024 A 
HETATM   25  C9  UNL     1     -30.994 -11.745 -19.802  1.00  0.00     0.047 A 
HETATM   26 CL1  UNL     1     -31.526 -12.403 -21.331  1.00  0.00    -0.083 Cl
HETATM   27  C10 UNL     1     -30.320 -10.546 -19.739  1.00  0.00     0.025 A 
HETATM   28  C11 UNL     1     -29.912 -10.046 -18.533  1.00  0.00     0.003 A 
HETATM   29  C12 UNL     1     -30.192 -10.773 -17.382  1.00  0.00     0.025 A 
HETATM   30  C13 UNL     1     -30.864 -11.974 -17.412  1.00  0.00     0.047 A 
HETATM   31 CL2  UNL     1     -31.206 -12.870 -15.948  1.00  0.00    -0.083 Cl
ENDBRANCH  22  24
ENDBRANCH   2  21
TORSDOF 7
ENDMDL
MODEL 4
REMARK VINA RESULT: -6.983047342      4.220      6.090
REMARK  7 active torsions:
REMARK  status: ('A' for Active; 'I' for Inactive)
REMARK    1  A    between atoms: C2_3  and  O1_4 
REMARK    2  A    between atoms: C3_6  and  N2_7 
REMARK    3  A    between atoms: N3_9  and  C4_11 
REMARK    4  A    between atoms: C4_11  and  C5_12 
REMARK    5  A    between atoms: C5_12  and  C6_13 
REMARK    6  A    between atoms: N4_16  and  N5_18 
REMARK    7  A    between atoms: C7_20  and  C8_21 
ROOT
HETATM    1  C4  UNL     1     -34.739 -15.556 -18.589  1.00  0.00     0.120 C 
HETATM    2  N4  UNL     1     -33.884 -15.174 -19.447  1.00  0.00    -0.288 N 
ATOM      3  H4  UNL     1     -33.715 -15.726 -20.287  1.00  0.00     0.188 HD
ENDROOT
BRANCH   1   4
HETATM    4  N3  UNL     1     -34.967 -14.786 -17.428  1.00  0.00    -0.286 N 
HETATM    5  N2  UNL     1     -34.376 -15.060 -16.331  1.00  0.00    -0.289 N 
ATOM      6  H2  UNL     1     -33.721 -15.838 -16.246  1.00  0.00     0.188 HD
ATOM      7  H3  UNL     1     -35.613 -13.998 -17.467  1.00  0.00     0.188 HD
BRANCH   5   8
HETATM    8  C3  UNL     1     -34.696 -14.195 -15.219  1.00  0.00     0.145 A 
HETATM    9  C2  UNL     1     -35.228 -14.545 -14.002  1.00  0.00     0.181 A 
HETATM   10  N1  UNL     1     -35.437 -13.596 -13.137  1.00  0.00    -0.291 N 
HETATM   11  C1  UNL     1     -36.009 -13.856 -11.789  1.00  0.00     0.162 C 
HETATM   12  C14 UNL     1     -35.127 -12.344 -13.473  1.00  0.00     0.294 A 
HETATM   13  S1  UNL     1     -34.521 -12.505 -15.058  1.00  0.00    -0.005 SA
HETATM   14  O4  UNL     1     -35.257 -11.278 -12.768  1.00  0.00    -0.259 OA
BRANCH   9  15
HETATM   15  O1  UNL     1     -35.518 -15.922 -13.762  1.00  0.00    -0.344 OA
ATOM     16  H1  UNL     1     -36.078 -16.232 -13.060  1.00  0.00     0.219 HD
ENDBRANCH   9  15
ENDBRANCH   5   8
ENDBRANCH   1   4
BRANCH   1  17
HETATM   17  C5  UNL     1     -35.502 -16.800 -18.787  1.00  0.00     0.192 C 
BRANCH  17  18
HETATM   18  C6  UNL     1     -36.554 -17.066 -17.816  1.00  0.00     0.179 C 
HETATM   19  O2  UNL     1     -37.758 -17.079 -18.154  1.00  0.00    -0.648 OA
HETATM   20  O3  UNL     1     -36.191 -17.306 -16.500  1.00  0.00    -0.648 OA
ENDBRANCH  17  18
ENDBRANCH   1  17
BRANCH   2  21
HETATM   21  N5  UNL     1     -33.179 -13.992 -19.228  1.00  0.00    -0.310 N 
HETATM   22  C7  UNL     1     -31.898 -13.946 -19.085  1.00  0.00     0.122 C 
ATOM     23  H5  UNL     1     -33.703 -13.119 -19.179  1.00  0.00     0.186 HD
BRANCH  22  24
HETATM   24  C8  UNL     1     -31.290 -12.640 -18.862  1.00  0.00     0.024 A 
HETATM   25  C9  UNL     1     -31.033 -11.783 -19.921  1.00  0.00     0.047 A 
HETATM   26 CL1  UNL     1     -31.453 -12.295 -21.539  1.00  0.00    -0.083 Cl
HETATM   27  C10 UNL     1     -30.458 -10.553 -19.691  1.00  0.00     0.025 A 
HETATM   28  C11 UNL     1     -30.137 -10.170 -18.417  1.00  0.00     0.003 A 
HETATM   29  C12 UNL     1     -30.403 -11.046 -17.372  1.00  0.00     0.025 A 
HETATM   30  C13 UNL     1     -30.976 -12.281 -17.570  1.00  0.00     0.047 A 
HETATM   31 CL2  UNL     1     -31.302 -13.366 -16.235  1.00  0.00    -0.083 Cl
ENDBRANCH  22  24
ENDBRANCH   2  21
TORSDOF 7
ENDMDL
MODEL 5
REMARK VINA RESULT: -6.974547677      4.102      5.785
REMARK  7 active torsions:
REMARK  status: ('A' for Active; 'I' for Inactive)
REMARK    1  A    between atoms: C2_3  and  O1_4 
REMARK    2  A    between atoms: C3_6  and  N2_7 
REMARK    3  A    between atoms: N3_9  and  C4_11 
REMARK    4  A    between atoms: C4_11  and  C5_12 
REMARK    5  A    between atoms: C5_12  and  C6_13 
REMARK    6  A    between atoms: N4_16  and  N5_18 
REMARK    7  A    between atoms: C7_20  and  C8_21 
ROOT
HETATM    1  C4  UNL     1     -34.647 -15.124 -17.572  1.00  0.00     0.120 C 
HETATM    2  N4  UNL     1     -33.990 -14.796 -18.609  1.00  0.00    -0.288 N 
ATOM      3  H4  UNL     1     -34.037 -15.369 -19.451  1.00  0.00     0.188 HD
ENDROOT
BRANCH   1   4
HETATM    4  N3  UNL     1     -34.577 -14.327 -16.410  1.00  0.00    -0.286 N 
HETATM    5  N2  UNL     1     -34.219 -14.825 -15.292  1.00  0.00    -0.289 N 
ATOM      6  H2  UNL     1     -33.970 -15.809 -15.189  1.00  0.00     0.188 HD
ATOM      7  H3  UNL     1     -34.815 -13.336 -16.466  1.00  0.00     0.188 HD
BRANCH   5   8
HETATM    8  C3  UNL     1     -34.188 -13.901 -14.181  1.00  0.00     0.145 A 
HETATM    9  C2  UNL     1     -33.397 -13.954 -13.060  1.00  0.00     0.181 A 
HETATM   10  N1  UNL     1     -33.534 -13.008 -12.176  1.00  0.00    -0.291 N 
HETATM   11  C1  UNL     1     -32.733 -12.963 -10.924  1.00  0.00     0.162 C 
HETATM   12  C14 UNL     1     -34.428 -12.046 -12.403  1.00  0.00     0.294 A 
HETATM   13  S1  UNL     1     -35.097 -12.483 -13.909  1.00  0.00    -0.005 SA
HETATM   14  O4  UNL     1     -34.710 -11.036 -11.662  1.00  0.00    -0.259 OA
BRANCH   9  15
HETATM   15  O1  UNL     1     -32.477 -15.038 -12.932  1.00  0.00    -0.344 OA
ATOM     16  H1  UNL     1     -32.650 -15.920 -13.240  1.00  0.00     0.219 HD
ENDBRANCH   9  15
ENDBRANCH   5   8
ENDBRANCH   1   4
BRANCH   1  17
HETATM   17  C5  UNL     1     -35.487 -16.334 -17.564  1.00  0.00     0.192 C 
BRANCH  17  18
HETATM   18  C6  UNL     1     -35.544 -17.081 -18.813  1.00  0.00     0.179 C 
HETATM   19  O2  UNL     1     -35.309 -18.309 -18.843  1.00  0.00    -0.648 OA
HETATM   20  O3  UNL     1     -35.866 -16.398 -19.975  1.00  0.00    -0.648 OA
ENDBRANCH  17  18
ENDBRANCH   1  17
BRANCH   2  21
HETATM   21  N5  UNL     1     -33.205 -13.646 -18.583  1.00  0.00    -0.310 N 
HETATM   22  C7  UNL     1     -31.919 -13.663 -18.679  1.00  0.00     0.122 C 
ATOM     23  H5  UNL     1     -33.671 -12.745 -18.484  1.00  0.00     0.186 HD
BRANCH  22  24
HETATM   24  C8  UNL     1     -31.222 -12.383 -18.638  1.00  0.00     0.024 A 
HETATM   25  C9  UNL     1     -30.826 -11.825 -17.433  1.00  0.00     0.047 A 
HETATM   26 CL1  UNL     1     -31.175 -12.686 -15.952  1.00  0.00    -0.083 Cl
HETATM   27  C10 UNL     1     -30.169 -10.615 -17.414  1.00  0.00     0.025 A 
HETATM   28  C11 UNL     1     -29.904  -9.956 -18.583  1.00  0.00     0.003 A 
HETATM   29  C12 UNL     1     -30.311 -10.534 -19.780  1.00  0.00     0.025 A 
HETATM   30  C13 UNL     1     -30.970 -11.742 -19.831  1.00  0.00     0.047 A 
HETATM   31 CL2  UNL     1     -31.472 -12.449 -21.351  1.00  0.00    -0.083 Cl
ENDBRANCH  22  24
ENDBRANCH   2  21
TORSDOF 7
ENDMDL
