MODEL 1
REMARK VINA RESULT: -10.890199915      0.000      0.000
REMARK  12 active torsions:
REMARK  status: ('A' for Active; 'I' for Inactive)
REMARK    1  A    between atoms: C4_4  and  N1_5 
REMARK    2  A    between atoms: N2_8  and  C7_9 
REMARK    3  A    between atoms: N3_12  and  C10_13 
REMARK    4  A    between atoms: C10_13  and  C11_14 
REMARK    5  A    between atoms: C11_14  and  C12_15 
REMARK    6  A    between atoms: C12_15  and  C13_16 
REMARK    7  A    between atoms: C13_16  and  C14_17 
REMARK    8  A    between atoms: C14_17  and  N4_18 
REMARK    9  A    between atoms: C15_19  and  O1_20 
REMARK   10  A    between atoms: C23_31  and  C24_32 
REMARK   11  A    between atoms: C24_32  and  C25_35 
REMARK   12  A    between atoms: C26_37  and  C27_38 
ROOT
HETATM    1  N1  UNL     1     -89.219 165.556 -15.938  1.00  0.00    -0.377 N 
HETATM    2  C5  UNL     1     -88.195 166.320 -15.212  1.00  0.00     0.153 C 
HETATM    3  C6  UNL     1     -87.153 165.297 -14.772  1.00  0.00     0.292 C 
HETATM    4  N2  UNL     1     -87.834 164.224 -14.121  1.00  0.00     0.096 N 
HETATM    5  C20 UNL     1     -88.574 163.422 -15.072  1.00  0.00     0.292 C 
HETATM    6  C21 UNL     1     -88.887 164.217 -16.324  1.00  0.00     0.153 C 
ENDROOT
BRANCH   4   7
HETATM    7  C7  UNL     1     -87.067 163.445 -13.210  1.00  0.00     0.229 C 
HETATM    8  C8  UNL     1     -85.671 164.014 -13.096  1.00  0.00     0.080 C 
HETATM    9  C9  UNL     1     -85.030 163.573 -11.781  1.00  0.00     0.065 C 
HETATM   10  N3  UNL     1     -85.638 162.440 -11.241  1.00  0.00    -0.374 N 
HETATM   11  C18 UNL     1     -86.971 162.716 -10.792  1.00  0.00     0.129 C 
HETATM   12  C19 UNL     1     -87.779 163.275 -11.916  1.00  0.00     0.056 C 
BRANCH  10  13
HETATM   13  C10 UNL     1     -84.899 161.464 -10.614  1.00  0.00     0.063 C 
BRANCH  13  14
HETATM   14  C11 UNL     1     -83.419 161.606 -10.634  1.00  0.00     0.044 C 
BRANCH  14  15
HETATM   15  C12 UNL     1     -82.654 160.535 -11.350  1.00  0.00     0.007 C 
BRANCH  15  16
HETATM   16  C13 UNL     1     -82.188 161.071 -12.710  1.00  0.00     0.021 C 
BRANCH  16  17
HETATM   17  C14 UNL     1     -82.457 160.193 -13.862  1.00  0.00     0.133 C 
BRANCH  17  18
HETATM   18  N4  UNL     1     -83.565 160.755 -14.672  1.00  0.00    -0.312 N 
HETATM   19  C15 UNL     1     -84.808 160.398 -14.465  1.00  0.00     0.150 A 
HETATM   20  C16 UNL     1     -85.780 160.988 -15.224  1.00  0.00     0.108 A 
HETATM   21  S1  UNL     1     -84.871 162.040 -16.214  1.00  0.00    -0.068 SA
HETATM   22  C17 UNL     1     -83.319 161.668 -15.604  1.00  0.00     0.146 A 
HETATM   23  S2  UNL     1     -81.892 162.358 -16.086  1.00  0.00    -0.052 SA
BRANCH  19  24
HETATM   24  O1  UNL     1     -85.204 159.430 -13.493  1.00  0.00    -0.346 OA
ATOM     25  H1  UNL     1     -84.894 158.532 -13.485  1.00  0.00     0.219 HD
ENDBRANCH  19  24
ENDBRANCH  17  18
ENDBRANCH  16  17
ENDBRANCH  15  16
ENDBRANCH  14  15
ENDBRANCH  13  14
ENDBRANCH  10  13
ENDBRANCH   4   7
BRANCH   1  26
HETATM   26  C4  UNL     1     -90.470 166.196 -16.225  1.00  0.00     0.031 A 
HETATM   27  C3  UNL     1     -91.205 165.951 -17.342  1.00  0.00     0.037 A 
HETATM   28  C2  UNL     1     -92.398 166.604 -17.576  1.00  0.00    -0.044 A 
HETATM   29  C1  UNL     1     -93.141 166.251 -18.795  1.00  0.00     0.049 C 
HETATM   30  C26 UNL     1     -92.917 167.564 -16.664  1.00  0.00     0.066 A 
HETATM   31  C23 UNL     1     -92.196 167.817 -15.551  1.00  0.00     0.032 A 
HETATM   32  C22 UNL     1     -90.983 167.127 -15.349  1.00  0.00     0.043 A 
BRANCH  30  33
HETATM   33  C27 UNL     1     -94.157 168.207 -16.997  1.00  0.00     0.418 C 
HETATM   34  F3  UNL     1     -94.474 167.825 -18.332  1.00  0.00    -0.166 F 
HETATM   35  F4  UNL     1     -95.257 167.545 -16.334  1.00  0.00    -0.166 F 
HETATM   36  F5  UNL     1     -94.367 169.510 -17.005  1.00  0.00    -0.166 F 
ENDBRANCH  30  33
BRANCH  31  37
HETATM   37  C24 UNL     1     -92.539 168.766 -14.511  1.00  0.00     0.284 C 
HETATM   38  F1  UNL     1     -93.858 168.911 -14.166  1.00  0.00    -0.200 F 
HETATM   39  F2  UNL     1     -91.890 168.403 -13.351  1.00  0.00    -0.200 F 
BRANCH  37  40
HETATM   40  C25 UNL     1     -91.966 170.188 -14.781  1.00  0.00     0.199 C 
HETATM   41 CL1  UNL     1     -92.213 171.182 -13.302  1.00  0.00    -0.124 Cl
ENDBRANCH  37  40
ENDBRANCH  31  37
ENDBRANCH   1  26
TORSDOF 12
ENDMDL
MODEL 2
REMARK VINA RESULT: -10.824777229      6.883     11.685
REMARK  12 active torsions:
REMARK  status: ('A' for Active; 'I' for Inactive)
REMARK    1  A    between atoms: C4_4  and  N1_5 
REMARK    2  A    between atoms: N2_8  and  C7_9 
REMARK    3  A    between atoms: N3_12  and  C10_13 
REMARK    4  A    between atoms: C10_13  and  C11_14 
REMARK    5  A    between atoms: C11_14  and  C12_15 
REMARK    6  A    between atoms: C12_15  and  C13_16 
REMARK    7  A    between atoms: C13_16  and  C14_17 
REMARK    8  A    between atoms: C14_17  and  N4_18 
REMARK    9  A    between atoms: C15_19  and  O1_20 
REMARK   10  A    between atoms: C23_31  and  C24_32 
REMARK   11  A    between atoms: C24_32  and  C25_35 
REMARK   12  A    between atoms: C26_37  and  C27_38 
ROOT
HETATM    1  N1  UNL     1     -86.863 163.737 -14.880  1.00  0.00    -0.377 N 
HETATM    2  C5  UNL     1     -88.141 163.050 -15.113  1.00  0.00     0.153 C 
HETATM    3  C6  UNL     1     -89.003 164.037 -15.893  1.00  0.00     0.292 C 
HETATM    4  N2  UNL     1     -88.984 165.285 -15.199  1.00  0.00     0.096 N 
HETATM    5  C20 UNL     1     -87.695 165.934 -15.328  1.00  0.00     0.292 C 
HETATM    6  C21 UNL     1     -86.609 164.924 -15.640  1.00  0.00     0.153 C 
ENDROOT
BRANCH   4   7
HETATM    7  C7  UNL     1     -90.078 166.163 -15.440  1.00  0.00     0.229 C 
HETATM    8  C8  UNL     1     -90.613 165.945 -16.837  1.00  0.00     0.080 C 
HETATM    9  C9  UNL     1     -92.057 166.435 -16.928  1.00  0.00     0.065 C 
HETATM   10  N3  UNL     1     -92.379 167.346 -15.922  1.00  0.00    -0.374 N 
HETATM   11  C18 UNL     1     -92.405 166.723 -14.630  1.00  0.00     0.129 C 
HETATM   12  C19 UNL     1     -91.094 166.064 -14.359  1.00  0.00     0.056 C 
BRANCH  10  13
HETATM   13  C10 UNL     1     -93.193 168.427 -16.170  1.00  0.00     0.063 C 
BRANCH  13  14
HETATM   14  C11 UNL     1     -92.863 169.704 -15.483  1.00  0.00     0.044 C 
BRANCH  14  15
HETATM   15  C12 UNL     1     -93.851 170.192 -14.468  1.00  0.00     0.007 C 
BRANCH  15  16
HETATM   16  C13 UNL     1     -95.016 170.884 -15.188  1.00  0.00     0.021 C 
BRANCH  16  17
HETATM   17  C14 UNL     1     -96.362 170.451 -14.775  1.00  0.00     0.133 C 
BRANCH  17  18
HETATM   18  N4  UNL     1     -96.773 169.267 -15.568  1.00  0.00    -0.312 N 
HETATM   19  C15 UNL     1     -96.716 168.059 -15.066  1.00  0.00     0.150 A 
HETATM   20  C16 UNL     1     -97.149 167.020 -15.842  1.00  0.00     0.108 A 
HETATM   21  S1  UNL     1     -97.626 167.819 -17.273  1.00  0.00    -0.068 SA
HETATM   22  C17 UNL     1     -97.249 169.416 -16.798  1.00  0.00     0.146 A 
HETATM   23  S2  UNL     1     -97.487 170.783 -17.704  1.00  0.00    -0.052 SA
BRANCH  19  24
HETATM   24  O1  UNL     1     -96.228 167.766 -13.757  1.00  0.00    -0.346 OA
ATOM     25  H1  UNL     1     -95.307 167.651 -13.550  1.00  0.00     0.219 HD
ENDBRANCH  19  24
ENDBRANCH  17  18
ENDBRANCH  16  17
ENDBRANCH  15  16
ENDBRANCH  14  15
ENDBRANCH  13  14
ENDBRANCH  10  13
ENDBRANCH   4   7
BRANCH   1  26
HETATM   26  C4  UNL     1     -85.952 163.174 -13.925  1.00  0.00     0.031 A 
HETATM   27  C3  UNL     1     -86.189 163.138 -12.587  1.00  0.00     0.037 A 
HETATM   28  C2  UNL     1     -85.272 162.595 -11.709  1.00  0.00    -0.044 A 
HETATM   29  C1  UNL     1     -85.627 162.570 -10.282  1.00  0.00     0.049 C 
HETATM   30  C26 UNL     1     -84.039 162.049 -12.159  1.00  0.00     0.066 A 
HETATM   31  C23 UNL     1     -83.792 162.079 -13.485  1.00  0.00     0.032 A 
HETATM   32  C22 UNL     1     -84.754 162.641 -14.348  1.00  0.00     0.043 A 
BRANCH  30  33
HETATM   33  C27 UNL     1     -83.137 161.521 -11.173  1.00  0.00     0.418 C 
HETATM   34  F3  UNL     1     -83.731 161.763  -9.901  1.00  0.00    -0.166 F 
HETATM   35  F4  UNL     1     -83.207 160.078 -11.153  1.00  0.00    -0.166 F 
HETATM   36  F5  UNL     1     -81.887 161.904 -10.993  1.00  0.00    -0.166 F 
ENDBRANCH  30  33
BRANCH  31  37
HETATM   37  C24 UNL     1     -82.595 161.593 -14.141  1.00  0.00     0.284 C 
HETATM   38  F1  UNL     1     -81.388 162.145 -13.793  1.00  0.00    -0.200 F 
HETATM   39  F2  UNL     1     -82.472 160.244 -13.891  1.00  0.00    -0.200 F 
BRANCH  37  40
HETATM   40  C25 UNL     1     -82.699 161.636 -15.693  1.00  0.00     0.199 C 
HETATM   41 CL1  UNL     1     -81.401 162.717 -16.313  1.00  0.00    -0.124 Cl
ENDBRANCH  37  40
ENDBRANCH  31  37
ENDBRANCH   1  26
TORSDOF 12
ENDMDL
MODEL 3
REMARK VINA RESULT: -10.773244467      6.698     11.361
REMARK  12 active torsions:
REMARK  status: ('A' for Active; 'I' for Inactive)
REMARK    1  A    between atoms: C4_4  and  N1_5 
REMARK    2  A    between atoms: N2_8  and  C7_9 
REMARK    3  A    between atoms: N3_12  and  C10_13 
REMARK    4  A    between atoms: C10_13  and  C11_14 
REMARK    5  A    between atoms: C11_14  and  C12_15 
REMARK    6  A    between atoms: C12_15  and  C13_16 
REMARK    7  A    between atoms: C13_16  and  C14_17 
REMARK    8  A    between atoms: C14_17  and  N4_18 
REMARK    9  A    between atoms: C15_19  and  O1_20 
REMARK   10  A    between atoms: C23_31  and  C24_32 
REMARK   11  A    between atoms: C24_32  and  C25_35 
REMARK   12  A    between atoms: C26_37  and  C27_38 
ROOT
HETATM    1  N1  UNL     1     -86.888 163.846 -14.894  1.00  0.00    -0.377 N 
HETATM    2  C5  UNL     1     -88.108 163.108 -15.250  1.00  0.00     0.153 C 
HETATM    3  C6  UNL     1     -88.982 164.100 -16.011  1.00  0.00     0.292 C 
HETATM    4  N2  UNL     1     -89.076 165.294 -15.234  1.00  0.00     0.096 N 
HETATM    5  C20 UNL     1     -87.823 166.020 -15.240  1.00  0.00     0.292 C 
HETATM    6  C21 UNL     1     -86.662 165.097 -15.554  1.00  0.00     0.153 C 
ENDROOT
BRANCH   4   7
HETATM    7  C7  UNL     1     -90.205 166.124 -15.480  1.00  0.00     0.229 C 
HETATM    8  C8  UNL     1     -90.695 165.919 -16.895  1.00  0.00     0.080 C 
HETATM    9  C9  UNL     1     -92.159 166.343 -17.010  1.00  0.00     0.065 C 
HETATM   10  N3  UNL     1     -92.548 167.210 -15.989  1.00  0.00    -0.374 N 
HETATM   11  C18 UNL     1     -92.575 166.552 -14.715  1.00  0.00     0.129 C 
HETATM   12  C19 UNL     1     -91.241 165.948 -14.428  1.00  0.00     0.056 C 
BRANCH  10  13
HETATM   13  C10 UNL     1     -93.406 168.257 -16.230  1.00  0.00     0.063 C 
BRANCH  13  14
HETATM   14  C11 UNL     1     -92.978 169.610 -15.784  1.00  0.00     0.044 C 
BRANCH  14  15
HETATM   15  C12 UNL     1     -92.500 169.727 -14.369  1.00  0.00     0.007 C 
BRANCH  15  16
HETATM   16  C13 UNL     1     -91.315 170.700 -14.316  1.00  0.00     0.021 C 
BRANCH  16  17
HETATM   17  C14 UNL     1     -91.498 171.874 -13.445  1.00  0.00     0.133 C 
BRANCH  17  18
HETATM   18  N4  UNL     1     -91.258 173.116 -14.221  1.00  0.00    -0.312 N 
HETATM   19  C15 UNL     1     -92.189 173.630 -14.985  1.00  0.00     0.150 A 
HETATM   20  C16 UNL     1     -91.909 174.797 -15.640  1.00  0.00     0.108 A 
HETATM   21  S1  UNL     1     -90.312 175.117 -15.131  1.00  0.00    -0.068 SA
HETATM   22  C17 UNL     1     -90.099 173.755 -14.123  1.00  0.00     0.146 A 
HETATM   23  S2  UNL     1     -88.747 173.405 -13.232  1.00  0.00    -0.052 SA
BRANCH  19  24
HETATM   24  O1  UNL     1     -93.476 173.042 -15.174  1.00  0.00    -0.346 OA
ATOM     25  H1  UNL     1     -93.623 172.236 -15.655  1.00  0.00     0.219 HD
ENDBRANCH  19  24
ENDBRANCH  17  18
ENDBRANCH  16  17
ENDBRANCH  15  16
ENDBRANCH  14  15
ENDBRANCH  13  14
ENDBRANCH  10  13
ENDBRANCH   4   7
BRANCH   1  26
HETATM   26  C4  UNL     1     -86.001 163.268 -13.926  1.00  0.00     0.031 A 
HETATM   27  C3  UNL     1     -86.235 163.277 -12.587  1.00  0.00     0.037 A 
HETATM   28  C2  UNL     1     -85.341 162.716 -11.698  1.00  0.00    -0.044 A 
HETATM   29  C1  UNL     1     -85.692 162.744 -10.269  1.00  0.00     0.049 C 
HETATM   30  C26 UNL     1     -84.135 162.103 -12.135  1.00  0.00     0.066 A 
HETATM   31  C23 UNL     1     -83.891 162.087 -13.463  1.00  0.00     0.032 A 
HETATM   32  C22 UNL     1     -84.830 162.670 -14.338  1.00  0.00     0.043 A 
BRANCH  30  33
HETATM   33  C27 UNL     1     -83.255 161.560 -11.138  1.00  0.00     0.418 C 
HETATM   34  F3  UNL     1     -83.882 161.773  -9.876  1.00  0.00    -0.166 F 
HETATM   35  F4  UNL     1     -83.318 160.116 -11.148  1.00  0.00    -0.166 F 
HETATM   36  F5  UNL     1     -82.012 161.945 -10.920  1.00  0.00    -0.166 F 
ENDBRANCH  30  33
BRANCH  31  37
HETATM   37  C24 UNL     1     -82.719 161.530 -14.108  1.00  0.00     0.284 C 
HETATM   38  F1  UNL     1     -81.481 161.935 -13.678  1.00  0.00    -0.200 F 
HETATM   39  F2  UNL     1     -82.738 160.162 -13.951  1.00  0.00    -0.200 F 
BRANCH  37  40
HETATM   40  C25 UNL     1     -82.753 161.688 -15.656  1.00  0.00     0.199 C 
HETATM   41 CL1  UNL     1     -81.360 162.717 -16.144  1.00  0.00    -0.124 Cl
ENDBRANCH  37  40
ENDBRANCH  31  37
ENDBRANCH   1  26
TORSDOF 12
ENDMDL
MODEL 4
REMARK VINA RESULT: -10.765253322      7.113     11.973
REMARK  12 active torsions:
REMARK  status: ('A' for Active; 'I' for Inactive)
REMARK    1  A    between atoms: C4_4  and  N1_5 
REMARK    2  A    between atoms: N2_8  and  C7_9 
REMARK    3  A    between atoms: N3_12  and  C10_13 
REMARK    4  A    between atoms: C10_13  and  C11_14 
REMARK    5  A    between atoms: C11_14  and  C12_15 
REMARK    6  A    between atoms: C12_15  and  C13_16 
REMARK    7  A    between atoms: C13_16  and  C14_17 
REMARK    8  A    between atoms: C14_17  and  N4_18 
REMARK    9  A    between atoms: C15_19  and  O1_20 
REMARK   10  A    between atoms: C23_31  and  C24_32 
REMARK   11  A    between atoms: C24_32  and  C25_35 
REMARK   12  A    between atoms: C26_37  and  C27_38 
ROOT
HETATM    1  N1  UNL     1     -86.824 163.620 -14.998  1.00  0.00    -0.377 N 
HETATM    2  C5  UNL     1     -88.140 162.971 -15.082  1.00  0.00     0.153 C 
HETATM    3  C6  UNL     1     -89.031 163.945 -15.846  1.00  0.00     0.292 C 
HETATM    4  N2  UNL     1     -88.910 165.229 -15.234  1.00  0.00     0.096 N 
HETATM    5  C20 UNL     1     -87.616 165.818 -15.509  1.00  0.00     0.292 C 
HETATM    6  C21 UNL     1     -86.595 164.750 -15.848  1.00  0.00     0.153 C 
ENDROOT
BRANCH   4   7
HETATM    7  C7  UNL     1     -89.990 166.133 -15.436  1.00  0.00     0.229 C 
HETATM    8  C8  UNL     1     -90.526 165.987 -16.842  1.00  0.00     0.080 C 
HETATM    9  C9  UNL     1     -91.962 166.504 -16.913  1.00  0.00     0.065 C 
HETATM   10  N3  UNL     1     -92.271 167.373 -15.866  1.00  0.00    -0.374 N 
HETATM   11  C18 UNL     1     -92.310 166.693 -14.605  1.00  0.00     0.129 C 
HETATM   12  C19 UNL     1     -91.009 166.001 -14.362  1.00  0.00     0.056 C 
BRANCH  10  13
HETATM   13  C10 UNL     1     -93.068 168.477 -16.066  1.00  0.00     0.063 C 
BRANCH  13  14
HETATM   14  C11 UNL     1     -93.021 169.550 -15.039  1.00  0.00     0.044 C 
BRANCH  14  15
HETATM   15  C12 UNL     1     -93.367 170.933 -15.500  1.00  0.00     0.007 C 
BRANCH  15  16
HETATM   16  C13 UNL     1     -94.573 170.863 -16.445  1.00  0.00     0.021 C 
BRANCH  16  17
HETATM   17  C14 UNL     1     -95.854 171.311 -15.872  1.00  0.00     0.133 C 
BRANCH  17  18
HETATM   18  N4  UNL     1     -96.881 170.256 -16.053  1.00  0.00    -0.312 N 
HETATM   19  C15 UNL     1     -97.494 170.094 -17.199  1.00  0.00     0.150 A 
HETATM   20  C16 UNL     1     -98.401 169.076 -17.303  1.00  0.00     0.108 A 
HETATM   21  S1  UNL     1     -98.340 168.384 -15.744  1.00  0.00    -0.068 SA
HETATM   22  C17 UNL     1     -97.171 169.425 -15.060  1.00  0.00     0.146 A 
HETATM   23  S2  UNL     1     -96.564 169.330 -13.522  1.00  0.00    -0.052 SA
BRANCH  19  24
HETATM   24  O1  UNL     1     -97.271 170.919 -18.342  1.00  0.00    -0.346 OA
ATOM     25  H1  UNL     1     -96.838 170.619 -19.134  1.00  0.00     0.219 HD
ENDBRANCH  19  24
ENDBRANCH  17  18
ENDBRANCH  16  17
ENDBRANCH  15  16
ENDBRANCH  14  15
ENDBRANCH  13  14
ENDBRANCH  10  13
ENDBRANCH   4   7
BRANCH   1  26
HETATM   26  C4  UNL     1     -85.855 163.078 -14.090  1.00  0.00     0.031 A 
HETATM   27  C3  UNL     1     -86.008 163.071 -12.739  1.00  0.00     0.037 A 
HETATM   28  C2  UNL     1     -85.038 162.547 -11.908  1.00  0.00    -0.044 A 
HETATM   29  C1  UNL     1     -85.303 162.552 -10.462  1.00  0.00     0.049 C 
HETATM   30  C26 UNL     1     -83.833 161.992 -12.422  1.00  0.00     0.066 A 
HETATM   31  C23 UNL     1     -83.669 161.994 -13.762  1.00  0.00     0.032 A 
HETATM   32  C22 UNL     1     -84.685 162.537 -14.575  1.00  0.00     0.043 A 
BRANCH  30  33
HETATM   33  C27 UNL     1     -82.872 161.486 -11.483  1.00  0.00     0.418 C 
HETATM   34  F3  UNL     1     -81.865 162.484 -11.345  1.00  0.00    -0.166 F 
HETATM   35  F4  UNL     1     -83.401 161.552 -10.140  1.00  0.00    -0.166 F 
HETATM   36  F5  UNL     1     -82.171 160.377 -11.626  1.00  0.00    -0.166 F 
ENDBRANCH  30  33
BRANCH  31  37
HETATM   37  C24 UNL     1     -82.514 161.494 -14.480  1.00  0.00     0.284 C 
HETATM   38  F1  UNL     1     -81.268 161.907 -14.083  1.00  0.00    -0.200 F 
HETATM   39  F2  UNL     1     -82.498 160.119 -14.386  1.00  0.00    -0.200 F 
BRANCH  37  40
HETATM   40  C25 UNL     1     -82.616 161.722 -16.016  1.00  0.00     0.199 C 
HETATM   41 CL1  UNL     1     -81.322 162.875 -16.498  1.00  0.00    -0.124 Cl
ENDBRANCH  37  40
ENDBRANCH  31  37
ENDBRANCH   1  26
TORSDOF 12
ENDMDL
MODEL 5
REMARK VINA RESULT: -10.759812442      6.844     11.457
REMARK  12 active torsions:
REMARK  status: ('A' for Active; 'I' for Inactive)
REMARK    1  A    between atoms: C4_4  and  N1_5 
REMARK    2  A    between atoms: N2_8  and  C7_9 
REMARK    3  A    between atoms: N3_12  and  C10_13 
REMARK    4  A    between atoms: C10_13  and  C11_14 
REMARK    5  A    between atoms: C11_14  and  C12_15 
REMARK    6  A    between atoms: C12_15  and  C13_16 
REMARK    7  A    between atoms: C13_16  and  C14_17 
REMARK    8  A    between atoms: C14_17  and  N4_18 
REMARK    9  A    between atoms: C15_19  and  O1_20 
REMARK   10  A    between atoms: C23_31  and  C24_32 
REMARK   11  A    between atoms: C24_32  and  C25_35 
REMARK   12  A    between atoms: C26_37  and  C27_38 
ROOT
HETATM    1  N1  UNL     1     -86.762 163.715 -14.880  1.00  0.00    -0.377 N 
HETATM    2  C5  UNL     1     -88.075 163.069 -15.021  1.00  0.00     0.153 C 
HETATM    3  C6  UNL     1     -88.944 164.066 -15.783  1.00  0.00     0.292 C 
HETATM    4  N2  UNL     1     -88.841 165.331 -15.130  1.00  0.00     0.096 N 
HETATM    5  C20 UNL     1     -87.539 165.928 -15.349  1.00  0.00     0.292 C 
HETATM    6  C21 UNL     1     -86.509 164.869 -15.689  1.00  0.00     0.153 C 
ENDROOT
BRANCH   4   7
HETATM    7  C7  UNL     1     -89.915 166.242 -15.338  1.00  0.00     0.229 C 
HETATM    8  C8  UNL     1     -90.474 166.067 -16.730  1.00  0.00     0.080 C 
HETATM    9  C9  UNL     1     -91.906 166.597 -16.792  1.00  0.00     0.065 C 
HETATM   10  N3  UNL     1     -92.190 167.495 -15.762  1.00  0.00    -0.374 N 
HETATM   11  C18 UNL     1     -92.215 166.846 -14.484  1.00  0.00     0.129 C 
HETATM   12  C19 UNL     1     -90.918 166.147 -14.244  1.00  0.00     0.056 C 
BRANCH  10  13
HETATM   13  C10 UNL     1     -92.978 168.601 -15.977  1.00  0.00     0.063 C 
BRANCH  13  14
HETATM   14  C11 UNL     1     -93.027 169.626 -14.901  1.00  0.00     0.044 C 
BRANCH  14  15
HETATM   15  C12 UNL     1     -91.738 170.319 -14.577  1.00  0.00     0.007 C 
BRANCH  15  16
HETATM   16  C13 UNL     1     -91.933 171.835 -14.709  1.00  0.00     0.021 C 
BRANCH  16  17
HETATM   17  C14 UNL     1     -91.262 172.651 -13.683  1.00  0.00     0.133 C 
BRANCH  17  18
HETATM   18  N4  UNL     1     -90.426 173.689 -14.335  1.00  0.00    -0.312 N 
HETATM   19  C15 UNL     1     -89.120 173.601 -14.347  1.00  0.00     0.150 A 
HETATM   20  C16 UNL     1     -88.418 174.575 -15.001  1.00  0.00     0.108 A 
HETATM   21  S1  UNL     1     -89.665 175.587 -15.578  1.00  0.00    -0.068 SA
HETATM   22  C17 UNL     1     -90.995 174.714 -14.957  1.00  0.00     0.146 A 
HETATM   23  S2  UNL     1     -92.593 175.100 -15.161  1.00  0.00    -0.052 SA
BRANCH  19  24
HETATM   24  O1  UNL     1     -88.389 172.549 -13.718  1.00  0.00    -0.346 OA
ATOM     25  H1  UNL     1     -87.534 172.253 -14.006  1.00  0.00     0.219 HD
ENDBRANCH  19  24
ENDBRANCH  17  18
ENDBRANCH  16  17
ENDBRANCH  15  16
ENDBRANCH  14  15
ENDBRANCH  13  14
ENDBRANCH  10  13
ENDBRANCH   4   7
BRANCH   1  26
HETATM   26  C4  UNL     1     -85.820 163.147 -13.959  1.00  0.00     0.031 A 
HETATM   27  C3  UNL     1     -86.006 163.114 -12.613  1.00  0.00     0.037 A 
HETATM   28  C2  UNL     1     -85.061 162.565 -11.770  1.00  0.00    -0.044 A 
HETATM   29  C1  UNL     1     -85.361 162.545 -10.330  1.00  0.00     0.049 C 
HETATM   30  C26 UNL     1     -83.850 162.009 -12.265  1.00  0.00     0.066 A 
HETATM   31  C23 UNL     1     -83.653 162.035 -13.600  1.00  0.00     0.032 A 
HETATM   32  C22 UNL     1     -84.644 162.603 -14.427  1.00  0.00     0.043 A 
BRANCH  30  33
HETATM   33  C27 UNL     1     -82.916 161.475 -11.313  1.00  0.00     0.418 C 
HETATM   34  F3  UNL     1     -83.508 161.623 -10.027  1.00  0.00    -0.166 F 
HETATM   35  F4  UNL     1     -82.917 160.030 -11.367  1.00  0.00    -0.166 F 
HETATM   36  F5  UNL     1     -81.683 161.907 -11.123  1.00  0.00    -0.166 F 
ENDBRANCH  30  33
BRANCH  31  37
HETATM   37  C24 UNL     1     -82.486 161.538 -14.300  1.00  0.00     0.284 C 
HETATM   38  F1  UNL     1     -81.253 162.018 -13.939  1.00  0.00    -0.200 F 
HETATM   39  F2  UNL     1     -82.418 160.172 -14.130  1.00  0.00    -0.200 F 
BRANCH  37  40
HETATM   40  C25 UNL     1     -82.608 161.674 -15.846  1.00  0.00     0.199 C 
HETATM   41 CL1  UNL     1     -81.374 162.860 -16.403  1.00  0.00    -0.124 Cl
ENDBRANCH  37  40
ENDBRANCH  31  37
ENDBRANCH   1  26
TORSDOF 12
ENDMDL
