MODEL 1
REMARK VINA RESULT: -13.065287810      0.000      0.000
REMARK  12 active torsions:
REMARK  status: ('A' for Active; 'I' for Inactive)
REMARK    1  A    between atoms: O1_2  and  C2_3 
REMARK    2  A    between atoms: C4_5  and  C5_6 
REMARK    3  A    between atoms: C6_7  and  C7_8 
REMARK    4  A    between atoms: C7_8  and  C8_10 
REMARK    5  A    between atoms: C8_10  and  C9_11 
REMARK    6  A    between atoms: C9_11  and  C10_13 
REMARK    7  A    between atoms: C11_14  and  C12_15 
REMARK    8  A    between atoms: C14_17  and  C15_18 
REMARK    9  A    between atoms: C17_23  and  C18_24 
REMARK   10  A    between atoms: C20_29  and  O4_30 
REMARK   11  A    between atoms: C22_33  and  O5_34 
REMARK   12  A    between atoms: O5_34  and  C23_35 
ROOT
HETATM    1  C5  UNL     1     -89.308 165.909 -15.690  1.00  0.00     0.018 C 
HETATM    2  C6  UNL     1     -90.513 166.245 -15.288  1.00  0.00     0.051 C 
ENDROOT
BRANCH   1   3
HETATM    3  C4  UNL     1     -88.264 165.368 -14.815  1.00  0.00    -0.000 A 
HETATM    4  C3  UNL     1     -88.566 164.488 -13.806  1.00  0.00     0.054 A 
HETATM    5  C2  UNL     1     -87.532 163.945 -13.013  1.00  0.00     0.102 A 
HETATM    6  C22 UNL     1     -86.214 164.263 -13.206  1.00  0.00     0.110 A 
HETATM    7  C21 UNL     1     -85.970 165.159 -14.239  1.00  0.00     0.077 A 
HETATM    8  C20 UNL     1     -86.957 165.709 -15.036  1.00  0.00     0.078 A 
BRANCH   5   9
HETATM    9  O1  UNL     1     -87.926 163.067 -12.024  1.00  0.00    -0.353 OA
HETATM   10  C1  UNL     1     -88.007 163.425 -10.671  1.00  0.00     0.210 C 
ENDBRANCH   5   9
BRANCH   6  11
HETATM   11  O5  UNL     1     -85.140 163.800 -12.496  1.00  0.00    -0.294 OA
BRANCH  11  12
HETATM   12  C23 UNL     1     -84.772 162.408 -12.391  1.00  0.00     0.419 C 
HETATM   13  O6  UNL     1     -84.291 162.273 -11.078  1.00  0.00    -0.338 OA
HETATM   14  C24 UNL     1     -83.632 161.116 -10.880  1.00  0.00     0.180 C 
HETATM   15  C25 UNL     1     -82.389 161.025 -11.749  1.00  0.00     0.040 C 
HETATM   16  C26 UNL     1     -81.360 161.971 -11.205  1.00  0.00     0.015 C 
HETATM   17  C27 UNL     1     -82.789 161.342 -13.190  1.00  0.00     0.071 C 
HETATM   18  C28 UNL     1     -81.613 162.021 -13.896  1.00  0.00     0.038 C 
HETATM   19  C31 UNL     1     -82.894 160.051 -13.975  1.00  0.00     0.038 C 
HETATM   20  O7  UNL     1     -83.880 162.120 -13.320  1.00  0.00    -0.327 OA
HETATM   21  C29 UNL     1     -82.069 161.852 -15.359  1.00  0.00     0.003 C 
HETATM   22  C30 UNL     1     -82.410 160.368 -15.351  1.00  0.00     0.003 C 
ENDBRANCH  11  12
ENDBRANCH   6  11
BRANCH   8  23
HETATM   23  O4  UNL     1     -86.572 166.587 -16.040  1.00  0.00    -0.360 OA
ATOM     24  H4  UNL     1     -85.672 166.869 -16.157  1.00  0.00     0.217 HD
ENDBRANCH   8  23
ENDBRANCH   1   3
BRANCH   2  25
HETATM   25  C7  UNL     1     -91.507 166.770 -16.185  1.00  0.00     0.156 C 
HETATM   26  O2  UNL     1     -91.579 166.317 -17.389  1.00  0.00    -0.293 OA
BRANCH  25  27
HETATM   27  C8  UNL     1     -92.502 167.822 -15.863  1.00  0.00     0.165 C 
BRANCH  27  28
HETATM   28  C9  UNL     1     -92.083 168.648 -14.741  1.00  0.00     0.156 C 
HETATM   29  O3  UNL     1     -92.261 168.100 -13.577  1.00  0.00    -0.293 OA
BRANCH  28  30
HETATM   30  C10 UNL     1     -91.518 169.953 -14.739  1.00  0.00     0.051 C 
HETATM   31  C11 UNL     1     -91.852 170.954 -13.979  1.00  0.00     0.015 C 
BRANCH  31  32
HETATM   32  C12 UNL     1     -91.230 172.272 -14.031  1.00  0.00    -0.035 A 
HETATM   33  C13 UNL     1     -91.690 173.244 -14.893  1.00  0.00     0.027 A 
HETATM   34  C14 UNL     1     -91.100 174.514 -14.986  1.00  0.00     0.049 A 
HETATM   35  C16 UNL     1     -90.014 174.779 -14.174  1.00  0.00     0.032 A 
HETATM   36  C17 UNL     1     -89.534 173.833 -13.308  1.00  0.00     0.049 A 
HETATM   37  C19 UNL     1     -90.129 172.587 -13.228  1.00  0.00     0.027 A 
BRANCH  34  38
HETATM   38  C15 UNL     1     -91.655 175.520 -15.930  1.00  0.00     0.417 C 
HETATM   39  F1  UNL     1     -91.066 176.751 -15.795  1.00  0.00    -0.166 F 
HETATM   40  F2  UNL     1     -91.587 175.023 -17.195  1.00  0.00    -0.166 F 
HETATM   41  F3  UNL     1     -92.986 175.701 -15.533  1.00  0.00    -0.166 F 
ENDBRANCH  34  38
BRANCH  36  42
HETATM   42  C18 UNL     1     -88.336 174.143 -12.455  1.00  0.00     0.417 C 
HETATM   43  F4  UNL     1     -87.723 175.295 -12.921  1.00  0.00    -0.166 F 
HETATM   44  F5  UNL     1     -88.765 174.270 -11.151  1.00  0.00    -0.166 F 
HETATM   45  F6  UNL     1     -87.444 173.098 -12.537  1.00  0.00    -0.166 F 
ENDBRANCH  36  42
ENDBRANCH  31  32
ENDBRANCH  28  30
ENDBRANCH  27  28
ENDBRANCH  25  27
ENDBRANCH   2  25
TORSDOF 12
ENDMDL
MODEL 2
REMARK VINA RESULT: -13.063544869      6.583     13.538
REMARK  12 active torsions:
REMARK  status: ('A' for Active; 'I' for Inactive)
REMARK    1  A    between atoms: O1_2  and  C2_3 
REMARK    2  A    between atoms: C4_5  and  C5_6 
REMARK    3  A    between atoms: C6_7  and  C7_8 
REMARK    4  A    between atoms: C7_8  and  C8_10 
REMARK    5  A    between atoms: C8_10  and  C9_11 
REMARK    6  A    between atoms: C9_11  and  C10_13 
REMARK    7  A    between atoms: C11_14  and  C12_15 
REMARK    8  A    between atoms: C14_17  and  C15_18 
REMARK    9  A    between atoms: C17_23  and  C18_24 
REMARK   10  A    between atoms: C20_29  and  O4_30 
REMARK   11  A    between atoms: C22_33  and  O5_34 
REMARK   12  A    between atoms: O5_34  and  C23_35 
ROOT
HETATM    1  C5  UNL     1     -89.947 165.729 -15.479  1.00  0.00     0.018 C 
HETATM    2  C6  UNL     1     -88.823 165.931 -16.131  1.00  0.00     0.051 C 
ENDROOT
BRANCH   1   3
HETATM    3  C4  UNL     1     -91.259 166.211 -15.921  1.00  0.00    -0.000 A 
HETATM    4  C3  UNL     1     -91.549 166.365 -17.254  1.00  0.00     0.054 A 
HETATM    5  C2  UNL     1     -92.839 166.782 -17.649  1.00  0.00     0.102 A 
HETATM    6  C22 UNL     1     -93.833 167.049 -16.746  1.00  0.00     0.110 A 
HETATM    7  C21 UNL     1     -93.480 166.878 -15.413  1.00  0.00     0.077 A 
HETATM    8  C20 UNL     1     -92.229 166.469 -14.991  1.00  0.00     0.078 A 
BRANCH   5   9
HETATM    9  O1  UNL     1     -93.043 166.908 -19.008  1.00  0.00    -0.353 OA
HETATM   10  C1  UNL     1     -93.642 165.909 -19.787  1.00  0.00     0.210 C 
ENDBRANCH   5   9
BRANCH   6  11
HETATM   11  O5  UNL     1     -95.109 167.461 -17.020  1.00  0.00    -0.294 OA
BRANCH  11  12
HETATM   12  C23 UNL     1     -95.621 168.776 -16.722  1.00  0.00     0.419 C 
HETATM   13  O6  UNL     1     -94.602 169.650 -17.136  1.00  0.00    -0.338 OA
HETATM   14  C24 UNL     1     -94.770 170.904 -16.676  1.00  0.00     0.180 C 
HETATM   15  C25 UNL     1     -94.717 170.954 -15.158  1.00  0.00     0.040 C 
HETATM   16  C26 UNL     1     -93.297 170.740 -14.726  1.00  0.00     0.015 C 
HETATM   17  C27 UNL     1     -95.674 169.895 -14.612  1.00  0.00     0.071 C 
HETATM   18  C28 UNL     1     -95.124 169.363 -13.286  1.00  0.00     0.038 C 
HETATM   19  C31 UNL     1     -96.951 170.566 -14.149  1.00  0.00     0.038 C 
HETATM   20  O7  UNL     1     -95.903 168.856 -15.434  1.00  0.00    -0.327 OA
HETATM   21  C29 UNL     1     -96.395 168.679 -12.744  1.00  0.00     0.003 C 
HETATM   22  C30 UNL     1     -97.398 169.809 -12.943  1.00  0.00     0.003 C 
ENDBRANCH  11  12
ENDBRANCH   6  11
BRANCH   8  23
HETATM   23  O4  UNL     1     -92.013 166.332 -13.626  1.00  0.00    -0.360 OA
ATOM     24  H4  UNL     1     -91.510 166.959 -13.121  1.00  0.00     0.217 HD
ENDBRANCH   8  23
ENDBRANCH   1   3
BRANCH   2  25
HETATM   25  C7  UNL     1     -87.559 165.435 -15.660  1.00  0.00     0.156 C 
HETATM   26  O2  UNL     1     -86.968 166.028 -14.680  1.00  0.00    -0.293 OA
BRANCH  25  27
HETATM   27  C8  UNL     1     -86.825 164.265 -16.203  1.00  0.00     0.165 C 
BRANCH  27  28
HETATM   28  C9  UNL     1     -86.950 163.095 -15.347  1.00  0.00     0.156 C 
HETATM   29  O3  UNL     1     -88.172 162.795 -15.025  1.00  0.00    -0.293 OA
BRANCH  28  30
HETATM   30  C10 UNL     1     -85.938 162.247 -14.820  1.00  0.00     0.051 C 
HETATM   31  C11 UNL     1     -85.849 160.955 -14.943  1.00  0.00     0.015 C 
BRANCH  31  32
HETATM   32  C12 UNL     1     -84.781 160.144 -14.371  1.00  0.00    -0.035 A 
HETATM   33  C13 UNL     1     -83.922 160.660 -13.425  1.00  0.00     0.027 A 
HETATM   34  C14 UNL     1     -82.869 159.914 -12.872  1.00  0.00     0.049 A 
HETATM   35  C16 UNL     1     -82.702 158.615 -13.311  1.00  0.00     0.032 A 
HETATM   36  C17 UNL     1     -83.540 158.075 -14.250  1.00  0.00     0.049 A 
HETATM   37  C19 UNL     1     -84.574 158.823 -14.782  1.00  0.00     0.027 A 
BRANCH  34  38
HETATM   38  C15 UNL     1     -81.987 160.530 -11.845  1.00  0.00     0.417 C 
HETATM   39  F1  UNL     1     -82.656 160.824 -10.684  1.00  0.00    -0.166 F 
HETATM   40  F2  UNL     1     -80.903 159.728 -11.656  1.00  0.00    -0.166 F 
HETATM   41  F3  UNL     1     -81.609 161.767 -12.379  1.00  0.00    -0.166 F 
ENDBRANCH  34  38
BRANCH  36  42
HETATM   42  C18 UNL     1     -83.318 156.666 -14.725  1.00  0.00     0.417 C 
HETATM   43  F4  UNL     1     -82.013 156.288 -14.453  1.00  0.00    -0.166 F 
HETATM   44  F5  UNL     1     -84.240 155.857 -14.095  1.00  0.00    -0.166 F 
HETATM   45  F6  UNL     1     -83.524 156.613 -16.084  1.00  0.00    -0.166 F 
ENDBRANCH  36  42
ENDBRANCH  31  32
ENDBRANCH  28  30
ENDBRANCH  27  28
ENDBRANCH  25  27
ENDBRANCH   2  25
TORSDOF 12
ENDMDL
MODEL 3
REMARK VINA RESULT: -13.017357919      6.618     13.460
REMARK  12 active torsions:
REMARK  status: ('A' for Active; 'I' for Inactive)
REMARK    1  A    between atoms: O1_2  and  C2_3 
REMARK    2  A    between atoms: C4_5  and  C5_6 
REMARK    3  A    between atoms: C6_7  and  C7_8 
REMARK    4  A    between atoms: C7_8  and  C8_10 
REMARK    5  A    between atoms: C8_10  and  C9_11 
REMARK    6  A    between atoms: C9_11  and  C10_13 
REMARK    7  A    between atoms: C11_14  and  C12_15 
REMARK    8  A    between atoms: C14_17  and  C15_18 
REMARK    9  A    between atoms: C17_23  and  C18_24 
REMARK   10  A    between atoms: C20_29  and  O4_30 
REMARK   11  A    between atoms: C22_33  and  O5_34 
REMARK   12  A    between atoms: O5_34  and  C23_35 
ROOT
HETATM    1  C5  UNL     1     -89.977 165.705 -15.496  1.00  0.00     0.018 C 
HETATM    2  C6  UNL     1     -88.848 165.940 -16.125  1.00  0.00     0.051 C 
ENDROOT
BRANCH   1   3
HETATM    3  C4  UNL     1     -91.287 166.196 -15.935  1.00  0.00    -0.000 A 
HETATM    4  C3  UNL     1     -91.577 166.362 -17.266  1.00  0.00     0.054 A 
HETATM    5  C2  UNL     1     -92.864 166.788 -17.658  1.00  0.00     0.102 A 
HETATM    6  C22 UNL     1     -93.858 167.049 -16.754  1.00  0.00     0.110 A 
HETATM    7  C21 UNL     1     -93.506 166.865 -15.422  1.00  0.00     0.077 A 
HETATM    8  C20 UNL     1     -92.257 166.448 -15.003  1.00  0.00     0.078 A 
BRANCH   5   9
HETATM    9  O1  UNL     1     -93.067 166.927 -19.016  1.00  0.00    -0.353 OA
HETATM   10  C1  UNL     1     -93.714 165.959 -19.796  1.00  0.00     0.210 C 
ENDBRANCH   5   9
BRANCH   6  11
HETATM   11  O5  UNL     1     -95.133 167.468 -17.024  1.00  0.00    -0.294 OA
BRANCH  11  12
HETATM   12  C23 UNL     1     -95.639 168.785 -16.721  1.00  0.00     0.419 C 
HETATM   13  O6  UNL     1     -94.619 169.655 -17.137  1.00  0.00    -0.338 OA
HETATM   14  C24 UNL     1     -94.780 170.910 -16.673  1.00  0.00     0.180 C 
HETATM   15  C25 UNL     1     -94.720 170.955 -15.156  1.00  0.00     0.040 C 
HETATM   16  C26 UNL     1     -93.298 170.735 -14.730  1.00  0.00     0.015 C 
HETATM   17  C27 UNL     1     -95.678 169.898 -14.607  1.00  0.00     0.071 C 
HETATM   18  C28 UNL     1     -95.124 169.361 -13.286  1.00  0.00     0.038 C 
HETATM   19  C31 UNL     1     -96.950 170.572 -14.137  1.00  0.00     0.038 C 
HETATM   20  O7  UNL     1     -95.914 168.861 -15.432  1.00  0.00    -0.327 OA
HETATM   21  C29 UNL     1     -96.394 168.680 -12.740  1.00  0.00     0.003 C 
HETATM   22  C30 UNL     1     -97.394 169.814 -12.931  1.00  0.00     0.003 C 
ENDBRANCH  11  12
ENDBRANCH   6  11
BRANCH   8  23
HETATM   23  O4  UNL     1     -92.043 166.298 -13.639  1.00  0.00    -0.360 OA
ATOM     24  H4  UNL     1     -91.749 167.010 -13.084  1.00  0.00     0.217 HD
ENDBRANCH   8  23
ENDBRANCH   1   3
BRANCH   2  25
HETATM   25  C7  UNL     1     -87.585 165.434 -15.660  1.00  0.00     0.156 C 
HETATM   26  O2  UNL     1     -87.014 165.987 -14.646  1.00  0.00    -0.293 OA
BRANCH  25  27
HETATM   27  C8  UNL     1     -86.833 164.297 -16.244  1.00  0.00     0.165 C 
BRANCH  27  28
HETATM   28  C9  UNL     1     -86.920 163.101 -15.419  1.00  0.00     0.156 C 
HETATM   29  O3  UNL     1     -88.132 162.758 -15.100  1.00  0.00    -0.293 OA
BRANCH  28  30
HETATM   30  C10 UNL     1     -85.882 162.269 -14.918  1.00  0.00     0.051 C 
HETATM   31  C11 UNL     1     -85.852 160.969 -14.902  1.00  0.00     0.015 C 
BRANCH  31  32
HETATM   32  C12 UNL     1     -84.751 160.176 -14.368  1.00  0.00    -0.035 A 
HETATM   33  C13 UNL     1     -84.569 158.863 -14.746  1.00  0.00     0.027 A 
HETATM   34  C14 UNL     1     -83.536 158.064 -14.233  1.00  0.00     0.049 A 
HETATM   35  C16 UNL     1     -82.679 158.635 -13.311  1.00  0.00     0.032 A 
HETATM   36  C17 UNL     1     -82.835 159.936 -12.916  1.00  0.00     0.049 A 
HETATM   37  C19 UNL     1     -83.858 160.710 -13.433  1.00  0.00     0.027 A 
BRANCH  34  38
HETATM   38  C15 UNL     1     -83.390 156.658 -14.695  1.00  0.00     0.417 C 
HETATM   39  F1  UNL     1     -82.132 156.157 -14.470  1.00  0.00    -0.166 F 
HETATM   40  F2  UNL     1     -84.379 155.906 -14.140  1.00  0.00    -0.166 F 
HETATM   41  F3  UNL     1     -83.523 156.713 -16.087  1.00  0.00    -0.166 F 
ENDBRANCH  34  38
BRANCH  36  42
HETATM   42  C18 UNL     1     -81.902 160.522 -11.893  1.00  0.00     0.417 C 
HETATM   43  F4  UNL     1     -81.455 161.758 -12.332  1.00  0.00    -0.166 F 
HETATM   44  F5  UNL     1     -82.584 160.606 -10.698  1.00  0.00    -0.166 F 
HETATM   45  F6  UNL     1     -80.821 159.685 -11.740  1.00  0.00    -0.166 F 
ENDBRANCH  36  42
ENDBRANCH  31  32
ENDBRANCH  28  30
ENDBRANCH  27  28
ENDBRANCH  25  27
ENDBRANCH   2  25
TORSDOF 12
ENDMDL
MODEL 4
REMARK VINA RESULT: -13.015817703      0.076      2.588
REMARK  12 active torsions:
REMARK  status: ('A' for Active; 'I' for Inactive)
REMARK    1  A    between atoms: O1_2  and  C2_3 
REMARK    2  A    between atoms: C4_5  and  C5_6 
REMARK    3  A    between atoms: C6_7  and  C7_8 
REMARK    4  A    between atoms: C7_8  and  C8_10 
REMARK    5  A    between atoms: C8_10  and  C9_11 
REMARK    6  A    between atoms: C9_11  and  C10_13 
REMARK    7  A    between atoms: C11_14  and  C12_15 
REMARK    8  A    between atoms: C14_17  and  C15_18 
REMARK    9  A    between atoms: C17_23  and  C18_24 
REMARK   10  A    between atoms: C20_29  and  O4_30 
REMARK   11  A    between atoms: C22_33  and  O5_34 
REMARK   12  A    between atoms: O5_34  and  C23_35 
ROOT
HETATM    1  C5  UNL     1     -89.336 165.977 -15.667  1.00  0.00     0.018 C 
HETATM    2  C6  UNL     1     -90.568 166.220 -15.280  1.00  0.00     0.051 C 
ENDROOT
BRANCH   1   3
HETATM    3  C4  UNL     1     -88.292 165.418 -14.803  1.00  0.00    -0.000 A 
HETATM    4  C3  UNL     1     -88.595 164.536 -13.797  1.00  0.00     0.054 A 
HETATM    5  C2  UNL     1     -87.561 163.977 -13.015  1.00  0.00     0.102 A 
HETATM    6  C22 UNL     1     -86.242 164.282 -13.217  1.00  0.00     0.110 A 
HETATM    7  C21 UNL     1     -85.996 165.182 -14.247  1.00  0.00     0.077 A 
HETATM    8  C20 UNL     1     -86.983 165.747 -15.032  1.00  0.00     0.078 A 
BRANCH   5   9
HETATM    9  O1  UNL     1     -87.958 163.098 -12.028  1.00  0.00    -0.353 OA
HETATM   10  C1  UNL     1     -88.040 163.454 -10.675  1.00  0.00     0.210 C 
ENDBRANCH   5   9
BRANCH   6  11
HETATM   11  O5  UNL     1     -85.167 163.803 -12.518  1.00  0.00    -0.294 OA
BRANCH  11  12
HETATM   12  C23 UNL     1     -84.832 162.405 -12.398  1.00  0.00     0.419 C 
HETATM   13  O6  UNL     1     -84.383 162.266 -11.074  1.00  0.00    -0.338 OA
HETATM   14  C24 UNL     1     -83.754 161.096 -10.855  1.00  0.00     0.180 C 
HETATM   15  C25 UNL     1     -82.494 160.974 -11.696  1.00  0.00     0.040 C 
HETATM   16  C26 UNL     1     -81.457 161.900 -11.134  1.00  0.00     0.015 C 
HETATM   17  C27 UNL     1     -82.856 161.292 -13.147  1.00  0.00     0.071 C 
HETATM   18  C28 UNL     1     -81.650 161.941 -13.830  1.00  0.00     0.038 C 
HETATM   19  C31 UNL     1     -82.971 159.999 -13.927  1.00  0.00     0.038 C 
HETATM   20  O7  UNL     1     -83.926 162.091 -13.305  1.00  0.00    -0.327 OA
HETATM   21  C29 UNL     1     -82.076 161.774 -15.302  1.00  0.00     0.003 C 
HETATM   22  C30 UNL     1     -82.450 160.297 -15.294  1.00  0.00     0.003 C 
ENDBRANCH  11  12
ENDBRANCH   6  11
BRANCH   8  23
HETATM   23  O4  UNL     1     -86.596 166.627 -16.034  1.00  0.00    -0.360 OA
ATOM     24  H4  UNL     1     -85.849 166.465 -16.599  1.00  0.00     0.217 HD
ENDBRANCH   8  23
ENDBRANCH   1   3
BRANCH   2  25
HETATM   25  C7  UNL     1     -91.561 166.765 -16.165  1.00  0.00     0.156 C 
HETATM   26  O2  UNL     1     -91.635 166.338 -17.379  1.00  0.00    -0.293 OA
BRANCH  25  27
HETATM   27  C8  UNL     1     -92.554 167.813 -15.821  1.00  0.00     0.165 C 
BRANCH  27  28
HETATM   28  C9  UNL     1     -92.102 168.657 -14.725  1.00  0.00     0.156 C 
HETATM   29  O3  UNL     1     -92.242 168.126 -13.548  1.00  0.00    -0.293 OA
BRANCH  28  30
HETATM   30  C10 UNL     1     -91.541 169.963 -14.760  1.00  0.00     0.051 C 
HETATM   31  C11 UNL     1     -91.828 170.965 -13.983  1.00  0.00     0.015 C 
BRANCH  31  32
HETATM   32  C12 UNL     1     -91.214 172.284 -14.076  1.00  0.00    -0.035 A 
HETATM   33  C13 UNL     1     -90.135 172.625 -13.289  1.00  0.00     0.027 A 
HETATM   34  C14 UNL     1     -89.536 173.894 -13.336  1.00  0.00     0.049 A 
HETATM   35  C16 UNL     1     -90.066 174.823 -14.210  1.00  0.00     0.032 A 
HETATM   36  C17 UNL     1     -91.137 174.513 -15.004  1.00  0.00     0.049 A 
HETATM   37  C19 UNL     1     -91.714 173.258 -14.946  1.00  0.00     0.027 A 
BRANCH  34  38
HETATM   38  C15 UNL     1     -88.365 174.191 -12.467  1.00  0.00     0.417 C 
HETATM   39  F1  UNL     1     -87.698 175.326 -12.852  1.00  0.00    -0.166 F 
HETATM   40  F2  UNL     1     -88.775 174.219 -11.169  1.00  0.00    -0.166 F 
HETATM   41  F3  UNL     1     -87.468 173.140 -12.688  1.00  0.00    -0.166 F 
ENDBRANCH  34  38
BRANCH  36  42
HETATM   42  C18 UNL     1     -91.707 175.553 -15.928  1.00  0.00     0.417 C 
HETATM   43  F4  UNL     1     -91.584 175.122 -17.239  1.00  0.00    -0.166 F 
HETATM   44  F5  UNL     1     -93.020 175.766 -15.568  1.00  0.00    -0.166 F 
HETATM   45  F6  UNL     1     -91.001 176.724 -15.775  1.00  0.00    -0.166 F 
ENDBRANCH  36  42
ENDBRANCH  31  32
ENDBRANCH  28  30
ENDBRANCH  27  28
ENDBRANCH  25  27
ENDBRANCH   2  25
TORSDOF 12
ENDMDL
MODEL 5
REMARK VINA RESULT: -13.014556219      2.503      4.299
REMARK  12 active torsions:
REMARK  status: ('A' for Active; 'I' for Inactive)
REMARK    1  A    between atoms: O1_2  and  C2_3 
REMARK    2  A    between atoms: C4_5  and  C5_6 
REMARK    3  A    between atoms: C6_7  and  C7_8 
REMARK    4  A    between atoms: C7_8  and  C8_10 
REMARK    5  A    between atoms: C8_10  and  C9_11 
REMARK    6  A    between atoms: C9_11  and  C10_13 
REMARK    7  A    between atoms: C11_14  and  C12_15 
REMARK    8  A    between atoms: C14_17  and  C15_18 
REMARK    9  A    between atoms: C17_23  and  C18_24 
REMARK   10  A    between atoms: C20_29  and  O4_30 
REMARK   11  A    between atoms: C22_33  and  O5_34 
REMARK   12  A    between atoms: O5_34  and  C23_35 
ROOT
HETATM    1  C5  UNL     1     -88.583 164.276 -14.194  1.00  0.00     0.018 C 
HETATM    2  C6  UNL     1     -88.001 164.892 -15.198  1.00  0.00     0.051 C 
ENDROOT
BRANCH   1   3
HETATM    3  C4  UNL     1     -87.940 163.250 -13.367  1.00  0.00    -0.000 A 
HETATM    4  C3  UNL     1     -87.703 163.458 -12.032  1.00  0.00     0.054 A 
HETATM    5  C2  UNL     1     -87.128 162.431 -11.251  1.00  0.00     0.102 A 
HETATM    6  C22 UNL     1     -86.788 161.213 -11.775  1.00  0.00     0.110 A 
HETATM    7  C21 UNL     1     -87.050 161.062 -13.132  1.00  0.00     0.077 A 
HETATM    8  C20 UNL     1     -87.612 162.044 -13.925  1.00  0.00     0.078 A 
BRANCH   5   9
HETATM    9  O1  UNL     1     -86.927 162.727  -9.918  1.00  0.00    -0.353 OA
HETATM   10  C1  UNL     1     -87.798 163.532  -9.173  1.00  0.00     0.210 C 
ENDBRANCH   5   9
BRANCH   6  11
HETATM   11  O5  UNL     1     -86.226 160.156 -11.113  1.00  0.00    -0.294 OA
BRANCH  11  12
HETATM   12  C23 UNL     1     -84.856 159.732 -11.271  1.00  0.00     0.419 C 
HETATM   13  O6  UNL     1     -84.110 160.918 -11.173  1.00  0.00    -0.338 OA
HETATM   14  C24 UNL     1     -82.836 160.770 -11.582  1.00  0.00     0.180 C 
HETATM   15  C25 UNL     1     -82.762 160.398 -13.054  1.00  0.00     0.040 C 
HETATM   16  C26 UNL     1     -83.125 161.605 -13.867  1.00  0.00     0.015 C 
HETATM   17  C27 UNL     1     -83.697 159.212 -13.294  1.00  0.00     0.071 C 
HETATM   18  C28 UNL     1     -84.261 159.303 -14.714  1.00  0.00     0.038 C 
HETATM   19  C31 UNL     1     -82.879 157.941 -13.386  1.00  0.00     0.038 C 
HETATM   20  O7  UNL     1     -84.721 159.110 -12.427  1.00  0.00    -0.327 OA
HETATM   21  C29 UNL     1     -84.788 157.862 -14.866  1.00  0.00     0.003 C 
HETATM   22  C30 UNL     1     -83.557 157.090 -14.407  1.00  0.00     0.003 C 
ENDBRANCH  11  12
ENDBRANCH   6  11
BRANCH   8  23
HETATM   23  O4  UNL     1     -87.827 161.756 -15.267  1.00  0.00    -0.360 OA
ATOM     24  H4  UNL     1     -88.546 161.212 -15.566  1.00  0.00     0.217 HD
ENDBRANCH   8  23
ENDBRANCH   1   3
BRANCH   2  25
HETATM   25  C7  UNL     1     -88.670 165.896 -15.980  1.00  0.00     0.156 C 
HETATM   26  O2  UNL     1     -88.280 167.122 -15.909  1.00  0.00    -0.293 OA
BRANCH  25  27
HETATM   27  C8  UNL     1     -89.812 165.667 -16.899  1.00  0.00     0.165 C 
BRANCH  27  28
HETATM   28  C9  UNL     1     -91.088 165.989 -16.279  1.00  0.00     0.156 C 
HETATM   29  O3  UNL     1     -91.742 164.958 -15.835  1.00  0.00    -0.293 OA
BRANCH  28  30
HETATM   30  C10 UNL     1     -91.712 167.252 -16.096  1.00  0.00     0.051 C 
HETATM   31  C11 UNL     1     -91.582 168.056 -15.081  1.00  0.00     0.015 C 
BRANCH  31  32
HETATM   32  C12 UNL     1     -92.257 169.343 -14.955  1.00  0.00    -0.035 A 
HETATM   33  C13 UNL     1     -91.553 170.491 -14.665  1.00  0.00     0.027 A 
HETATM   34  C14 UNL     1     -92.174 171.741 -14.513  1.00  0.00     0.049 A 
HETATM   35  C16 UNL     1     -93.546 171.799 -14.662  1.00  0.00     0.032 A 
HETATM   36  C17 UNL     1     -94.272 170.675 -14.951  1.00  0.00     0.049 A 
HETATM   37  C19 UNL     1     -93.644 169.452 -15.099  1.00  0.00     0.027 A 
BRANCH  34  38
HETATM   38  C15 UNL     1     -91.352 172.943 -14.212  1.00  0.00     0.417 C 
HETATM   39  F1  UNL     1     -91.893 173.716 -13.216  1.00  0.00    -0.166 F 
HETATM   40  F2  UNL     1     -90.073 172.551 -13.957  1.00  0.00    -0.166 F 
HETATM   41  F3  UNL     1     -91.415 173.730 -15.368  1.00  0.00    -0.166 F 
ENDBRANCH  34  38
BRANCH  36  42
HETATM   42  C18 UNL     1     -95.767 170.765 -15.083  1.00  0.00     0.417 C 
HETATM   43  F4  UNL     1     -96.359 170.369 -13.894  1.00  0.00    -0.166 F 
HETATM   44  F5  UNL     1     -96.084 172.064 -15.419  1.00  0.00    -0.166 F 
HETATM   45  F6  UNL     1     -96.180 169.924 -16.090  1.00  0.00    -0.166 F 
ENDBRANCH  36  42
ENDBRANCH  31  32
ENDBRANCH  28  30
ENDBRANCH  27  28
ENDBRANCH  25  27
ENDBRANCH   2  25
TORSDOF 12
ENDMDL
