MODEL 1
REMARK VINA RESULT: -4.557907233      0.000      0.000
REMARK  1 active torsions:
REMARK  status: ('A' for Active; 'I' for Inactive)
REMARK    1  A    between atoms: C4_7  and  C5_8 
ROOT
HETATM    1  C1  UNL     1      30.060  -3.438  -7.625  1.00  0.00     0.046 C 
HETATM    2  C2  UNL     1      29.839  -3.867  -9.024  1.00  0.00     0.128 C 
HETATM    3  C3  UNL     1      28.728  -4.897  -9.112  1.00  0.00     0.046 C 
HETATM    4  N1  UNL     1      29.497  -2.706  -9.862  1.00  0.00    -0.057 N 
ATOM      5  H11 UNL     1      29.159  -1.848  -9.425  1.00  0.00     0.279 HD
ATOM      6  H12 UNL     1      28.669  -2.737 -10.456  1.00  0.00     0.279 HD
HETATM    7  C4  UNL     1      30.836  -2.735 -10.473  1.00  0.00     0.234 C 
HETATM    8  C6  UNL     1      31.005  -4.098  -9.909  1.00  0.00     0.018 C 
HETATM    9  C7  UNL     1      30.614  -5.130 -10.987  1.00  0.00     0.020 C 
HETATM   10  C8  UNL     1      32.301  -4.492  -9.329  1.00  0.00     0.020 C 
ENDROOT
BRANCH   7  11
HETATM   11  C5  UNL     1      31.728  -1.667 -10.054  1.00  0.00     0.086 C 
HETATM   12  N2  UNL     1      32.241  -0.772 -10.802  1.00  0.00    -0.409 N 
ATOM     13  H22 UNL     1      31.990  -0.825 -11.789  1.00  0.00     0.155 HD
ATOM     14  H21 UNL     1      32.867  -0.023 -10.507  1.00  0.00     0.155 HD
ENDBRANCH   7  11
TORSDOF 1
ENDMDL
MODEL 2
REMARK VINA RESULT: -4.107031342      2.096      3.700
REMARK  1 active torsions:
REMARK  status: ('A' for Active; 'I' for Inactive)
REMARK    1  A    between atoms: C4_7  and  C5_8 
ROOT
HETATM    1  C1  UNL     1      32.439  -6.051 -10.355  1.00  0.00     0.046 C 
HETATM    2  C2  UNL     1      31.814  -4.883 -11.014  1.00  0.00     0.128 C 
HETATM    3  C3  UNL     1      32.701  -4.337 -12.117  1.00  0.00     0.046 C 
HETATM    4  N1  UNL     1      30.507  -5.257 -11.577  1.00  0.00    -0.057 N 
ATOM      5  H11 UNL     1      30.290  -6.240 -11.743  1.00  0.00     0.279 HD
ATOM      6  H12 UNL     1      30.294  -5.040 -12.550  1.00  0.00     0.279 HD
HETATM    7  C4  UNL     1      29.818  -4.529 -10.499  1.00  0.00     0.234 C 
HETATM    8  C6  UNL     1      31.113  -3.870 -10.191  1.00  0.00     0.018 C 
HETATM    9  C7  UNL     1      31.162  -2.513 -10.921  1.00  0.00     0.020 C 
HETATM   10  C8  UNL     1      31.508  -3.662  -8.786  1.00  0.00     0.020 C 
ENDROOT
BRANCH   7  11
HETATM   11  C5  UNL     1      29.181  -5.368  -9.498  1.00  0.00     0.086 C 
HETATM   12  N2  UNL     1      28.194  -5.047  -8.758  1.00  0.00    -0.409 N 
ATOM     13  H22 UNL     1      27.827  -4.105  -8.896  1.00  0.00     0.155 HD
ATOM     14  H21 UNL     1      27.747  -5.636  -8.056  1.00  0.00     0.155 HD
ENDBRANCH   7  11
TORSDOF 1
ENDMDL
MODEL 3
REMARK VINA RESULT: -4.077954036      1.473      3.133
REMARK  1 active torsions:
REMARK  status: ('A' for Active; 'I' for Inactive)
REMARK    1  A    between atoms: C4_7  and  C5_8 
ROOT
HETATM    1  C1  UNL     1      30.652  -4.994 -11.210  1.00  0.00     0.046 C 
HETATM    2  C2  UNL     1      31.255  -3.650 -11.071  1.00  0.00     0.128 C 
HETATM    3  C3  UNL     1      31.746  -3.129 -12.408  1.00  0.00     0.046 C 
HETATM    4  N1  UNL     1      30.274  -2.709 -10.508  1.00  0.00    -0.057 N 
ATOM      5  H11 UNL     1      29.279  -2.929 -10.551  1.00  0.00     0.279 HD
ATOM      6  H12 UNL     1      30.102  -1.818 -10.974  1.00  0.00     0.279 HD
HETATM    7  C4  UNL     1      30.972  -2.732  -9.212  1.00  0.00     0.234 C 
HETATM    8  C6  UNL     1      32.125  -3.358  -9.907  1.00  0.00     0.018 C 
HETATM    9  C7  UNL     1      33.126  -2.252 -10.298  1.00  0.00     0.020 C 
HETATM   10  C8  UNL     1      32.865  -4.451  -9.250  1.00  0.00     0.020 C 
ENDROOT
BRANCH   7  11
HETATM   11  C5  UNL     1      30.287  -3.458  -8.156  1.00  0.00     0.086 C 
HETATM   12  N2  UNL     1      29.913  -2.985  -7.033  1.00  0.00    -0.409 N 
ATOM     13  H22 UNL     1      30.122  -1.999  -6.877  1.00  0.00     0.155 HD
ATOM     14  H21 UNL     1      29.432  -3.495  -6.292  1.00  0.00     0.155 HD
ENDBRANCH   7  11
TORSDOF 1
ENDMDL
MODEL 4
REMARK VINA RESULT: -3.963090691      2.105      3.111
REMARK  1 active torsions:
REMARK  status: ('A' for Active; 'I' for Inactive)
REMARK    1  A    between atoms: C4_7  and  C5_8 
ROOT
HETATM    1  C1  UNL     1      31.179  -4.621 -12.112  1.00  0.00     0.046 C 
HETATM    2  C2  UNL     1      30.992  -4.641 -10.645  1.00  0.00     0.128 C 
HETATM    3  C3  UNL     1      29.647  -5.236 -10.273  1.00  0.00     0.046 C 
HETATM    4  N1  UNL     1      32.065  -5.420 -10.007  1.00  0.00    -0.057 N 
ATOM      5  H11 UNL     1      32.609  -6.081 -10.562  1.00  0.00     0.279 HD
ATOM      6  H12 UNL     1      31.829  -6.161  -9.347  1.00  0.00     0.279 HD
HETATM    7  C4  UNL     1      32.695  -4.182  -9.521  1.00  0.00     0.234 C 
HETATM    8  C6  UNL     1      31.428  -3.477  -9.838  1.00  0.00     0.018 C 
HETATM    9  C7  UNL     1      30.569  -3.407  -8.560  1.00  0.00     0.020 C 
HETATM   10  C8  UNL     1      31.473  -2.136 -10.447  1.00  0.00     0.020 C 
ENDROOT
BRANCH   7  11
HETATM   11  C5  UNL     1      33.920  -3.804 -10.205  1.00  0.00     0.086 C 
HETATM   12  N2  UNL     1      35.105  -4.139  -9.876  1.00  0.00    -0.409 N 
ATOM     13  H22 UNL     1      35.183  -4.731  -9.049  1.00  0.00     0.155 HD
ATOM     14  H21 UNL     1      35.964  -3.874 -10.357  1.00  0.00     0.155 HD
ENDBRANCH   7  11
TORSDOF 1
ENDMDL
MODEL 5
REMARK VINA RESULT: -3.901102520      2.066      3.040
REMARK  1 active torsions:
REMARK  status: ('A' for Active; 'I' for Inactive)
REMARK    1  A    between atoms: C4_7  and  C5_8 
ROOT
HETATM    1  C1  UNL     1      30.278  -5.244 -10.608  1.00  0.00     0.046 C 
HETATM    2  C2  UNL     1      30.715  -3.909 -10.141  1.00  0.00     0.128 C 
HETATM    3  C3  UNL     1      29.555  -3.127  -9.556  1.00  0.00     0.046 C 
HETATM    4  N1  UNL     1      31.773  -4.048  -9.128  1.00  0.00    -0.057 N 
ATOM      5  H11 UNL     1      31.893  -4.935  -8.639  1.00  0.00     0.279 HD
ATOM      6  H12 UNL     1      31.687  -3.561  -8.237  1.00  0.00     0.279 HD
HETATM    7  C4  UNL     1      32.785  -3.611 -10.104  1.00  0.00     0.234 C 
HETATM    8  C6  UNL     1      31.672  -3.128 -10.960  1.00  0.00     0.018 C 
HETATM    9  C7  UNL     1      31.453  -1.627 -10.685  1.00  0.00     0.020 C 
HETATM   10  C8  UNL     1      31.732  -3.335 -12.418  1.00  0.00     0.020 C 
ENDROOT
BRANCH   7  11
HETATM   11  C5  UNL     1      33.665  -4.659 -10.591  1.00  0.00     0.086 C 
HETATM   12  N2  UNL     1      34.939  -4.630 -10.610  1.00  0.00    -0.409 N 
ATOM     13  H22 UNL     1      35.367  -3.780 -10.242  1.00  0.00     0.155 HD
ATOM     14  H21 UNL     1      35.557  -5.366 -10.951  1.00  0.00     0.155 HD
ENDBRANCH   7  11
TORSDOF 1
ENDMDL
