MODEL 1
REMARK VINA RESULT: -5.140216203      0.000      0.000
REMARK  2 active torsions:
REMARK  status: ('A' for Active; 'I' for Inactive)
REMARK    1  A    between atoms: C2_2  and  C3_3 
REMARK    2  A    between atoms: C3_3  and  C4_4 
ROOT
HETATM    1  C3  UNL     1      30.158  -3.490  -9.762  1.00  0.00     0.148 C 
HETATM    2  N1  UNL     1      31.404  -3.177  -9.063  1.00  0.00    -0.324 N 
ATOM      3  H1  UNL     1      31.913  -3.595  -8.284  1.00  0.00     0.166 HD
HETATM    4  C7  UNL     1      31.619  -2.057  -9.905  1.00  0.00     0.217 C 
HETATM    5  N2  UNL     1      32.572  -1.227 -10.212  1.00  0.00    -0.365 N 
ATOM      6  H21 UNL     1      32.726  -0.421 -10.817  1.00  0.00     0.159 HD
ATOM      7  H22 UNL     1      33.539  -1.137  -9.902  1.00  0.00     0.159 HD
HETATM    8  O1  UNL     1      30.317  -2.178 -10.323  1.00  0.00    -0.290 OA
ENDROOT
BRANCH   1   9
HETATM    9  C2  UNL     1      30.304  -4.542 -10.802  1.00  0.00     0.057 C 
HETATM   10  C1  UNL     1      31.402  -5.524 -10.579  1.00  0.00     0.010 C 
ENDBRANCH   1   9
BRANCH   1  11
HETATM   11  C4  UNL     1      29.040  -3.577  -8.789  1.00  0.00     0.034 C 
HETATM   12  C5  UNL     1      29.448  -3.307  -7.369  1.00  0.00     0.014 C 
HETATM   13  C6  UNL     1      28.247  -4.855  -8.821  1.00  0.00     0.014 C 
ENDBRANCH   1  11
TORSDOF 2
ENDMDL
MODEL 2
REMARK VINA RESULT: -5.012574440      0.843      1.228
REMARK  2 active torsions:
REMARK  status: ('A' for Active; 'I' for Inactive)
REMARK    1  A    between atoms: C2_2  and  C3_3 
REMARK    2  A    between atoms: C3_3  and  C4_4 
ROOT
HETATM    1  C3  UNL     1      30.381  -3.795  -9.969  1.00  0.00     0.148 C 
HETATM    2  N1  UNL     1      31.550  -3.379  -9.194  1.00  0.00    -0.324 N 
ATOM      3  H1  UNL     1      32.161  -3.837  -8.518  1.00  0.00     0.166 HD
HETATM    4  C7  UNL     1      31.491  -2.082  -9.762  1.00  0.00     0.217 C 
HETATM    5  N2  UNL     1      32.231  -1.017  -9.860  1.00  0.00    -0.365 N 
ATOM      6  H21 UNL     1      32.188  -0.083 -10.269  1.00  0.00     0.159 HD
ATOM      7  H22 UNL     1      33.164  -0.788  -9.519  1.00  0.00     0.159 HD
HETATM    8  O1  UNL     1      30.234  -2.389 -10.222  1.00  0.00    -0.290 OA
ENDROOT
BRANCH   1   9
HETATM    9  C2  UNL     1      30.721  -4.534 -11.213  1.00  0.00     0.057 C 
HETATM   10  C1  UNL     1      31.950  -5.374 -11.152  1.00  0.00     0.010 C 
ENDBRANCH   1   9
BRANCH   1  11
HETATM   11  C4  UNL     1      29.339  -4.336  -9.061  1.00  0.00     0.034 C 
HETATM   12  C5  UNL     1      28.750  -5.639  -9.519  1.00  0.00     0.014 C 
HETATM   13  C6  UNL     1      28.212  -3.396  -8.731  1.00  0.00     0.014 C 
ENDBRANCH   1  11
TORSDOF 2
ENDMDL
MODEL 3
REMARK VINA RESULT: -4.851224275      2.043      2.829
REMARK  2 active torsions:
REMARK  status: ('A' for Active; 'I' for Inactive)
REMARK    1  A    between atoms: C2_2  and  C3_3 
REMARK    2  A    between atoms: C3_3  and  C4_4 
ROOT
HETATM    1  C3  UNL     1      30.614  -3.950 -10.231  1.00  0.00     0.148 C 
HETATM    2  N1  UNL     1      30.368  -5.150 -11.031  1.00  0.00    -0.324 N 
ATOM      3  H1  UNL     1      29.595  -5.479 -11.610  1.00  0.00     0.166 HD
HETATM    4  C7  UNL     1      31.638  -5.672 -10.678  1.00  0.00     0.217 C 
HETATM    5  N2  UNL     1      32.448  -6.620 -11.047  1.00  0.00    -0.365 N 
ATOM      6  H21 UNL     1      33.362  -6.995 -10.792  1.00  0.00     0.159 HD
ATOM      7  H22 UNL     1      32.395  -7.333 -11.773  1.00  0.00     0.159 HD
HETATM    8  O1  UNL     1      31.710  -4.711  -9.700  1.00  0.00    -0.290 OA
ENDROOT
BRANCH   1   9
HETATM    9  C2  UNL     1      31.098  -2.791 -11.025  1.00  0.00     0.057 C 
HETATM   10  C1  UNL     1      32.142  -1.950 -10.372  1.00  0.00     0.010 C 
ENDBRANCH   1   9
BRANCH   1  11
HETATM   11  C4  UNL     1      29.512  -3.758  -9.256  1.00  0.00     0.034 C 
HETATM   12  C5  UNL     1      29.974  -3.331  -7.892  1.00  0.00     0.014 C 
HETATM   13  C6  UNL     1      28.573  -4.923  -9.097  1.00  0.00     0.014 C 
ENDBRANCH   1  11
TORSDOF 2
ENDMDL
MODEL 4
REMARK VINA RESULT: -4.821486864      1.921      3.437
REMARK  2 active torsions:
REMARK  status: ('A' for Active; 'I' for Inactive)
REMARK    1  A    between atoms: C2_2  and  C3_3 
REMARK    2  A    between atoms: C3_3  and  C4_4 
ROOT
HETATM    1  C3  UNL     1      30.284  -3.538  -9.662  1.00  0.00     0.148 C 
HETATM    2  N1  UNL     1      28.914  -3.158  -9.317  1.00  0.00    -0.324 N 
ATOM      3  H1  UNL     1      28.089  -2.887  -9.852  1.00  0.00     0.166 HD
HETATM    4  C7  UNL     1      29.196  -3.319  -7.937  1.00  0.00     0.217 C 
HETATM    5  N2  UNL     1      28.557  -3.404  -6.807  1.00  0.00    -0.365 N 
ATOM      6  H21 UNL     1      28.760  -3.520  -5.814  1.00  0.00     0.159 HD
ATOM      7  H22 UNL     1      27.566  -3.377  -6.567  1.00  0.00     0.159 HD
HETATM    8  O1  UNL     1      30.529  -3.356  -8.259  1.00  0.00    -0.290 OA
ENDROOT
BRANCH   1   9
HETATM    9  C2  UNL     1      30.429  -4.964 -10.055  1.00  0.00     0.057 C 
HETATM   10  C1  UNL     1      29.170  -5.763 -10.065  1.00  0.00     0.010 C 
ENDBRANCH   1   9
BRANCH   1  11
HETATM   11  C4  UNL     1      30.904  -2.484 -10.503  1.00  0.00     0.034 C 
HETATM   12  C5  UNL     1      31.526  -3.003 -11.768  1.00  0.00     0.014 C 
HETATM   13  C6  UNL     1      31.904  -1.601  -9.808  1.00  0.00     0.014 C 
ENDBRANCH   1  11
TORSDOF 2
ENDMDL
MODEL 5
REMARK VINA RESULT: -4.657423973      2.004      2.898
REMARK  2 active torsions:
REMARK  status: ('A' for Active; 'I' for Inactive)
REMARK    1  A    between atoms: C2_2  and  C3_3 
REMARK    2  A    between atoms: C3_3  and  C4_4 
ROOT
HETATM    1  C3  UNL     1      30.399  -3.824  -9.746  1.00  0.00     0.148 C 
HETATM    2  N1  UNL     1      30.032  -4.888 -10.681  1.00  0.00    -0.324 N 
ATOM      3  H1  UNL     1      29.163  -5.180 -11.128  1.00  0.00     0.166 HD
HETATM    4  C7  UNL     1      31.371  -5.350 -10.713  1.00  0.00     0.217 C 
HETATM    5  N2  UNL     1      32.119  -6.149 -11.417  1.00  0.00    -0.365 N 
ATOM      6  H21 UNL     1      33.083  -6.481 -11.439  1.00  0.00     0.159 HD
ATOM      7  H22 UNL     1      31.934  -6.731 -12.233  1.00  0.00     0.159 HD
HETATM    8  O1  UNL     1      31.621  -4.566  -9.614  1.00  0.00    -0.290 OA
ENDROOT
BRANCH   1   9
HETATM    9  C2  UNL     1      30.634  -2.510 -10.399  1.00  0.00     0.057 C 
HETATM   10  C1  UNL     1      31.927  -1.846 -10.068  1.00  0.00     0.010 C 
ENDBRANCH   1   9
BRANCH   1  11
HETATM   11  C4  UNL     1      29.541  -3.895  -8.537  1.00  0.00     0.034 C 
HETATM   12  C5  UNL     1      28.117  -3.479  -8.777  1.00  0.00     0.014 C 
HETATM   13  C6  UNL     1      30.054  -3.157  -7.330  1.00  0.00     0.014 C 
ENDBRANCH   1  11
TORSDOF 2
ENDMDL
