MODEL 1
REMARK VINA RESULT: -4.287682645      0.000      0.000
REMARK  1 active torsions:
REMARK  status: ('A' for Active; 'I' for Inactive)
REMARK    1  A    between atoms: O1_2  and  C2_3 
ROOT
HETATM    1  C2  UNL     1      30.067  -3.543 -10.128  1.00  0.00     0.131 A 
HETATM    2  C3  UNL     1      30.576  -4.464 -11.001  1.00  0.00     0.058 A 
HETATM    3  C4  UNL     1      31.586  -4.290 -12.076  1.00  0.00     0.072 C 
HETATM    4  N1  UNL     1      29.991  -5.645 -10.731  1.00  0.00    -0.301 N 
ATOM      5  H1  UNL     1      30.183  -6.513 -11.231  1.00  0.00     0.186 HD
HETATM    6  N2  UNL     1      29.134  -5.530  -9.732  1.00  0.00    -0.288 N 
ATOM      7  H2  UNL     1      28.559  -6.270  -9.329  1.00  0.00     0.188 HD
HETATM    8  C5  UNL     1      29.174  -4.241  -9.355  1.00  0.00     0.150 A 
HETATM    9  S1  UNL     1      28.277  -3.616  -8.144  1.00  0.00    -0.056 SA
ENDROOT
BRANCH   1  10
HETATM   10  O1  UNL     1      30.402  -2.217 -10.069  1.00  0.00    -0.351 OA
HETATM   11  C1  UNL     1      31.698  -1.774  -9.633  1.00  0.00     0.210 C 
ENDBRANCH   1  10
TORSDOF 1
ENDMDL
MODEL 2
REMARK VINA RESULT: -4.273239523      1.850      2.722
REMARK  1 active torsions:
REMARK  status: ('A' for Active; 'I' for Inactive)
REMARK    1  A    between atoms: O1_2  and  C2_3 
ROOT
HETATM    1  C2  UNL     1      30.113  -3.524 -10.186  1.00  0.00     0.131 A 
HETATM    2  C3  UNL     1      29.187  -4.119  -9.375  1.00  0.00     0.058 A 
HETATM    3  C4  UNL     1      28.342  -3.523  -8.309  1.00  0.00     0.072 C 
HETATM    4  N1  UNL     1      29.141  -5.424  -9.701  1.00  0.00    -0.301 N 
ATOM      5  H1  UNL     1      28.534  -6.110  -9.254  1.00  0.00     0.186 HD
HETATM    6  N2  UNL     1      29.988  -5.696 -10.677  1.00  0.00    -0.288 N 
ATOM      7  H2  UNL     1      30.152  -6.604 -11.112  1.00  0.00     0.188 HD
HETATM    8  C5  UNL     1      30.591  -4.535 -10.981  1.00  0.00     0.150 A 
HETATM    9  S1  UNL     1      31.729  -4.371 -12.140  1.00  0.00    -0.056 SA
ENDROOT
BRANCH   1  10
HETATM   10  O1  UNL     1      30.461  -2.200 -10.176  1.00  0.00    -0.351 OA
HETATM   11  C1  UNL     1      31.719  -1.744  -9.652  1.00  0.00     0.210 C 
ENDBRANCH   1  10
TORSDOF 1
ENDMDL
MODEL 3
REMARK VINA RESULT: -4.111537419      2.243      2.943
REMARK  1 active torsions:
REMARK  status: ('A' for Active; 'I' for Inactive)
REMARK    1  A    between atoms: O1_2  and  C2_3 
ROOT
HETATM    1  C2  UNL     1      30.758  -3.269 -10.823  1.00  0.00     0.131 A 
HETATM    2  C3  UNL     1      29.987  -4.221 -10.217  1.00  0.00     0.058 A 
HETATM    3  C4  UNL     1      29.061  -4.093  -9.063  1.00  0.00     0.072 C 
HETATM    4  N1  UNL     1      30.196  -5.383 -10.862  1.00  0.00    -0.301 N 
ATOM      5  H1  UNL     1      29.747  -6.267 -10.621  1.00  0.00     0.186 HD
HETATM    6  N2  UNL     1      31.061  -5.227 -11.848  1.00  0.00    -0.288 N 
ATOM      7  H2  UNL     1      31.394  -5.945 -12.491  1.00  0.00     0.188 HD
HETATM    8  C5  UNL     1      31.413  -3.930 -11.831  1.00  0.00     0.150 A 
HETATM    9  S1  UNL     1      32.471  -3.258 -12.875  1.00  0.00    -0.056 SA
ENDROOT
BRANCH   1  10
HETATM   10  O1  UNL     1      30.835  -1.948 -10.470  1.00  0.00    -0.351 OA
HETATM   11  C1  UNL     1      31.961  -1.411  -9.756  1.00  0.00     0.210 C 
ENDBRANCH   1  10
TORSDOF 1
ENDMDL
MODEL 4
REMARK VINA RESULT: -4.013804963      2.294      2.869
REMARK  1 active torsions:
REMARK  status: ('A' for Active; 'I' for Inactive)
REMARK    1  A    between atoms: O1_2  and  C2_3 
ROOT
HETATM    1  C2  UNL     1      30.397  -3.535 -10.290  1.00  0.00     0.131 A 
HETATM    2  C3  UNL     1      30.055  -4.830 -10.565  1.00  0.00     0.058 A 
HETATM    3  C4  UNL     1      29.085  -5.718  -9.874  1.00  0.00     0.072 C 
HETATM    4  N1  UNL     1      30.773  -5.221 -11.633  1.00  0.00    -0.301 N 
ATOM      5  H1  UNL     1      30.718  -6.146 -12.059  1.00  0.00     0.186 HD
HETATM    6  N2  UNL     1      31.557  -4.247 -12.058  1.00  0.00    -0.288 N 
ATOM      7  H2  UNL     1      32.202  -4.277 -12.847  1.00  0.00     0.188 HD
HETATM    8  C5  UNL     1      31.334  -3.206 -11.237  1.00  0.00     0.150 A 
HETATM    9  S1  UNL     1      32.082  -1.762 -11.369  1.00  0.00    -0.056 SA
ENDROOT
BRANCH   1  10
HETATM   10  O1  UNL     1      29.892  -2.765  -9.276  1.00  0.00    -0.351 OA
HETATM   11  C1  UNL     1      30.180  -3.034  -7.895  1.00  0.00     0.210 C 
ENDBRANCH   1  10
TORSDOF 1
ENDMDL
MODEL 5
REMARK VINA RESULT: -3.985772522      0.916      1.126
REMARK  1 active torsions:
REMARK  status: ('A' for Active; 'I' for Inactive)
REMARK    1  A    between atoms: O1_2  and  C2_3 
ROOT
HETATM    1  C2  UNL     1      30.721  -3.214 -10.774  1.00  0.00     0.131 A 
HETATM    2  C3  UNL     1      31.310  -3.890 -11.806  1.00  0.00     0.058 A 
HETATM    3  C4  UNL     1      32.227  -3.389 -12.862  1.00  0.00     0.072 C 
HETATM    4  N1  UNL     1      30.916  -5.173 -11.727  1.00  0.00    -0.301 N 
ATOM      5  H1  UNL     1      31.205  -5.907 -12.374  1.00  0.00     0.186 HD
HETATM    6  N2  UNL     1      30.106  -5.357 -10.701  1.00  0.00    -0.288 N 
ATOM      7  H2  UNL     1      29.665  -6.231 -10.415  1.00  0.00     0.188 HD
HETATM    8  C5  UNL     1      29.979  -4.157 -10.109  1.00  0.00     0.150 A 
HETATM    9  S1  UNL     1      29.066  -3.883  -8.784  1.00  0.00    -0.056 SA
ENDROOT
BRANCH   1  10
HETATM   10  O1  UNL     1      30.864  -1.880 -10.497  1.00  0.00    -0.351 OA
HETATM   11  C1  UNL     1      31.995  -1.366  -9.776  1.00  0.00     0.210 C 
ENDBRANCH   1  10
TORSDOF 1
ENDMDL
