MODEL 1
REMARK VINA RESULT: -5.103769739      0.000      0.000
REMARK  2 active torsions:
REMARK  status: ('A' for Active; 'I' for Inactive)
REMARK    1  A    between atoms: C5_7  and  C6_8 
REMARK    2  A    between atoms: C6_8  and  N2_10 
ROOT
HETATM    1  C1  UNL     1      26.777  -3.797  -6.315  1.00  0.00     0.089 C 
HETATM    2  C2  UNL     1      27.850  -3.892  -7.336  1.00  0.00     0.077 A 
HETATM    3  N1  UNL     1      27.878  -4.840  -8.334  1.00  0.00    -0.348 N 
ATOM      4  H1  UNL     1      27.182  -5.571  -8.480  1.00  0.00     0.167 HD
HETATM    5  C3  UNL     1      28.985  -4.635  -9.087  1.00  0.00     0.031 A 
HETATM    6  C4  UNL     1      29.369  -5.445 -10.244  1.00  0.00     0.070 C 
HETATM    7  C5  UNL     1      29.678  -3.546  -8.579  1.00  0.00     0.063 A 
HETATM    8  N3  UNL     1      28.950  -3.144  -7.529  1.00  0.00    -0.346 N 
ATOM      9  H3  UNL     1      29.204  -2.353  -6.937  1.00  0.00     0.167 HD
ENDROOT
BRANCH   7  10
HETATM   10  C6  UNL     1      30.952  -3.043  -9.102  1.00  0.00     0.230 C 
HETATM   11  C7  UNL     1      32.012  -4.109  -9.261  1.00  0.00     0.046 C 
BRANCH  10  12
HETATM   12  N2  UNL     1      30.703  -2.480 -10.466  1.00  0.00    -0.070 N 
ATOM     13  H23 UNL     1      29.723  -2.534 -10.741  1.00  0.00     0.275 HD
ATOM     14  H22 UNL     1      30.797  -1.464 -10.496  1.00  0.00     0.275 HD
ATOM     15  H21 UNL     1      31.324  -2.952 -11.122  1.00  0.00     0.275 HD
ENDBRANCH  10  12
ENDBRANCH   7  10
TORSDOF 2
ENDMDL
MODEL 2
REMARK VINA RESULT: -4.868855125      2.246      3.135
REMARK  2 active torsions:
REMARK  status: ('A' for Active; 'I' for Inactive)
REMARK    1  A    between atoms: C5_7  and  C6_8 
REMARK    2  A    between atoms: C6_8  and  N2_10 
ROOT
HETATM    1  C1  UNL     1      27.955  -4.604  -8.584  1.00  0.00     0.089 C 
HETATM    2  C2  UNL     1      29.156  -4.335  -9.413  1.00  0.00     0.077 A 
HETATM    3  N1  UNL     1      29.640  -3.074  -9.675  1.00  0.00    -0.348 N 
ATOM      4  H1  UNL     1      29.236  -2.199  -9.341  1.00  0.00     0.167 HD
HETATM    5  C3  UNL     1      30.744  -3.193 -10.452  1.00  0.00     0.031 A 
HETATM    6  C4  UNL     1      31.541  -2.070 -10.948  1.00  0.00     0.070 C 
HETATM    7  C5  UNL     1      30.981  -4.538 -10.692  1.00  0.00     0.063 A 
HETATM    8  N3  UNL     1      29.995  -5.174 -10.045  1.00  0.00    -0.346 N 
ATOM      9  H3  UNL     1      29.891  -6.188 -10.033  1.00  0.00     0.167 HD
ENDROOT
BRANCH   7  10
HETATM   10  C6  UNL     1      32.064  -5.064 -11.529  1.00  0.00     0.230 C 
HETATM   11  C7  UNL     1      32.682  -6.339 -11.002  1.00  0.00     0.046 C 
BRANCH  10  12
HETATM   12  N2  UNL     1      31.495  -5.386 -12.874  1.00  0.00    -0.070 N 
ATOM     13  H23 UNL     1      31.872  -4.793 -13.614  1.00  0.00     0.275 HD
ATOM     14  H22 UNL     1      31.823  -6.282 -13.237  1.00  0.00     0.275 HD
ATOM     15  H21 UNL     1      30.479  -5.336 -12.808  1.00  0.00     0.275 HD
ENDBRANCH  10  12
ENDBRANCH   7  10
TORSDOF 2
ENDMDL
MODEL 3
REMARK VINA RESULT: -4.793413593      1.992      2.479
REMARK  2 active torsions:
REMARK  status: ('A' for Active; 'I' for Inactive)
REMARK    1  A    between atoms: C5_7  and  C6_8 
REMARK    2  A    between atoms: C6_8  and  N2_10 
ROOT
HETATM    1  C1  UNL     1      28.036  -4.375  -8.329  1.00  0.00     0.089 C 
HETATM    2  C2  UNL     1      29.191  -4.128  -9.228  1.00  0.00     0.077 A 
HETATM    3  N1  UNL     1      29.539  -4.953 -10.274  1.00  0.00    -0.348 N 
ATOM      4  H1  UNL     1      29.057  -5.811 -10.542  1.00  0.00     0.167 HD
HETATM    5  C3  UNL     1      30.630  -4.431 -10.884  1.00  0.00     0.031 A 
HETATM    6  C4  UNL     1      31.305  -5.025 -12.039  1.00  0.00     0.070 C 
HETATM    7  C5  UNL     1      30.990  -3.259 -10.236  1.00  0.00     0.063 A 
HETATM    8  N3  UNL     1      30.091  -3.131  -9.250  1.00  0.00    -0.346 N 
ATOM      9  H3  UNL     1      30.091  -2.357  -8.586  1.00  0.00     0.167 HD
ENDROOT
BRANCH   7  10
HETATM   10  C6  UNL     1      32.149  -2.430 -10.581  1.00  0.00     0.230 C 
HETATM   11  C7  UNL     1      32.121  -1.050  -9.964  1.00  0.00     0.046 C 
BRANCH  10  12
HETATM   12  N2  UNL     1      33.376  -3.108 -10.059  1.00  0.00    -0.070 N 
ATOM     13  H23 UNL     1      33.323  -3.304  -9.060  1.00  0.00     0.275 HD
ATOM     14  H22 UNL     1      33.462  -4.072 -10.383  1.00  0.00     0.275 HD
ATOM     15  H21 UNL     1      34.183  -2.536 -10.306  1.00  0.00     0.275 HD
ENDBRANCH  10  12
ENDBRANCH   7  10
TORSDOF 2
ENDMDL
MODEL 4
REMARK VINA RESULT: -4.694557595      2.854      3.975
REMARK  2 active torsions:
REMARK  status: ('A' for Active; 'I' for Inactive)
REMARK    1  A    between atoms: C5_7  and  C6_8 
REMARK    2  A    between atoms: C6_8  and  N2_10 
ROOT
HETATM    1  C1  UNL     1      28.679  -5.013  -9.206  1.00  0.00     0.089 C 
HETATM    2  C2  UNL     1      29.747  -4.623 -10.160  1.00  0.00     0.077 A 
HETATM    3  N1  UNL     1      30.236  -3.342 -10.282  1.00  0.00    -0.348 N 
ATOM      4  H1  UNL     1      29.925  -2.532  -9.746  1.00  0.00     0.167 HD
HETATM    5  C3  UNL     1      31.200  -3.342 -11.234  1.00  0.00     0.031 A 
HETATM    6  C4  UNL     1      31.956  -2.162 -11.657  1.00  0.00     0.070 C 
HETATM    7  C5  UNL     1      31.341  -4.629 -11.730  1.00  0.00     0.063 A 
HETATM    8  N3  UNL     1      30.442  -5.353 -11.049  1.00  0.00    -0.346 N 
ATOM      9  H3  UNL     1      30.300  -6.353 -11.190  1.00  0.00     0.167 HD
ENDROOT
BRANCH   7  10
HETATM   10  C6  UNL     1      32.259  -5.019 -12.805  1.00  0.00     0.230 C 
HETATM   11  C7  UNL     1      33.284  -6.050 -12.392  1.00  0.00     0.046 C 
BRANCH  10  12
HETATM   12  N2  UNL     1      31.451  -5.634 -13.903  1.00  0.00    -0.070 N 
ATOM     13  H23 UNL     1      31.985  -6.304 -14.458  1.00  0.00     0.275 HD
ATOM     14  H22 UNL     1      30.740  -6.280 -13.557  1.00  0.00     0.275 HD
ATOM     15  H21 UNL     1      31.058  -4.881 -14.467  1.00  0.00     0.275 HD
ENDBRANCH  10  12
ENDBRANCH   7  10
TORSDOF 2
ENDMDL
MODEL 5
REMARK VINA RESULT: -4.621596211      2.187      4.497
REMARK  2 active torsions:
REMARK  status: ('A' for Active; 'I' for Inactive)
REMARK    1  A    between atoms: C5_7  and  C6_8 
REMARK    2  A    between atoms: C6_8  and  N2_10 
ROOT
HETATM    1  C1  UNL     1      31.910  -0.065 -11.103  1.00  0.00     0.089 C 
HETATM    2  C2  UNL     1      31.824  -1.467 -10.623  1.00  0.00     0.077 A 
HETATM    3  N1  UNL     1      32.913  -2.211 -10.231  1.00  0.00    -0.348 N 
ATOM      4  H1  UNL     1      33.883  -1.894 -10.230  1.00  0.00     0.167 HD
HETATM    5  C3  UNL     1      32.479  -3.435  -9.848  1.00  0.00     0.031 A 
HETATM    6  C4  UNL     1      33.342  -4.516  -9.370  1.00  0.00     0.070 C 
HETATM    7  C5  UNL     1      31.100  -3.486  -9.987  1.00  0.00     0.063 A 
HETATM    8  N3  UNL     1      30.765  -2.277 -10.457  1.00  0.00    -0.346 N 
ATOM      9  H3  UNL     1      29.806  -2.000 -10.667  1.00  0.00     0.167 HD
ENDROOT
BRANCH   7  10
HETATM   10  C6  UNL     1      30.270  -4.663  -9.711  1.00  0.00     0.230 C 
HETATM   11  C7  UNL     1      28.899  -4.332  -9.169  1.00  0.00     0.046 C 
BRANCH  10  12
HETATM   12  N2  UNL     1      30.058  -5.393 -10.999  1.00  0.00    -0.070 N 
ATOM     13  H23 UNL     1      29.176  -5.149 -11.450  1.00  0.00     0.275 HD
ATOM     14  H22 UNL     1      30.683  -5.075 -11.741  1.00  0.00     0.275 HD
ATOM     15  H21 UNL     1      30.143  -6.392 -10.814  1.00  0.00     0.275 HD
ENDBRANCH  10  12
ENDBRANCH   7  10
TORSDOF 2
ENDMDL
