MODEL 1
REMARK VINA RESULT: -5.434894991      0.000      0.000
REMARK  1 active torsions:
REMARK  status: ('A' for Active; 'I' for Inactive)
REMARK    1  A    between atoms: C2_2  and  C3_3 
ROOT
HETATM    1  C3  UNL     1     -29.430  -4.347   9.647  1.00  0.00     0.011 A 
HETATM    2  C4  UNL     1     -29.842  -5.120  10.698  1.00  0.00     0.053 A 
HETATM    3  C5  UNL     1     -30.882  -4.696  11.497  1.00  0.00     0.029 A 
HETATM    4  N1  UNL     1     -31.294  -5.410  12.503  1.00  0.00    -0.399 N 
ATOM      5  H11 UNL     1     -32.064  -5.097  13.095  1.00  0.00     0.156 HD
ATOM      6  H12 UNL     1     -30.832  -6.299  12.695  1.00  0.00     0.156 HD
HETATM    7  C6  UNL     1     -31.505  -3.499  11.239  1.00  0.00     0.053 A 
HETATM    8  C7  UNL     1     -31.077  -2.732  10.175  1.00  0.00     0.007 A 
HETATM    9  C8  UNL     1     -31.738  -1.415   9.865  1.00  0.00     0.068 C 
HETATM   10  N2  UNL     1     -30.059  -3.182   9.421  1.00  0.00    -0.363 N 
ATOM     11  H2  UNL     1     -29.749  -2.609   8.636  1.00  0.00     0.165 HD
ENDROOT
BRANCH   1  12
HETATM   12  C2  UNL     1     -28.325  -4.713   8.733  1.00  0.00     0.052 C 
HETATM   13  C1  UNL     1     -27.947  -3.582   7.814  1.00  0.00     0.011 C 
ENDBRANCH   1  12
TORSDOF 1
ENDMDL
MODEL 2
REMARK VINA RESULT: -5.232613603      1.435      2.852
REMARK  1 active torsions:
REMARK  status: ('A' for Active; 'I' for Inactive)
REMARK    1  A    between atoms: C2_2  and  C3_3 
ROOT
HETATM    1  C3  UNL     1     -30.046  -4.663  10.600  1.00  0.00     0.011 A 
HETATM    2  C4  UNL     1     -30.283  -3.349  10.306  1.00  0.00     0.053 A 
HETATM    3  C5  UNL     1     -31.152  -2.616  11.084  1.00  0.00     0.029 A 
HETATM    4  N1  UNL     1     -31.397  -1.364  10.828  1.00  0.00    -0.399 N 
ATOM      5  H11 UNL     1     -32.040  -0.821  11.404  1.00  0.00     0.156 HD
ATOM      6  H12 UNL     1     -30.931  -0.927  10.033  1.00  0.00     0.156 HD
HETATM    7  C6  UNL     1     -31.781  -3.204  12.155  1.00  0.00     0.053 A 
HETATM    8  C7  UNL     1     -31.530  -4.531  12.439  1.00  0.00     0.007 A 
HETATM    9  C8  UNL     1     -32.203  -5.205  13.605  1.00  0.00     0.068 C 
HETATM   10  N2  UNL     1     -30.675  -5.210  11.654  1.00  0.00    -0.363 N 
ATOM     11  H2  UNL     1     -30.496  -6.190  11.869  1.00  0.00     0.165 HD
ENDROOT
BRANCH   1  12
HETATM   12  C2  UNL     1     -29.133  -5.534   9.827  1.00  0.00     0.052 C 
HETATM   13  C1  UNL     1     -28.315  -4.758   8.829  1.00  0.00     0.011 C 
ENDBRANCH   1  12
TORSDOF 1
ENDMDL
MODEL 3
REMARK VINA RESULT: -5.090836714      0.532      3.266
REMARK  1 active torsions:
REMARK  status: ('A' for Active; 'I' for Inactive)
REMARK    1  A    between atoms: C2_2  and  C3_3 
ROOT
HETATM    1  C3  UNL     1     -31.195  -2.638  10.286  1.00  0.00     0.011 A 
HETATM    2  C4  UNL     1     -31.597  -3.419  11.334  1.00  0.00     0.053 A 
HETATM    3  C5  UNL     1     -30.968  -4.622  11.576  1.00  0.00     0.029 A 
HETATM    4  N1  UNL     1     -31.329  -5.386  12.565  1.00  0.00    -0.399 N 
ATOM      5  H11 UNL     1     -30.864  -6.276  12.744  1.00  0.00     0.156 HD
ATOM      6  H12 UNL     1     -32.093  -5.078  13.167  1.00  0.00     0.156 HD
HETATM    7  C6  UNL     1     -29.939  -5.036  10.765  1.00  0.00     0.053 A 
HETATM    8  C7  UNL     1     -29.546  -4.235   9.712  1.00  0.00     0.007 A 
HETATM    9  C8  UNL     1     -28.422  -4.660   8.805  1.00  0.00     0.068 C 
HETATM   10  N2  UNL     1     -30.186  -3.070   9.512  1.00  0.00    -0.363 N 
ATOM     11  H2  UNL     1     -29.890  -2.484   8.731  1.00  0.00     0.165 HD
ENDROOT
BRANCH   1  12
HETATM   12  C2  UNL     1     -31.805  -1.334   9.944  1.00  0.00     0.052 C 
HETATM   13  C1  UNL     1     -31.847  -0.397  11.122  1.00  0.00     0.011 C 
ENDBRANCH   1  12
TORSDOF 1
ENDMDL
MODEL 4
REMARK VINA RESULT: -4.738479793      1.332      3.511
REMARK  1 active torsions:
REMARK  status: ('A' for Active; 'I' for Inactive)
REMARK    1  A    between atoms: C2_2  and  C3_3 
ROOT
HETATM    1  C3  UNL     1     -30.445  -2.981   9.427  1.00  0.00     0.011 A 
HETATM    2  C4  UNL     1     -30.435  -4.150  10.138  1.00  0.00     0.053 A 
HETATM    3  C5  UNL     1     -29.443  -5.081   9.916  1.00  0.00     0.029 A 
HETATM    4  N1  UNL     1     -29.408  -6.201  10.577  1.00  0.00    -0.399 N 
ATOM      5  H11 UNL     1     -28.674  -6.890  10.413  1.00  0.00     0.156 HD
ATOM      6  H12 UNL     1     -30.133  -6.382  11.271  1.00  0.00     0.156 HD
HETATM    7  C6  UNL     1     -28.466  -4.837   8.982  1.00  0.00     0.053 A 
HETATM    8  C7  UNL     1     -28.491  -3.653   8.273  1.00  0.00     0.007 A 
HETATM    9  C8  UNL     1     -27.436  -3.354   7.242  1.00  0.00     0.068 C 
HETATM   10  N2  UNL     1     -29.476  -2.772   8.521  1.00  0.00    -0.363 N 
ATOM     11  H2  UNL     1     -29.488  -1.899   7.993  1.00  0.00     0.165 HD
ENDROOT
BRANCH   1  12
HETATM   12  C2  UNL     1     -31.465  -1.921   9.591  1.00  0.00     0.052 C 
HETATM   13  C1  UNL     1     -32.735  -2.443  10.209  1.00  0.00     0.011 C 
ENDBRANCH   1  12
TORSDOF 1
ENDMDL
MODEL 5
REMARK VINA RESULT: -4.660403928      1.692      1.937
REMARK  1 active torsions:
REMARK  status: ('A' for Active; 'I' for Inactive)
REMARK    1  A    between atoms: C2_2  and  C3_3 
ROOT
HETATM    1  C3  UNL     1     -30.444  -4.137   9.751  1.00  0.00     0.011 A 
HETATM    2  C4  UNL     1     -30.372  -4.535  11.057  1.00  0.00     0.053 A 
HETATM    3  C5  UNL     1     -31.506  -4.976  11.705  1.00  0.00     0.029 A 
HETATM    4  N1  UNL     1     -31.467  -5.361  12.948  1.00  0.00    -0.399 N 
ATOM      5  H11 UNL     1     -32.306  -5.688  13.427  1.00  0.00     0.156 HD
ATOM      6  H12 UNL     1     -30.575  -5.332  13.441  1.00  0.00     0.156 HD
HETATM    7  C6  UNL     1     -32.708  -5.016  11.041  1.00  0.00     0.053 A 
HETATM    8  C7  UNL     1     -32.763  -4.611   9.723  1.00  0.00     0.007 A 
HETATM    9  C8  UNL     1     -34.063  -4.642   8.966  1.00  0.00     0.068 C 
HETATM   10  N2  UNL     1     -31.633  -4.188   9.128  1.00  0.00    -0.363 N 
ATOM     11  H2  UNL     1     -31.682  -3.890   8.154  1.00  0.00     0.165 HD
ENDROOT
BRANCH   1  12
HETATM   12  C2  UNL     1     -29.287  -3.648   8.969  1.00  0.00     0.052 C 
HETATM   13  C1  UNL     1     -28.249  -4.718   8.757  1.00  0.00     0.011 C 
ENDBRANCH   1  12
TORSDOF 1
ENDMDL
