MODEL 1
REMARK VINA RESULT: -4.412997248      0.000      0.000
REMARK  1 active torsions:
REMARK  status: ('A' for Active; 'I' for Inactive)
REMARK    1  A    between atoms: C5_9  and  C6_10 
ROOT
HETATM    1  C1  UNL     1     -28.543  -3.310   8.239  1.00  0.00     0.070 C 
HETATM    2  C2  UNL     1     -29.164  -4.149   9.300  1.00  0.00     0.031 A 
HETATM    3  N1  UNL     1     -29.025  -5.457   9.549  1.00  0.00    -0.304 N 
ATOM      4  H1  UNL     1     -28.436  -6.091   9.010  1.00  0.00     0.186 HD
HETATM    5  N2  UNL     1     -29.754  -5.810  10.589  1.00  0.00    -0.304 N 
ATOM      6  H2  UNL     1     -29.816  -6.753  10.974  1.00  0.00     0.186 HD
HETATM    7  C3  UNL     1     -30.415  -4.715  11.070  1.00  0.00     0.031 A 
HETATM    8  C4  UNL     1     -31.325  -4.734  12.229  1.00  0.00     0.070 C 
HETATM    9  C5  UNL     1     -30.055  -3.665  10.270  1.00  0.00    -0.001 A 
ENDROOT
BRANCH   9  10
HETATM   10  C6  UNL     1     -30.493  -2.261  10.368  1.00  0.00     0.128 C 
HETATM   11  S1  UNL     1     -32.219  -1.972   9.973  1.00  0.00    -0.093 SA
ENDBRANCH   9  10
TORSDOF 1
ENDMDL
MODEL 2
REMARK VINA RESULT: -4.372472459      0.101      2.686
REMARK  1 active torsions:
REMARK  status: ('A' for Active; 'I' for Inactive)
REMARK    1  A    between atoms: C5_9  and  C6_10 
ROOT
HETATM    1  C1  UNL     1     -31.356  -4.708  12.271  1.00  0.00     0.070 C 
HETATM    2  C2  UNL     1     -30.431  -4.756  11.106  1.00  0.00     0.031 A 
HETATM    3  N1  UNL     1     -29.753  -5.788  10.591  1.00  0.00    -0.304 N 
ATOM      4  H1  UNL     1     -29.784  -6.741  10.953  1.00  0.00     0.186 HD
HETATM    5  N2  UNL     1     -29.041  -5.403   9.551  1.00  0.00    -0.304 N 
ATOM      6  H2  UNL     1     -28.441  -6.007   8.990  1.00  0.00     0.186 HD
HETATM    7  C3  UNL     1     -29.233  -4.066   9.343  1.00  0.00     0.031 A 
HETATM    8  C4  UNL     1     -28.594  -3.292   8.265  1.00  0.00     0.070 C 
HETATM    9  C5  UNL     1     -30.103  -3.646  10.311  1.00  0.00    -0.001 A 
ENDROOT
BRANCH   9  10
HETATM   10  C6  UNL     1     -30.632  -2.286  10.525  1.00  0.00     0.128 C 
HETATM   11  S1  UNL     1     -32.323  -2.032   9.983  1.00  0.00    -0.093 SA
ENDBRANCH   9  10
TORSDOF 1
ENDMDL
MODEL 3
REMARK VINA RESULT: -4.171423971      1.918      2.463
REMARK  1 active torsions:
REMARK  status: ('A' for Active; 'I' for Inactive)
REMARK    1  A    between atoms: C5_9  and  C6_10 
ROOT
HETATM    1  C1  UNL     1     -29.115  -5.763  10.004  1.00  0.00     0.070 C 
HETATM    2  C2  UNL     1     -30.091  -4.947  10.777  1.00  0.00     0.031 A 
HETATM    3  N1  UNL     1     -30.912  -5.308  11.771  1.00  0.00    -0.304 N 
ATOM      4  H1  UNL     1     -30.981  -6.250  12.154  1.00  0.00     0.186 HD
HETATM    5  N2  UNL     1     -31.619  -4.275  12.185  1.00  0.00    -0.304 N 
ATOM      6  H2  UNL     1     -32.313  -4.297  12.933  1.00  0.00     0.186 HD
HETATM    7  C3  UNL     1     -31.276  -3.171  11.457  1.00  0.00     0.031 A 
HETATM    8  C4  UNL     1     -31.864  -1.834  11.645  1.00  0.00     0.070 C 
HETATM    9  C5  UNL     1     -30.318  -3.578  10.569  1.00  0.00    -0.001 A 
ENDROOT
BRANCH   9  10
HETATM   10  C6  UNL     1     -29.619  -2.765   9.556  1.00  0.00     0.128 C 
HETATM   11  S1  UNL     1     -30.069  -3.114   7.855  1.00  0.00    -0.093 SA
ENDBRANCH   9  10
TORSDOF 1
ENDMDL
MODEL 4
REMARK VINA RESULT: -4.099089432      2.235      3.017
REMARK  1 active torsions:
REMARK  status: ('A' for Active; 'I' for Inactive)
REMARK    1  A    between atoms: C5_9  and  C6_10 
ROOT
HETATM    1  C1  UNL     1     -31.811  -1.442   9.908  1.00  0.00     0.070 C 
HETATM    2  C2  UNL     1     -31.212  -2.726  10.364  1.00  0.00     0.031 A 
HETATM    3  N1  UNL     1     -31.321  -3.352  11.541  1.00  0.00    -0.304 N 
ATOM      4  H1  UNL     1     -31.865  -3.010  12.332  1.00  0.00     0.186 HD
HETATM    5  N2  UNL     1     -30.626  -4.472  11.536  1.00  0.00    -0.304 N 
ATOM      6  H2  UNL     1     -30.553  -5.125  12.317  1.00  0.00     0.186 HD
HETATM    7  C3  UNL     1     -30.021  -4.623  10.320  1.00  0.00     0.031 A 
HETATM    8  C4  UNL     1     -29.163  -5.763   9.953  1.00  0.00     0.070 C 
HETATM    9  C5  UNL     1     -30.379  -3.534   9.574  1.00  0.00    -0.001 A 
ENDROOT
BRANCH   9  10
HETATM   10  C6  UNL     1     -29.989  -3.219   8.187  1.00  0.00     0.128 C 
HETATM   11  S1  UNL     1     -28.232  -3.340   7.843  1.00  0.00    -0.093 SA
ENDBRANCH   9  10
TORSDOF 1
ENDMDL
MODEL 5
REMARK VINA RESULT: -4.083489736      1.100      1.464
REMARK  1 active torsions:
REMARK  status: ('A' for Active; 'I' for Inactive)
REMARK    1  A    between atoms: C5_9  and  C6_10 
ROOT
HETATM    1  C1  UNL     1     -29.222  -4.134   9.134  1.00  0.00     0.070 C 
HETATM    2  C2  UNL     1     -30.034  -4.388  10.355  1.00  0.00     0.031 A 
HETATM    3  N1  UNL     1     -30.256  -5.532  11.014  1.00  0.00    -0.304 N 
ATOM      4  H1  UNL     1     -29.871  -6.438  10.749  1.00  0.00     0.186 HD
HETATM    5  N2  UNL     1     -31.040  -5.323  12.053  1.00  0.00    -0.304 N 
ATOM      6  H2  UNL     1     -31.352  -6.039  12.709  1.00  0.00     0.186 HD
HETATM    7  C3  UNL     1     -31.369  -3.999  12.112  1.00  0.00     0.031 A 
HETATM    8  C4  UNL     1     -32.233  -3.400  13.144  1.00  0.00     0.070 C 
HETATM    9  C5  UNL     1     -30.745  -3.399  11.052  1.00  0.00    -0.001 A 
ENDROOT
BRANCH   9  10
HETATM   10  C6  UNL     1     -30.780  -1.976  10.668  1.00  0.00     0.128 C 
HETATM   11  S1  UNL     1     -32.366  -1.386  10.072  1.00  0.00    -0.093 SA
ENDBRANCH   9  10
TORSDOF 1
ENDMDL
