MODEL 1
REMARK VINA RESULT: -6.090850565      0.000      0.000
REMARK  1 active torsions:
REMARK  status: ('A' for Active; 'I' for Inactive)
REMARK    1  A    between atoms: C3_5  and  C4_6 
ROOT
HETATM    1  C4  UNL     1     -27.581  -4.004   7.407  1.00  0.00     0.093 A 
HETATM    2  C5  UNL     1     -26.937  -2.882   6.926  1.00  0.00     0.141 A 
HETATM    3  N2  UNL     1     -26.183  -3.215   5.856  1.00  0.00    -0.295 N 
ATOM      4  H2  UNL     1     -25.599  -2.589   5.300  1.00  0.00     0.187 HD
HETATM    5  N3  UNL     1     -26.351  -4.504   5.676  1.00  0.00    -0.243 N 
ATOM      6  H3  UNL     1     -25.906  -5.050   4.938  1.00  0.00     0.208 HD
HETATM    7  N4  UNL     1     -27.188  -5.004   6.596  1.00  0.00    -0.283 N 
ATOM      8  H4  UNL     1     -27.478  -5.979   6.669  1.00  0.00     0.188 HD
ENDROOT
BRANCH   1   9
HETATM    9  C3  UNL     1     -28.491  -4.100   8.544  1.00  0.00     0.061 A 
HETATM   10  N1  UNL     1     -29.203  -3.079   9.054  1.00  0.00    -0.364 N 
HETATM   11  C2  UNL     1     -29.950  -3.495  10.105  1.00  0.00     0.088 A 
ATOM     12  H1  UNL     1     -29.183  -2.123   8.699  1.00  0.00     0.165 HD
HETATM   13  C1  UNL     1     -29.708  -4.843  10.279  1.00  0.00     0.019 A 
HETATM   14  C6  UNL     1     -28.804  -5.194   9.304  1.00  0.00     0.033 A 
ENDBRANCH   1   9
TORSDOF 1
ENDMDL
MODEL 2
REMARK VINA RESULT: -6.038473999      0.989      1.310
REMARK  1 active torsions:
REMARK  status: ('A' for Active; 'I' for Inactive)
REMARK    1  A    between atoms: C3_5  and  C4_6 
ROOT
HETATM    1  C4  UNL     1     -27.219  -3.988   6.927  1.00  0.00     0.093 A 
HETATM    2  C5  UNL     1     -26.631  -2.823   6.479  1.00  0.00     0.141 A 
HETATM    3  N2  UNL     1     -25.888  -3.082   5.381  1.00  0.00    -0.295 N 
ATOM      4  H2  UNL     1     -25.343  -2.411   4.839  1.00  0.00     0.187 HD
HETATM    5  N3  UNL     1     -26.009  -4.368   5.152  1.00  0.00    -0.243 N 
ATOM      6  H3  UNL     1     -25.560  -4.866   4.383  1.00  0.00     0.208 HD
HETATM    7  N4  UNL     1     -26.805  -4.938   6.069  1.00  0.00    -0.283 N 
ATOM      8  H4  UNL     1     -27.055  -5.926   6.108  1.00  0.00     0.188 HD
ENDROOT
BRANCH   1   9
HETATM    9  C3  UNL     1     -28.099  -4.165   8.078  1.00  0.00     0.061 A 
HETATM   10  N1  UNL     1     -28.267  -5.315   8.755  1.00  0.00    -0.364 N 
HETATM   11  C2  UNL     1     -29.150  -5.149   9.769  1.00  0.00     0.088 A 
ATOM     12  H1  UNL     1     -27.795  -6.192   8.535  1.00  0.00     0.165 HD
HETATM   13  C1  UNL     1     -29.569  -3.834   9.744  1.00  0.00     0.019 A 
HETATM   14  C6  UNL     1     -28.907  -3.246   8.691  1.00  0.00     0.033 A 
ENDBRANCH   1   9
TORSDOF 1
ENDMDL
MODEL 3
REMARK VINA RESULT: -5.710457366      0.980      1.109
REMARK  1 active torsions:
REMARK  status: ('A' for Active; 'I' for Inactive)
REMARK    1  A    between atoms: C3_5  and  C4_6 
ROOT
HETATM    1  C4  UNL     1     -28.290  -4.019   8.237  1.00  0.00     0.093 A 
HETATM    2  C5  UNL     1     -27.951  -2.864   7.561  1.00  0.00     0.141 A 
HETATM    3  N2  UNL     1     -27.091  -3.159   6.562  1.00  0.00    -0.295 N 
ATOM      4  H2  UNL     1     -26.674  -2.504   5.900  1.00  0.00     0.187 HD
HETATM    5  N3  UNL     1     -26.900  -4.456   6.613  1.00  0.00    -0.243 N 
ATOM      6  H3  UNL     1     -26.295  -4.980   5.980  1.00  0.00     0.208 HD
HETATM    7  N4  UNL     1     -27.610  -4.998   7.613  1.00  0.00    -0.283 N 
ATOM      8  H4  UNL     1     -27.632  -5.988   7.859  1.00  0.00     0.188 HD
ENDROOT
BRANCH   1   9
HETATM    9  C3  UNL     1     -29.188  -4.160   9.379  1.00  0.00     0.061 A 
HETATM   10  N1  UNL     1     -29.920  -3.168   9.917  1.00  0.00    -0.364 N 
HETATM   11  C2  UNL     1     -30.648  -3.625  10.965  1.00  0.00     0.088 A 
ATOM     12  H1  UNL     1     -29.926  -2.205   9.582  1.00  0.00     0.165 HD
HETATM   13  C1  UNL     1     -30.372  -4.970  11.108  1.00  0.00     0.019 A 
HETATM   14  C6  UNL     1     -29.468  -5.278  10.118  1.00  0.00     0.033 A 
ENDBRANCH   1   9
TORSDOF 1
ENDMDL
MODEL 4
REMARK VINA RESULT: -5.513585363      1.554      2.346
REMARK  1 active torsions:
REMARK  status: ('A' for Active; 'I' for Inactive)
REMARK    1  A    between atoms: C3_5  and  C4_6 
ROOT
HETATM    1  C4  UNL     1     -29.124  -3.932   8.859  1.00  0.00     0.093 A 
HETATM    2  C5  UNL     1     -28.006  -4.684   8.561  1.00  0.00     0.141 A 
HETATM    3  N2  UNL     1     -27.509  -4.306   7.364  1.00  0.00    -0.295 N 
ATOM      4  H2  UNL     1     -26.688  -4.689   6.893  1.00  0.00     0.187 HD
HETATM    5  N3  UNL     1     -28.292  -3.348   6.928  1.00  0.00    -0.243 N 
ATOM      6  H3  UNL     1     -28.172  -2.857   6.042  1.00  0.00     0.208 HD
HETATM    7  N4  UNL     1     -29.273  -3.103   7.809  1.00  0.00    -0.283 N 
ATOM      8  H4  UNL     1     -30.009  -2.405   7.701  1.00  0.00     0.188 HD
ENDROOT
BRANCH   1   9
HETATM    9  C3  UNL     1     -29.969  -4.008  10.046  1.00  0.00     0.061 A 
HETATM   10  N1  UNL     1     -30.623  -2.971  10.600  1.00  0.00    -0.364 N 
HETATM   11  C2  UNL     1     -31.319  -3.371  11.691  1.00  0.00     0.088 A 
ATOM     12  H1  UNL     1     -30.598  -2.014  10.246  1.00  0.00     0.165 HD
HETATM   13  C1  UNL     1     -31.103  -4.725  11.848  1.00  0.00     0.019 A 
HETATM   14  C6  UNL     1     -30.266  -5.097  10.821  1.00  0.00     0.033 A 
ENDBRANCH   1   9
TORSDOF 1
ENDMDL
MODEL 5
REMARK VINA RESULT: -5.490670921      1.669      2.338
REMARK  1 active torsions:
REMARK  status: ('A' for Active; 'I' for Inactive)
REMARK    1  A    between atoms: C3_5  and  C4_6 
ROOT
HETATM    1  C4  UNL     1     -28.994  -4.083   8.806  1.00  0.00     0.093 A 
HETATM    2  C5  UNL     1     -29.038  -3.151   7.788  1.00  0.00     0.141 A 
HETATM    3  N2  UNL     1     -28.071  -3.419   6.885  1.00  0.00    -0.295 N 
ATOM      4  H2  UNL     1     -27.870  -2.897   6.031  1.00  0.00     0.187 HD
HETATM    5  N3  UNL     1     -27.443  -4.484   7.324  1.00  0.00    -0.243 N 
ATOM      6  H3  UNL     1     -26.657  -4.931   6.853  1.00  0.00     0.208 HD
HETATM    7  N4  UNL     1     -27.979  -4.904   8.480  1.00  0.00    -0.283 N 
ATOM      8  H4  UNL     1     -27.669  -5.711   9.021  1.00  0.00     0.188 HD
ENDROOT
BRANCH   1   9
HETATM    9  C3  UNL     1     -29.853  -4.170   9.982  1.00  0.00     0.061 A 
HETATM   10  N1  UNL     1     -30.051  -5.279  10.717  1.00  0.00    -0.364 N 
HETATM   11  C2  UNL     1     -30.903  -5.030  11.741  1.00  0.00     0.088 A 
ATOM     12  H1  UNL     1     -29.619  -6.184  10.529  1.00  0.00     0.165 HD
HETATM   13  C1  UNL     1     -31.270  -3.702  11.662  1.00  0.00     0.019 A 
HETATM   14  C6  UNL     1     -30.609  -3.191  10.568  1.00  0.00     0.033 A 
ENDBRANCH   1   9
TORSDOF 1
ENDMDL
