MODEL 1
REMARK VINA RESULT: -3.940917348      0.000      0.000
REMARK  1 active torsions:
REMARK  status: ('A' for Active; 'I' for Inactive)
REMARK    1  A    between atoms: C2_2  and  N1_3 
ROOT
HETATM    1  N1  UNL     1      -7.238  -3.891  16.153  1.00  0.00     0.103 N 
HETATM    2  C3  UNL     1      -7.479  -5.118  15.436  1.00  0.00     0.274 C 
HETATM    3  C4  UNL     1      -6.171  -5.222  14.649  1.00  0.00     0.033 C 
HETATM    4  C5  UNL     1      -6.120  -3.805  14.085  1.00  0.00     0.049 C 
HETATM    5  C6  UNL     1      -6.705  -2.953  15.197  1.00  0.00     0.295 C 
HETATM    6  S1  UNL     1      -5.303  -2.116  16.012  1.00  0.00    -0.059 SA
ENDROOT
BRANCH   1   7
HETATM    7  C2  UNL     1      -8.371  -3.413  16.882  1.00  0.00     0.269 C 
HETATM    8  C1  UNL     1      -9.282  -4.627  17.079  1.00  0.00     0.037 C 
ENDBRANCH   1   7
TORSDOF 1
ENDMDL
MODEL 2
REMARK VINA RESULT: -3.731687121      1.065      2.826
REMARK  1 active torsions:
REMARK  status: ('A' for Active; 'I' for Inactive)
REMARK    1  A    between atoms: C2_2  and  N1_3 
ROOT
HETATM    1  N1  UNL     1      -6.748  -4.158  14.889  1.00  0.00     0.103 N 
HETATM    2  C3  UNL     1      -7.755  -4.854  15.650  1.00  0.00     0.274 C 
HETATM    3  C4  UNL     1      -8.196  -3.730  16.590  1.00  0.00     0.033 C 
HETATM    4  C5  UNL     1      -6.821  -3.265  17.065  1.00  0.00     0.049 C 
HETATM    5  C6  UNL     1      -5.941  -3.433  15.840  1.00  0.00     0.295 C 
HETATM    6  S1  UNL     1      -5.684  -1.766  15.143  1.00  0.00    -0.059 SA
ENDROOT
BRANCH   1   7
HETATM    7  C2  UNL     1      -6.005  -4.999  14.004  1.00  0.00     0.269 C 
HETATM    8  C1  UNL     1      -5.154  -5.900  14.901  1.00  0.00     0.037 C 
ENDBRANCH   1   7
TORSDOF 1
ENDMDL
MODEL 3
REMARK VINA RESULT: -3.697194176      1.665      2.281
REMARK  1 active torsions:
REMARK  status: ('A' for Active; 'I' for Inactive)
REMARK    1  A    between atoms: C2_2  and  N1_3 
ROOT
HETATM    1  N1  UNL     1      -7.259  -4.255  15.514  1.00  0.00     0.103 N 
HETATM    2  C3  UNL     1      -7.220  -3.214  16.511  1.00  0.00     0.274 C 
HETATM    3  C4  UNL     1      -6.044  -2.390  15.984  1.00  0.00     0.033 C 
HETATM    4  C5  UNL     1      -5.038  -3.520  15.774  1.00  0.00     0.049 C 
HETATM    5  C6  UNL     1      -5.896  -4.685  15.316  1.00  0.00     0.295 C 
HETATM    6  S1  UNL     1      -5.655  -4.841  13.514  1.00  0.00    -0.059 SA
ENDROOT
BRANCH   1   7
HETATM    7  C2  UNL     1      -8.175  -5.310  15.812  1.00  0.00     0.269 C 
HETATM    8  C1  UNL     1      -9.114  -4.756  16.886  1.00  0.00     0.037 C 
ENDBRANCH   1   7
TORSDOF 1
ENDMDL
MODEL 4
REMARK VINA RESULT: -3.627665149      1.860      3.321
REMARK  1 active torsions:
REMARK  status: ('A' for Active; 'I' for Inactive)
REMARK    1  A    between atoms: C2_2  and  N1_3 
ROOT
HETATM    1  N1  UNL     1      -5.922  -3.379  15.106  1.00  0.00     0.103 N 
HETATM    2  C3  UNL     1      -7.107  -2.833  15.718  1.00  0.00     0.274 C 
HETATM    3  C4  UNL     1      -7.629  -4.080  16.435  1.00  0.00     0.033 C 
HETATM    4  C5  UNL     1      -7.547  -5.071  15.277  1.00  0.00     0.049 C 
HETATM    5  C6  UNL     1      -6.304  -4.640  14.520  1.00  0.00     0.295 C 
HETATM    6  S1  UNL     1      -4.989  -5.832  14.944  1.00  0.00    -0.059 SA
ENDROOT
BRANCH   1   7
HETATM    7  C2  UNL     1      -5.270  -2.482  14.204  1.00  0.00     0.269 C 
HETATM    8  C1  UNL     1      -5.592  -1.074  14.710  1.00  0.00     0.037 C 
ENDBRANCH   1   7
TORSDOF 1
ENDMDL
MODEL 5
REMARK VINA RESULT: -3.572653706      1.685      2.911
REMARK  1 active torsions:
REMARK  status: ('A' for Active; 'I' for Inactive)
REMARK    1  A    between atoms: C2_2  and  N1_3 
ROOT
HETATM    1  N1  UNL     1      -6.048  -3.145  16.021  1.00  0.00     0.103 N 
HETATM    2  C3  UNL     1      -7.490  -3.147  16.031  1.00  0.00     0.274 C 
HETATM    3  C4  UNL     1      -7.750  -4.651  15.928  1.00  0.00     0.033 C 
HETATM    4  C5  UNL     1      -6.823  -4.972  14.758  1.00  0.00     0.049 C 
HETATM    5  C6  UNL     1      -5.643  -4.042  14.967  1.00  0.00     0.295 C 
HETATM    6  S1  UNL     1      -4.284  -5.058  15.639  1.00  0.00    -0.059 SA
ENDROOT
BRANCH   1   7
HETATM    7  C2  UNL     1      -5.471  -1.840  15.942  1.00  0.00     0.269 C 
HETATM    8  C1  UNL     1      -5.568  -1.430  14.471  1.00  0.00     0.037 C 
ENDBRANCH   1   7
TORSDOF 1
ENDMDL
