MODEL 1
REMARK VINA RESULT: -4.441600013      0.000      0.000
REMARK  1 active torsions:
REMARK  status: ('A' for Active; 'I' for Inactive)
REMARK    1  A    between atoms: C2_2  and  C3_3 
ROOT
HETATM    1  C3  UNL     1      -7.548  -4.288  16.303  1.00  0.00     0.187 C 
HETATM    2  C4  UNL     1      -7.324  -5.209  15.145  1.00  0.00     0.060 C 
HETATM    3  C5  UNL     1      -5.903  -5.424  14.776  1.00  0.00     0.234 C 
HETATM    4  N1  UNL     1      -4.993  -4.420  15.207  1.00  0.00    -0.073 N 
ATOM      5  H11 UNL     1      -4.043  -4.653  14.918  1.00  0.00     0.277 HD
ATOM      6  H12 UNL     1      -4.880  -4.452  16.220  1.00  0.00     0.277 HD
HETATM    7  C6  UNL     1      -5.333  -3.100  14.784  1.00  0.00     0.259 C 
HETATM    8  C7  UNL     1      -6.087  -2.447  15.949  1.00  0.00     0.260 C 
HETATM    9  N2  UNL     1      -7.459  -2.889  15.936  1.00  0.00    -0.069 N 
ATOM     10  H21 UNL     1      -8.051  -2.305  16.527  1.00  0.00     0.277 HD
ATOM     11  H22 UNL     1      -7.908  -2.704  15.039  1.00  0.00     0.277 HD
ENDROOT
BRANCH   1  12
HETATM   12  C2  UNL     1      -8.964  -4.575  16.813  1.00  0.00     0.028 C 
HETATM   13  C1  UNL     1      -9.449  -3.537  17.764  1.00  0.00     0.007 C 
ENDBRANCH   1  12
TORSDOF 1
ENDMDL
MODEL 2
REMARK VINA RESULT: -4.416627746      1.250      2.155
REMARK  1 active torsions:
REMARK  status: ('A' for Active; 'I' for Inactive)
REMARK    1  A    between atoms: C2_2  and  C3_3 
ROOT
HETATM    1  C3  UNL     1      -7.540  -4.537  15.469  1.00  0.00     0.187 C 
HETATM    2  C4  UNL     1      -6.884  -3.612  16.445  1.00  0.00     0.060 C 
HETATM    3  C5  UNL     1      -6.149  -2.475  15.839  1.00  0.00     0.234 C 
HETATM    4  N1  UNL     1      -5.751  -2.646  14.485  1.00  0.00    -0.073 N 
ATOM      5  H11 UNL     1      -5.262  -1.816  14.150  1.00  0.00     0.277 HD
ATOM      6  H12 UNL     1      -6.564  -2.629  13.870  1.00  0.00     0.277 HD
HETATM    7  C6  UNL     1      -4.969  -3.816  14.247  1.00  0.00     0.259 C 
HETATM    8  C7  UNL     1      -5.937  -4.897  13.752  1.00  0.00     0.260 C 
HETATM    9  N2  UNL     1      -6.615  -5.484  14.881  1.00  0.00    -0.069 N 
ATOM     10  H21 UNL     1      -7.076  -6.360  14.633  1.00  0.00     0.277 HD
ATOM     11  H22 UNL     1      -5.956  -5.848  15.570  1.00  0.00     0.277 HD
ENDROOT
BRANCH   1  12
HETATM   12  C2  UNL     1      -8.602  -5.311  16.258  1.00  0.00     0.028 C 
HETATM   13  C1  UNL     1      -9.361  -4.440  17.197  1.00  0.00     0.007 C 
ENDBRANCH   1  12
TORSDOF 1
ENDMDL
MODEL 3
REMARK VINA RESULT: -4.123776474      1.276      2.213
REMARK  1 active torsions:
REMARK  status: ('A' for Active; 'I' for Inactive)
REMARK    1  A    between atoms: C2_2  and  C3_3 
ROOT
HETATM    1  C3  UNL     1      -7.439  -3.456  15.913  1.00  0.00     0.187 C 
HETATM    2  C4  UNL     1      -6.299  -2.607  16.380  1.00  0.00     0.060 C 
HETATM    3  C5  UNL     1      -5.422  -2.082  15.305  1.00  0.00     0.234 C 
HETATM    4  N1  UNL     1      -5.457  -2.793  14.075  1.00  0.00    -0.073 N 
ATOM      5  H11 UNL     1      -4.833  -2.359  13.395  1.00  0.00     0.277 HD
ATOM      6  H12 UNL     1      -6.351  -2.651  13.606  1.00  0.00     0.277 HD
HETATM    7  C6  UNL     1      -5.171  -4.187  14.195  1.00  0.00     0.259 C 
HETATM    8  C7  UNL     1      -6.524  -4.906  14.267  1.00  0.00     0.260 C 
HETATM    9  N2  UNL     1      -7.042  -4.816  15.610  1.00  0.00    -0.069 N 
ATOM     10  H21 UNL     1      -7.803  -5.477  15.767  1.00  0.00     0.277 HD
ATOM     11  H22 UNL     1      -6.379  -5.179  16.296  1.00  0.00     0.277 HD
ENDROOT
BRANCH   1  12
HETATM   12  C2  UNL     1      -8.454  -3.483  17.060  1.00  0.00     0.028 C 
HETATM   13  C1  UNL     1      -9.296  -4.711  17.047  1.00  0.00     0.007 C 
ENDBRANCH   1  12
TORSDOF 1
ENDMDL
MODEL 4
REMARK VINA RESULT: -4.103049013      0.990      1.082
REMARK  1 active torsions:
REMARK  status: ('A' for Active; 'I' for Inactive)
REMARK    1  A    between atoms: C2_2  and  C3_3 
ROOT
HETATM    1  C3  UNL     1      -6.770  -3.583  16.577  1.00  0.00     0.187 C 
HETATM    2  C4  UNL     1      -7.406  -4.473  15.556  1.00  0.00     0.060 C 
HETATM    3  C5  UNL     1      -6.460  -5.275  14.742  1.00  0.00     0.234 C 
HETATM    4  N1  UNL     1      -5.128  -4.782  14.676  1.00  0.00    -0.073 N 
ATOM      5  H11 UNL     1      -4.548  -5.397  14.105  1.00  0.00     0.277 HD
ATOM      6  H12 UNL     1      -4.663  -4.891  15.576  1.00  0.00     0.277 HD
HETATM    7  C6  UNL     1      -5.023  -3.433  14.220  1.00  0.00     0.259 C 
HETATM    8  C7  UNL     1      -4.934  -2.553  15.473  1.00  0.00     0.260 C 
HETATM    9  N2  UNL     1      -6.257  -2.353  16.010  1.00  0.00    -0.069 N 
ATOM     10  H21 UNL     1      -6.280  -1.587  16.684  1.00  0.00     0.277 HD
ATOM     11  H22 UNL     1      -6.893  -1.962  15.314  1.00  0.00     0.277 HD
ENDROOT
BRANCH   1  12
HETATM   12  C2  UNL     1      -7.866  -3.240  17.591  1.00  0.00     0.028 C 
HETATM   13  C1  UNL     1      -9.172  -3.870  17.254  1.00  0.00     0.007 C 
ENDBRANCH   1  12
TORSDOF 1
ENDMDL
MODEL 5
REMARK VINA RESULT: -4.010333496      0.900      1.089
REMARK  1 active torsions:
REMARK  status: ('A' for Active; 'I' for Inactive)
REMARK    1  A    between atoms: C2_2  and  C3_3 
ROOT
HETATM    1  C3  UNL     1      -6.863  -4.411  15.625  1.00  0.00     0.187 C 
HETATM    2  C4  UNL     1      -6.360  -4.901  14.304  1.00  0.00     0.060 C 
HETATM    3  C5  UNL     1      -4.923  -4.647  14.043  1.00  0.00     0.234 C 
HETATM    4  N1  UNL     1      -4.330  -3.601  14.802  1.00  0.00    -0.073 N 
ATOM      5  H11 UNL     1      -3.344  -3.503  14.565  1.00  0.00     0.277 HD
ATOM      6  H12 UNL     1      -4.248  -3.874  15.781  1.00  0.00     0.277 HD
HETATM    7  C6  UNL     1      -4.998  -2.344  14.689  1.00  0.00     0.259 C 
HETATM    8  C7  UNL     1      -5.939  -2.238  15.896  1.00  0.00     0.260 C 
HETATM    9  N2  UNL     1      -7.141  -2.990  15.631  1.00  0.00    -0.069 N 
ATOM     10  H21 UNL     1      -7.888  -2.753  16.285  1.00  0.00     0.277 HD
ATOM     11  H22 UNL     1      -7.592  -2.689  14.767  1.00  0.00     0.277 HD
ENDROOT
BRANCH   1  12
HETATM   12  C2  UNL     1      -8.166  -5.170  15.898  1.00  0.00     0.028 C 
HETATM   13  C1  UNL     1      -9.006  -4.506  16.933  1.00  0.00     0.007 C 
ENDBRANCH   1  12
TORSDOF 1
ENDMDL
