MODEL 1
REMARK VINA RESULT: -5.033548136      0.000      0.000
REMARK  1 active torsions:
REMARK  status: ('A' for Active; 'I' for Inactive)
REMARK    1  A    between atoms: C2_2  and  C3_3 
ROOT
HETATM    1  C3  UNL     1      29.315  -4.214  -8.947  1.00  0.00     0.042 A 
HETATM    2  N1  UNL     1      28.762  -5.397  -9.241  1.00  0.00    -0.263 N 
ATOM      3  H1  UNL     1      28.009  -5.850  -8.723  1.00  0.00     0.194 HD
HETATM    4  O1  UNL     1      29.350  -5.873 -10.306  1.00  0.00    -0.220 OA
HETATM    5  C4  UNL     1      30.282  -5.034 -10.730  1.00  0.00     0.172 A 
HETATM    6  N2  UNL     1      31.063  -5.168 -11.748  1.00  0.00    -0.378 N 
ATOM      7  H21 UNL     1      31.781  -4.522 -12.075  1.00  0.00     0.158 HD
ATOM      8  H22 UNL     1      31.056  -5.970 -12.379  1.00  0.00     0.158 HD
HETATM    9  C5  UNL     1      30.290  -3.951  -9.877  1.00  0.00     0.015 A 
HETATM   10  C6  UNL     1      31.194  -2.779  -9.985  1.00  0.00     0.055 C 
ENDROOT
BRANCH   1  11
HETATM   11  C2  UNL     1      28.947  -3.337  -7.830  1.00  0.00     0.055 C 
HETATM   12  C1  UNL     1      27.631  -3.832  -7.233  1.00  0.00     0.011 C 
ENDBRANCH   1  11
TORSDOF 1
ENDMDL
MODEL 2
REMARK VINA RESULT: -4.999744177      1.203      1.247
REMARK  1 active torsions:
REMARK  status: ('A' for Active; 'I' for Inactive)
REMARK    1  A    between atoms: C2_2  and  C3_3 
ROOT
HETATM    1  C3  UNL     1      29.891  -4.134  -9.743  1.00  0.00     0.042 A 
HETATM    2  N1  UNL     1      29.714  -5.340 -10.297  1.00  0.00    -0.263 N 
ATOM      3  H1  UNL     1      29.074  -6.061  -9.966  1.00  0.00     0.194 HD
HETATM    4  O1  UNL     1      30.501  -5.435 -11.336  1.00  0.00    -0.220 OA
HETATM    5  C4  UNL     1      31.198  -4.320 -11.488  1.00  0.00     0.172 A 
HETATM    6  N2  UNL     1      32.070  -4.051 -12.400  1.00  0.00    -0.378 N 
ATOM      7  H21 UNL     1      32.607  -3.192 -12.518  1.00  0.00     0.158 HD
ATOM      8  H22 UNL     1      32.340  -4.691 -13.147  1.00  0.00     0.158 HD
HETATM    9  C5  UNL     1      30.832  -3.456 -10.478  1.00  0.00     0.015 A 
HETATM   10  C6  UNL     1      31.382  -2.094 -10.272  1.00  0.00     0.055 C 
ENDROOT
BRANCH   1  11
HETATM   11  C2  UNL     1      29.200  -3.613  -8.559  1.00  0.00     0.055 C 
HETATM   12  C1  UNL     1      27.967  -4.475  -8.293  1.00  0.00     0.011 C 
ENDBRANCH   1  11
TORSDOF 1
ENDMDL
MODEL 3
REMARK VINA RESULT: -4.838470511      2.339      2.812
REMARK  1 active torsions:
REMARK  status: ('A' for Active; 'I' for Inactive)
REMARK    1  A    between atoms: C2_2  and  C3_3 
ROOT
HETATM    1  C3  UNL     1      30.186  -4.025 -10.163  1.00  0.00     0.042 A 
HETATM    2  N1  UNL     1      30.068  -2.851  -9.532  1.00  0.00    -0.263 N 
ATOM      3  H1  UNL     1      29.444  -2.652  -8.751  1.00  0.00     0.194 HD
HETATM    4  O1  UNL     1      30.890  -2.001 -10.088  1.00  0.00    -0.220 OA
HETATM    5  C4  UNL     1      31.555  -2.582 -11.074  1.00  0.00     0.172 A 
HETATM    6  N2  UNL     1      32.446  -2.057 -11.845  1.00  0.00    -0.378 N 
ATOM      7  H21 UNL     1      32.959  -2.505 -12.605  1.00  0.00     0.158 HD
ATOM      8  H22 UNL     1      32.763  -1.089 -11.785  1.00  0.00     0.158 HD
HETATM    9  C5  UNL     1      31.127  -3.890 -11.154  1.00  0.00     0.015 A 
HETATM   10  C6  UNL     1      31.610  -4.894 -12.134  1.00  0.00     0.055 C 
ENDROOT
BRANCH   1  11
HETATM   11  C2  UNL     1      29.447  -5.255  -9.854  1.00  0.00     0.055 C 
HETATM   12  C1  UNL     1      28.386  -4.936  -8.803  1.00  0.00     0.011 C 
ENDBRANCH   1  11
TORSDOF 1
ENDMDL
MODEL 4
REMARK VINA RESULT: -4.768292036      1.453      3.330
REMARK  1 active torsions:
REMARK  status: ('A' for Active; 'I' for Inactive)
REMARK    1  A    between atoms: C2_2  and  C3_3 
ROOT
HETATM    1  C3  UNL     1      29.985  -4.829 -10.143  1.00  0.00     0.042 A 
HETATM    2  N1  UNL     1      28.997  -5.667  -9.806  1.00  0.00    -0.263 N 
ATOM      3  H1  UNL     1      28.745  -6.522 -10.301  1.00  0.00     0.194 HD
HETATM    4  O1  UNL     1      28.411  -5.203  -8.735  1.00  0.00    -0.220 OA
HETATM    5  C4  UNL     1      28.986  -4.075  -8.349  1.00  0.00     0.172 A 
HETATM    6  N2  UNL     1      28.678  -3.337  -7.336  1.00  0.00    -0.378 N 
ATOM      7  H21 UNL     1      29.121  -2.468  -7.038  1.00  0.00     0.158 HD
ATOM      8  H22 UNL     1      27.923  -3.540  -6.682  1.00  0.00     0.158 HD
HETATM    9  C5  UNL     1      30.007  -3.800  -9.233  1.00  0.00     0.015 A 
HETATM   10  C6  UNL     1      30.903  -2.620  -9.172  1.00  0.00     0.055 C 
ENDROOT
BRANCH   1  11
HETATM   11  C2  UNL     1      30.898  -4.976 -11.282  1.00  0.00     0.055 C 
HETATM   12  C1  UNL     1      32.136  -5.743 -10.819  1.00  0.00     0.011 C 
ENDBRANCH   1  11
TORSDOF 1
ENDMDL
MODEL 5
REMARK VINA RESULT: -4.749945502      2.266      4.117
REMARK  1 active torsions:
REMARK  status: ('A' for Active; 'I' for Inactive)
REMARK    1  A    between atoms: C2_2  and  C3_3 
ROOT
HETATM    1  C3  UNL     1      30.913  -3.854 -10.785  1.00  0.00     0.042 A 
HETATM    2  N1  UNL     1      31.265  -2.632 -10.369  1.00  0.00    -0.263 N 
ATOM      3  H1  UNL     1      31.942  -2.019 -10.822  1.00  0.00     0.194 HD
HETATM    4  O1  UNL     1      30.594  -2.359  -9.282  1.00  0.00    -0.220 OA
HETATM    5  C4  UNL     1      29.801  -3.370  -8.965  1.00  0.00     0.172 A 
HETATM    6  N2  UNL     1      28.994  -3.458  -7.962  1.00  0.00    -0.378 N 
ATOM      7  H21 UNL     1      28.383  -4.237  -7.718  1.00  0.00     0.158 HD
ATOM      8  H22 UNL     1      28.863  -2.729  -7.261  1.00  0.00     0.158 HD
HETATM    9  C5  UNL     1      29.979  -4.355  -9.912  1.00  0.00     0.015 A 
HETATM   10  C6  UNL     1      29.287  -5.667  -9.928  1.00  0.00     0.055 C 
ENDROOT
BRANCH   1  11
HETATM   11  C2  UNL     1      31.424  -4.548 -11.973  1.00  0.00     0.055 C 
HETATM   12  C1  UNL     1      31.996  -3.510 -12.937  1.00  0.00     0.011 C 
ENDBRANCH   1  11
TORSDOF 1
ENDMDL
