MODEL 1
REMARK VINA RESULT: -4.310563873      0.000      0.000
REMARK  2 active torsions:
REMARK  status: ('A' for Active; 'I' for Inactive)
REMARK    1  A    between atoms: C3_5  and  C4_6 
REMARK    2  A    between atoms: C4_6  and  N2_7 
ROOT
HETATM    1  C1  UNL     1      26.844  -3.537  -6.414  1.00  0.00     0.089 C 
HETATM    2  C2  UNL     1      27.921  -3.803  -7.435  1.00  0.00     0.077 A 
HETATM    3  N1  UNL     1      29.051  -3.102  -7.624  1.00  0.00    -0.347 N 
ATOM      4  H1  UNL     1      29.340  -2.280  -7.095  1.00  0.00     0.167 HD
HETATM    5  C3  UNL     1      29.735  -3.668  -8.629  1.00  0.00     0.058 A 
HETATM    6  C5  UNL     1      29.022  -4.750  -9.085  1.00  0.00     0.031 A 
HETATM    7  C6  UNL     1      29.368  -5.703 -10.192  1.00  0.00     0.070 C 
HETATM    8  N3  UNL     1      27.918  -4.805  -8.333  1.00  0.00    -0.348 N 
ATOM      9  H3  UNL     1      27.182  -5.504  -8.426  1.00  0.00     0.167 HD
ENDROOT
BRANCH   5  10
HETATM   10  C4  UNL     1      31.049  -3.252  -9.209  1.00  0.00     0.288 C 
BRANCH  10  11
HETATM   11  N2  UNL     1      30.784  -2.381 -10.332  1.00  0.00    -0.074 N 
ATOM     12  H23 UNL     1      30.335  -2.865 -11.109  1.00  0.00     0.274 HD
ATOM     13  H22 UNL     1      30.041  -1.709 -10.143  1.00  0.00     0.274 HD
ATOM     14  H21 UNL     1      31.662  -1.936 -10.597  1.00  0.00     0.274 HD
ENDBRANCH  10  11
ENDBRANCH   5  10
TORSDOF 2
ENDMDL
MODEL 2
REMARK VINA RESULT: -4.297198575      2.087      2.971
REMARK  2 active torsions:
REMARK  status: ('A' for Active; 'I' for Inactive)
REMARK    1  A    between atoms: C3_5  and  C4_6 
REMARK    2  A    between atoms: C4_6  and  N2_7 
ROOT
HETATM    1  C1  UNL     1      27.878  -4.470  -8.057  1.00  0.00     0.089 C 
HETATM    2  C2  UNL     1      29.001  -4.216  -9.032  1.00  0.00     0.077 A 
HETATM    3  N1  UNL     1      29.500  -5.073  -9.938  1.00  0.00    -0.347 N 
ATOM      4  H1  UNL     1      29.182  -6.030 -10.093  1.00  0.00     0.167 HD
HETATM    5  C3  UNL     1      30.487  -4.457 -10.602  1.00  0.00     0.058 A 
HETATM    6  C5  UNL     1      30.616  -3.182 -10.107  1.00  0.00     0.031 A 
HETATM    7  C6  UNL     1      31.577  -2.107 -10.522  1.00  0.00     0.070 C 
HETATM    8  N3  UNL     1      29.692  -3.067  -9.147  1.00  0.00    -0.348 N 
ATOM      9  H3  UNL     1      29.534  -2.231  -8.586  1.00  0.00     0.167 HD
ENDROOT
BRANCH   5  10
HETATM   10  C4  UNL     1      31.344  -4.996 -11.703  1.00  0.00     0.288 C 
BRANCH  10  11
HETATM   11  N2  UNL     1      32.123  -6.088 -11.166  1.00  0.00    -0.074 N 
ATOM     12  H23 UNL     1      32.259  -6.017 -10.158  1.00  0.00     0.274 HD
ATOM     13  H22 UNL     1      31.619  -6.974 -11.173  1.00  0.00     0.274 HD
ATOM     14  H21 UNL     1      33.002  -6.129 -11.681  1.00  0.00     0.274 HD
ENDBRANCH  10  11
ENDBRANCH   5  10
TORSDOF 2
ENDMDL
MODEL 3
REMARK VINA RESULT: -4.098900463      1.948      2.421
REMARK  2 active torsions:
REMARK  status: ('A' for Active; 'I' for Inactive)
REMARK    1  A    between atoms: C3_5  and  C4_6 
REMARK    2  A    between atoms: C4_6  and  N2_7 
ROOT
HETATM    1  C1  UNL     1      28.163  -4.574  -8.406  1.00  0.00     0.089 C 
HETATM    2  C2  UNL     1      29.272  -4.211  -9.362  1.00  0.00     0.077 A 
HETATM    3  N1  UNL     1      29.899  -3.028  -9.468  1.00  0.00    -0.347 N 
ATOM      4  H1  UNL     1      29.708  -2.199  -8.906  1.00  0.00     0.167 HD
HETATM    5  C3  UNL     1      30.818  -3.124 -10.438  1.00  0.00     0.058 A 
HETATM    6  C5  UNL     1      30.772  -4.394 -10.958  1.00  0.00     0.031 A 
HETATM    7  C6  UNL     1      31.601  -4.988 -12.059  1.00  0.00     0.070 C 
HETATM    8  N3  UNL     1      29.816  -5.034 -10.278  1.00  0.00    -0.348 N 
ATOM      9  H3  UNL     1      29.539  -6.004 -10.430  1.00  0.00     0.167 HD
ENDROOT
BRANCH   5  10
HETATM   10  C4  UNL     1      31.766  -2.075 -10.927  1.00  0.00     0.288 C 
BRANCH  10  11
HETATM   11  N2  UNL     1      32.162  -1.271  -9.793  1.00  0.00    -0.074 N 
ATOM     12  H23 UNL     1      32.802  -1.759  -9.167  1.00  0.00     0.274 HD
ATOM     13  H22 UNL     1      32.782  -0.504 -10.051  1.00  0.00     0.274 HD
ATOM     14  H21 UNL     1      31.315  -0.954  -9.322  1.00  0.00     0.274 HD
ENDBRANCH  10  11
ENDBRANCH   5  10
TORSDOF 2
ENDMDL
MODEL 4
REMARK VINA RESULT: -4.090840939      2.357      3.475
REMARK  2 active torsions:
REMARK  status: ('A' for Active; 'I' for Inactive)
REMARK    1  A    between atoms: C3_5  and  C4_6 
REMARK    2  A    between atoms: C4_6  and  N2_7 
ROOT
HETATM    1  C1  UNL     1      28.437  -4.963  -8.788  1.00  0.00     0.089 C 
HETATM    2  C2  UNL     1      29.523  -4.366  -9.646  1.00  0.00     0.077 A 
HETATM    3  N1  UNL     1      30.212  -4.975 -10.625  1.00  0.00    -0.347 N 
ATOM      4  H1  UNL     1      30.093  -5.942 -10.927  1.00  0.00     0.167 HD
HETATM    5  C3  UNL     1      31.084  -4.096 -11.137  1.00  0.00     0.058 A 
HETATM    6  C5  UNL     1      30.945  -2.904 -10.468  1.00  0.00     0.031 A 
HETATM    7  C6  UNL     1      31.692  -1.619 -10.674  1.00  0.00     0.070 C 
HETATM    8  N3  UNL     1      29.981  -3.103  -9.563  1.00  0.00    -0.348 N 
ATOM      9  H3  UNL     1      29.643  -2.401  -8.906  1.00  0.00     0.167 HD
ENDROOT
BRANCH   5  10
HETATM   10  C4  UNL     1      32.070  -4.300 -12.244  1.00  0.00     0.288 C 
BRANCH  10  11
HETATM   11  N2  UNL     1      31.595  -5.391 -13.065  1.00  0.00    -0.074 N 
ATOM     12  H23 UNL     1      31.738  -5.226 -14.061  1.00  0.00     0.274 HD
ATOM     13  H22 UNL     1      32.172  -6.228 -12.982  1.00  0.00     0.274 HD
ATOM     14  H21 UNL     1      30.617  -5.559 -12.829  1.00  0.00     0.274 HD
ENDBRANCH  10  11
ENDBRANCH   5  10
TORSDOF 2
ENDMDL
MODEL 5
REMARK VINA RESULT: -3.989621888      1.396      3.704
REMARK  2 active torsions:
REMARK  status: ('A' for Active; 'I' for Inactive)
REMARK    1  A    between atoms: C3_5  and  C4_6 
REMARK    2  A    between atoms: C4_6  and  N2_7 
ROOT
HETATM    1  C1  UNL     1      32.999  -2.282 -10.253  1.00  0.00     0.089 C 
HETATM    2  C2  UNL     1      31.706  -2.990  -9.932  1.00  0.00     0.077 A 
HETATM    3  N1  UNL     1      30.702  -2.538  -9.163  1.00  0.00    -0.347 N 
ATOM      4  H1  UNL     1      30.675  -1.638  -8.683  1.00  0.00     0.167 HD
HETATM    5  C3  UNL     1      29.740  -3.470  -9.135  1.00  0.00     0.058 A 
HETATM    6  C5  UNL     1      30.144  -4.536  -9.903  1.00  0.00     0.031 A 
HETATM    7  C6  UNL     1      29.418  -5.819 -10.183  1.00  0.00     0.070 C 
HETATM    8  N3  UNL     1      31.351  -4.209 -10.376  1.00  0.00    -0.348 N 
ATOM      9  H3  UNL     1      31.919  -4.798 -10.984  1.00  0.00     0.167 HD
ENDROOT
BRANCH   5  10
HETATM   10  C4  UNL     1      28.428  -3.432  -8.418  1.00  0.00     0.288 C 
BRANCH  10  11
HETATM   11  N2  UNL     1      28.699  -3.413  -6.998  1.00  0.00    -0.074 N 
ATOM     12  H23 UNL     1      29.501  -3.987  -6.741  1.00  0.00     0.274 HD
ATOM     13  H22 UNL     1      29.065  -2.516  -6.678  1.00  0.00     0.274 HD
ATOM     14  H21 UNL     1      27.845  -3.687  -6.512  1.00  0.00     0.274 HD
ENDBRANCH  10  11
ENDBRANCH   5  10
TORSDOF 2
ENDMDL
