MODEL 1
REMARK VINA RESULT: -3.921377370      0.000      0.000
REMARK  2 active torsions:
REMARK  status: ('A' for Active; 'I' for Inactive)
REMARK    1  A    between atoms: C4_7  and  C5_8 
REMARK    2  A    between atoms: C5_8  and  N2_9 
ROOT
HETATM    1  C1  UNL     1      31.601  -2.432 -11.135  1.00  0.00     0.078 C 
HETATM    2  C2  UNL     1      31.238  -3.241  -9.902  1.00  0.00     0.219 C 
HETATM    3  C3  UNL     1      32.358  -4.210  -9.537  1.00  0.00     0.078 C 
HETATM    4  N1  UNL     1      30.018  -3.945 -10.183  1.00  0.00    -0.036 N 
ATOM      5  H11 UNL     1      30.141  -4.951 -10.300  1.00  0.00     0.281 HD
ATOM      6  H12 UNL     1      29.643  -3.761 -11.113  1.00  0.00     0.281 HD
HETATM    7  C4  UNL     1      29.101  -3.584  -9.093  1.00  0.00     0.238 C 
HETATM    8  C6  UNL     1      30.087  -3.159  -8.027  1.00  0.00     0.205 C 
HETATM    9  O1  UNL     1      31.010  -2.427  -8.796  1.00  0.00    -0.353 OA
ENDROOT
BRANCH   7  10
HETATM   10  C5  UNL     1      28.368  -4.848  -8.720  1.00  0.00     0.265 C 
BRANCH  10  11
HETATM   11  N2  UNL     1      27.550  -4.537  -7.542  1.00  0.00    -0.077 N 
ATOM     12  H23 UNL     1      27.855  -5.027  -6.701  1.00  0.00     0.274 HD
ATOM     13  H22 UNL     1      27.689  -3.587  -7.197  1.00  0.00     0.274 HD
ATOM     14  H21 UNL     1      26.581  -4.734  -7.793  1.00  0.00     0.274 HD
ENDBRANCH  10  11
ENDBRANCH   7  10
TORSDOF 2
ENDMDL
MODEL 2
REMARK VINA RESULT: -3.821766555      1.508      2.053
REMARK  2 active torsions:
REMARK  status: ('A' for Active; 'I' for Inactive)
REMARK    1  A    between atoms: C4_7  and  C5_8 
REMARK    2  A    between atoms: C5_8  and  N2_9 
ROOT
HETATM    1  C1  UNL     1      32.742  -4.195  -9.440  1.00  0.00     0.078 C 
HETATM    2  C2  UNL     1      31.304  -4.063  -9.911  1.00  0.00     0.219 C 
HETATM    3  C3  UNL     1      31.228  -3.262 -11.208  1.00  0.00     0.078 C 
HETATM    4  N1  UNL     1      30.556  -3.424  -8.865  1.00  0.00    -0.036 N 
ATOM      5  H11 UNL     1      30.281  -2.466  -9.082  1.00  0.00     0.281 HD
ATOM      6  H12 UNL     1      31.111  -3.205  -8.038  1.00  0.00     0.281 HD
HETATM    7  C4  UNL     1      29.422  -4.319  -8.596  1.00  0.00     0.238 C 
HETATM    8  C6  UNL     1      29.353  -5.084  -9.900  1.00  0.00     0.205 C 
HETATM    9  O1  UNL     1      30.720  -5.304 -10.150  1.00  0.00    -0.353 OA
ENDROOT
BRANCH   7  10
HETATM   10  C5  UNL     1      28.221  -3.430  -8.392  1.00  0.00     0.265 C 
BRANCH  10  11
HETATM   11  N2  UNL     1      27.928  -3.430  -6.954  1.00  0.00    -0.077 N 
ATOM     12  H23 UNL     1      27.657  -2.512  -6.599  1.00  0.00     0.274 HD
ATOM     13  H22 UNL     1      27.064  -3.919  -6.721  1.00  0.00     0.274 HD
ATOM     14  H21 UNL     1      28.747  -3.816  -6.484  1.00  0.00     0.274 HD
ENDBRANCH  10  11
ENDBRANCH   7  10
TORSDOF 2
ENDMDL
MODEL 3
REMARK VINA RESULT: -3.693165220      1.974      3.782
REMARK  2 active torsions:
REMARK  status: ('A' for Active; 'I' for Inactive)
REMARK    1  A    between atoms: C4_7  and  C5_8 
REMARK    2  A    between atoms: C5_8  and  N2_9 
ROOT
HETATM    1  C1  UNL     1      29.503  -3.521  -8.025  1.00  0.00     0.078 C 
HETATM    2  C2  UNL     1      30.258  -3.658  -9.336  1.00  0.00     0.219 C 
HETATM    3  C3  UNL     1      29.731  -4.836 -10.148  1.00  0.00     0.078 C 
HETATM    4  N1  UNL     1      31.650  -3.826  -9.025  1.00  0.00    -0.036 N 
ATOM      5  H11 UNL     1      32.000  -4.768  -9.202  1.00  0.00     0.281 HD
ATOM      6  H12 UNL     1      31.852  -3.809  -8.026  1.00  0.00     0.281 HD
HETATM    7  C4  UNL     1      32.348  -2.782  -9.788  1.00  0.00     0.238 C 
HETATM    8  C6  UNL     1      31.330  -2.499 -10.871  1.00  0.00     0.205 C 
HETATM    9  O1  UNL     1      30.137  -2.517 -10.125  1.00  0.00    -0.353 OA
ENDROOT
BRANCH   7  10
HETATM   10  C5  UNL     1      33.599  -3.423 -10.335  1.00  0.00     0.265 C 
BRANCH  10  11
HETATM   11  N2  UNL     1      33.899  -4.575  -9.477  1.00  0.00    -0.077 N 
ATOM     12  H23 UNL     1      33.099  -5.194  -9.342  1.00  0.00     0.274 HD
ATOM     13  H22 UNL     1      34.516  -5.256  -9.920  1.00  0.00     0.274 HD
ATOM     14  H21 UNL     1      34.272  -4.206  -8.603  1.00  0.00     0.274 HD
ENDBRANCH  10  11
ENDBRANCH   7  10
TORSDOF 2
ENDMDL
MODEL 4
REMARK VINA RESULT: -3.688987334      2.340      2.497
REMARK  2 active torsions:
REMARK  status: ('A' for Active; 'I' for Inactive)
REMARK    1  A    between atoms: C4_7  and  C5_8 
REMARK    2  A    between atoms: C5_8  and  N2_9 
ROOT
HETATM    1  C1  UNL     1      31.745  -0.732 -11.182  1.00  0.00     0.078 C 
HETATM    2  C2  UNL     1      31.873  -2.050 -10.437  1.00  0.00     0.219 C 
HETATM    3  C3  UNL     1      33.339  -2.408 -10.212  1.00  0.00     0.078 C 
HETATM    4  N1  UNL     1      31.207  -3.059 -11.212  1.00  0.00    -0.036 N 
ATOM      5  H11 UNL     1      31.842  -3.723 -11.656  1.00  0.00     0.281 HD
ATOM      6  H12 UNL     1      30.784  -2.705 -12.070  1.00  0.00     0.281 HD
HETATM    7  C4  UNL     1      30.246  -3.684 -10.293  1.00  0.00     0.238 C 
HETATM    8  C6  UNL     1      30.866  -3.334  -8.958  1.00  0.00     0.205 C 
HETATM    9  O1  UNL     1      31.257  -2.002  -9.189  1.00  0.00    -0.353 OA
ENDROOT
BRANCH   7  10
HETATM   10  C5  UNL     1      30.294  -5.165 -10.573  1.00  0.00     0.265 C 
BRANCH  10  11
HETATM   11  N2  UNL     1      31.097  -5.344 -11.789  1.00  0.00    -0.077 N 
ATOM     12  H23 UNL     1      31.865  -4.677 -11.865  1.00  0.00     0.274 HD
ATOM     13  H22 UNL     1      31.662  -6.192 -11.775  1.00  0.00     0.274 HD
ATOM     14  H21 UNL     1      30.452  -5.305 -12.579  1.00  0.00     0.274 HD
ENDBRANCH  10  11
ENDBRANCH   7  10
TORSDOF 2
ENDMDL
MODEL 5
REMARK VINA RESULT: -3.660871483      1.363      1.492
REMARK  2 active torsions:
REMARK  status: ('A' for Active; 'I' for Inactive)
REMARK    1  A    between atoms: C4_7  and  C5_8 
REMARK    2  A    between atoms: C5_8  and  N2_9 
ROOT
HETATM    1  C1  UNL     1      31.439  -4.845 -12.084  1.00  0.00     0.078 C 
HETATM    2  C2  UNL     1      31.435  -4.314 -10.661  1.00  0.00     0.219 C 
HETATM    3  C3  UNL     1      32.603  -4.885  -9.863  1.00  0.00     0.078 C 
HETATM    4  N1  UNL     1      30.178  -4.670 -10.063  1.00  0.00    -0.036 N 
ATOM      5  H11 UNL     1      30.252  -5.398  -9.352  1.00  0.00     0.281 HD
ATOM      6  H12 UNL     1      29.555  -5.178 -10.690  1.00  0.00     0.281 HD
HETATM    7  C4  UNL     1      29.615  -3.409  -9.562  1.00  0.00     0.238 C 
HETATM    8  C6  UNL     1      30.869  -2.570  -9.441  1.00  0.00     0.205 C 
HETATM    9  O1  UNL     1      31.541  -2.927 -10.625  1.00  0.00    -0.353 OA
ENDROOT
BRANCH   7  10
HETATM   10  C5  UNL     1      29.006  -3.721  -8.218  1.00  0.00     0.265 C 
BRANCH  10  11
HETATM   11  N2  UNL     1      27.982  -4.749  -8.442  1.00  0.00    -0.077 N 
ATOM     12  H23 UNL     1      27.152  -4.392  -8.917  1.00  0.00     0.274 HD
ATOM     13  H22 UNL     1      28.250  -5.436  -9.146  1.00  0.00     0.274 HD
ATOM     14  H21 UNL     1      27.776  -5.165  -7.534  1.00  0.00     0.274 HD
ENDBRANCH  10  11
ENDBRANCH   7  10
TORSDOF 2
ENDMDL
