MODEL 1
REMARK VINA RESULT: -5.136649565      0.000      0.000
REMARK  3 active torsions:
REMARK  status: ('A' for Active; 'I' for Inactive)
REMARK    1  A    between atoms: C3_5  and  O1_7 
REMARK    2  A    between atoms: O1_7  and  C4_8 
REMARK    3  A    between atoms: C4_8  and  C5_9 
ROOT
HETATM    1  C1  UNL     1      25.255  -4.148  -4.557  1.00  0.00     0.037 C 
HETATM    2  C2  UNL     1      26.084  -4.475  -5.379  1.00  0.00     0.002 C 
HETATM    3  N1  UNL     1      27.053  -4.834  -6.322  1.00  0.00    -0.284 N 
ATOM      4  H1  UNL     1      27.447  -5.774  -6.312  1.00  0.00     0.179 HD
HETATM    5  C3  UNL     1      27.446  -3.992  -7.194  1.00  0.00     0.239 C 
HETATM    6  N2  UNL     1      26.911  -2.692  -7.217  1.00  0.00    -0.056 NA
ENDROOT
BRANCH   5   7
HETATM    7  O1  UNL     1      28.396  -4.370  -8.106  1.00  0.00    -0.324 OA
BRANCH   7   8
HETATM    8  C4  UNL     1      29.456  -3.557  -8.493  1.00  0.00     0.178 C 
BRANCH   8   9
HETATM    9  C5  UNL     1      30.020  -3.945  -9.857  1.00  0.00     0.022 C 
HETATM   10  C6  UNL     1      29.686  -5.385 -10.174  1.00  0.00     0.007 C 
ENDBRANCH   8   9
ENDBRANCH   7   8
ENDBRANCH   5   7
TORSDOF 3
ENDMDL
MODEL 2
REMARK VINA RESULT: -4.817217662      1.055      1.216
REMARK  3 active torsions:
REMARK  status: ('A' for Active; 'I' for Inactive)
REMARK    1  A    between atoms: C3_5  and  O1_7 
REMARK    2  A    between atoms: O1_7  and  C4_8 
REMARK    3  A    between atoms: C4_8  and  C5_9 
ROOT
HETATM    1  C1  UNL     1      25.825  -3.395  -5.191  1.00  0.00     0.037 C 
HETATM    2  C2  UNL     1      26.538  -4.021  -5.946  1.00  0.00     0.002 C 
HETATM    3  N1  UNL     1      27.375  -4.726  -6.817  1.00  0.00    -0.284 N 
ATOM      4  H1  UNL     1      27.670  -5.674  -6.581  1.00  0.00     0.179 HD
HETATM    5  C3  UNL     1      27.771  -4.192  -7.903  1.00  0.00     0.239 C 
HETATM    6  N2  UNL     1      27.372  -2.885  -8.238  1.00  0.00    -0.056 NA
ENDROOT
BRANCH   5   7
HETATM    7  O1  UNL     1      28.591  -4.904  -8.738  1.00  0.00    -0.324 OA
BRANCH   7   8
HETATM    8  C4  UNL     1      29.618  -4.332  -9.479  1.00  0.00     0.178 C 
BRANCH   8   9
HETATM    9  C5  UNL     1      30.206  -5.299 -10.503  1.00  0.00     0.022 C 
HETATM   10  C6  UNL     1      31.113  -4.562 -11.463  1.00  0.00     0.007 C 
ENDBRANCH   8   9
ENDBRANCH   7   8
ENDBRANCH   5   7
TORSDOF 3
ENDMDL
MODEL 3
REMARK VINA RESULT: -4.572497377      1.114      1.297
REMARK  3 active torsions:
REMARK  status: ('A' for Active; 'I' for Inactive)
REMARK    1  A    between atoms: C3_5  and  O1_7 
REMARK    2  A    between atoms: O1_7  and  C4_8 
REMARK    3  A    between atoms: C4_8  and  C5_9 
ROOT
HETATM    1  C1  UNL     1      25.670  -4.392  -5.308  1.00  0.00     0.037 C 
HETATM    2  C2  UNL     1      26.580  -3.808  -5.854  1.00  0.00     0.002 C 
HETATM    3  N1  UNL     1      27.619  -3.132  -6.504  1.00  0.00    -0.284 N 
ATOM      4  H1  UNL     1      28.044  -2.315  -6.067  1.00  0.00     0.179 HD
HETATM    5  C3  UNL     1      28.037  -3.532  -7.639  1.00  0.00     0.239 C 
HETATM    6  N2  UNL     1      27.457  -4.658  -8.252  1.00  0.00    -0.056 NA
ENDROOT
BRANCH   5   7
HETATM    7  O1  UNL     1      29.055  -2.853  -8.253  1.00  0.00    -0.324 OA
BRANCH   7   8
HETATM    8  C4  UNL     1      30.257  -3.442  -8.627  1.00  0.00     0.178 C 
BRANCH   8   9
HETATM    9  C5  UNL     1      30.366  -3.638 -10.136  1.00  0.00     0.022 C 
HETATM   10  C6  UNL     1      30.225  -5.101 -10.490  1.00  0.00     0.007 C 
ENDBRANCH   8   9
ENDBRANCH   7   8
ENDBRANCH   5   7
TORSDOF 3
ENDMDL
MODEL 4
REMARK VINA RESULT: -4.409441569      1.810      4.907
REMARK  3 active torsions:
REMARK  status: ('A' for Active; 'I' for Inactive)
REMARK    1  A    between atoms: C3_5  and  O1_7 
REMARK    2  A    between atoms: O1_7  and  C4_8 
REMARK    3  A    between atoms: C4_8  and  C5_9 
ROOT
HETATM    1  C1  UNL     1      30.470  -5.268 -10.861  1.00  0.00     0.037 C 
HETATM    2  C2  UNL     1      29.728  -4.933  -9.964  1.00  0.00     0.002 C 
HETATM    3  N1  UNL     1      28.870  -4.526  -8.937  1.00  0.00    -0.284 N 
ATOM      4  H1  UNL     1      28.034  -5.072  -8.728  1.00  0.00     0.179 HD
HETATM    5  C3  UNL     1      29.127  -3.479  -8.259  1.00  0.00     0.239 C 
HETATM    6  N2  UNL     1      30.277  -2.718  -8.539  1.00  0.00    -0.056 NA
ENDROOT
BRANCH   5   7
HETATM    7  O1  UNL     1      28.270  -3.102  -7.259  1.00  0.00    -0.324 OA
BRANCH   7   8
HETATM    8  C4  UNL     1      27.191  -3.873  -6.841  1.00  0.00     0.178 C 
BRANCH   8   9
HETATM    9  C5  UNL     1      26.355  -3.174  -5.772  1.00  0.00     0.022 C 
HETATM   10  C6  UNL     1      25.603  -4.191  -4.943  1.00  0.00     0.007 C 
ENDBRANCH   8   9
ENDBRANCH   7   8
ENDBRANCH   5   7
TORSDOF 3
ENDMDL
MODEL 5
REMARK VINA RESULT: -4.245128939      4.019      5.402
REMARK  3 active torsions:
REMARK  status: ('A' for Active; 'I' for Inactive)
REMARK    1  A    between atoms: C3_5  and  O1_7 
REMARK    2  A    between atoms: O1_7  and  C4_8 
REMARK    3  A    between atoms: C4_8  and  C5_9 
ROOT
HETATM    1  C1  UNL     1      29.160  -5.589  -9.776  1.00  0.00     0.037 C 
HETATM    2  C2  UNL     1      29.588  -4.477  -9.552  1.00  0.00     0.002 C 
HETATM    3  N1  UNL     1      30.077  -3.188  -9.314  1.00  0.00    -0.284 N 
ATOM      4  H1  UNL     1      29.778  -2.678  -8.483  1.00  0.00     0.179 HD
HETATM    5  C3  UNL     1      30.894  -2.649 -10.128  1.00  0.00     0.239 C 
HETATM    6  N2  UNL     1      31.313  -3.344 -11.278  1.00  0.00    -0.056 NA
ENDROOT
BRANCH   5   7
HETATM    7  O1  UNL     1      31.357  -1.386  -9.872  1.00  0.00    -0.324 OA
BRANCH   7   8
HETATM    8  C4  UNL     1      32.640  -0.957 -10.194  1.00  0.00     0.178 C 
BRANCH   8   9
HETATM    9  C5  UNL     1      32.641   0.392 -10.908  1.00  0.00     0.022 C 
HETATM   10  C6  UNL     1      31.970   0.275 -12.258  1.00  0.00     0.007 C 
ENDBRANCH   8   9
ENDBRANCH   7   8
ENDBRANCH   5   7
TORSDOF 3
ENDMDL
