MODEL 1
REMARK VINA RESULT: -4.041449575      0.000      0.000
REMARK  1 active torsions:
REMARK  status: ('A' for Active; 'I' for Inactive)
REMARK    1  A    between atoms: C3_4  and  N1_5 
ROOT
HETATM    1  C1  UNL     1      31.361  -4.852 -11.712  1.00  0.00     0.078 C 
HETATM    2  C2  UNL     1      30.397  -4.522 -10.596  1.00  0.00     0.068 A 
HETATM    3  S1  UNL     1      29.244  -5.533  -9.843  1.00  0.00    -0.039 SA
HETATM    4  C3  UNL     1      28.625  -4.387  -8.738  1.00  0.00     0.158 A 
HETATM    5  N2  UNL     1      29.350  -3.299  -9.026  1.00  0.00    -0.278 N 
ATOM      6  H2  UNL     1      29.202  -2.428  -8.517  1.00  0.00     0.189 HD
HETATM    7  N3  UNL     1      30.229  -3.371  -9.949  1.00  0.00    -0.292 N 
HETATM    8  C4  UNL     1      31.074  -2.208 -10.327  1.00  0.00     0.178 C 
ENDROOT
BRANCH   4   9
HETATM    9  N1  UNL     1      27.680  -4.509  -7.829  1.00  0.00    -0.379 N 
ATOM     10  H12 UNL     1      27.417  -3.839  -7.107  1.00  0.00     0.158 HD
ATOM     11  H11 UNL     1      27.030  -5.276  -7.658  1.00  0.00     0.158 HD
ENDBRANCH   4   9
TORSDOF 1
ENDMDL
MODEL 2
REMARK VINA RESULT: -3.778759100      1.768      2.333
REMARK  1 active torsions:
REMARK  status: ('A' for Active; 'I' for Inactive)
REMARK    1  A    between atoms: C3_4  and  N1_5 
ROOT
HETATM    1  C1  UNL     1      31.445  -3.034  -9.597  1.00  0.00     0.078 C 
HETATM    2  C2  UNL     1      30.190  -3.588  -8.963  1.00  0.00     0.068 A 
HETATM    3  S1  UNL     1      29.381  -3.062  -7.553  1.00  0.00    -0.039 SA
HETATM    4  C3  UNL     1      28.113  -4.206  -7.580  1.00  0.00     0.158 A 
HETATM    5  N2  UNL     1      28.399  -4.918  -8.676  1.00  0.00    -0.278 N 
ATOM      6  H2  UNL     1      27.804  -5.696  -8.960  1.00  0.00     0.189 HD
HETATM    7  N3  UNL     1      29.431  -4.607  -9.360  1.00  0.00    -0.292 N 
HETATM    8  C4  UNL     1      29.817  -5.348 -10.589  1.00  0.00     0.178 C 
ENDROOT
BRANCH   4   9
HETATM    9  N1  UNL     1      27.103  -4.371  -6.751  1.00  0.00    -0.379 N 
ATOM     10  H12 UNL     1      27.091  -4.897  -5.877  1.00  0.00     0.158 HD
ATOM     11  H11 UNL     1      26.146  -4.020  -6.804  1.00  0.00     0.158 HD
ENDBRANCH   4   9
TORSDOF 1
ENDMDL
MODEL 3
REMARK VINA RESULT: -3.679170740      1.530      2.097
REMARK  1 active torsions:
REMARK  status: ('A' for Active; 'I' for Inactive)
REMARK    1  A    between atoms: C3_4  and  N1_5 
ROOT
HETATM    1  C1  UNL     1      32.528  -2.564 -10.186  1.00  0.00     0.078 C 
HETATM    2  C2  UNL     1      31.275  -3.362  -9.914  1.00  0.00     0.068 A 
HETATM    3  S1  UNL     1      30.183  -3.228  -8.606  1.00  0.00    -0.039 SA
HETATM    4  C3  UNL     1      29.106  -4.465  -9.083  1.00  0.00     0.158 A 
HETATM    5  N2  UNL     1      29.662  -4.899 -10.220  1.00  0.00    -0.278 N 
ATOM      6  H2  UNL     1      29.233  -5.657 -10.751  1.00  0.00     0.189 HD
HETATM    7  N3  UNL     1      30.739  -4.349 -10.629  1.00  0.00    -0.292 N 
HETATM    8  C4  UNL     1      31.417  -4.773 -11.881  1.00  0.00     0.178 C 
ENDROOT
BRANCH   4   9
HETATM    9  N1  UNL     1      28.006  -4.902  -8.505  1.00  0.00    -0.379 N 
ATOM     10  H12 UNL     1      27.424  -4.417  -7.822  1.00  0.00     0.158 HD
ATOM     11  H11 UNL     1      27.516  -5.790  -8.612  1.00  0.00     0.158 HD
ENDBRANCH   4   9
TORSDOF 1
ENDMDL
MODEL 4
REMARK VINA RESULT: -3.565553943      2.075      3.621
REMARK  1 active torsions:
REMARK  status: ('A' for Active; 'I' for Inactive)
REMARK    1  A    between atoms: C3_4  and  N1_5 
ROOT
HETATM    1  C1  UNL     1      30.223  -2.927  -7.516  1.00  0.00     0.078 C 
HETATM    2  C2  UNL     1      30.321  -3.704  -8.808  1.00  0.00     0.068 A 
HETATM    3  S1  UNL     1      31.593  -3.728  -9.949  1.00  0.00    -0.039 SA
HETATM    4  C3  UNL     1      30.890  -4.830 -11.049  1.00  0.00     0.158 A 
HETATM    5  N2  UNL     1      29.720  -5.105 -10.462  1.00  0.00    -0.278 N 
ATOM      6  H2  UNL     1      29.061  -5.751 -10.896  1.00  0.00     0.189 HD
HETATM    7  N3  UNL     1      29.441  -4.544  -9.349  1.00  0.00    -0.292 N 
HETATM    8  C4  UNL     1      28.163  -4.797  -8.634  1.00  0.00     0.178 C 
ENDROOT
BRANCH   4   9
HETATM    9  N1  UNL     1      31.353  -5.304 -12.187  1.00  0.00    -0.379 N 
ATOM     10  H12 UNL     1      31.587  -4.783 -13.032  1.00  0.00     0.158 HD
ATOM     11  H11 UNL     1      31.571  -6.263 -12.459  1.00  0.00     0.158 HD
ENDBRANCH   4   9
TORSDOF 1
ENDMDL
MODEL 5
REMARK VINA RESULT: -3.525083349      1.880      2.523
REMARK  1 active torsions:
REMARK  status: ('A' for Active; 'I' for Inactive)
REMARK    1  A    between atoms: C3_4  and  N1_5 
ROOT
HETATM    1  C1  UNL     1      32.091  -1.377 -10.191  1.00  0.00     0.078 C 
HETATM    2  C2  UNL     1      31.287  -2.655 -10.234  1.00  0.00     0.068 A 
HETATM    3  S1  UNL     1      30.219  -3.288  -9.060  1.00  0.00    -0.039 SA
HETATM    4  C3  UNL     1      29.771  -4.705  -9.902  1.00  0.00     0.158 A 
HETATM    5  N2  UNL     1      30.476  -4.595 -11.033  1.00  0.00    -0.278 N 
ATOM      6  H2  UNL     1      30.416  -5.313 -11.755  1.00  0.00     0.189 HD
HETATM    7  N3  UNL     1      31.227  -3.575 -11.194  1.00  0.00    -0.292 N 
HETATM    8  C4  UNL     1      32.042  -3.380 -12.422  1.00  0.00     0.178 C 
ENDROOT
BRANCH   4   9
HETATM    9  N1  UNL     1      28.948  -5.674  -9.555  1.00  0.00    -0.379 N 
ATOM     10  H12 UNL     1      29.114  -6.679  -9.596  1.00  0.00     0.158 HD
ATOM     11  H11 UNL     1      28.000  -5.627  -9.182  1.00  0.00     0.158 HD
ENDBRANCH   4   9
TORSDOF 1
ENDMDL
