MODEL 1
REMARK VINA RESULT: -4.036600695      0.000      0.000
REMARK  1 active torsions:
REMARK  status: ('A' for Active; 'I' for Inactive)
REMARK    1  A    between atoms: N1_2  and  C3_4 
ROOT
HETATM    1  C3  UNL     1      30.363  -3.965 -10.426  1.00  0.00     0.696 A 
HETATM    2  N2  UNL     1      29.867  -5.233 -10.412  1.00  0.00    -0.130 N 
ATOM      3  H2  UNL     1      30.142  -5.983 -11.047  1.00  0.00     0.205 HD
HETATM    4  N3  UNL     1      28.973  -5.338  -9.443  1.00  0.00    -0.261 N 
ATOM      5  H3  UNL     1      28.449  -6.183  -9.215  1.00  0.00     0.190 HD
HETATM    6  C4  UNL     1      28.860  -4.167  -8.809  1.00  0.00     0.205 A 
HETATM    7  S1  UNL     1      27.900  -3.764  -7.547  1.00  0.00    -0.039 SA
HETATM    8  N4  UNL     1      29.726  -3.327  -9.427  1.00  0.00    -0.164 N 
ATOM      9  H4  UNL     1      29.874  -2.351  -9.171  1.00  0.00     0.186 HD
ENDROOT
BRANCH   1  10
HETATM   10  N1  UNL     1      31.348  -3.438 -11.314  1.00  0.00    -0.225 N 
HETATM   11  C1  UNL     1      31.845  -2.107 -11.065  1.00  0.00     0.168 C 
HETATM   12  C2  UNL     1      31.848  -4.179 -12.425  1.00  0.00     0.168 C 
ENDBRANCH   1  10
TORSDOF 1
ENDMDL
MODEL 2
REMARK VINA RESULT: -4.033138429      0.077      1.169
REMARK  1 active torsions:
REMARK  status: ('A' for Active; 'I' for Inactive)
REMARK    1  A    between atoms: N1_2  and  C3_4 
ROOT
HETATM    1  C3  UNL     1      30.368  -3.994 -10.437  1.00  0.00     0.696 A 
HETATM    2  N2  UNL     1      29.864  -5.258 -10.411  1.00  0.00    -0.130 N 
ATOM      3  H2  UNL     1      30.132  -6.015 -11.041  1.00  0.00     0.205 HD
HETATM    4  N3  UNL     1      28.970  -5.348  -9.440  1.00  0.00    -0.261 N 
ATOM      5  H3  UNL     1      28.442  -6.188  -9.204  1.00  0.00     0.190 HD
HETATM    6  C4  UNL     1      28.866  -4.172  -8.816  1.00  0.00     0.205 A 
HETATM    7  S1  UNL     1      27.912  -3.751  -7.556  1.00  0.00    -0.039 SA
HETATM    8  N4  UNL     1      29.737  -3.343  -9.442  1.00  0.00    -0.164 N 
ATOM      9  H4  UNL     1      29.892  -2.365  -9.195  1.00  0.00     0.186 HD
ENDROOT
BRANCH   1  10
HETATM   10  N1  UNL     1      31.355  -3.480 -11.331  1.00  0.00    -0.225 N 
HETATM   11  C1  UNL     1      31.806  -4.330 -12.405  1.00  0.00     0.168 C 
HETATM   12  C2  UNL     1      31.900  -2.169 -11.195  1.00  0.00     0.168 C 
ENDBRANCH   1  10
TORSDOF 1
ENDMDL
MODEL 3
REMARK VINA RESULT: -3.885013487      2.514      3.923
REMARK  1 active torsions:
REMARK  status: ('A' for Active; 'I' for Inactive)
REMARK    1  A    between atoms: N1_2  and  C3_4 
ROOT
HETATM    1  C3  UNL     1      29.987  -4.199  -9.752  1.00  0.00     0.696 A 
HETATM    2  N2  UNL     1      30.014  -5.379 -10.431  1.00  0.00    -0.130 N 
ATOM      3  H2  UNL     1      29.521  -6.229 -10.158  1.00  0.00     0.205 HD
HETATM    4  N3  UNL     1      30.782  -5.246 -11.500  1.00  0.00    -0.261 N 
ATOM      5  H3  UNL     1      30.973  -5.981 -12.181  1.00  0.00     0.190 HD
HETATM    6  C4  UNL     1      31.269  -4.003 -11.551  1.00  0.00     0.205 A 
HETATM    7  S1  UNL     1      32.262  -3.327 -12.661  1.00  0.00    -0.039 SA
HETATM    8  N4  UNL     1      30.769  -3.366 -10.464  1.00  0.00    -0.164 N 
ATOM      9  H4  UNL     1      30.958  -2.393 -10.220  1.00  0.00     0.186 HD
ENDROOT
BRANCH   1  10
HETATM   10  N1  UNL     1      29.279  -3.917  -8.546  1.00  0.00    -0.225 N 
HETATM   11  C1  UNL     1      27.953  -4.466  -8.393  1.00  0.00     0.168 C 
HETATM   12  C2  UNL     1      29.835  -3.121  -7.502  1.00  0.00     0.168 C 
ENDBRANCH   1  10
TORSDOF 1
ENDMDL
MODEL 4
REMARK VINA RESULT: -3.882002176      2.512      3.809
REMARK  1 active torsions:
REMARK  status: ('A' for Active; 'I' for Inactive)
REMARK    1  A    between atoms: N1_2  and  C3_4 
ROOT
HETATM    1  C3  UNL     1      29.960  -4.204  -9.740  1.00  0.00     0.696 A 
HETATM    2  N2  UNL     1      29.986  -5.379 -10.426  1.00  0.00    -0.130 N 
ATOM      3  H2  UNL     1      29.482  -6.228 -10.166  1.00  0.00     0.205 HD
HETATM    4  N3  UNL     1      30.768  -5.246 -11.484  1.00  0.00    -0.261 N 
ATOM      5  H3  UNL     1      30.962  -5.978 -12.168  1.00  0.00     0.190 HD
HETATM    6  C4  UNL     1      31.266  -4.007 -11.521  1.00  0.00     0.205 A 
HETATM    7  S1  UNL     1      32.278  -3.332 -12.613  1.00  0.00    -0.039 SA
HETATM    8  N4  UNL     1      30.757  -3.373 -10.436  1.00  0.00    -0.164 N 
ATOM      9  H4  UNL     1      30.951  -2.403 -10.183  1.00  0.00     0.186 HD
ENDROOT
BRANCH   1  10
HETATM   10  N1  UNL     1      29.238  -3.925  -8.541  1.00  0.00    -0.225 N 
HETATM   11  C1  UNL     1      29.885  -3.126  -7.529  1.00  0.00     0.168 C 
HETATM   12  C2  UNL     1      27.914  -4.405  -8.319  1.00  0.00     0.168 C 
ENDBRANCH   1  10
TORSDOF 1
ENDMDL
MODEL 5
REMARK VINA RESULT: -3.713207520      2.282      3.259
REMARK  1 active torsions:
REMARK  status: ('A' for Active; 'I' for Inactive)
REMARK    1  A    between atoms: N1_2  and  C3_4 
ROOT
HETATM    1  C3  UNL     1      28.635  -4.009  -8.141  1.00  0.00     0.696 A 
HETATM    2  N2  UNL     1      28.945  -3.038  -7.238  1.00  0.00    -0.130 N 
ATOM      3  H2  UNL     1      29.747  -2.410  -7.296  1.00  0.00     0.205 HD
HETATM    4  N3  UNL     1      28.041  -3.040  -6.273  1.00  0.00    -0.261 N 
ATOM      5  H3  UNL     1      28.037  -2.412  -5.469  1.00  0.00     0.190 HD
HETATM    6  C4  UNL     1      27.133  -3.991  -6.511  1.00  0.00     0.205 A 
HETATM    7  S1  UNL     1      25.817  -4.407  -5.633  1.00  0.00    -0.039 SA
HETATM    8  N4  UNL     1      27.513  -4.582  -7.671  1.00  0.00    -0.164 N 
ATOM      9  H4  UNL     1      27.018  -5.351  -8.122  1.00  0.00     0.186 HD
ENDROOT
BRANCH   1  10
HETATM   10  N1  UNL     1      29.355  -4.338  -9.329  1.00  0.00    -0.225 N 
HETATM   11  C1  UNL     1      30.194  -3.323  -9.918  1.00  0.00     0.168 C 
HETATM   12  C2  UNL     1      29.270  -5.623  -9.941  1.00  0.00     0.168 C 
ENDBRANCH   1  10
TORSDOF 1
ENDMDL
