MODEL 1
REMARK VINA RESULT: -8.137317868      0.000      0.000
REMARK  9 active torsions:
REMARK  status: ('A' for Active; 'I' for Inactive)
REMARK    1  A    between atoms: N1_1  and  C1_4 
REMARK    2  A    between atoms: C2_7  and  S1_8 
REMARK    3  A    between atoms: S1_8  and  C3_9 
REMARK    4  A    between atoms: C3_9  and  C4_10 
REMARK       I    between atoms: C4_10  and  N3_12 
REMARK    5  A    between atoms: N3_12  and  C5_14 
REMARK    6  A    between atoms: C5_14  and  C6_15 
REMARK    7  A    between atoms: C7_19  and  N5_20 
REMARK       I    between atoms: C8_22  and  N7_24 
REMARK    8  A    between atoms: N7_24  and  N8_26 
REMARK    9  A    between atoms: C10_36  and  N11_37 
ROOT
HETATM    1  C4  UNL     1      -0.698 -37.888  23.719  1.00  0.00     0.227 C 
HETATM    2  O1  UNL     1      -0.049 -37.345  24.653  1.00  0.00    -0.273 OA
HETATM    3  N3  UNL     1      -0.518 -37.461  22.378  1.00  0.00    -0.356 N 
ATOM      4  H3  UNL     1      -1.051 -37.918  21.638  1.00  0.00     0.162 HD
ENDROOT
BRANCH   3   5
HETATM    5  C5  UNL     1       0.402 -36.391  22.027  1.00  0.00     0.184 C 
BRANCH   5   6
HETATM    6  C6  UNL     1      -0.425 -35.244  21.527  1.00  0.00     0.354 C 
HETATM    7  N4  UNL     1      -1.847 -35.523  21.463  1.00  0.00    -0.008 N 
HETATM    8  C7  UNL     1      -2.477 -34.389  20.816  1.00  0.00     0.398 C 
ATOM      9  H42 UNL     1      -2.060 -36.411  21.008  1.00  0.00     0.285 HD
ATOM     10  H41 UNL     1      -2.253 -35.741  22.373  1.00  0.00     0.285 HD
HETATM   11  N9  UNL     1      -2.120 -34.448  19.417  1.00  0.00    -0.292 N 
HETATM   12  C9  UNL     1      -0.762 -34.762  19.148  1.00  0.00     0.365 C 
ATOM     13  H9  UNL     1      -2.797 -34.275  18.675  1.00  0.00     0.168 HD
HETATM   14  O4  UNL     1      -0.349 -34.950  17.984  1.00  0.00    -0.238 OA
HETATM   15  O5  UNL     1       0.086 -34.845  20.264  1.00  0.00    -0.268 OA
BRANCH   8  16
HETATM   16  N5  UNL     1      -3.851 -34.205  21.100  1.00  0.00    -0.319 N 
HETATM   17  C8  UNL     1      -4.400 -34.425  22.246  1.00  0.00     0.210 C 
HETATM   18  N6  UNL     1      -3.656 -34.882  23.355  1.00  0.00    -0.062 NA
HETATM   19  N7  UNL     1      -5.805 -34.185  22.346  1.00  0.00    -0.213 N 
ATOM     20  H7  UNL     1      -6.416 -34.848  22.825  1.00  0.00     0.196 HD
ATOM     21  H5  UNL     1      -4.451 -33.876  20.344  1.00  0.00     0.166 HD
BRANCH  19  22
HETATM   22  N8  UNL     1      -6.317 -33.025  21.774  1.00  0.00    -0.036 N 
HETATM   23  O2  UNL     1      -6.400 -31.984  22.453  1.00  0.00    -0.516 OA
HETATM   24  O3  UNL     1      -6.725 -33.060  20.452  1.00  0.00    -0.516 OA
ENDBRANCH  19  22
ENDBRANCH   8  16
ENDBRANCH   5   6
ENDBRANCH   3   5
BRANCH   1  25
HETATM   25  C3  UNL     1      -1.633 -38.962  24.043  1.00  0.00     0.185 C 
BRANCH  25  26
HETATM   26  S1  UNL     1      -3.374 -38.414  24.112  1.00  0.00    -0.084 SA
BRANCH  26  27
HETATM   27  C2  UNL     1      -4.127 -38.601  22.504  1.00  0.00     0.174 A 
HETATM   28  N2  UNL     1      -4.854 -37.629  21.923  1.00  0.00    -0.170 N 
HETATM   29  C1  UNL     1      -5.407 -37.784  20.689  1.00  0.00     0.692 A 
ATOM     30  H2  UNL     1      -4.995 -36.751  22.422  1.00  0.00     0.186 HD
HETATM   31  N12 UNL     1      -5.234 -38.936  20.013  1.00  0.00    -0.023 N 
HETATM   32  C10 UNL     1      -4.503 -39.923  20.589  1.00  0.00     0.692 A 
ATOM     33  H12 UNL     1      -5.644 -39.064  19.087  1.00  0.00     0.203 HD
HETATM   34  N10 UNL     1      -3.969 -39.737  21.813  1.00  0.00    -0.170 N 
ATOM     35  H10 UNL     1      -3.422 -40.490  22.228  1.00  0.00     0.186 HD
BRANCH  29  36
HETATM   36  N1  UNL     1      -6.091 -36.818  20.176  1.00  0.00    -0.234 N 
ATOM     37  H12 UNL     1      -6.836 -36.369  20.710  1.00  0.00     0.174 HD
ATOM     38  H11 UNL     1      -5.885 -36.506  19.228  1.00  0.00     0.174 HD
ENDBRANCH  29  36
BRANCH  32  39
HETATM   39  N11 UNL     1      -4.304 -41.049  19.989  1.00  0.00    -0.234 N 
ATOM     40 2H11 UNL     1      -4.818 -41.889  20.254  1.00  0.00     0.174 HD
ATOM     41 1H11 UNL     1      -3.617 -41.089  19.235  1.00  0.00     0.174 HD
ENDBRANCH  32  39
ENDBRANCH  26  27
ENDBRANCH  25  26
ENDBRANCH   1  25
TORSDOF 9
ENDMDL
MODEL 2
REMARK VINA RESULT: -8.001912439      2.410      4.561
REMARK  9 active torsions:
REMARK  status: ('A' for Active; 'I' for Inactive)
REMARK    1  A    between atoms: N1_1  and  C1_4 
REMARK    2  A    between atoms: C2_7  and  S1_8 
REMARK    3  A    between atoms: S1_8  and  C3_9 
REMARK    4  A    between atoms: C3_9  and  C4_10 
REMARK       I    between atoms: C4_10  and  N3_12 
REMARK    5  A    between atoms: N3_12  and  C5_14 
REMARK    6  A    between atoms: C5_14  and  C6_15 
REMARK    7  A    between atoms: C7_19  and  N5_20 
REMARK       I    between atoms: C8_22  and  N7_24 
REMARK    8  A    between atoms: N7_24  and  N8_26 
REMARK    9  A    between atoms: C10_36  and  N11_37 
ROOT
HETATM    1  C4  UNL     1      -1.060 -37.364  23.875  1.00  0.00     0.227 C 
HETATM    2  O1  UNL     1      -1.901 -36.516  24.280  1.00  0.00    -0.273 OA
HETATM    3  N3  UNL     1      -1.494 -38.588  23.305  1.00  0.00    -0.356 N 
ATOM      4  H3  UNL     1      -0.796 -39.257  22.979  1.00  0.00     0.162 HD
ENDROOT
BRANCH   3   5
HETATM    5  C5  UNL     1      -2.904 -38.919  23.172  1.00  0.00     0.184 C 
BRANCH   5   6
HETATM    6  C6  UNL     1      -3.408 -38.215  21.947  1.00  0.00     0.354 C 
HETATM    7  N4  UNL     1      -4.458 -37.250  22.209  1.00  0.00    -0.008 N 
HETATM    8  C7  UNL     1      -4.941 -36.784  20.924  1.00  0.00     0.398 C 
ATOM      9  H42 UNL     1      -5.200 -37.619  22.804  1.00  0.00     0.285 HD
ATOM     10  H41 UNL     1      -4.161 -36.492  22.824  1.00  0.00     0.285 HD
HETATM   11  N9  UNL     1      -5.698 -37.865  20.338  1.00  0.00    -0.292 N 
HETATM   12  C9  UNL     1      -5.114 -39.153  20.459  1.00  0.00     0.365 C 
ATOM     13  H9  UNL     1      -6.592 -37.713  19.871  1.00  0.00     0.168 HD
HETATM   14  O4  UNL     1      -5.715 -40.185  20.093  1.00  0.00    -0.238 OA
HETATM   15  O5  UNL     1      -3.823 -39.197  21.009  1.00  0.00    -0.268 OA
BRANCH   8  16
HETATM   16  N5  UNL     1      -5.568 -35.515  20.927  1.00  0.00    -0.319 N 
HETATM   17  C8  UNL     1      -6.689 -35.251  21.507  1.00  0.00     0.210 C 
HETATM   18  N6  UNL     1      -7.414 -36.234  22.214  1.00  0.00    -0.062 NA
HETATM   19  N7  UNL     1      -7.170 -33.910  21.403  1.00  0.00    -0.213 N 
ATOM     20  H7  UNL     1      -8.151 -33.720  21.196  1.00  0.00     0.196 HD
ATOM     21  H5  UNL     1      -5.099 -34.754  20.435  1.00  0.00     0.166 HD
BRANCH  19  22
HETATM   22  N8  UNL     1      -6.266 -32.869  21.592  1.00  0.00    -0.036 N 
HETATM   23  O2  UNL     1      -5.220 -32.826  20.915  1.00  0.00    -0.516 OA
HETATM   24  O3  UNL     1      -6.555 -31.900  22.536  1.00  0.00    -0.516 OA
ENDBRANCH  19  22
ENDBRANCH   8  16
ENDBRANCH   5   6
ENDBRANCH   3   5
BRANCH   1  25
HETATM   25  C3  UNL     1       0.363 -37.060  24.000  1.00  0.00     0.185 C 
BRANCH  25  26
HETATM   26  S1  UNL     1       1.021 -36.077  22.608  1.00  0.00    -0.084 SA
BRANCH  26  27
HETATM   27  C2  UNL     1      -0.330 -35.347  21.696  1.00  0.00     0.174 A 
HETATM   28  N2  UNL     1      -0.780 -35.852  20.533  1.00  0.00    -0.170 N 
HETATM   29  C1  UNL     1      -1.821 -35.291  19.861  1.00  0.00     0.692 A 
ATOM     30  H2  UNL     1      -0.327 -36.680  20.144  1.00  0.00     0.186 HD
HETATM   31  N12 UNL     1      -2.433 -34.198  20.355  1.00  0.00    -0.023 N 
HETATM   32  C10 UNL     1      -1.988 -33.680  21.527  1.00  0.00     0.692 A 
ATOM     33  H12 UNL     1      -3.215 -33.769  19.859  1.00  0.00     0.203 HD
HETATM   34  N10 UNL     1      -0.954 -34.261  22.168  1.00  0.00    -0.170 N 
ATOM     35  H10 UNL     1      -0.634 -33.856  23.048  1.00  0.00     0.186 HD
BRANCH  29  36
HETATM   36  N1  UNL     1      -2.216 -35.819  18.751  1.00  0.00    -0.234 N 
ATOM     37  H12 UNL     1      -1.630 -35.774  17.917  1.00  0.00     0.174 HD
ATOM     38  H11 UNL     1      -3.124 -36.282  18.711  1.00  0.00     0.174 HD
ENDBRANCH  29  36
BRANCH  32  39
HETATM   39  N11 UNL     1      -2.535 -32.634  22.049  1.00  0.00    -0.234 N 
ATOM     40 2H11 UNL     1      -2.137 -31.704  21.912  1.00  0.00     0.174 HD
ATOM     41 1H11 UNL     1      -3.380 -32.749  22.608  1.00  0.00     0.174 HD
ENDBRANCH  32  39
ENDBRANCH  26  27
ENDBRANCH  25  26
ENDBRANCH   1  25
TORSDOF 9
ENDMDL
MODEL 3
REMARK VINA RESULT: -7.562664709      2.962      6.011
REMARK  9 active torsions:
REMARK  status: ('A' for Active; 'I' for Inactive)
REMARK    1  A    between atoms: N1_1  and  C1_4 
REMARK    2  A    between atoms: C2_7  and  S1_8 
REMARK    3  A    between atoms: S1_8  and  C3_9 
REMARK    4  A    between atoms: C3_9  and  C4_10 
REMARK       I    between atoms: C4_10  and  N3_12 
REMARK    5  A    between atoms: N3_12  and  C5_14 
REMARK    6  A    between atoms: C5_14  and  C6_15 
REMARK    7  A    between atoms: C7_19  and  N5_20 
REMARK       I    between atoms: C8_22  and  N7_24 
REMARK    8  A    between atoms: N7_24  and  N8_26 
REMARK    9  A    between atoms: C10_36  and  N11_37 
ROOT
HETATM    1  C4  UNL     1      -8.905 -37.895  21.310  1.00  0.00     0.227 C 
HETATM    2  O1  UNL     1      -7.961 -38.294  22.043  1.00  0.00    -0.273 OA
HETATM    3  N3  UNL     1      -9.310 -36.536  21.340  1.00  0.00    -0.356 N 
ATOM      4  H3  UNL     1     -10.073 -36.233  20.734  1.00  0.00     0.162 HD
ENDROOT
BRANCH   3   5
HETATM    5  C5  UNL     1      -8.671 -35.559  22.208  1.00  0.00     0.184 C 
BRANCH   5   6
HETATM    6  C6  UNL     1      -7.410 -35.121  21.524  1.00  0.00     0.354 C 
HETATM    7  N4  UNL     1      -6.198 -35.642  22.125  1.00  0.00    -0.008 N 
HETATM    8  C7  UNL     1      -5.080 -35.004  21.457  1.00  0.00     0.398 C 
ATOM      9  H42 UNL     1      -6.174 -35.530  23.139  1.00  0.00     0.285 HD
ATOM     10  H41 UNL     1      -6.147 -36.661  22.104  1.00  0.00     0.285 HD
HETATM   11  N9  UNL     1      -5.045 -33.632  21.909  1.00  0.00    -0.292 N 
HETATM   12  C9  UNL     1      -6.305 -32.981  21.977  1.00  0.00     0.365 C 
ATOM     13  H9  UNL     1      -4.175 -33.164  22.161  1.00  0.00     0.168 HD
HETATM   14  O4  UNL     1      -6.427 -31.833  22.454  1.00  0.00    -0.238 OA
HETATM   15  O5  UNL     1      -7.401 -33.702  21.477  1.00  0.00    -0.268 OA
BRANCH   8  16
HETATM   16  N5  UNL     1      -3.853 -35.707  21.506  1.00  0.00    -0.319 N 
HETATM   17  C8  UNL     1      -3.699 -36.941  21.169  1.00  0.00     0.210 C 
HETATM   18  N6  UNL     1      -4.775 -37.728  20.704  1.00  0.00    -0.062 NA
HETATM   19  N7  UNL     1      -2.383 -37.485  21.287  1.00  0.00    -0.213 N 
ATOM     20  H7  UNL     1      -2.233 -38.410  21.690  1.00  0.00     0.196 HD
ATOM     21  H5  UNL     1      -3.030 -35.200  21.833  1.00  0.00     0.166 HD
BRANCH  19  22
HETATM   22  N8  UNL     1      -1.312 -36.718  20.837  1.00  0.00    -0.036 N 
HETATM   23  O2  UNL     1      -0.727 -35.949  21.623  1.00  0.00    -0.516 OA
HETATM   24  O3  UNL     1      -0.923 -36.833  19.514  1.00  0.00    -0.516 OA
ENDBRANCH  19  22
ENDBRANCH   8  16
ENDBRANCH   5   6
ENDBRANCH   3   5
BRANCH   1  25
HETATM   25  C3  UNL     1      -9.569 -38.854  20.431  1.00  0.00     0.185 C 
BRANCH  25  26
HETATM   26  S1  UNL     1      -9.100 -40.587  20.762  1.00  0.00    -0.084 SA
BRANCH  26  27
HETATM   27  C2  UNL     1      -7.540 -40.950  19.970  1.00  0.00     0.174 A 
HETATM   28  N2  UNL     1      -7.455 -41.426  18.716  1.00  0.00    -0.170 N 
HETATM   29  C1  UNL     1      -6.256 -41.680  18.123  1.00  0.00     0.692 A 
ATOM     30  H2  UNL     1      -8.312 -41.601  18.192  1.00  0.00     0.186 HD
HETATM   31  N12 UNL     1      -5.110 -41.457  18.795  1.00  0.00    -0.023 N 
HETATM   32  C10 UNL     1      -5.185 -40.977  20.062  1.00  0.00     0.692 A 
ATOM     33  H12 UNL     1      -4.206 -41.644  18.361  1.00  0.00     0.203 HD
HETATM   34  N10 UNL     1      -6.389 -40.735  20.619  1.00  0.00    -0.170 N 
ATOM     35  H10 UNL     1      -6.424 -40.375  21.572  1.00  0.00     0.186 HD
BRANCH  29  36
HETATM   36  N1  UNL     1      -6.231 -42.133  16.914  1.00  0.00    -0.234 N 
ATOM     37  H12 UNL     1      -6.344 -41.501  16.121  1.00  0.00     0.174 HD
ATOM     38  H11 UNL     1      -6.099 -43.131  16.756  1.00  0.00     0.174 HD
ENDBRANCH  29  36
BRANCH  32  39
HETATM   39  N11 UNL     1      -4.121 -40.744  20.755  1.00  0.00    -0.234 N 
ATOM     40 2H11 UNL     1      -4.161 -40.209  21.623  1.00  0.00     0.174 HD
ATOM     41 1H11 UNL     1      -3.228 -41.106  20.421  1.00  0.00     0.174 HD
ENDBRANCH  32  39
ENDBRANCH  26  27
ENDBRANCH  25  26
ENDBRANCH   1  25
TORSDOF 9
ENDMDL
MODEL 4
REMARK VINA RESULT: -7.539353052      2.812      5.308
REMARK  9 active torsions:
REMARK  status: ('A' for Active; 'I' for Inactive)
REMARK    1  A    between atoms: N1_1  and  C1_4 
REMARK    2  A    between atoms: C2_7  and  S1_8 
REMARK    3  A    between atoms: S1_8  and  C3_9 
REMARK    4  A    between atoms: C3_9  and  C4_10 
REMARK       I    between atoms: C4_10  and  N3_12 
REMARK    5  A    between atoms: N3_12  and  C5_14 
REMARK    6  A    between atoms: C5_14  and  C6_15 
REMARK    7  A    between atoms: C7_19  and  N5_20 
REMARK       I    between atoms: C8_22  and  N7_24 
REMARK    8  A    between atoms: N7_24  and  N8_26 
REMARK    9  A    between atoms: C10_36  and  N11_37 
ROOT
HETATM    1  C4  UNL     1      -4.095 -39.745  22.222  1.00  0.00     0.227 C 
HETATM    2  O1  UNL     1      -5.050 -40.367  22.760  1.00  0.00    -0.273 OA
HETATM    3  N3  UNL     1      -4.024 -39.622  20.811  1.00  0.00    -0.356 N 
ATOM      4  H3  UNL     1      -3.245 -39.110  20.397  1.00  0.00     0.162 HD
ENDROOT
BRANCH   3   5
HETATM    5  C5  UNL     1      -5.028 -40.205  19.935  1.00  0.00     0.184 C 
BRANCH   5   6
HETATM    6  C6  UNL     1      -6.084 -39.161  19.719  1.00  0.00     0.354 C 
HETATM    7  N4  UNL     1      -6.080 -38.102  20.709  1.00  0.00    -0.008 N 
HETATM    8  C7  UNL     1      -7.244 -37.276  20.456  1.00  0.00     0.398 C 
ATOM      9  H42 UNL     1      -6.037 -38.450  21.667  1.00  0.00     0.285 HD
ATOM     10  H41 UNL     1      -5.208 -37.571  20.722  1.00  0.00     0.285 HD
HETATM   11  N9  UNL     1      -8.400 -38.037  20.871  1.00  0.00    -0.292 N 
HETATM   12  C9  UNL     1      -8.397 -39.405  20.491  1.00  0.00     0.365 C 
ATOM     13  H9  UNL     1      -9.166 -37.620  21.400  1.00  0.00     0.168 HD
HETATM   14  O4  UNL     1      -9.281 -40.197  20.879  1.00  0.00    -0.238 OA
HETATM   15  O5  UNL     1      -7.344 -39.812  19.656  1.00  0.00    -0.268 OA
BRANCH   8  16
HETATM   16  N5  UNL     1      -7.170 -35.947  20.936  1.00  0.00    -0.319 N 
HETATM   17  C8  UNL     1      -7.036 -35.619  22.175  1.00  0.00     0.210 C 
HETATM   18  N6  UNL     1      -6.948 -36.587  23.199  1.00  0.00    -0.062 NA
HETATM   19  N7  UNL     1      -6.980 -34.222  22.472  1.00  0.00    -0.213 N 
ATOM     20  H7  UNL     1      -7.504 -33.832  23.256  1.00  0.00     0.196 HD
ATOM     21  H5  UNL     1      -7.226 -35.193  20.251  1.00  0.00     0.166 HD
BRANCH  19  22
HETATM   22  N8  UNL     1      -6.192 -33.408  21.664  1.00  0.00    -0.036 N 
HETATM   23  O2  UNL     1      -6.615 -33.045  20.550  1.00  0.00    -0.516 OA
HETATM   24  O3  UNL     1      -4.946 -33.021  22.125  1.00  0.00    -0.516 OA
ENDBRANCH  19  22
ENDBRANCH   8  16
ENDBRANCH   5   6
ENDBRANCH   3   5
BRANCH   1  25
HETATM   25  C3  UNL     1      -3.070 -39.153  23.077  1.00  0.00     0.185 C 
BRANCH  25  26
HETATM   26  S1  UNL     1      -3.274 -37.354  23.318  1.00  0.00    -0.084 SA
BRANCH  26  27
HETATM   27  C2  UNL     1      -2.432 -36.473  22.012  1.00  0.00     0.174 A 
HETATM   28  N2  UNL     1      -2.825 -35.263  21.580  1.00  0.00    -0.170 N 
HETATM   29  C1  UNL     1      -2.161 -34.599  20.595  1.00  0.00     0.692 A 
ATOM     30  H2  UNL     1      -3.646 -34.828  22.002  1.00  0.00     0.186 HD
HETATM   31  N12 UNL     1      -1.075 -35.154  20.022  1.00  0.00    -0.023 N 
HETATM   32  C10 UNL     1      -0.669 -36.376  20.450  1.00  0.00     0.692 A 
ATOM     33  H12 UNL     1      -0.569 -34.666  19.283  1.00  0.00     0.203 HD
HETATM   34  N10 UNL     1      -1.350 -37.005  21.429  1.00  0.00    -0.170 N 
ATOM     35  H10 UNL     1      -1.029 -37.922  21.737  1.00  0.00     0.186 HD
BRANCH  29  36
HETATM   36  N1  UNL     1      -2.579 -33.437  20.220  1.00  0.00    -0.234 N 
ATOM     37  H12 UNL     1      -3.374 -33.350  19.586  1.00  0.00     0.174 HD
ATOM     38  H11 UNL     1      -2.105 -32.601  20.562  1.00  0.00     0.174 HD
ENDBRANCH  29  36
BRANCH  32  39
HETATM   39  N11 UNL     1       0.364 -36.957  19.939  1.00  0.00    -0.234 N 
ATOM     40 2H11 UNL     1       0.432 -37.974  19.896  1.00  0.00     0.174 HD
ATOM     41 1H11 UNL     1       1.122 -36.379  19.574  1.00  0.00     0.174 HD
ENDBRANCH  32  39
ENDBRANCH  26  27
ENDBRANCH  25  26
ENDBRANCH   1  25
TORSDOF 9
ENDMDL
MODEL 5
REMARK VINA RESULT: -7.509664098      2.956      6.015
REMARK  9 active torsions:
REMARK  status: ('A' for Active; 'I' for Inactive)
REMARK    1  A    between atoms: N1_1  and  C1_4 
REMARK    2  A    between atoms: C2_7  and  S1_8 
REMARK    3  A    between atoms: S1_8  and  C3_9 
REMARK    4  A    between atoms: C3_9  and  C4_10 
REMARK       I    between atoms: C4_10  and  N3_12 
REMARK    5  A    between atoms: N3_12  and  C5_14 
REMARK    6  A    between atoms: C5_14  and  C6_15 
REMARK    7  A    between atoms: C7_19  and  N5_20 
REMARK       I    between atoms: C8_22  and  N7_24 
REMARK    8  A    between atoms: N7_24  and  N8_26 
REMARK    9  A    between atoms: C10_36  and  N11_37 
ROOT
HETATM    1  C4  UNL     1      -9.108 -37.846  21.525  1.00  0.00     0.227 C 
HETATM    2  O1  UNL     1      -8.253 -38.186  22.386  1.00  0.00    -0.273 OA
HETATM    3  N3  UNL     1      -9.449 -36.479  21.354  1.00  0.00    -0.356 N 
ATOM      4  H3  UNL     1     -10.140 -36.226  20.648  1.00  0.00     0.162 HD
ENDROOT
BRANCH   3   5
HETATM    5  C5  UNL     1      -8.842 -35.428  22.155  1.00  0.00     0.184 C 
BRANCH   5   6
HETATM    6  C6  UNL     1      -7.579 -35.017  21.458  1.00  0.00     0.354 C 
HETATM    7  N4  UNL     1      -6.381 -35.637  21.988  1.00  0.00    -0.008 N 
HETATM    8  C7  UNL     1      -5.249 -35.020  21.323  1.00  0.00     0.398 C 
ATOM      9  H42 UNL     1      -6.322 -35.588  23.005  1.00  0.00     0.285 HD
ATOM     10  H41 UNL     1      -6.387 -36.654  21.906  1.00  0.00     0.285 HD
HETATM   11  N9  UNL     1      -5.126 -33.682  21.853  1.00  0.00    -0.292 N 
HETATM   12  C9  UNL     1      -6.345 -32.970  22.000  1.00  0.00     0.365 C 
ATOM     13  H9  UNL     1      -4.224 -33.277  22.104  1.00  0.00     0.168 HD
HETATM   14  O4  UNL     1      -6.389 -31.848  22.546  1.00  0.00    -0.238 OA
HETATM   15  O5  UNL     1      -7.493 -33.600  21.493  1.00  0.00    -0.268 OA
BRANCH   8  16
HETATM   16  N5  UNL     1      -4.062 -35.789  21.292  1.00  0.00    -0.319 N 
HETATM   17  C8  UNL     1      -2.951 -35.406  20.761  1.00  0.00     0.210 C 
HETATM   18  N6  UNL     1      -2.815 -34.143  20.145  1.00  0.00    -0.062 NA
HETATM   19  N7  UNL     1      -1.855 -36.320  20.823  1.00  0.00    -0.213 N 
ATOM     20  H7  UNL     1      -1.261 -36.482  20.009  1.00  0.00     0.196 HD
ATOM     21  H5  UNL     1      -4.086 -36.715  21.720  1.00  0.00     0.166 HD
BRANCH  19  22
HETATM   22  N8  UNL     1      -1.619 -36.985  22.023  1.00  0.00    -0.036 N 
HETATM   23  O2  UNL     1      -0.696 -36.607  22.769  1.00  0.00    -0.516 OA
HETATM   24  O3  UNL     1      -2.425 -38.059  22.357  1.00  0.00    -0.516 OA
ENDBRANCH  19  22
ENDBRANCH   8  16
ENDBRANCH   5   6
ENDBRANCH   3   5
BRANCH   1  25
HETATM   25  C3  UNL     1      -9.737 -38.881  20.710  1.00  0.00     0.185 C 
BRANCH  25  26
HETATM   26  S1  UNL     1      -8.924 -40.510  20.850  1.00  0.00    -0.084 SA
BRANCH  26  27
HETATM   27  C2  UNL     1      -7.426 -40.520  19.878  1.00  0.00     0.174 A 
HETATM   28  N2  UNL     1      -7.278 -41.276  18.776  1.00  0.00    -0.170 N 
HETATM   29  C1  UNL     1      -6.134 -41.257  18.039  1.00  0.00     0.692 A 
ATOM     30  H2  UNL     1      -8.045 -41.881  18.483  1.00  0.00     0.186 HD
HETATM   31  N12 UNL     1      -5.107 -40.466  18.406  1.00  0.00    -0.023 N 
HETATM   32  C10 UNL     1      -5.246 -39.699  19.517  1.00  0.00     0.692 A 
ATOM     33  H12 UNL     1      -4.245 -40.444  17.862  1.00  0.00     0.203 HD
HETATM   34  N10 UNL     1      -6.392 -39.741  20.224  1.00  0.00    -0.170 N 
ATOM     35  H10 UNL     1      -6.477 -39.157  21.055  1.00  0.00     0.186 HD
BRANCH  29  36
HETATM   36  N1  UNL     1      -6.046 -42.000  16.987  1.00  0.00    -0.234 N 
ATOM     37  H12 UNL     1      -5.917 -43.008  17.072  1.00  0.00     0.174 HD
ATOM     38  H11 UNL     1      -6.104 -41.569  16.064  1.00  0.00     0.174 HD
ENDBRANCH  29  36
BRANCH  32  39
HETATM   39  N11 UNL     1      -4.296 -38.922  19.918  1.00  0.00    -0.234 N 
ATOM     40 2H11 UNL     1      -3.320 -39.123  19.701  1.00  0.00     0.174 HD
ATOM     41 1H11 UNL     1      -4.536 -38.093  20.462  1.00  0.00     0.174 HD
ENDBRANCH  32  39
ENDBRANCH  26  27
ENDBRANCH  25  26
ENDBRANCH   1  25
TORSDOF 9
ENDMDL
