MODEL 1
REMARK VINA RESULT: -6.958099428      0.000      0.000
REMARK  9 active torsions:
REMARK  status: ('A' for Active; 'I' for Inactive)
REMARK    1  A    between atoms: N1_2  and  C2_5 
REMARK    2  A    between atoms: C2_5  and  C3_6 
REMARK    3  A    between atoms: C4_9  and  N3_10 
REMARK    4  A    between atoms: N3_10  and  C5_12 
REMARK    5  A    between atoms: C5_12  and  C6_13 
REMARK    6  A    between atoms: C5_12  and  C13_37 
REMARK       I    between atoms: C6_13  and  N4_15 
REMARK    7  A    between atoms: N4_15  and  N5_17 
REMARK       I    between atoms: N5_17  and  C7_19 
REMARK       I    between atoms: C7_19  and  N6_21 
REMARK    8  A    between atoms: C10_28  and  N9_29 
REMARK    9  A    between atoms: C13_37  and  N11_39 
ROOT
HETATM    1  C6  UNL     1      -7.739 -35.985  22.043  1.00  0.00     0.261 C 
HETATM    2  O1  UNL     1      -8.043 -34.902  21.484  1.00  0.00    -0.269 OA
HETATM    3  N4  UNL     1      -6.425 -36.218  22.459  1.00  0.00    -0.264 N 
ATOM      4  H4  UNL     1      -6.200 -37.105  22.910  1.00  0.00     0.190 HD
ENDROOT
BRANCH   1   5
HETATM    5  C5  UNL     1      -8.778 -37.053  22.280  1.00  0.00     0.208 C 
BRANCH   5   6
HETATM    6  N3  UNL     1      -9.176 -37.614  21.018  1.00  0.00    -0.347 N 
ATOM      7  H3  UNL     1     -10.115 -37.416  20.674  1.00  0.00     0.163 HD
BRANCH   6   8
HETATM    8  C4  UNL     1      -8.303 -38.450  20.207  1.00  0.00     0.175 A 
HETATM    9  N2  UNL     1      -7.461 -38.272  19.282  1.00  0.00    -0.340 N 
HETATM   10  C3  UNL     1      -7.134 -39.624  19.129  1.00  0.00     0.212 A 
ATOM     11  H2  UNL     1      -7.131 -37.431  18.810  1.00  0.00     0.164 HD
HETATM   12  N12 UNL     1      -8.091 -39.841  20.163  1.00  0.00    -0.340 N 
ATOM     13  H12 UNL     1      -8.461 -40.653  20.657  1.00  0.00     0.164 HD
BRANCH  10  14
HETATM   14  C2  UNL     1      -5.715 -40.038  19.469  1.00  0.00     0.278 C 
BRANCH  14  15
HETATM   15  N1  UNL     1      -5.237 -41.045  18.553  1.00  0.00    -0.075 N 
HETATM   16  C1  UNL     1      -6.266 -41.612  17.733  1.00  0.00     0.267 C 
ATOM     17  H12 UNL     1      -4.731 -41.777  19.053  1.00  0.00     0.276 HD
ATOM     18  H11 UNL     1      -4.478 -40.679  17.978  1.00  0.00     0.276 HD
ENDBRANCH  14  15
ENDBRANCH  10  14
ENDBRANCH   6   8
ENDBRANCH   5   6
BRANCH   5  19
HETATM   19  C13 UNL     1      -9.939 -36.393  23.035  1.00  0.00     0.211 C 
HETATM   20  C14 UNL     1     -10.883 -37.420  23.586  1.00  0.00     0.042 C 
BRANCH  19  21
HETATM   21  N11 UNL     1      -9.425 -35.535  24.068  1.00  0.00    -0.073 N 
ATOM     22 3H11 UNL     1      -8.515 -35.847  24.408  1.00  0.00     0.274 HD
ATOM     23 2H11 UNL     1      -9.143 -34.625  23.704  1.00  0.00     0.274 HD
ATOM     24 1H11 UNL     1     -10.108 -35.452  24.821  1.00  0.00     0.274 HD
ENDBRANCH  19  21
ENDBRANCH   5  19
ENDBRANCH   1   5
BRANCH   3  25
HETATM   25  N5  UNL     1      -5.403 -35.267  22.276  1.00  0.00    -0.248 N 
HETATM   26  C7  UNL     1      -4.322 -35.494  21.347  1.00  0.00     0.347 C 
HETATM   27  O2  UNL     1      -4.383 -36.598  20.729  1.00  0.00    -0.245 OA
HETATM   28  N6  UNL     1      -3.302 -34.531  21.177  1.00  0.00    -0.250 N 
HETATM   29  C8  UNL     1      -3.285 -33.368  21.864  1.00  0.00     0.195 A 
HETATM   30  C12 UNL     1      -2.228 -34.552  20.376  1.00  0.00     0.158 A 
HETATM   31  N7  UNL     1      -2.202 -32.670  21.492  1.00  0.00    -0.336 N 
HETATM   32  C9  UNL     1      -1.536 -33.363  20.587  1.00  0.00     0.155 A 
ATOM     33  H7  UNL     1      -1.937 -31.752  21.850  1.00  0.00     0.168 HD
HETATM   34  N8  UNL     1      -0.396 -33.139  19.888  1.00  0.00    -0.174 N 
HETATM   35  C10 UNL     1       0.088 -33.995  19.018  1.00  0.00     0.680 A 
ATOM     36  H8  UNL     1       0.108 -32.266  20.045  1.00  0.00     0.186 HD
HETATM   37  N10 UNL     1      -0.575 -35.136  18.816  1.00  0.00    -0.154 N 
HETATM   38  C11 UNL     1      -1.728 -35.444  19.474  1.00  0.00     0.290 A 
ATOM     39  H10 UNL     1      -0.204 -35.805  18.141  1.00  0.00     0.187 HD
HETATM   40  O3  UNL     1      -2.306 -36.524  19.246  1.00  0.00    -0.265 OA
ATOM     41  H5  UNL     1      -5.428 -34.398  22.811  1.00  0.00     0.192 HD
BRANCH  35  42
HETATM   42  N9  UNL     1       1.185 -33.745  18.368  1.00  0.00    -0.234 N 
ATOM     43  H92 UNL     1       2.007 -33.388  18.856  1.00  0.00     0.174 HD
ATOM     44  H91 UNL     1       1.249 -33.897  17.362  1.00  0.00     0.174 HD
ENDBRANCH  35  42
ENDBRANCH   3  25
TORSDOF 9
ENDMDL
MODEL 2
REMARK VINA RESULT: -6.938521822      2.297      5.163
REMARK  9 active torsions:
REMARK  status: ('A' for Active; 'I' for Inactive)
REMARK    1  A    between atoms: N1_2  and  C2_5 
REMARK    2  A    between atoms: C2_5  and  C3_6 
REMARK    3  A    between atoms: C4_9  and  N3_10 
REMARK    4  A    between atoms: N3_10  and  C5_12 
REMARK    5  A    between atoms: C5_12  and  C6_13 
REMARK    6  A    between atoms: C5_12  and  C13_37 
REMARK       I    between atoms: C6_13  and  N4_15 
REMARK    7  A    between atoms: N4_15  and  N5_17 
REMARK       I    between atoms: N5_17  and  C7_19 
REMARK       I    between atoms: C7_19  and  N6_21 
REMARK    8  A    between atoms: C10_28  and  N9_29 
REMARK    9  A    between atoms: C13_37  and  N11_39 
ROOT
HETATM    1  C6  UNL     1      -7.742 -37.828  21.578  1.00  0.00     0.261 C 
HETATM    2  O1  UNL     1      -7.170 -38.042  22.677  1.00  0.00    -0.269 OA
HETATM    3  N4  UNL     1      -6.988 -37.566  20.430  1.00  0.00    -0.264 N 
ATOM      4  H4  UNL     1      -7.472 -37.394  19.550  1.00  0.00     0.190 HD
ENDROOT
BRANCH   1   5
HETATM    5  C5  UNL     1      -9.247 -37.851  21.471  1.00  0.00     0.208 C 
BRANCH   5   6
HETATM    6  N3  UNL     1      -9.810 -38.085  22.772  1.00  0.00    -0.347 N 
ATOM      7  H3  UNL     1      -9.649 -38.989  23.215  1.00  0.00     0.163 HD
BRANCH   6   8
HETATM    8  C4  UNL     1     -10.600 -37.094  23.488  1.00  0.00     0.175 A 
HETATM    9  N2  UNL     1     -10.474 -35.880  23.814  1.00  0.00    -0.340 N 
HETATM   10  C3  UNL     1     -11.707 -35.781  24.467  1.00  0.00     0.212 A 
ATOM     11  H2  UNL     1      -9.728 -35.203  23.654  1.00  0.00     0.164 HD
HETATM   12  N12 UNL     1     -11.858 -37.155  24.118  1.00  0.00    -0.340 N 
ATOM     13  H12 UNL     1     -12.570 -37.871  24.262  1.00  0.00     0.164 HD
BRANCH  10  14
HETATM   14  C2  UNL     1     -12.740 -34.848  23.865  1.00  0.00     0.278 C 
BRANCH  14  15
HETATM   15  N1  UNL     1     -13.717 -34.452  24.850  1.00  0.00    -0.075 N 
HETATM   16  C1  UNL     1     -14.965 -35.144  24.731  1.00  0.00     0.267 C 
ATOM     17  H12 UNL     1     -13.861 -33.442  24.829  1.00  0.00     0.276 HD
ATOM     18  H11 UNL     1     -13.339 -34.550  25.792  1.00  0.00     0.276 HD
ENDBRANCH  14  15
ENDBRANCH  10  14
ENDBRANCH   6   8
ENDBRANCH   5   6
BRANCH   5  19
HETATM   19  C13 UNL     1      -9.610 -38.942  20.455  1.00  0.00     0.211 C 
HETATM   20  C14 UNL     1      -9.300 -40.308  20.990  1.00  0.00     0.042 C 
BRANCH  19  21
HETATM   21  N11 UNL     1     -10.992 -38.818  20.079  1.00  0.00    -0.073 N 
ATOM     22 3H11 UNL     1     -11.487 -39.708  20.143  1.00  0.00     0.274 HD
ATOM     23 2H11 UNL     1     -11.532 -38.298  20.771  1.00  0.00     0.274 HD
ATOM     24 1H11 UNL     1     -11.063 -38.406  19.149  1.00  0.00     0.274 HD
ENDBRANCH  19  21
ENDBRANCH   5  19
ENDBRANCH   1   5
BRANCH   3  25
HETATM   25  N5  UNL     1      -5.580 -37.534  20.453  1.00  0.00    -0.248 N 
HETATM   26  C7  UNL     1      -4.860 -36.301  20.669  1.00  0.00     0.347 C 
HETATM   27  O2  UNL     1      -5.597 -35.284  20.834  1.00  0.00    -0.245 OA
HETATM   28  N6  UNL     1      -3.447 -36.283  20.685  1.00  0.00    -0.250 N 
HETATM   29  C8  UNL     1      -2.709 -37.400  20.501  1.00  0.00     0.195 A 
HETATM   30  C12 UNL     1      -2.605 -35.258  20.866  1.00  0.00     0.158 A 
HETATM   31  N7  UNL     1      -1.412 -37.067  20.568  1.00  0.00    -0.336 N 
HETATM   32  C9  UNL     1      -1.313 -35.770  20.789  1.00  0.00     0.155 A 
ATOM     33  H7  UNL     1      -0.629 -37.713  20.465  1.00  0.00     0.168 HD
HETATM   34  N8  UNL     1      -0.265 -34.923  20.940  1.00  0.00    -0.174 N 
HETATM   35  C10 UNL     1      -0.413 -33.636  21.157  1.00  0.00     0.680 A 
ATOM     36  H8  UNL     1       0.680 -35.301  20.883  1.00  0.00     0.186 HD
HETATM   37  N10 UNL     1      -1.652 -33.144  21.232  1.00  0.00    -0.154 N 
HETATM   38  C11 UNL     1      -2.762 -33.922  21.092  1.00  0.00     0.290 A 
ATOM     39  H10 UNL     1      -1.773 -32.146  21.401  1.00  0.00     0.187 HD
HETATM   40  O3  UNL     1      -3.895 -33.411  21.170  1.00  0.00    -0.265 OA
ATOM     41  H5  UNL     1      -5.058 -38.399  20.314  1.00  0.00     0.192 HD
BRANCH  35  42
HETATM   42  N9  UNL     1       0.617 -32.856  21.296  1.00  0.00    -0.234 N 
ATOM     43  H92 UNL     1       0.950 -32.597  22.225  1.00  0.00     0.174 HD
ATOM     44  H91 UNL     1       1.111 -32.486  20.485  1.00  0.00     0.174 HD
ENDBRANCH  35  42
ENDBRANCH   3  25
TORSDOF 9
ENDMDL
MODEL 3
REMARK VINA RESULT: -6.833114091      2.365      5.032
REMARK  9 active torsions:
REMARK  status: ('A' for Active; 'I' for Inactive)
REMARK    1  A    between atoms: N1_2  and  C2_5 
REMARK    2  A    between atoms: C2_5  and  C3_6 
REMARK    3  A    between atoms: C4_9  and  N3_10 
REMARK    4  A    between atoms: N3_10  and  C5_12 
REMARK    5  A    between atoms: C5_12  and  C6_13 
REMARK    6  A    between atoms: C5_12  and  C13_37 
REMARK       I    between atoms: C6_13  and  N4_15 
REMARK    7  A    between atoms: N4_15  and  N5_17 
REMARK       I    between atoms: N5_17  and  C7_19 
REMARK       I    between atoms: C7_19  and  N6_21 
REMARK    8  A    between atoms: C10_28  and  N9_29 
REMARK    9  A    between atoms: C13_37  and  N11_39 
ROOT
HETATM    1  C6  UNL     1      -7.656 -37.096  21.123  1.00  0.00     0.261 C 
HETATM    2  O1  UNL     1      -7.445 -37.544  19.969  1.00  0.00    -0.269 OA
HETATM    3  N4  UNL     1      -6.584 -36.796  21.970  1.00  0.00    -0.264 N 
ATOM      4  H4  UNL     1      -6.778 -36.435  22.904  1.00  0.00     0.190 HD
ENDROOT
BRANCH   1   5
HETATM    5  C5  UNL     1      -9.062 -36.872  21.622  1.00  0.00     0.208 C 
BRANCH   5   6
HETATM    6  N3  UNL     1      -9.013 -36.177  22.879  1.00  0.00    -0.347 N 
ATOM      7  H3  UNL     1      -8.119 -35.799  23.190  1.00  0.00     0.163 HD
BRANCH   6   8
HETATM    8  C4  UNL     1     -10.178 -35.986  23.730  1.00  0.00     0.175 A 
HETATM    9  N2  UNL     1     -11.134 -35.164  23.807  1.00  0.00    -0.340 N 
HETATM   10  C3  UNL     1     -11.749 -35.767  24.911  1.00  0.00     0.212 A 
ATOM     11  H2  UNL     1     -11.376 -34.342  23.255  1.00  0.00     0.164 HD
HETATM   12  N12 UNL     1     -10.670 -36.695  24.843  1.00  0.00    -0.340 N 
ATOM     13  H12 UNL     1     -10.379 -37.517  25.373  1.00  0.00     0.164 HD
BRANCH  10  14
HETATM   14  C2  UNL     1     -13.125 -36.366  24.697  1.00  0.00     0.278 C 
BRANCH  14  15
HETATM   15  N1  UNL     1     -14.102 -35.739  25.555  1.00  0.00    -0.075 N 
HETATM   16  C1  UNL     1     -15.158 -35.085  24.842  1.00  0.00     0.267 C 
ATOM     17  H12 UNL     1     -13.650 -35.092  26.203  1.00  0.00     0.276 HD
ATOM     18  H11 UNL     1     -14.480 -36.411  26.223  1.00  0.00     0.276 HD
ENDBRANCH  14  15
ENDBRANCH  10  14
ENDBRANCH   6   8
ENDBRANCH   5   6
BRANCH   5  19
HETATM   19  C13 UNL     1      -9.729 -38.249  21.725  1.00  0.00     0.211 C 
HETATM   20  C14 UNL     1     -10.419 -38.617  20.446  1.00  0.00     0.042 C 
BRANCH  19  21
HETATM   21  N11 UNL     1      -8.755 -39.237  22.107  1.00  0.00    -0.073 N 
ATOM     22 3H11 UNL     1      -7.917 -39.191  21.527  1.00  0.00     0.274 HD
ATOM     23 2H11 UNL     1      -8.326 -39.023  23.007  1.00  0.00     0.274 HD
ATOM     24 1H11 UNL     1      -9.179 -40.164  22.095  1.00  0.00     0.274 HD
ENDBRANCH  19  21
ENDBRANCH   5  19
ENDBRANCH   1   5
BRANCH   3  25
HETATM   25  N5  UNL     1      -5.245 -36.975  21.572  1.00  0.00    -0.248 N 
HETATM   26  C7  UNL     1      -4.432 -35.861  21.146  1.00  0.00     0.347 C 
HETATM   27  O2  UNL     1      -5.021 -34.741  21.168  1.00  0.00    -0.245 OA
HETATM   28  N6  UNL     1      -3.091 -36.058  20.746  1.00  0.00    -0.250 N 
HETATM   29  C8  UNL     1      -2.511 -37.278  20.739  1.00  0.00     0.195 A 
HETATM   30  C12 UNL     1      -2.183 -35.168  20.323  1.00  0.00     0.158 A 
HETATM   31  N7  UNL     1      -1.247 -37.145  20.312  1.00  0.00    -0.336 N 
HETATM   32  C9  UNL     1      -1.014 -35.872  20.050  1.00  0.00     0.155 A 
ATOM     33  H7  UNL     1      -0.574 -37.905  20.208  1.00  0.00     0.168 HD
HETATM   34  N8  UNL     1       0.068 -35.191  19.600  1.00  0.00    -0.174 N 
HETATM   35  C10 UNL     1       0.066 -33.892  19.410  1.00  0.00     0.680 A 
ATOM     36  H8  UNL     1       0.923 -35.711  19.402  1.00  0.00     0.186 HD
HETATM   37  N10 UNL     1      -1.055 -33.216  19.671  1.00  0.00    -0.154 N 
HETATM   38  C11 UNL     1      -2.189 -33.819  20.126  1.00  0.00     0.290 A 
ATOM     39  H10 UNL     1      -1.062 -32.206  19.525  1.00  0.00     0.187 HD
HETATM   40  O3  UNL     1      -3.208 -33.139  20.354  1.00  0.00    -0.265 OA
ATOM     41  H5  UNL     1      -4.842 -37.912  21.584  1.00  0.00     0.192 HD
BRANCH  35  42
HETATM   42  N9  UNL     1       1.124 -33.275  18.976  1.00  0.00    -0.234 N 
ATOM     43  H92 UNL     1       1.799 -32.881  19.631  1.00  0.00     0.174 HD
ATOM     44  H91 UNL     1       1.301 -33.170  17.977  1.00  0.00     0.174 HD
ENDBRANCH  35  42
ENDBRANCH   3  25
TORSDOF 9
ENDMDL
MODEL 4
REMARK VINA RESULT: -6.670366089      1.642      2.039
REMARK  9 active torsions:
REMARK  status: ('A' for Active; 'I' for Inactive)
REMARK    1  A    between atoms: N1_2  and  C2_5 
REMARK    2  A    between atoms: C2_5  and  C3_6 
REMARK    3  A    between atoms: C4_9  and  N3_10 
REMARK    4  A    between atoms: N3_10  and  C5_12 
REMARK    5  A    between atoms: C5_12  and  C6_13 
REMARK    6  A    between atoms: C5_12  and  C13_37 
REMARK       I    between atoms: C6_13  and  N4_15 
REMARK    7  A    between atoms: N4_15  and  N5_17 
REMARK       I    between atoms: N5_17  and  C7_19 
REMARK       I    between atoms: C7_19  and  N6_21 
REMARK    8  A    between atoms: C10_28  and  N9_29 
REMARK    9  A    between atoms: C13_37  and  N11_39 
ROOT
HETATM    1  C6  UNL     1      -6.934 -37.759  21.229  1.00  0.00     0.261 C 
HETATM    2  O1  UNL     1      -7.008 -37.248  20.084  1.00  0.00    -0.269 OA
HETATM    3  N4  UNL     1      -6.084 -37.208  22.193  1.00  0.00    -0.264 N 
ATOM      4  H4  UNL     1      -6.037 -37.640  23.116  1.00  0.00     0.190 HD
ENDROOT
BRANCH   1   5
HETATM    5  C5  UNL     1      -7.756 -38.971  21.591  1.00  0.00     0.208 C 
BRANCH   5   6
HETATM    6  N3  UNL     1      -7.008 -40.159  21.285  1.00  0.00    -0.347 N 
ATOM      7  H3  UNL     1      -6.619 -40.700  22.056  1.00  0.00     0.163 HD
BRANCH   6   8
HETATM    8  C4  UNL     1      -6.778 -40.627  19.926  1.00  0.00     0.175 A 
HETATM    9  N2  UNL     1      -5.979 -40.358  18.985  1.00  0.00    -0.340 N 
HETATM   10  C3  UNL     1      -6.502 -41.294  18.085  1.00  0.00     0.212 A 
ATOM     11  H2  UNL     1      -5.214 -39.688  18.908  1.00  0.00     0.164 HD
HETATM   12  N12 UNL     1      -7.418 -41.599  19.133  1.00  0.00    -0.340 N 
ATOM     13  H12 UNL     1      -8.200 -42.243  19.256  1.00  0.00     0.164 HD
BRANCH  10  14
HETATM   14  C2  UNL     1      -5.598 -42.438  17.669  1.00  0.00     0.278 C 
BRANCH  14  15
HETATM   15  N1  UNL     1      -5.662 -42.657  16.244  1.00  0.00    -0.075 N 
HETATM   16  C1  UNL     1      -6.926 -43.163  15.798  1.00  0.00     0.267 C 
ATOM     17  H12 UNL     1      -4.902 -43.265  15.938  1.00  0.00     0.276 HD
ATOM     18  H11 UNL     1      -5.415 -41.807  15.737  1.00  0.00     0.276 HD
ENDBRANCH  14  15
ENDBRANCH  10  14
ENDBRANCH   6   8
ENDBRANCH   5   6
BRANCH   5  19
HETATM   19  C13 UNL     1      -9.072 -38.873  20.810  1.00  0.00     0.211 C 
HETATM   20  C14 UNL     1     -10.031 -39.951  21.220  1.00  0.00     0.042 C 
BRANCH  19  21
HETATM   21  N11 UNL     1      -9.642 -37.563  20.975  1.00  0.00    -0.073 N 
ATOM     22 3H11 UNL     1      -9.775 -37.088  20.082  1.00  0.00     0.274 HD
ATOM     23 2H11 UNL     1     -10.619 -37.605  21.267  1.00  0.00     0.274 HD
ATOM     24 1H11 UNL     1      -9.073 -37.016  21.620  1.00  0.00     0.274 HD
ENDBRANCH  19  21
ENDBRANCH   5  19
ENDBRANCH   1   5
BRANCH   3  25
HETATM   25  N5  UNL     1      -5.290 -36.075  21.928  1.00  0.00    -0.248 N 
HETATM   26  C7  UNL     1      -4.087 -36.169  21.136  1.00  0.00     0.347 C 
HETATM   27  O2  UNL     1      -3.826 -37.333  20.712  1.00  0.00    -0.245 OA
HETATM   28  N6  UNL     1      -3.299 -35.023  20.882  1.00  0.00    -0.250 N 
HETATM   29  C8  UNL     1      -3.623 -33.803  21.362  1.00  0.00     0.195 A 
HETATM   30  C12 UNL     1      -2.164 -34.902  20.181  1.00  0.00     0.158 A 
HETATM   31  N7  UNL     1      -2.692 -32.927  20.959  1.00  0.00    -0.336 N 
HETATM   32  C9  UNL     1      -1.787 -33.563  20.238  1.00  0.00     0.155 A 
ATOM     33  H7  UNL     1      -2.684 -31.930  21.175  1.00  0.00     0.168 HD
HETATM   34  N8  UNL     1      -0.656 -33.176  19.600  1.00  0.00    -0.174 N 
HETATM   35  C10 UNL     1       0.105 -34.008  18.927  1.00  0.00     0.680 A 
ATOM     36  H8  UNL     1      -0.384 -32.194  19.643  1.00  0.00     0.186 HD
HETATM   37  N10 UNL     1      -0.255 -35.292  18.872  1.00  0.00    -0.154 N 
HETATM   38  C11 UNL     1      -1.376 -35.769  19.484  1.00  0.00     0.290 A 
ATOM     39  H10 UNL     1       0.332 -35.943  18.350  1.00  0.00     0.187 HD
HETATM   40  O3  UNL     1      -1.665 -36.978  19.400  1.00  0.00    -0.265 OA
ATOM     41  H5  UNL     1      -5.571 -35.169  22.305  1.00  0.00     0.192 HD
BRANCH  35  42
HETATM   42  N9  UNL     1       1.184 -33.598  18.329  1.00  0.00    -0.234 N 
ATOM     43  H92 UNL     1       1.703 -34.223  17.711  1.00  0.00     0.174 HD
ATOM     44  H91 UNL     1       1.533 -32.650  18.463  1.00  0.00     0.174 HD
ENDBRANCH  35  42
ENDBRANCH   3  25
TORSDOF 9
ENDMDL
MODEL 5
REMARK VINA RESULT: -6.648478235      2.636      8.186
REMARK  9 active torsions:
REMARK  status: ('A' for Active; 'I' for Inactive)
REMARK    1  A    between atoms: N1_2  and  C2_5 
REMARK    2  A    between atoms: C2_5  and  C3_6 
REMARK    3  A    between atoms: C4_9  and  N3_10 
REMARK    4  A    between atoms: N3_10  and  C5_12 
REMARK    5  A    between atoms: C5_12  and  C6_13 
REMARK    6  A    between atoms: C5_12  and  C13_37 
REMARK       I    between atoms: C6_13  and  N4_15 
REMARK    7  A    between atoms: N4_15  and  N5_17 
REMARK       I    between atoms: N5_17  and  C7_19 
REMARK       I    between atoms: C7_19  and  N6_21 
REMARK    8  A    between atoms: C10_28  and  N9_29 
REMARK    9  A    between atoms: C13_37  and  N11_39 
ROOT
HETATM    1  C6  UNL     1      -6.436 -36.897  21.230  1.00  0.00     0.261 C 
HETATM    2  O1  UNL     1      -6.696 -37.413  22.346  1.00  0.00    -0.269 OA
HETATM    3  N4  UNL     1      -6.708 -37.595  20.050  1.00  0.00    -0.264 N 
ATOM      4  H4  UNL     1      -6.487 -37.157  19.155  1.00  0.00     0.190 HD
ENDROOT
BRANCH   1   5
HETATM    5  C5  UNL     1      -5.829 -35.519  21.138  1.00  0.00     0.208 C 
BRANCH   5   6
HETATM    6  N3  UNL     1      -4.468 -35.569  21.597  1.00  0.00    -0.347 N 
ATOM      7  H3  UNL     1      -4.286 -35.929  22.534  1.00  0.00     0.163 HD
BRANCH   6   8
HETATM    8  C4  UNL     1      -3.338 -35.132  20.791  1.00  0.00     0.175 A 
HETATM    9  N2  UNL     1      -2.558 -34.138  20.765  1.00  0.00    -0.340 N 
HETATM   10  C3  UNL     1      -1.806 -34.578  19.670  1.00  0.00     0.212 A 
ATOM     11  H2  UNL     1      -2.499 -33.300  21.344  1.00  0.00     0.164 HD
HETATM   12  N12 UNL     1      -2.685 -35.700  19.680  1.00  0.00    -0.340 N 
ATOM     13  H12 UNL     1      -2.795 -36.547  19.122  1.00  0.00     0.164 HD
BRANCH  10  14
HETATM   14  C2  UNL     1      -0.346 -34.904  19.917  1.00  0.00     0.278 C 
BRANCH  14  15
HETATM   15  N1  UNL     1       0.516 -33.976  19.226  1.00  0.00    -0.075 N 
HETATM   16  C1  UNL     1       0.438 -34.074  17.799  1.00  0.00     0.267 C 
ATOM     17  H12 UNL     1       1.481 -34.075  19.543  1.00  0.00     0.276 HD
ATOM     18  H11 UNL     1       0.335 -33.020  19.532  1.00  0.00     0.276 HD
ENDBRANCH  14  15
ENDBRANCH  10  14
ENDBRANCH   6   8
ENDBRANCH   5   6
BRANCH   5  19
HETATM   19  C13 UNL     1      -6.709 -34.581  21.973  1.00  0.00     0.211 C 
HETATM   20  C14 UNL     1      -6.310 -33.148  21.785  1.00  0.00     0.042 C 
BRANCH  19  21
HETATM   21  N11 UNL     1      -8.094 -34.794  21.650  1.00  0.00    -0.073 N 
ATOM     22 3H11 UNL     1      -8.651 -35.006  22.477  1.00  0.00     0.274 HD
ATOM     23 2H11 UNL     1      -8.560 -33.929  21.375  1.00  0.00     0.274 HD
ATOM     24 1H11 UNL     1      -8.176 -35.517  20.936  1.00  0.00     0.274 HD
ENDBRANCH  19  21
ENDBRANCH   5  19
ENDBRANCH   1   5
BRANCH   3  25
HETATM   25  N5  UNL     1      -7.278 -38.882  20.058  1.00  0.00    -0.248 N 
HETATM   26  C7  UNL     1      -6.745 -39.946  19.240  1.00  0.00     0.347 C 
HETATM   27  O2  UNL     1      -5.742 -39.618  18.539  1.00  0.00    -0.245 OA
HETATM   28  N6  UNL     1      -7.330 -41.232  19.256  1.00  0.00    -0.250 N 
HETATM   29  C8  UNL     1      -8.402 -41.528  20.023  1.00  0.00     0.195 A 
HETATM   30  C12 UNL     1      -6.989 -42.337  18.581  1.00  0.00     0.158 A 
HETATM   31  N7  UNL     1      -8.726 -42.813  19.824  1.00  0.00    -0.336 N 
HETATM   32  C9  UNL     1      -7.886 -43.336  18.950  1.00  0.00     0.155 A 
ATOM     33  H7  UNL     1      -9.497 -43.307  20.274  1.00  0.00     0.168 HD
HETATM   34  N8  UNL     1      -7.754 -44.567  18.398  1.00  0.00    -0.174 N 
HETATM   35  C10 UNL     1      -6.817 -44.863  17.527  1.00  0.00     0.680 A 
ATOM     36  H8  UNL     1      -8.412 -45.297  18.671  1.00  0.00     0.186 HD
HETATM   37  N10 UNL     1      -5.957 -43.905  17.172  1.00  0.00    -0.154 N 
HETATM   38  C11 UNL     1      -6.015 -42.641  17.677  1.00  0.00     0.290 A 
ATOM     39  H10 UNL     1      -5.226 -44.130  16.497  1.00  0.00     0.187 HD
HETATM   40  O3  UNL     1      -5.186 -41.785  17.311  1.00  0.00    -0.265 OA
ATOM     41  H5  UNL     1      -8.085 -39.067  20.654  1.00  0.00     0.192 HD
BRANCH  35  42
HETATM   42  N9  UNL     1      -6.724 -46.055  17.019  1.00  0.00    -0.234 N 
ATOM     43  H92 UNL     1      -7.201 -46.286  16.147  1.00  0.00     0.174 HD
ATOM     44  H91 UNL     1      -6.177 -46.783  17.478  1.00  0.00     0.174 HD
ENDBRANCH  35  42
ENDBRANCH   3  25
TORSDOF 9
ENDMDL
