MODEL 1
REMARK VINA RESULT: -8.382919158      0.000      0.000
REMARK  11 active torsions:
REMARK  status: ('A' for Active; 'I' for Inactive)
REMARK    1  A    between atoms: N1_1  and  C1_4 
REMARK    2  A    between atoms: C4_10  and  C5_11 
REMARK    3  A    between atoms: C5_11  and  N3_12 
REMARK    4  A    between atoms: N6_20  and  C7_21 
REMARK    5  A    between atoms: C7_21  and  C8_22 
REMARK       I    between atoms: C8_22  and  N7_24 
REMARK    6  A    between atoms: N7_24  and  C9_26 
REMARK    7  A    between atoms: C9_26  and  C10_27 
REMARK    8  A    between atoms: C10_27  and  C11_28 
REMARK    9  A    between atoms: C11_28  and  O3_29 
REMARK   10  A    between atoms: C12_34  and  O4_35 
REMARK   11  A    between atoms: C13_37  and  O5_38 
ROOT
HETATM    1  C1  UNL     1     -11.385 -37.615  24.110  1.00  0.00     0.680 A 
HETATM    2  N2  UNL     1     -11.361 -38.714  23.337  1.00  0.00    -0.155 N 
ATOM      3  H2  UNL     1     -12.065 -39.436  23.489  1.00  0.00     0.187 HD
HETATM    4  C2  UNL     1     -10.446 -38.901  22.372  1.00  0.00     0.274 A 
HETATM    5  O1  UNL     1     -10.481 -39.939  21.696  1.00  0.00    -0.267 OA
HETATM    6  C3  UNL     1      -9.483 -37.962  22.132  1.00  0.00     0.087 A 
HETATM    7  C4  UNL     1      -8.520 -38.129  21.139  1.00  0.00     0.018 A 
HETATM    8  C6  UNL     1      -7.601 -37.100  21.001  1.00  0.00     0.100 A 
HETATM    9  N4  UNL     1      -6.566 -36.954  20.155  1.00  0.00    -0.280 N 
ATOM     10  H4  UNL     1      -6.284 -37.625  19.441  1.00  0.00     0.184 HD
HETATM   11  N5  UNL     1      -5.963 -35.781  20.405  1.00  0.00    -0.018 NA
HETATM   12  N6  UNL     1      -6.577 -35.157  21.393  1.00  0.00    -0.249 N 
HETATM   13  C14 UNL     1      -7.605 -35.964  21.780  1.00  0.00     0.151 A 
HETATM   14  N9  UNL     1      -8.556 -35.868  22.716  1.00  0.00    -0.324 N 
ATOM     15  H9  UNL     1      -8.571 -35.033  23.302  1.00  0.00     0.169 HD
HETATM   16  C15 UNL     1      -9.491 -36.809  22.928  1.00  0.00     0.139 A 
HETATM   17  N10 UNL     1     -10.434 -36.682  23.877  1.00  0.00    -0.176 N 
ATOM     18  H10 UNL     1     -10.433 -35.839  24.452  1.00  0.00     0.186 HD
ENDROOT
BRANCH  12  19
HETATM   19  C7  UNL     1      -6.249 -33.871  21.971  1.00  0.00     0.251 C 
BRANCH  19  20
HETATM   20  C8  UNL     1      -4.733 -33.679  21.965  1.00  0.00     0.240 C 
HETATM   21  O2  UNL     1      -4.289 -32.524  22.123  1.00  0.00    -0.271 OA
HETATM   22  N7  UNL     1      -3.888 -34.784  21.789  1.00  0.00    -0.337 N 
ATOM     23  H7  UNL     1      -4.357 -35.685  21.699  1.00  0.00     0.168 HD
BRANCH  22  24
HETATM   24  C9  UNL     1      -2.506 -34.822  21.721  1.00  0.00     0.107 C 
BRANCH  24  25
HETATM   25  C10 UNL     1      -1.752 -34.585  20.462  1.00  0.00     0.210 C 
HETATM   26  N8  UNL     1      -0.342 -35.045  20.695  1.00  0.00    -0.028 N 
HETATM   27  C12 UNL     1      -0.765 -36.346  20.245  1.00  0.00     0.352 C 
ATOM     28  H82 UNL     1       0.448 -34.568  20.261  1.00  0.00     0.281 HD
ATOM     29  H81 UNL     1       0.111 -34.921  21.600  1.00  0.00     0.281 HD
HETATM   30  C13 UNL     1      -1.873 -35.710  19.464  1.00  0.00     0.218 C 
BRANCH  25  31
HETATM   31  C11 UNL     1      -1.758 -33.213  19.909  1.00  0.00     0.211 C 
BRANCH  31  32
HETATM   32  O3  UNL     1      -2.970 -32.985  19.203  1.00  0.00    -0.398 OA
ATOM     33  H3  UNL     1      -3.121 -32.051  19.119  1.00  0.00     0.209 HD
ENDBRANCH  31  32
ENDBRANCH  25  31
BRANCH  27  34
HETATM   34  O4  UNL     1       0.203 -36.991  19.458  1.00  0.00    -0.368 OA
ATOM     35  H4  UNL     1      -0.174 -37.462  18.723  1.00  0.00     0.212 HD
ENDBRANCH  27  34
BRANCH  30  36
HETATM   36  O5  UNL     1      -1.511 -35.370  18.182  1.00  0.00    -0.388 OA
ATOM     37  H5  UNL     1      -1.758 -36.009  17.524  1.00  0.00     0.210 HD
ENDBRANCH  30  36
ENDBRANCH  24  25
ENDBRANCH  22  24
ENDBRANCH  19  20
ENDBRANCH  12  19
BRANCH   7  38
HETATM   38  C5  UNL     1      -8.501 -39.342  20.290  1.00  0.00     0.271 C 
BRANCH  38  39
HETATM   39  N3  UNL     1      -7.500 -40.240  20.904  1.00  0.00    -0.075 N 
ATOM     40  H33 UNL     1      -6.797 -39.750  21.459  1.00  0.00     0.274 HD
ATOM     41  H32 UNL     1      -7.873 -40.813  21.661  1.00  0.00     0.274 HD
ATOM     42  H31 UNL     1      -7.110 -40.782  20.133  1.00  0.00     0.274 HD
ENDBRANCH  38  39
ENDBRANCH   7  38
BRANCH   1  43
HETATM   43  N1  UNL     1     -12.284 -37.453  25.043  1.00  0.00    -0.234 N 
ATOM     44  H12 UNL     1     -12.111 -37.745  26.004  1.00  0.00     0.174 HD
ATOM     45  H11 UNL     1     -13.191 -37.028  24.846  1.00  0.00     0.174 HD
ENDBRANCH   1  43
TORSDOF 11
ENDMDL
MODEL 2
REMARK VINA RESULT: -8.249038899      1.096      1.577
REMARK  11 active torsions:
REMARK  status: ('A' for Active; 'I' for Inactive)
REMARK    1  A    between atoms: N1_1  and  C1_4 
REMARK    2  A    between atoms: C4_10  and  C5_11 
REMARK    3  A    between atoms: C5_11  and  N3_12 
REMARK    4  A    between atoms: N6_20  and  C7_21 
REMARK    5  A    between atoms: C7_21  and  C8_22 
REMARK       I    between atoms: C8_22  and  N7_24 
REMARK    6  A    between atoms: N7_24  and  C9_26 
REMARK    7  A    between atoms: C9_26  and  C10_27 
REMARK    8  A    between atoms: C10_27  and  C11_28 
REMARK    9  A    between atoms: C11_28  and  O3_29 
REMARK   10  A    between atoms: C12_34  and  O4_35 
REMARK   11  A    between atoms: C13_37  and  O5_38 
ROOT
HETATM    1  C1  UNL     1     -11.360 -36.720  24.297  1.00  0.00     0.680 A 
HETATM    2  N2  UNL     1     -11.457 -37.858  23.589  1.00  0.00    -0.155 N 
ATOM      3  H2  UNL     1     -12.226 -38.496  23.791  1.00  0.00     0.187 HD
HETATM    4  C2  UNL     1     -10.581 -38.189  22.627  1.00  0.00     0.274 A 
HETATM    5  O1  UNL     1     -10.729 -39.256  22.014  1.00  0.00    -0.267 OA
HETATM    6  C3  UNL     1      -9.534 -37.366  22.323  1.00  0.00     0.087 A 
HETATM    7  C4  UNL     1      -8.609 -37.684  21.331  1.00  0.00     0.018 A 
HETATM    8  C6  UNL     1      -7.596 -36.761  21.123  1.00  0.00     0.100 A 
HETATM    9  N4  UNL     1      -6.565 -36.766  20.259  1.00  0.00    -0.280 N 
ATOM     10  H4  UNL     1      -6.363 -37.502  19.582  1.00  0.00     0.184 HD
HETATM   11  N5  UNL     1      -5.846 -35.647  20.433  1.00  0.00    -0.018 NA
HETATM   12  N6  UNL     1      -6.379 -34.909  21.389  1.00  0.00    -0.249 N 
HETATM   13  C14 UNL     1      -7.475 -35.587  21.834  1.00  0.00     0.151 A 
HETATM   14  N9  UNL     1      -8.396 -35.344  22.773  1.00  0.00    -0.324 N 
ATOM     15  H9  UNL     1      -8.320 -34.480  23.310  1.00  0.00     0.169 HD
HETATM   16  C15 UNL     1      -9.416 -36.174  23.050  1.00  0.00     0.139 A 
HETATM   17  N10 UNL     1     -10.326 -35.900  24.000  1.00  0.00    -0.176 N 
ATOM     18  H10 UNL     1     -10.233 -35.030  24.524  1.00  0.00     0.186 HD
ENDROOT
BRANCH  12  19
HETATM   19  C7  UNL     1      -5.917 -33.631  21.888  1.00  0.00     0.251 C 
BRANCH  19  20
HETATM   20  C8  UNL     1      -4.391 -33.582  21.831  1.00  0.00     0.240 C 
HETATM   21  O2  UNL     1      -3.823 -32.544  22.229  1.00  0.00    -0.271 OA
HETATM   22  N7  UNL     1      -3.672 -34.683  21.345  1.00  0.00    -0.337 N 
ATOM     23  H7  UNL     1      -4.235 -35.489  21.074  1.00  0.00     0.168 HD
BRANCH  22  24
HETATM   24  C9  UNL     1      -2.305 -34.828  21.182  1.00  0.00     0.107 C 
BRANCH  24  25
HETATM   25  C10 UNL     1      -1.698 -35.933  20.394  1.00  0.00     0.210 C 
HETATM   26  N8  UNL     1      -1.755 -35.533  18.948  1.00  0.00    -0.028 N 
HETATM   27  C12 UNL     1      -0.472 -34.909  19.140  1.00  0.00     0.352 C 
ATOM     28  H82 UNL     1      -1.901 -36.225  18.213  1.00  0.00     0.281 HD
ATOM     29  H81 UNL     1      -2.547 -35.008  18.576  1.00  0.00     0.281 HD
HETATM   30  C13 UNL     1      -0.196 -35.840  20.280  1.00  0.00     0.218 C 
BRANCH  25  31
HETATM   31  C11 UNL     1      -2.261 -37.289  20.572  1.00  0.00     0.211 C 
BRANCH  31  32
HETATM   32  O3  UNL     1      -3.534 -37.367  19.944  1.00  0.00    -0.398 OA
ATOM     33  H3  UNL     1      -4.107 -37.930  20.451  1.00  0.00     0.209 HD
ENDBRANCH  31  32
ENDBRANCH  25  31
BRANCH  27  34
HETATM   34  O4  UNL     1       0.383 -35.073  18.038  1.00  0.00    -0.368 OA
ATOM     35  H4  UNL     1       0.851 -35.901  18.054  1.00  0.00     0.212 HD
ENDBRANCH  27  34
BRANCH  30  36
HETATM   36  O5  UNL     1       0.415 -37.010  19.893  1.00  0.00    -0.388 OA
ATOM     37  H5  UNL     1       1.278 -37.141  20.266  1.00  0.00     0.210 HD
ENDBRANCH  30  36
ENDBRANCH  24  25
ENDBRANCH  22  24
ENDBRANCH  19  20
ENDBRANCH  12  19
BRANCH   7  38
HETATM   38  C5  UNL     1      -8.723 -38.940  20.554  1.00  0.00     0.271 C 
BRANCH  38  39
HETATM   39  N3  UNL     1      -7.804 -39.895  21.207  1.00  0.00    -0.075 N 
ATOM     40  H33 UNL     1      -8.186 -40.318  22.053  1.00  0.00     0.274 HD
ATOM     41  H32 UNL     1      -7.675 -40.762  20.686  1.00  0.00     0.274 HD
ATOM     42  H31 UNL     1      -6.939 -39.378  21.363  1.00  0.00     0.274 HD
ENDBRANCH  38  39
ENDBRANCH   7  38
BRANCH   1  43
HETATM   43  N1  UNL     1     -12.224 -36.416  25.229  1.00  0.00    -0.234 N 
ATOM     44  H12 UNL     1     -12.357 -37.014  26.044  1.00  0.00     0.174 HD
ATOM     45  H11 UNL     1     -12.795 -35.573  25.176  1.00  0.00     0.174 HD
ENDBRANCH   1  43
TORSDOF 11
ENDMDL
MODEL 3
REMARK VINA RESULT: -8.212930009      1.649      3.599
REMARK  11 active torsions:
REMARK  status: ('A' for Active; 'I' for Inactive)
REMARK    1  A    between atoms: N1_1  and  C1_4 
REMARK    2  A    between atoms: C4_10  and  C5_11 
REMARK    3  A    between atoms: C5_11  and  N3_12 
REMARK    4  A    between atoms: N6_20  and  C7_21 
REMARK    5  A    between atoms: C7_21  and  C8_22 
REMARK       I    between atoms: C8_22  and  N7_24 
REMARK    6  A    between atoms: N7_24  and  C9_26 
REMARK    7  A    between atoms: C9_26  and  C10_27 
REMARK    8  A    between atoms: C10_27  and  C11_28 
REMARK    9  A    between atoms: C11_28  and  O3_29 
REMARK   10  A    between atoms: C12_34  and  O4_35 
REMARK   11  A    between atoms: C13_37  and  O5_38 
ROOT
HETATM    1  C1  UNL     1      -6.699 -39.700  18.797  1.00  0.00     0.680 A 
HETATM    2  N2  UNL     1      -7.748 -40.268  19.417  1.00  0.00    -0.155 N 
ATOM      3  H2  UNL     1      -8.052 -41.194  19.117  1.00  0.00     0.187 HD
HETATM    4  C2  UNL     1      -8.411 -39.665  20.416  1.00  0.00     0.274 A 
HETATM    5  O1  UNL     1      -9.370 -40.246  20.944  1.00  0.00    -0.267 OA
HETATM    6  C3  UNL     1      -8.041 -38.424  20.851  1.00  0.00     0.087 A 
HETATM    7  C4  UNL     1      -8.711 -37.773  21.885  1.00  0.00     0.018 A 
HETATM    8  C6  UNL     1      -8.233 -36.519  22.228  1.00  0.00     0.100 A 
HETATM    9  N4  UNL     1      -8.646 -35.645  23.163  1.00  0.00    -0.280 N 
ATOM     10  H4  UNL     1      -9.429 -35.786  23.801  1.00  0.00     0.184 HD
HETATM   11  N5  UNL     1      -7.864 -34.556  23.118  1.00  0.00    -0.018 NA
HETATM   12  N6  UNL     1      -6.948 -34.694  22.177  1.00  0.00    -0.249 N 
HETATM   13  C14 UNL     1      -7.160 -35.916  21.608  1.00  0.00     0.151 A 
HETATM   14  N9  UNL     1      -6.562 -36.595  20.623  1.00  0.00    -0.324 N 
ATOM     15  H9  UNL     1      -5.767 -36.161  20.153  1.00  0.00     0.169 HD
HETATM   16  C15 UNL     1      -6.950 -37.815  20.217  1.00  0.00     0.139 A 
HETATM   17  N10 UNL     1      -6.327 -38.472  19.223  1.00  0.00    -0.176 N 
ATOM     18  H10 UNL     1      -5.534 -38.021  18.767  1.00  0.00     0.186 HD
ENDROOT
BRANCH  12  19
HETATM   19  C7  UNL     1      -5.911 -33.757  21.801  1.00  0.00     0.251 C 
BRANCH  19  20
HETATM   20  C8  UNL     1      -4.540 -34.381  22.060  1.00  0.00     0.240 C 
HETATM   21  O2  UNL     1      -4.386 -35.040  23.109  1.00  0.00    -0.271 OA
HETATM   22  N7  UNL     1      -3.504 -34.206  21.133  1.00  0.00    -0.337 N 
ATOM     23  H7  UNL     1      -3.748 -33.674  20.298  1.00  0.00     0.168 HD
BRANCH  22  24
HETATM   24  C9  UNL     1      -2.196 -34.654  21.192  1.00  0.00     0.107 C 
BRANCH  24  25
HETATM   25  C10 UNL     1      -1.700 -35.808  20.397  1.00  0.00     0.210 C 
HETATM   26  N8  UNL     1      -1.769 -35.414  18.950  1.00  0.00    -0.028 N 
HETATM   27  C12 UNL     1      -0.436 -34.891  19.100  1.00  0.00     0.352 C 
ATOM     28  H82 UNL     1      -1.989 -36.098  18.226  1.00  0.00     0.281 HD
ATOM     29  H81 UNL     1      -2.528 -34.832  18.597  1.00  0.00     0.281 HD
HETATM   30  C13 UNL     1      -0.199 -35.833  20.239  1.00  0.00     0.218 C 
BRANCH  25  31
HETATM   31  C11 UNL     1      -2.360 -37.115  20.603  1.00  0.00     0.211 C 
BRANCH  31  32
HETATM   32  O3  UNL     1      -3.650 -37.101  20.007  1.00  0.00    -0.398 OA
ATOM     33  H3  UNL     1      -4.299 -37.391  20.638  1.00  0.00     0.209 HD
ENDBRANCH  31  32
ENDBRANCH  25  31
BRANCH  27  34
HETATM   34  O4  UNL     1       0.371 -35.128  17.974  1.00  0.00    -0.368 OA
ATOM     35  H4  UNL     1       0.690 -34.326  17.574  1.00  0.00     0.212 HD
ENDBRANCH  27  34
BRANCH  30  36
HETATM   36  O5  UNL     1       0.308 -37.049  19.845  1.00  0.00    -0.388 OA
ATOM     37  H5  UNL     1       0.653 -37.059  18.961  1.00  0.00     0.210 HD
ENDBRANCH  30  36
ENDBRANCH  24  25
ENDBRANCH  22  24
ENDBRANCH  19  20
ENDBRANCH  12  19
BRANCH   7  38
HETATM   38  C5  UNL     1      -9.865 -38.406  22.564  1.00  0.00     0.271 C 
BRANCH  38  39
HETATM   39  N3  UNL     1      -9.315 -39.015  23.794  1.00  0.00    -0.075 N 
ATOM     40  H33 UNL     1      -9.673 -39.952  23.982  1.00  0.00     0.274 HD
ATOM     41  H32 UNL     1      -8.332 -39.274  23.719  1.00  0.00     0.274 HD
ATOM     42  H31 UNL     1      -9.507 -38.346  24.539  1.00  0.00     0.274 HD
ENDBRANCH  38  39
ENDBRANCH   7  38
BRANCH   1  43
HETATM   43  N1  UNL     1      -6.067 -40.304  17.827  1.00  0.00    -0.234 N 
ATOM     44  H12 UNL     1      -6.502 -41.060  17.298  1.00  0.00     0.174 HD
ATOM     45  H11 UNL     1      -5.117 -40.044  17.562  1.00  0.00     0.174 HD
ENDBRANCH   1  43
TORSDOF 11
ENDMDL
MODEL 4
REMARK VINA RESULT: -8.133502012      1.283      3.321
REMARK  11 active torsions:
REMARK  status: ('A' for Active; 'I' for Inactive)
REMARK    1  A    between atoms: N1_1  and  C1_4 
REMARK    2  A    between atoms: C4_10  and  C5_11 
REMARK    3  A    between atoms: C5_11  and  N3_12 
REMARK    4  A    between atoms: N6_20  and  C7_21 
REMARK    5  A    between atoms: C7_21  and  C8_22 
REMARK       I    between atoms: C8_22  and  N7_24 
REMARK    6  A    between atoms: N7_24  and  C9_26 
REMARK    7  A    between atoms: C9_26  and  C10_27 
REMARK    8  A    between atoms: C10_27  and  C11_28 
REMARK    9  A    between atoms: C11_28  and  O3_29 
REMARK   10  A    between atoms: C12_34  and  O4_35 
REMARK   11  A    between atoms: C13_37  and  O5_38 
ROOT
HETATM    1  C1  UNL     1      -6.686 -39.784  18.826  1.00  0.00     0.680 A 
HETATM    2  N2  UNL     1      -7.327 -40.551  19.724  1.00  0.00    -0.155 N 
ATOM      3  H2  UNL     1      -7.445 -41.544  19.524  1.00  0.00     0.187 HD
HETATM    4  C2  UNL     1      -7.818 -40.063  20.874  1.00  0.00     0.274 A 
HETATM    5  O1  UNL     1      -8.399 -40.827  21.658  1.00  0.00    -0.267 OA
HETATM    6  C3  UNL     1      -7.685 -38.739  21.184  1.00  0.00     0.087 A 
HETATM    7  C4  UNL     1      -8.186 -38.204  22.369  1.00  0.00     0.018 A 
HETATM    8  C6  UNL     1      -7.982 -36.847  22.559  1.00  0.00     0.100 A 
HETATM    9  N4  UNL     1      -8.334 -36.038  23.575  1.00  0.00    -0.280 N 
ATOM     10  H4  UNL     1      -8.838 -36.325  24.414  1.00  0.00     0.184 HD
HETATM   11  N5  UNL     1      -7.915 -34.792  23.305  1.00  0.00    -0.018 NA
HETATM   12  N6  UNL     1      -7.298 -34.764  22.138  1.00  0.00    -0.249 N 
HETATM   13  C14 UNL     1      -7.329 -36.039  21.654  1.00  0.00     0.151 A 
HETATM   14  N9  UNL     1      -6.874 -36.616  20.536  1.00  0.00    -0.324 N 
ATOM     15  H9  UNL     1      -6.389 -36.031  19.856  1.00  0.00     0.169 HD
HETATM   16  C15 UNL     1      -7.020 -37.922  20.260  1.00  0.00     0.139 A 
HETATM   17  N10 UNL     1      -6.551 -38.473  19.127  1.00  0.00    -0.176 N 
ATOM     18  H10 UNL     1      -6.068 -37.871  18.460  1.00  0.00     0.186 HD
ENDROOT
BRANCH  12  19
HETATM   19  C7  UNL     1      -6.698 -33.625  21.477  1.00  0.00     0.251 C 
BRANCH  19  20
HETATM   20  C8  UNL     1      -5.196 -33.606  21.755  1.00  0.00     0.240 C 
HETATM   21  O2  UNL     1      -4.710 -32.581  22.276  1.00  0.00    -0.271 OA
HETATM   22  N7  UNL     1      -4.409 -34.719  21.429  1.00  0.00    -0.337 N 
ATOM     23  H7  UNL     1      -4.913 -35.513  21.035  1.00  0.00     0.168 HD
BRANCH  22  24
HETATM   24  C9  UNL     1      -3.043 -34.891  21.567  1.00  0.00     0.107 C 
BRANCH  24  25
HETATM   25  C10 UNL     1      -2.078 -34.613  20.471  1.00  0.00     0.210 C 
HETATM   26  N8  UNL     1      -0.745 -35.154  20.903  1.00  0.00    -0.028 N 
HETATM   27  C12 UNL     1      -1.133 -36.403  20.302  1.00  0.00     0.352 C 
ATOM     28  H82 UNL     1       0.124 -34.689  20.641  1.00  0.00     0.281 HD
ATOM     29  H81 UNL     1      -0.447 -35.107  21.877  1.00  0.00     0.281 HD
HETATM   30  C13 UNL     1      -2.069 -35.668  19.392  1.00  0.00     0.218 C 
BRANCH  25  31
HETATM   31  C11 UNL     1      -1.939 -33.211  20.020  1.00  0.00     0.211 C 
BRANCH  31  32
HETATM   32  O3  UNL     1      -2.992 -32.890  19.121  1.00  0.00    -0.398 OA
ATOM     33  H3  UNL     1      -3.439 -32.105  19.418  1.00  0.00     0.209 HD
ENDBRANCH  31  32
ENDBRANCH  25  31
BRANCH  27  34
HETATM   34  O4  UNL     1      -0.070 -37.044  19.644  1.00  0.00    -0.368 OA
ATOM     35  H4  UNL     1      -0.180 -37.067  18.700  1.00  0.00     0.212 HD
ENDBRANCH  27  34
BRANCH  30  36
HETATM   36  O5  UNL     1      -1.482 -35.267  18.214  1.00  0.00    -0.388 OA
ATOM     37  H5  UNL     1      -2.097 -34.975  17.552  1.00  0.00     0.210 HD
ENDBRANCH  30  36
ENDBRANCH  24  25
ENDBRANCH  22  24
ENDBRANCH  19  20
ENDBRANCH  12  19
BRANCH   7  38
HETATM   38  C5  UNL     1      -8.889 -39.057  23.355  1.00  0.00     0.271 C 
BRANCH  38  39
HETATM   39  N3  UNL     1     -10.330 -38.878  23.076  1.00  0.00    -0.075 N 
ATOM     40  H33 UNL     1     -10.554 -37.986  22.635  1.00  0.00     0.274 HD
ATOM     41  H32 UNL     1     -10.679 -39.475  22.327  1.00  0.00     0.274 HD
ATOM     42  H31 UNL     1     -10.801 -39.024  23.969  1.00  0.00     0.274 HD
ENDBRANCH  38  39
ENDBRANCH   7  38
BRANCH   1  43
HETATM   43  N1  UNL     1      -6.215 -40.279  17.713  1.00  0.00    -0.234 N 
ATOM     44  H12 UNL     1      -5.767 -41.195  17.687  1.00  0.00     0.174 HD
ATOM     45  H11 UNL     1      -6.277 -39.770  16.831  1.00  0.00     0.174 HD
ENDBRANCH   1  43
TORSDOF 11
ENDMDL
MODEL 5
REMARK VINA RESULT: -8.086836612      3.114      4.212
REMARK  11 active torsions:
REMARK  status: ('A' for Active; 'I' for Inactive)
REMARK    1  A    between atoms: N1_1  and  C1_4 
REMARK    2  A    between atoms: C4_10  and  C5_11 
REMARK    3  A    between atoms: C5_11  and  N3_12 
REMARK    4  A    between atoms: N6_20  and  C7_21 
REMARK    5  A    between atoms: C7_21  and  C8_22 
REMARK       I    between atoms: C8_22  and  N7_24 
REMARK    6  A    between atoms: N7_24  and  C9_26 
REMARK    7  A    between atoms: C9_26  and  C10_27 
REMARK    8  A    between atoms: C10_27  and  C11_28 
REMARK    9  A    between atoms: C11_28  and  O3_29 
REMARK   10  A    between atoms: C12_34  and  O4_35 
REMARK   11  A    between atoms: C13_37  and  O5_38 
ROOT
HETATM    1  C1  UNL     1      -3.708 -41.996  22.435  1.00  0.00     0.680 A 
HETATM    2  N2  UNL     1      -4.324 -42.476  21.342  1.00  0.00    -0.155 N 
ATOM      3  H2  UNL     1      -4.200 -43.460  21.102  1.00  0.00     0.187 HD
HETATM    4  C2  UNL     1      -5.097 -41.713  20.552  1.00  0.00     0.274 A 
HETATM    5  O1  UNL     1      -5.635 -42.221  19.558  1.00  0.00    -0.267 OA
HETATM    6  C3  UNL     1      -5.290 -40.390  20.833  1.00  0.00     0.087 A 
HETATM    7  C4  UNL     1      -6.086 -39.574  20.031  1.00  0.00     0.018 A 
HETATM    8  C6  UNL     1      -6.199 -38.252  20.429  1.00  0.00     0.100 A 
HETATM    9  N4  UNL     1      -6.876 -37.224  19.886  1.00  0.00    -0.280 N 
ATOM     10  H4  UNL     1      -7.446 -37.271  19.042  1.00  0.00     0.184 HD
HETATM   11  N5  UNL     1      -6.679 -36.129  20.635  1.00  0.00    -0.018 NA
HETATM   12  N6  UNL     1      -5.890 -36.412  21.654  1.00  0.00    -0.249 N 
HETATM   13  C14 UNL     1      -5.577 -37.735  21.545  1.00  0.00     0.151 A 
HETATM   14  N9  UNL     1      -4.828 -38.573  22.271  1.00  0.00    -0.324 N 
ATOM     15  H9  UNL     1      -4.361 -38.205  23.099  1.00  0.00     0.169 HD
HETATM   16  C15 UNL     1      -4.656 -39.871  21.969  1.00  0.00     0.139 A 
HETATM   17  N10 UNL     1      -3.896 -40.687  22.719  1.00  0.00    -0.176 N 
ATOM     18  H10 UNL     1      -3.438 -40.300  23.544  1.00  0.00     0.186 HD
ENDROOT
BRANCH  12  19
HETATM   19  C7  UNL     1      -5.430 -35.520  22.697  1.00  0.00     0.251 C 
BRANCH  19  20
HETATM   20  C8  UNL     1      -4.323 -34.620  22.148  1.00  0.00     0.240 C 
HETATM   21  O2  UNL     1      -4.659 -33.577  21.550  1.00  0.00    -0.271 OA
HETATM   22  N7  UNL     1      -2.979 -34.975  22.326  1.00  0.00    -0.337 N 
ATOM     23  H7  UNL     1      -2.818 -35.832  22.854  1.00  0.00     0.168 HD
BRANCH  22  24
HETATM   24  C9  UNL     1      -1.840 -34.325  21.884  1.00  0.00     0.107 C 
BRANCH  24  25
HETATM   25  C10 UNL     1      -1.445 -34.269  20.452  1.00  0.00     0.210 C 
HETATM   26  N8  UNL     1      -0.002 -34.675  20.372  1.00  0.00    -0.028 N 
HETATM   27  C12 UNL     1      -0.462 -36.032  20.235  1.00  0.00     0.352 C 
ATOM     28  H82 UNL     1       0.627 -34.259  19.685  1.00  0.00     0.281 HD
ATOM     29  H81 UNL     1       0.662 -34.413  21.101  1.00  0.00     0.281 HD
HETATM   30  C13 UNL     1      -1.763 -35.531  19.687  1.00  0.00     0.218 C 
BRANCH  25  31
HETATM   31  C11 UNL     1      -1.658 -32.994  19.733  1.00  0.00     0.211 C 
BRANCH  31  32
HETATM   32  O3  UNL     1      -2.984 -32.947  19.223  1.00  0.00    -0.398 OA
ATOM     33  H3  UNL     1      -3.241 -33.809  18.917  1.00  0.00     0.209 HD
ENDBRANCH  31  32
ENDBRANCH  25  31
BRANCH  27  34
HETATM   34  O4  UNL     1       0.303 -36.777  19.321  1.00  0.00    -0.368 OA
ATOM     35  H4  UNL     1       0.765 -37.500  19.731  1.00  0.00     0.212 HD
ENDBRANCH  27  34
BRANCH  30  36
HETATM   36  O5  UNL     1      -1.757 -35.380  18.320  1.00  0.00    -0.388 OA
ATOM     37  H5  UNL     1      -2.217 -34.609  18.011  1.00  0.00     0.210 HD
ENDBRANCH  30  36
ENDBRANCH  24  25
ENDBRANCH  22  24
ENDBRANCH  19  20
ENDBRANCH  12  19
BRANCH   7  38
HETATM   38  C5  UNL     1      -6.763 -40.112  18.828  1.00  0.00     0.271 C 
BRANCH  38  39
HETATM   39  N3  UNL     1      -5.872 -39.789  17.694  1.00  0.00    -0.075 N 
ATOM     40  H33 UNL     1      -5.228 -39.021  17.885  1.00  0.00     0.274 HD
ATOM     41  H32 UNL     1      -5.163 -40.499  17.515  1.00  0.00     0.274 HD
ATOM     42  H31 UNL     1      -6.491 -39.617  16.901  1.00  0.00     0.274 HD
ENDBRANCH  38  39
ENDBRANCH   7  38
BRANCH   1  43
HETATM   43  N1  UNL     1      -2.961 -42.755  23.191  1.00  0.00    -0.234 N 
ATOM     44  H12 UNL     1      -3.366 -43.343  23.919  1.00  0.00     0.174 HD
ATOM     45  H11 UNL     1      -1.947 -42.789  23.081  1.00  0.00     0.174 HD
ENDBRANCH   1  43
TORSDOF 11
ENDMDL
