MODEL 1
REMARK VINA RESULT: -7.409657032      0.000      0.000
REMARK  6 active torsions:
REMARK  status: ('A' for Active; 'I' for Inactive)
REMARK    1  A    between atoms: N1_1  and  C1_5 
REMARK    2  A    between atoms: C1_5  and  C2_6 
REMARK       I    between atoms: C2_6  and  N2_8 
REMARK    3  A    between atoms: N2_8  and  C3_10 
REMARK    4  A    between atoms: C7_19  and  N6_20 
REMARK    5  A    between atoms: N6_20  and  C8_22 
REMARK    6  A    between atoms: C8_22  and  C9_23 
ROOT
HETATM    1  C3  UNL     1       8.428 -44.531  31.317  1.00  0.00     0.714 A 
HETATM    2  N3  UNL     1       9.150 -45.204  32.209  1.00  0.00    -0.020 N 
ATOM      3  H3  UNL     1       8.708 -45.590  33.044  1.00  0.00     0.203 HD
HETATM    4  C4  UNL     1      10.460 -45.371  31.998  1.00  0.00     0.717 A 
HETATM    5  N4  UNL     1      11.389 -46.015  32.761  1.00  0.00    -0.199 N 
ATOM      6  H4  UNL     1      11.197 -46.484  33.646  1.00  0.00     0.183 HD
HETATM    7  C5  UNL     1      12.571 -45.942  32.186  1.00  0.00     0.125 A 
HETATM    8  C6  UNL     1      12.374 -45.216  31.002  1.00  0.00     0.151 A 
HETATM    9  N5  UNL     1      11.070 -44.873  30.903  1.00  0.00     0.014 N 
HETATM   10  C7  UNL     1      10.354 -44.180  29.974  1.00  0.00     0.717 A 
HETATM   11  N9  UNL     1       9.025 -44.042  30.241  1.00  0.00    -0.020 N 
ATOM     12  H9  UNL     1       8.454 -43.529  29.570  1.00  0.00     0.203 HD
ENDROOT
BRANCH  10  13
HETATM   13  N6  UNL     1      10.853 -43.695  28.944  1.00  0.00    -0.199 N 
ATOM     14  H6  UNL     1      10.732 -44.314  28.141  1.00  0.00     0.183 HD
BRANCH  13  15
HETATM   15  C8  UNL     1      11.534 -42.531  28.595  1.00  0.00     0.119 C 
BRANCH  15  16
HETATM   16  C9  UNL     1      12.180 -42.776  27.252  1.00  0.00    -0.002 A 
HETATM   17  C10 UNL     1      11.652 -42.116  26.169  1.00  0.00     0.032 A 
HETATM   18  C11 UNL     1      12.164 -42.265  24.895  1.00  0.00     0.108 A 
HETATM   19  N7  UNL     1      13.211 -43.090  24.759  1.00  0.00    -0.312 N 
HETATM   20  N8  UNL     1      13.721 -43.727  25.806  1.00  0.00    -0.311 N 
ATOM     21  H7  UNL     1      13.622 -43.232  23.837  1.00  0.00     0.186 HD
HETATM   22  C12 UNL     1      13.245 -43.603  27.061  1.00  0.00     0.119 A 
ATOM     23  H8  UNL     1      14.518 -44.345  25.652  1.00  0.00     0.186 HD
ENDBRANCH  15  16
ENDBRANCH  13  15
ENDBRANCH  10  13
BRANCH   1  24
HETATM   24  N2  UNL     1       7.164 -44.326  31.443  1.00  0.00    -0.157 N 
HETATM   25  C2  UNL     1       6.136 -45.025  30.800  1.00  0.00     0.261 C 
HETATM   26  O1  UNL     1       4.923 -44.726  31.074  1.00  0.00    -0.271 OA
ATOM     27  H2  UNL     1       6.883 -43.577  32.075  1.00  0.00     0.187 HD
BRANCH  25  28
HETATM   28  C1  UNL     1       6.332 -46.106  29.804  1.00  0.00     0.332 C 
BRANCH  28  29
HETATM   29  N1  UNL     1       5.121 -46.294  29.003  1.00  0.00    -0.071 N 
ATOM     30  H13 UNL     1       4.288 -45.973  29.495  1.00  0.00     0.274 HD
ATOM     31  H12 UNL     1       5.087 -45.652  28.211  1.00  0.00     0.274 HD
ATOM     32  H11 UNL     1       5.035 -47.266  28.706  1.00  0.00     0.274 HD
ENDBRANCH  28  29
ENDBRANCH  25  28
ENDBRANCH   1  24
TORSDOF 6
ENDMDL
MODEL 2
REMARK VINA RESULT: -7.237803807      1.642      2.201
REMARK  6 active torsions:
REMARK  status: ('A' for Active; 'I' for Inactive)
REMARK    1  A    between atoms: N1_1  and  C1_5 
REMARK    2  A    between atoms: C1_5  and  C2_6 
REMARK       I    between atoms: C2_6  and  N2_8 
REMARK    3  A    between atoms: N2_8  and  C3_10 
REMARK    4  A    between atoms: C7_19  and  N6_20 
REMARK    5  A    between atoms: N6_20  and  C8_22 
REMARK    6  A    between atoms: C8_22  and  C9_23 
ROOT
HETATM    1  C3  UNL     1       7.780 -45.583  31.642  1.00  0.00     0.714 A 
HETATM    2  N3  UNL     1       7.907 -46.815  32.127  1.00  0.00    -0.020 N 
ATOM      3  H3  UNL     1       7.089 -47.326  32.456  1.00  0.00     0.203 HD
HETATM    4  C4  UNL     1       9.120 -47.375  32.177  1.00  0.00     0.717 A 
HETATM    5  N4  UNL     1       9.492 -48.607  32.627  1.00  0.00    -0.199 N 
ATOM      6  H4  UNL     1       8.856 -49.308  33.007  1.00  0.00     0.183 HD
HETATM    7  C5  UNL     1      10.793 -48.760  32.498  1.00  0.00     0.125 A 
HETATM    8  C6  UNL     1      11.263 -47.562  31.939  1.00  0.00     0.151 A 
HETATM    9  N5  UNL     1      10.220 -46.722  31.748  1.00  0.00     0.014 N 
HETATM   10  C7  UNL     1      10.117 -45.460  31.247  1.00  0.00     0.717 A 
HETATM   11  N9  UNL     1       8.858 -44.940  31.220  1.00  0.00    -0.020 N 
ATOM     12  H9  UNL     1       8.739 -43.997  30.851  1.00  0.00     0.203 HD
ENDROOT
BRANCH  10  13
HETATM   13  N6  UNL     1      11.089 -44.803  30.835  1.00  0.00    -0.199 N 
ATOM     14  H6  UNL     1      11.960 -45.329  30.915  1.00  0.00     0.183 HD
BRANCH  13  15
HETATM   15  C8  UNL     1      11.303 -43.538  30.292  1.00  0.00     0.119 C 
BRANCH  15  16
HETATM   16  C9  UNL     1      11.931 -43.735  28.932  1.00  0.00    -0.002 A 
HETATM   17  C10 UNL     1      13.285 -43.959  28.890  1.00  0.00     0.032 A 
HETATM   18  C11 UNL     1      13.962 -44.153  27.702  1.00  0.00     0.108 A 
HETATM   19  N7  UNL     1      13.232 -44.112  26.579  1.00  0.00    -0.312 N 
HETATM   20  N8  UNL     1      11.923 -43.896  26.620  1.00  0.00    -0.311 N 
ATOM     21  H7  UNL     1      13.689 -44.250  25.678  1.00  0.00     0.186 HD
HETATM   22  C12 UNL     1      11.233 -43.703  27.762  1.00  0.00     0.119 A 
ATOM     23  H8  UNL     1      11.411 -43.874  25.739  1.00  0.00     0.186 HD
ENDBRANCH  15  16
ENDBRANCH  13  15
ENDBRANCH  10  13
BRANCH   1  24
HETATM   24  N2  UNL     1       6.651 -44.971  31.558  1.00  0.00    -0.157 N 
HETATM   25  C2  UNL     1       5.648 -45.194  30.607  1.00  0.00     0.261 C 
HETATM   26  O1  UNL     1       4.558 -44.531  30.693  1.00  0.00    -0.271 OA
ATOM     27  H2  UNL     1       6.468 -44.250  32.255  1.00  0.00     0.187 HD
BRANCH  25  28
HETATM   28  C1  UNL     1       5.739 -46.154  29.480  1.00  0.00     0.332 C 
BRANCH  28  29
HETATM   29  N1  UNL     1       4.416 -46.395  28.901  1.00  0.00    -0.071 N 
ATOM     30  H13 UNL     1       4.470 -46.601  27.904  1.00  0.00     0.274 HD
ATOM     31  H12 UNL     1       4.019 -47.279  29.217  1.00  0.00     0.274 HD
ATOM     32  H11 UNL     1       3.793 -45.610  29.092  1.00  0.00     0.274 HD
ENDBRANCH  28  29
ENDBRANCH  25  28
ENDBRANCH   1  24
TORSDOF 6
ENDMDL
MODEL 3
REMARK VINA RESULT: -7.172376033      1.297      1.420
REMARK  6 active torsions:
REMARK  status: ('A' for Active; 'I' for Inactive)
REMARK    1  A    between atoms: N1_1  and  C1_5 
REMARK    2  A    between atoms: C1_5  and  C2_6 
REMARK       I    between atoms: C2_6  and  N2_8 
REMARK    3  A    between atoms: N2_8  and  C3_10 
REMARK    4  A    between atoms: C7_19  and  N6_20 
REMARK    5  A    between atoms: N6_20  and  C8_22 
REMARK    6  A    between atoms: C8_22  and  C9_23 
ROOT
HETATM    1  C3  UNL     1       9.119 -44.313  30.790  1.00  0.00     0.714 A 
HETATM    2  N3  UNL     1       9.593 -44.951  31.856  1.00  0.00    -0.020 N 
ATOM      3  H3  UNL     1       8.964 -45.253  32.599  1.00  0.00     0.203 HD
HETATM    4  C4  UNL     1      10.906 -45.193  31.941  1.00  0.00     0.717 A 
HETATM    5  N4  UNL     1      11.613 -45.822  32.924  1.00  0.00    -0.199 N 
ATOM      6  H4  UNL     1      11.211 -46.215  33.775  1.00  0.00     0.183 HD
HETATM    7  C5  UNL     1      12.891 -45.847  32.612  1.00  0.00     0.125 A 
HETATM    8  C6  UNL     1      12.993 -45.202  31.370  1.00  0.00     0.151 A 
HETATM    9  N5  UNL     1      11.762 -44.807  30.973  1.00  0.00     0.014 N 
HETATM   10  C7  UNL     1      11.302 -44.152  29.871  1.00  0.00     0.717 A 
HETATM   11  N9  UNL     1       9.958 -43.933  29.838  1.00  0.00    -0.020 N 
ATOM     12  H9  UNL     1       9.573 -43.446  29.029  1.00  0.00     0.203 HD
ENDROOT
BRANCH  10  13
HETATM   13  N6  UNL     1      12.036 -43.769  28.944  1.00  0.00    -0.199 N 
ATOM     14  H6  UNL     1      12.440 -44.555  28.435  1.00  0.00     0.183 HD
BRANCH  13  15
HETATM   15  C8  UNL     1      12.452 -42.549  28.415  1.00  0.00     0.119 C 
BRANCH  15  16
HETATM   16  C9  UNL     1      12.249 -42.617  26.919  1.00  0.00    -0.002 A 
HETATM   17  C10 UNL     1      13.317 -42.281  26.123  1.00  0.00     0.032 A 
HETATM   18  C11 UNL     1      13.244 -42.308  24.745  1.00  0.00     0.108 A 
HETATM   19  N7  UNL     1      12.073 -42.681  24.210  1.00  0.00    -0.312 N 
HETATM   20  N8  UNL     1      11.042 -43.007  24.980  1.00  0.00    -0.311 N 
ATOM     21  H7  UNL     1      11.972 -42.716  23.196  1.00  0.00     0.186 HD
HETATM   22  C12 UNL     1      11.081 -42.991  26.328  1.00  0.00     0.119 A 
ATOM     23  H8  UNL     1      10.172 -43.285  24.526  1.00  0.00     0.186 HD
ENDBRANCH  15  16
ENDBRANCH  13  15
ENDBRANCH  10  13
BRANCH   1  24
HETATM   24  N2  UNL     1       7.872 -44.040  30.628  1.00  0.00    -0.157 N 
HETATM   25  C2  UNL     1       6.805 -44.945  30.678  1.00  0.00     0.261 C 
HETATM   26  O1  UNL     1       5.613 -44.501  30.544  1.00  0.00    -0.271 OA
ATOM     27  H2  UNL     1       7.636 -43.065  30.446  1.00  0.00     0.187 HD
BRANCH  25  28
HETATM   28  C1  UNL     1       6.936 -46.409  30.875  1.00  0.00     0.332 C 
BRANCH  28  29
HETATM   29  N1  UNL     1       6.669 -46.767  32.269  1.00  0.00    -0.071 N 
ATOM     30  H13 UNL     1       7.451 -47.270  32.688  1.00  0.00     0.274 HD
ATOM     31  H12 UNL     1       6.671 -45.948  32.877  1.00  0.00     0.274 HD
ATOM     32  H11 UNL     1       5.798 -47.292  32.344  1.00  0.00     0.274 HD
ENDBRANCH  28  29
ENDBRANCH  25  28
ENDBRANCH   1  24
TORSDOF 6
ENDMDL
MODEL 4
REMARK VINA RESULT: -7.015730568      2.453      6.074
REMARK  6 active torsions:
REMARK  status: ('A' for Active; 'I' for Inactive)
REMARK    1  A    between atoms: N1_1  and  C1_5 
REMARK    2  A    between atoms: C1_5  and  C2_6 
REMARK       I    between atoms: C2_6  and  N2_8 
REMARK    3  A    between atoms: N2_8  and  C3_10 
REMARK    4  A    between atoms: C7_19  and  N6_20 
REMARK    5  A    between atoms: N6_20  and  C8_22 
REMARK    6  A    between atoms: C8_22  and  C9_23 
ROOT
HETATM    1  C3  UNL     1       7.788 -44.920  31.329  1.00  0.00     0.714 A 
HETATM    2  N3  UNL     1       8.399 -43.974  30.621  1.00  0.00    -0.020 N 
ATOM      3  H3  UNL     1       7.877 -43.167  30.282  1.00  0.00     0.203 HD
HETATM    4  C4  UNL     1       9.705 -44.094  30.361  1.00  0.00     0.717 A 
HETATM    5  N4  UNL     1      10.535 -43.264  29.666  1.00  0.00    -0.199 N 
ATOM      6  H4  UNL     1      10.251 -42.388  29.226  1.00  0.00     0.183 HD
HETATM    7  C5  UNL     1      11.754 -43.758  29.646  1.00  0.00     0.125 A 
HETATM    8  C6  UNL     1      11.688 -44.961  30.366  1.00  0.00     0.151 A 
HETATM    9  N5  UNL     1      10.421 -45.151  30.798  1.00  0.00     0.014 N 
HETATM   10  C7  UNL     1       9.819 -46.133  31.525  1.00  0.00     0.717 A 
HETATM   11  N9  UNL     1       8.489 -45.959  31.759  1.00  0.00    -0.020 N 
ATOM     12  H9  UNL     1       8.001 -46.672  32.300  1.00  0.00     0.203 HD
ENDROOT
BRANCH  10  13
HETATM   13  N6  UNL     1      10.419 -47.133  31.958  1.00  0.00    -0.199 N 
ATOM     14  H6  UNL     1      11.321 -47.258  31.499  1.00  0.00     0.183 HD
BRANCH  13  15
HETATM   15  C8  UNL     1      10.184 -48.128  32.905  1.00  0.00     0.119 C 
BRANCH  15  16
HETATM   16  C9  UNL     1      10.899 -47.718  34.171  1.00  0.00    -0.002 A 
HETATM   17  C10 UNL     1      10.165 -47.700  35.331  1.00  0.00     0.032 A 
HETATM   18  C11 UNL     1      10.716 -47.342  36.546  1.00  0.00     0.108 A 
HETATM   19  N7  UNL     1      12.014 -47.009  36.543  1.00  0.00    -0.312 N 
HETATM   20  N8  UNL     1      12.723 -47.027  35.422  1.00  0.00    -0.311 N 
ATOM     21  H7  UNL     1      12.464 -46.737  37.417  1.00  0.00     0.186 HD
HETATM   22  C12 UNL     1      12.215 -47.371  34.221  1.00  0.00     0.119 A 
ATOM     23  H8  UNL     1      13.708 -46.765  35.471  1.00  0.00     0.186 HD
ENDBRANCH  15  16
ENDBRANCH  13  15
ENDBRANCH  10  13
BRANCH   1  24
HETATM   24  N2  UNL     1       6.536 -44.883  31.624  1.00  0.00    -0.157 N 
HETATM   25  C2  UNL     1       5.479 -45.371  30.846  1.00  0.00     0.261 C 
HETATM   26  O1  UNL     1       4.289 -45.299  31.310  1.00  0.00    -0.271 OA
ATOM     27  H2  UNL     1       6.289 -44.454  32.515  1.00  0.00     0.187 HD
BRANCH  25  28
HETATM   28  C1  UNL     1       5.619 -45.977  29.501  1.00  0.00     0.332 C 
BRANCH  28  29
HETATM   29  N1  UNL     1       4.306 -46.319  28.951  1.00  0.00    -0.071 N 
ATOM     30  H13 UNL     1       3.999 -47.244  29.250  1.00  0.00     0.274 HD
ATOM     31  H12 UNL     1       3.562 -45.767  29.376  1.00  0.00     0.274 HD
ATOM     32  H11 UNL     1       4.308 -46.232  27.935  1.00  0.00     0.274 HD
ENDBRANCH  28  29
ENDBRANCH  25  28
ENDBRANCH   1  24
TORSDOF 6
ENDMDL
MODEL 5
REMARK VINA RESULT: -7.004025026      2.412      6.241
REMARK  6 active torsions:
REMARK  status: ('A' for Active; 'I' for Inactive)
REMARK    1  A    between atoms: N1_1  and  C1_5 
REMARK    2  A    between atoms: C1_5  and  C2_6 
REMARK       I    between atoms: C2_6  and  N2_8 
REMARK    3  A    between atoms: N2_8  and  C3_10 
REMARK    4  A    between atoms: C7_19  and  N6_20 
REMARK    5  A    between atoms: N6_20  and  C8_22 
REMARK    6  A    between atoms: C8_22  and  C9_23 
ROOT
HETATM    1  C3  UNL     1      11.310 -43.294  29.854  1.00  0.00     0.714 A 
HETATM    2  N3  UNL     1      12.388 -43.928  30.305  1.00  0.00    -0.020 N 
ATOM      3  H3  UNL     1      13.321 -43.567  30.105  1.00  0.00     0.203 HD
HETATM    4  C4  UNL     1      12.236 -45.045  31.025  1.00  0.00     0.717 A 
HETATM    5  N4  UNL     1      13.179 -45.856  31.585  1.00  0.00    -0.199 N 
ATOM      6  H4  UNL     1      14.186 -45.708  31.527  1.00  0.00     0.183 HD
HETATM    7  C5  UNL     1      12.598 -46.855  32.213  1.00  0.00     0.125 A 
HETATM    8  C6  UNL     1      11.218 -46.663  32.039  1.00  0.00     0.151 A 
HETATM    9  N5  UNL     1      11.015 -45.545  31.306  1.00  0.00     0.014 N 
HETATM   10  C7  UNL     1       9.895 -44.915  30.856  1.00  0.00     0.717 A 
HETATM   11  N9  UNL     1      10.110 -43.784  30.129  1.00  0.00    -0.020 N 
ATOM     12  H9  UNL     1       9.297 -43.281  29.774  1.00  0.00     0.203 HD
ENDROOT
BRANCH  10  13
HETATM   13  N6  UNL     1       8.741 -45.322  31.078  1.00  0.00    -0.199 N 
ATOM     14  H6  UNL     1       8.184 -44.621  31.568  1.00  0.00     0.183 HD
BRANCH  13  15
HETATM   15  C8  UNL     1       8.008 -46.481  30.836  1.00  0.00     0.119 C 
BRANCH  15  16
HETATM   16  C9  UNL     1       6.552 -46.084  30.770  1.00  0.00    -0.002 A 
HETATM   17  C10 UNL     1       5.947 -46.111  29.537  1.00  0.00     0.032 A 
HETATM   18  C11 UNL     1       4.621 -45.769  29.360  1.00  0.00     0.108 A 
HETATM   19  N7  UNL     1       3.942 -45.404  30.456  1.00  0.00    -0.312 N 
HETATM   20  N8  UNL     1       4.526 -45.379  31.647  1.00  0.00    -0.311 N 
ATOM     21  H7  UNL     1       2.959 -45.142  30.374  1.00  0.00     0.186 HD
HETATM   22  C12 UNL     1       5.817 -45.707  31.853  1.00  0.00     0.119 A 
ATOM     23  H8  UNL     1       3.967 -45.095  32.452  1.00  0.00     0.186 HD
ENDBRANCH  15  16
ENDBRANCH  13  15
ENDBRANCH  10  13
BRANCH   1  24
HETATM   24  N2  UNL     1      11.368 -42.215  29.155  1.00  0.00    -0.157 N 
HETATM   25  C2  UNL     1      11.508 -42.125  27.765  1.00  0.00     0.261 C 
HETATM   26  O1  UNL     1      11.499 -40.970  27.218  1.00  0.00    -0.271 OA
ATOM     27  H2  UNL     1      11.304 -41.335  29.666  1.00  0.00     0.187 HD
BRANCH  25  28
HETATM   28  C1  UNL     1      11.672 -43.279  26.848  1.00  0.00     0.332 C 
BRANCH  28  29
HETATM   29  N1  UNL     1      10.429 -43.539  26.120  1.00  0.00    -0.071 N 
ATOM     30  H13 UNL     1      10.565 -44.211  25.365  1.00  0.00     0.274 HD
ATOM     31  H12 UNL     1       9.765 -44.072  26.681  1.00  0.00     0.274 HD
ATOM     32  H11 UNL     1      10.023 -42.667  25.781  1.00  0.00     0.274 HD
ENDBRANCH  28  29
ENDBRANCH  25  28
ENDBRANCH   1  24
TORSDOF 6
ENDMDL
