MODEL 1
REMARK VINA RESULT: -7.578274622      0.000      0.000
REMARK  5 active torsions:
REMARK  status: ('A' for Active; 'I' for Inactive)
REMARK    1  A    between atoms: S1_2  and  N1_4 
REMARK    2  A    between atoms: S1_2  and  C9_24 
REMARK    3  A    between atoms: N1_4  and  C1_6 
REMARK    4  A    between atoms: C2_15  and  N6_16 
REMARK    5  A    between atoms: N6_16  and  C3_18 
ROOT
HETATM    1  C1  UNL     1     -18.810 -12.392  14.118  1.00  0.00     0.177 A 
HETATM    2  N2  UNL     1     -18.474 -13.666  13.737  1.00  0.00    -0.266 N 
ATOM      3  H2  UNL     1     -19.119 -14.218  13.172  1.00  0.00     0.190 HD
HETATM    4  N3  UNL     1     -17.321 -14.171  14.100  1.00  0.00    -0.226 N 
ATOM      5  H3  UNL     1     -17.105 -15.122  13.800  1.00  0.00     0.210 HD
HETATM    6  N4  UNL     1     -16.422 -13.541  14.824  1.00  0.00    -0.227 N 
ATOM      7  H4  UNL     1     -15.538 -13.985  15.077  1.00  0.00     0.210 HD
HETATM    8  N5  UNL     1     -16.708 -12.318  15.208  1.00  0.00    -0.267 N 
ATOM      9  H5  UNL     1     -16.033 -11.801  15.771  1.00  0.00     0.190 HD
HETATM   10  C2  UNL     1     -17.878 -11.729  14.872  1.00  0.00     0.168 A 
ENDROOT
BRANCH   1  11
HETATM   11  N1  UNL     1     -19.918 -11.954  13.748  1.00  0.00    -0.259 N 
ATOM     12  H1  UNL     1     -19.964 -11.820  12.738  1.00  0.00     0.180 HD
BRANCH  11  13
HETATM   13  S1  UNL     1     -21.349 -11.535  14.515  1.00  0.00     0.297 S 
HETATM   14  O1  UNL     1     -22.606 -11.866  13.751  1.00  0.00    -0.197 OA
HETATM   15  O2  UNL     1     -21.378 -10.036  14.763  1.00  0.00    -0.197 OA
BRANCH  13  16
HETATM   16  C9  UNL     1     -21.455 -12.277  16.132  1.00  0.00     0.239 A 
HETATM   17  N7  UNL     1     -22.308 -13.234  16.535  1.00  0.00    -0.325 N 
HETATM   18  C10 UNL     1     -22.065 -13.522  17.824  1.00  0.00     0.199 A 
ATOM     19  H7  UNL     1     -23.024 -13.672  15.955  1.00  0.00     0.169 HD
HETATM   20  N8  UNL     1     -21.057 -12.740  18.229  1.00  0.00    -0.294 N 
HETATM   21  N9  UNL     1     -20.689 -11.985  17.195  1.00  0.00    -0.274 N 
ATOM     22  H8  UNL     1     -20.644 -12.725  19.162  1.00  0.00     0.187 HD
ATOM     23  H9  UNL     1     -19.942 -11.293  17.209  1.00  0.00     0.189 HD
ENDBRANCH  13  16
ENDBRANCH  11  13
ENDBRANCH   1  11
BRANCH  10  24
HETATM   24  N6  UNL     1     -18.089 -10.519  15.288  1.00  0.00    -0.338 N 
ATOM     25  H6  UNL     1     -18.998 -10.296  15.693  1.00  0.00     0.167 HD
BRANCH  24  26
HETATM   26  C3  UNL     1     -17.125  -9.502  15.205  1.00  0.00     0.033 A 
HETATM   27  C4  UNL     1     -16.715  -9.056  13.978  1.00  0.00     0.029 A 
HETATM   28  C5  UNL     1     -15.762  -8.050  13.866  1.00  0.00     0.002 A 
HETATM   29  C6  UNL     1     -15.259  -7.533  15.035  1.00  0.00     0.000 A 
HETATM   30  C7  UNL     1     -15.645  -7.953  16.291  1.00  0.00     0.002 A 
HETATM   31  C8  UNL     1     -16.605  -8.967  16.357  1.00  0.00     0.029 A 
ENDBRANCH  24  26
ENDBRANCH  10  24
TORSDOF 5
ENDMDL
MODEL 2
REMARK VINA RESULT: -7.563333861      0.051      1.027
REMARK  5 active torsions:
REMARK  status: ('A' for Active; 'I' for Inactive)
REMARK    1  A    between atoms: S1_2  and  N1_4 
REMARK    2  A    between atoms: S1_2  and  C9_24 
REMARK    3  A    between atoms: N1_4  and  C1_6 
REMARK    4  A    between atoms: C2_15  and  N6_16 
REMARK    5  A    between atoms: N6_16  and  C3_18 
ROOT
HETATM    1  C1  UNL     1     -18.822 -12.383  14.122  1.00  0.00     0.177 A 
HETATM    2  N2  UNL     1     -18.487 -13.655  13.736  1.00  0.00    -0.266 N 
ATOM      3  H2  UNL     1     -19.134 -14.207  13.172  1.00  0.00     0.190 HD
HETATM    4  N3  UNL     1     -17.332 -14.161  14.094  1.00  0.00    -0.226 N 
ATOM      5  H3  UNL     1     -17.117 -15.111  13.790  1.00  0.00     0.210 HD
HETATM    6  N4  UNL     1     -16.431 -13.533  14.817  1.00  0.00    -0.227 N 
ATOM      7  H4  UNL     1     -15.547 -13.977  15.066  1.00  0.00     0.210 HD
HETATM    8  N5  UNL     1     -16.717 -12.311  15.205  1.00  0.00    -0.267 N 
ATOM      9  H5  UNL     1     -16.040 -11.796  15.768  1.00  0.00     0.190 HD
HETATM   10  C2  UNL     1     -17.888 -11.722  14.876  1.00  0.00     0.168 A 
ENDROOT
BRANCH   1  11
HETATM   11  N1  UNL     1     -19.931 -11.945  13.757  1.00  0.00    -0.259 N 
ATOM     12  H1  UNL     1     -19.988 -11.825  12.746  1.00  0.00     0.180 HD
BRANCH  11  13
HETATM   13  S1  UNL     1     -21.352 -11.506  14.534  1.00  0.00     0.297 S 
HETATM   14  O1  UNL     1     -22.619 -11.822  13.778  1.00  0.00    -0.197 OA
HETATM   15  O2  UNL     1     -21.361 -10.006  14.779  1.00  0.00    -0.197 OA
BRANCH  13  16
HETATM   16  C9  UNL     1     -21.457 -12.244  16.152  1.00  0.00     0.239 A 
HETATM   17  N7  UNL     1     -22.328 -13.180  16.567  1.00  0.00    -0.325 N 
HETATM   18  C10 UNL     1     -22.077 -13.472  17.853  1.00  0.00     0.199 A 
ATOM     19  H7  UNL     1     -23.061 -13.600  15.996  1.00  0.00     0.169 HD
HETATM   20  N8  UNL     1     -21.045 -12.714  18.245  1.00  0.00    -0.294 N 
HETATM   21  N9  UNL     1     -20.672 -11.970  17.206  1.00  0.00    -0.274 N 
ATOM     22  H8  UNL     1     -20.621 -12.709  19.173  1.00  0.00     0.187 HD
ATOM     23  H9  UNL     1     -19.907 -11.295  17.210  1.00  0.00     0.189 HD
ENDBRANCH  13  16
ENDBRANCH  11  13
ENDBRANCH   1  11
BRANCH  10  24
HETATM   24  N6  UNL     1     -18.099 -10.514  15.296  1.00  0.00    -0.338 N 
ATOM     25  H6  UNL     1     -19.014 -10.286  15.683  1.00  0.00     0.167 HD
BRANCH  24  26
HETATM   26  C3  UNL     1     -17.125  -9.504  15.242  1.00  0.00     0.033 A 
HETATM   27  C4  UNL     1     -16.607  -8.999  16.404  1.00  0.00     0.029 A 
HETATM   28  C5  UNL     1     -15.642  -7.999  16.381  1.00  0.00     0.002 A 
HETATM   29  C6  UNL     1     -15.239  -7.549  15.147  1.00  0.00     0.000 A 
HETATM   30  C7  UNL     1     -15.735  -8.029  13.953  1.00  0.00     0.002 A 
HETATM   31  C8  UNL     1     -16.703  -9.034  14.023  1.00  0.00     0.029 A 
ENDBRANCH  24  26
ENDBRANCH  10  24
TORSDOF 5
ENDMDL
MODEL 3
REMARK VINA RESULT: -7.556396593      0.872      1.018
REMARK  5 active torsions:
REMARK  status: ('A' for Active; 'I' for Inactive)
REMARK    1  A    between atoms: S1_2  and  N1_4 
REMARK    2  A    between atoms: S1_2  and  C9_24 
REMARK    3  A    between atoms: N1_4  and  C1_6 
REMARK    4  A    between atoms: C2_15  and  N6_16 
REMARK    5  A    between atoms: N6_16  and  C3_18 
ROOT
HETATM    1  C1  UNL     1     -18.619 -12.568  14.316  1.00  0.00     0.177 A 
HETATM    2  N2  UNL     1     -18.191 -13.803  13.901  1.00  0.00    -0.266 N 
ATOM      3  H2  UNL     1     -18.862 -14.486  13.548  1.00  0.00     0.190 HD
HETATM    4  N3  UNL     1     -16.917 -14.104  13.960  1.00  0.00    -0.226 N 
ATOM      5  H3  UNL     1     -16.635 -15.033  13.645  1.00  0.00     0.210 HD
HETATM    6  N4  UNL     1     -15.976 -13.297  14.397  1.00  0.00    -0.227 N 
ATOM      7  H4  UNL     1     -14.997 -13.585  14.419  1.00  0.00     0.210 HD
HETATM    8  N5  UNL     1     -16.348 -12.104  14.803  1.00  0.00    -0.267 N 
ATOM      9  H5  UNL     1     -15.643 -11.453  15.148  1.00  0.00     0.190 HD
HETATM   10  C2  UNL     1     -17.644 -11.721  14.773  1.00  0.00     0.168 A 
ENDROOT
BRANCH   1  11
HETATM   11  N1  UNL     1     -19.840 -12.328  14.241  1.00  0.00    -0.259 N 
ATOM     12  H1  UNL     1     -20.039 -11.497  13.684  1.00  0.00     0.180 HD
BRANCH  11  13
HETATM   13  S1  UNL     1     -21.233 -13.045  14.839  1.00  0.00     0.297 S 
HETATM   14  O1  UNL     1     -21.410 -14.499  14.480  1.00  0.00    -0.197 OA
HETATM   15  O2  UNL     1     -22.456 -12.318  14.302  1.00  0.00    -0.197 OA
BRANCH  13  16
HETATM   16  C9  UNL     1     -21.334 -12.880  16.610  1.00  0.00     0.239 A 
HETATM   17  N7  UNL     1     -22.093 -13.601  17.454  1.00  0.00    -0.325 N 
HETATM   18  C10 UNL     1     -21.883 -13.170  18.708  1.00  0.00     0.199 A 
ATOM     19  H7  UNL     1     -22.726 -14.355  17.185  1.00  0.00     0.169 HD
HETATM   20  N8  UNL     1     -20.990 -12.174  18.649  1.00  0.00    -0.294 N 
HETATM   21  N9  UNL     1     -20.660 -12.003  17.370  1.00  0.00    -0.274 N 
ATOM     22  H8  UNL     1     -20.628 -11.643  19.440  1.00  0.00     0.187 HD
ATOM     23  H9  UNL     1     -19.996 -11.312  17.021  1.00  0.00     0.189 HD
ENDBRANCH  13  16
ENDBRANCH  11  13
ENDBRANCH   1  11
BRANCH  10  24
HETATM   24  N6  UNL     1     -17.933 -10.528  15.189  1.00  0.00    -0.338 N 
ATOM     25  H6  UNL     1     -18.874 -10.350  15.539  1.00  0.00     0.167 HD
BRANCH  24  26
HETATM   26  C3  UNL     1     -17.011  -9.469  15.181  1.00  0.00     0.033 A 
HETATM   27  C4  UNL     1     -16.584  -8.953  13.988  1.00  0.00     0.029 A 
HETATM   28  C5  UNL     1     -15.672  -7.905  13.949  1.00  0.00     0.002 A 
HETATM   29  C6  UNL     1     -15.227  -7.419  15.155  1.00  0.00     0.000 A 
HETATM   30  C7  UNL     1     -15.632  -7.910  16.378  1.00  0.00     0.002 A 
HETATM   31  C8  UNL     1     -16.549  -8.964  16.371  1.00  0.00     0.029 A 
ENDBRANCH  24  26
ENDBRANCH  10  24
TORSDOF 5
ENDMDL
MODEL 4
REMARK VINA RESULT: -7.553063166      4.194      6.147
REMARK  5 active torsions:
REMARK  status: ('A' for Active; 'I' for Inactive)
REMARK    1  A    between atoms: S1_2  and  N1_4 
REMARK    2  A    between atoms: S1_2  and  C9_24 
REMARK    3  A    between atoms: N1_4  and  C1_6 
REMARK    4  A    between atoms: C2_15  and  N6_16 
REMARK    5  A    between atoms: N6_16  and  C3_18 
ROOT
HETATM    1  C1  UNL     1     -16.765 -13.448  14.429  1.00  0.00     0.177 A 
HETATM    2  N2  UNL     1     -17.808 -14.126  13.851  1.00  0.00    -0.266 N 
ATOM      3  H2  UNL     1     -17.627 -14.943  13.267  1.00  0.00     0.190 HD
HETATM    4  N3  UNL     1     -19.038 -13.720  14.051  1.00  0.00    -0.226 N 
ATOM      5  H3  UNL     1     -19.788 -14.247  13.604  1.00  0.00     0.210 HD
HETATM    6  N4  UNL     1     -19.374 -12.683  14.785  1.00  0.00    -0.227 N 
ATOM      7  H4  UNL     1     -20.351 -12.412  14.906  1.00  0.00     0.210 HD
HETATM    8  N5  UNL     1     -18.402 -12.008  15.355  1.00  0.00    -0.267 N 
ATOM      9  H5  UNL     1     -18.628 -11.198  15.931  1.00  0.00     0.190 HD
HETATM   10  C2  UNL     1     -17.108 -12.366  15.195  1.00  0.00     0.168 A 
ENDROOT
BRANCH   1  11
HETATM   11  N1  UNL     1     -15.612 -13.872  14.209  1.00  0.00    -0.259 N 
ATOM     12  H1  UNL     1     -14.894 -13.258  14.594  1.00  0.00     0.180 HD
BRANCH  11  13
HETATM   13  S1  UNL     1     -14.963 -15.209  13.434  1.00  0.00     0.297 S 
HETATM   14  O1  UNL     1     -15.964 -16.085  12.722  1.00  0.00    -0.197 OA
HETATM   15  O2  UNL     1     -14.259 -16.098  14.446  1.00  0.00    -0.197 OA
BRANCH  13  16
HETATM   16  C9  UNL     1     -13.699 -14.731  12.273  1.00  0.00     0.239 A 
HETATM   17  N7  UNL     1     -12.885 -13.664  12.347  1.00  0.00    -0.325 N 
HETATM   18  C10 UNL     1     -12.073 -13.658  11.278  1.00  0.00     0.199 A 
ATOM     19  H7  UNL     1     -12.884 -12.972  13.096  1.00  0.00     0.169 HD
HETATM   20  N8  UNL     1     -12.382 -14.725  10.530  1.00  0.00    -0.294 N 
HETATM   21  N9  UNL     1     -13.371 -15.374  11.141  1.00  0.00    -0.274 N 
ATOM     22  H8  UNL     1     -11.938 -14.993   9.652  1.00  0.00     0.187 HD
ATOM     23  H9  UNL     1     -13.812 -16.228  10.801  1.00  0.00     0.189 HD
ENDBRANCH  13  16
ENDBRANCH  11  13
ENDBRANCH   1  11
BRANCH  10  24
HETATM   24  N6  UNL     1     -16.203 -11.652  15.789  1.00  0.00    -0.338 N 
ATOM     25  H6  UNL     1     -15.615 -12.099  16.491  1.00  0.00     0.167 HD
BRANCH  24  26
HETATM   26  C3  UNL     1     -15.997 -10.291  15.511  1.00  0.00     0.033 A 
HETATM   27  C4  UNL     1     -16.109  -9.838  14.225  1.00  0.00     0.029 A 
HETATM   28  C5  UNL     1     -15.911  -8.497  13.920  1.00  0.00     0.002 A 
HETATM   29  C6  UNL     1     -15.600  -7.658  14.964  1.00  0.00     0.000 A 
HETATM   30  C7  UNL     1     -15.478  -8.073  16.273  1.00  0.00     0.002 A 
HETATM   31  C8  UNL     1     -15.686  -9.430  16.535  1.00  0.00     0.029 A 
ENDBRANCH  24  26
ENDBRANCH  10  24
TORSDOF 5
ENDMDL
MODEL 5
REMARK VINA RESULT: -7.524169268      2.175      3.043
REMARK  5 active torsions:
REMARK  status: ('A' for Active; 'I' for Inactive)
REMARK    1  A    between atoms: S1_2  and  N1_4 
REMARK    2  A    between atoms: S1_2  and  C9_24 
REMARK    3  A    between atoms: N1_4  and  C1_6 
REMARK    4  A    between atoms: C2_15  and  N6_16 
REMARK    5  A    between atoms: N6_16  and  C3_18 
ROOT
HETATM    1  C1  UNL     1     -18.934 -12.065  14.144  1.00  0.00     0.177 A 
HETATM    2  N2  UNL     1     -18.729 -13.341  13.685  1.00  0.00    -0.266 N 
ATOM      3  H2  UNL     1     -19.396 -13.767  13.040  1.00  0.00     0.190 HD
HETATM    4  N3  UNL     1     -17.675 -14.012  14.077  1.00  0.00    -0.226 N 
ATOM      5  H3  UNL     1     -17.555 -14.959  13.716  1.00  0.00     0.210 HD
HETATM    6  N4  UNL     1     -16.759 -13.555  14.901  1.00  0.00    -0.227 N 
ATOM      7  H4  UNL     1     -15.955 -14.123  15.171  1.00  0.00     0.210 HD
HETATM    8  N5  UNL     1     -16.920 -12.335  15.362  1.00  0.00    -0.267 N 
ATOM      9  H5  UNL     1     -16.229 -11.948  16.004  1.00  0.00     0.190 HD
HETATM   10  C2  UNL     1     -17.984 -11.581  15.004  1.00  0.00     0.168 A 
ENDROOT
BRANCH   1  11
HETATM   11  N1  UNL     1     -19.952 -11.466  13.743  1.00  0.00    -0.259 N 
ATOM     12  H1  UNL     1     -19.833 -11.084  12.805  1.00  0.00     0.180 HD
BRANCH  11  13
HETATM   13  S1  UNL     1     -21.469 -11.141  14.379  1.00  0.00     0.297 S 
HETATM   14  O1  UNL     1     -21.641 -11.488  15.837  1.00  0.00    -0.197 OA
HETATM   15  O2  UNL     1     -22.524 -11.932  13.623  1.00  0.00    -0.197 OA
BRANCH  13  16
HETATM   16  C9  UNL     1     -21.912  -9.431  14.147  1.00  0.00     0.239 A 
HETATM   17  N7  UNL     1     -22.562  -8.632  15.012  1.00  0.00    -0.325 N 
HETATM   18  C10 UNL     1     -22.702  -7.415  14.462  1.00  0.00     0.199 A 
ATOM     19  H7  UNL     1     -22.894  -8.907  15.936  1.00  0.00     0.169 HD
HETATM   20  N8  UNL     1     -22.139  -7.453  13.248  1.00  0.00    -0.294 N 
HETATM   21  N9  UNL     1     -21.660  -8.682  13.063  1.00  0.00    -0.274 N 
ATOM     22  H8  UNL     1     -22.086  -6.680  12.585  1.00  0.00     0.187 HD
ATOM     23  H9  UNL     1     -21.176  -9.004  12.225  1.00  0.00     0.189 HD
ENDBRANCH  13  16
ENDBRANCH  11  13
ENDBRANCH   1  11
BRANCH  10  24
HETATM   24  N6  UNL     1     -18.075 -10.387  15.500  1.00  0.00    -0.338 N 
ATOM     25  H6  UNL     1     -18.899 -10.151  16.053  1.00  0.00     0.167 HD
BRANCH  24  26
HETATM   26  C3  UNL     1     -17.092  -9.401  15.310  1.00  0.00     0.033 A 
HETATM   27  C4  UNL     1     -16.508  -8.810  16.397  1.00  0.00     0.029 A 
HETATM   28  C5  UNL     1     -15.533  -7.833  16.240  1.00  0.00     0.002 A 
HETATM   29  C6  UNL     1     -15.189  -7.494  14.954  1.00  0.00     0.000 A 
HETATM   30  C7  UNL     1     -15.753  -8.065  13.832  1.00  0.00     0.002 A 
HETATM   31  C8  UNL     1     -16.729  -9.043  14.036  1.00  0.00     0.029 A 
ENDBRANCH  24  26
ENDBRANCH  10  24
TORSDOF 5
ENDMDL
