MODEL 1
REMARK VINA RESULT: -6.570771653      0.000      0.000
REMARK  5 active torsions:
REMARK  status: ('A' for Active; 'I' for Inactive)
REMARK    1  A    between atoms: N2_5  and  C4_6 
REMARK    2  A    between atoms: C5_9  and  N4_10 
REMARK    3  A    between atoms: C10_18  and  N6_19 
REMARK    4  A    between atoms: C11_22  and  C12_23 
REMARK    5  A    between atoms: C12_23  and  N7_24 
ROOT
HETATM    1  C4  UNL     1     -20.006 -10.826  13.900  1.00  0.00     0.131 A 
HETATM    2  N3  UNL     1     -19.068  -9.949  14.327  1.00  0.00    -0.176 N 
ATOM      3  H3  UNL     1     -19.338  -8.971  14.435  1.00  0.00     0.186 HD
HETATM    4  C5  UNL     1     -17.810 -10.293  14.616  1.00  0.00     0.683 A 
HETATM    5  N5  UNL     1     -17.468 -11.587  14.468  1.00  0.00    -0.176 N 
ATOM      6  H5  UNL     1     -16.508 -11.856  14.686  1.00  0.00     0.186 HD
HETATM    7  C10 UNL     1     -18.306 -12.541  14.054  1.00  0.00     0.126 A 
HETATM    8  C11 UNL     1     -19.614 -12.140  13.763  1.00  0.00     0.056 A 
ENDROOT
BRANCH   1   9
HETATM    9  N2  UNL     1     -21.336 -10.455  13.596  1.00  0.00    -0.363 N 
HETATM   10  C3  UNL     1     -21.799 -10.151  12.259  1.00  0.00     0.154 C 
HETATM   11  C2  UNL     1     -23.298 -10.399  12.247  1.00  0.00     0.291 C 
HETATM   12  N1  UNL     1     -24.011  -9.561  13.160  1.00  0.00     0.087 N 
HETATM   13  C1  UNL     1     -24.580  -8.390  12.572  1.00  0.00     0.310 C 
HETATM   14  C14 UNL     1     -23.204  -9.164  14.306  1.00  0.00     0.291 C 
HETATM   15  C13 UNL     1     -22.328 -10.362  14.662  1.00  0.00     0.154 C 
ENDBRANCH   1   9
BRANCH   8  16
HETATM   16  C12 UNL     1     -20.587 -13.142  13.302  1.00  0.00     0.275 C 
BRANCH  16  17
HETATM   17  N7  UNL     1     -21.222 -13.793  14.450  1.00  0.00    -0.075 N 
ATOM     18  H73 UNL     1     -20.723 -13.605  15.319  1.00  0.00     0.274 HD
ATOM     19  H72 UNL     1     -22.113 -13.357  14.691  1.00  0.00     0.274 HD
ATOM     20  H71 UNL     1     -21.323 -14.793  14.276  1.00  0.00     0.274 HD
ENDBRANCH  16  17
ENDBRANCH   8  16
BRANCH   4  21
HETATM   21  N4  UNL     1     -16.843  -9.348  15.063  1.00  0.00    -0.213 N 
HETATM   22  C6  UNL     1     -15.786  -8.925  14.173  1.00  0.00     0.167 C 
HETATM   23  C7  UNL     1     -15.366  -7.540  14.623  1.00  0.00     0.188 C 
HETATM   24  O1  UNL     1     -14.800  -7.650  15.864  1.00  0.00    -0.388 OA
HETATM   25  C8  UNL     1     -15.567  -8.239  16.829  1.00  0.00     0.188 C 
HETATM   26  C9  UNL     1     -16.876  -8.790  16.381  1.00  0.00     0.167 C 
ENDBRANCH   4  21
BRANCH   7  27
HETATM   27  N6  UNL     1     -17.937 -13.762  13.928  1.00  0.00    -0.384 N 
ATOM     28  H62 UNL     1     -17.010 -14.005  13.580  1.00  0.00     0.157 HD
ATOM     29  H61 UNL     1     -18.551 -14.541  14.170  1.00  0.00     0.157 HD
ENDBRANCH   7  27
TORSDOF 5
ENDMDL
MODEL 2
REMARK VINA RESULT: -6.503408522      0.495      1.155
REMARK  5 active torsions:
REMARK  status: ('A' for Active; 'I' for Inactive)
REMARK    1  A    between atoms: N2_5  and  C4_6 
REMARK    2  A    between atoms: C5_9  and  N4_10 
REMARK    3  A    between atoms: C10_18  and  N6_19 
REMARK    4  A    between atoms: C11_22  and  C12_23 
REMARK    5  A    between atoms: C12_23  and  N7_24 
ROOT
HETATM    1  C4  UNL     1     -20.005 -10.824  13.943  1.00  0.00     0.131 A 
HETATM    2  N3  UNL     1     -19.066  -9.948  14.368  1.00  0.00    -0.176 N 
ATOM      3  H3  UNL     1     -19.339  -8.973  14.490  1.00  0.00     0.186 HD
HETATM    4  C5  UNL     1     -17.803 -10.289  14.637  1.00  0.00     0.683 A 
HETATM    5  N5  UNL     1     -17.457 -11.580  14.471  1.00  0.00    -0.176 N 
ATOM      6  H5  UNL     1     -16.494 -11.847  14.674  1.00  0.00     0.186 HD
HETATM    7  C10 UNL     1     -18.296 -12.534  14.057  1.00  0.00     0.126 A 
HETATM    8  C11 UNL     1     -19.609 -12.135  13.786  1.00  0.00     0.056 A 
ENDROOT
BRANCH   1   9
HETATM    9  N2  UNL     1     -21.341 -10.456  13.660  1.00  0.00    -0.363 N 
HETATM   10  C3  UNL     1     -22.394 -10.434  14.653  1.00  0.00     0.154 C 
HETATM   11  C2  UNL     1     -23.447  -9.458  14.152  1.00  0.00     0.291 C 
HETATM   12  N1  UNL     1     -24.026  -9.852  12.906  1.00  0.00     0.087 N 
HETATM   13  C1  UNL     1     -25.267 -10.550  13.021  1.00  0.00     0.310 C 
HETATM   14  C14 UNL     1     -23.117 -10.646  12.090  1.00  0.00     0.291 C 
HETATM   15  C13 UNL     1     -21.720 -10.072  12.305  1.00  0.00     0.154 C 
ENDBRANCH   1   9
BRANCH   8  16
HETATM   16  C12 UNL     1     -20.584 -13.136  13.326  1.00  0.00     0.275 C 
BRANCH  16  17
HETATM   17  N7  UNL     1     -21.188 -13.816  14.474  1.00  0.00    -0.075 N 
ATOM     18  H73 UNL     1     -20.780 -13.508  15.357  1.00  0.00     0.274 HD
ATOM     19  H72 UNL     1     -22.148 -13.511  14.637  1.00  0.00     0.274 HD
ATOM     20  H71 UNL     1     -21.125 -14.827  14.357  1.00  0.00     0.274 HD
ENDBRANCH  16  17
ENDBRANCH   8  16
BRANCH   4  21
HETATM   21  N4  UNL     1     -16.835  -9.345  15.083  1.00  0.00    -0.213 N 
HETATM   22  C6  UNL     1     -15.765  -8.940  14.199  1.00  0.00     0.167 C 
HETATM   23  C7  UNL     1     -15.341  -7.552  14.637  1.00  0.00     0.188 C 
HETATM   24  O1  UNL     1     -14.789  -7.651  15.885  1.00  0.00    -0.388 OA
HETATM   25  C8  UNL     1     -15.570  -8.224  16.849  1.00  0.00     0.188 C 
HETATM   26  C9  UNL     1     -16.877  -8.771  16.394  1.00  0.00     0.167 C 
ENDBRANCH   4  21
BRANCH   7  27
HETATM   27  N6  UNL     1     -17.923 -13.752  13.912  1.00  0.00    -0.384 N 
ATOM     28  H62 UNL     1     -18.250 -14.318  13.130  1.00  0.00     0.157 HD
ATOM     29  H61 UNL     1     -17.287 -14.204  14.569  1.00  0.00     0.157 HD
ENDBRANCH   7  27
TORSDOF 5
ENDMDL
MODEL 3
REMARK VINA RESULT: -6.410993517      0.211      1.041
REMARK  5 active torsions:
REMARK  status: ('A' for Active; 'I' for Inactive)
REMARK    1  A    between atoms: N2_5  and  C4_6 
REMARK    2  A    between atoms: C5_9  and  N4_10 
REMARK    3  A    between atoms: C10_18  and  N6_19 
REMARK    4  A    between atoms: C11_22  and  C12_23 
REMARK    5  A    between atoms: C12_23  and  N7_24 
ROOT
HETATM    1  C4  UNL     1     -20.049 -10.861  13.811  1.00  0.00     0.131 A 
HETATM    2  N3  UNL     1     -19.124  -9.957  14.206  1.00  0.00    -0.176 N 
ATOM      3  H3  UNL     1     -19.403  -8.977  14.262  1.00  0.00     0.186 HD
HETATM    4  C5  UNL     1     -17.868 -10.274  14.529  1.00  0.00     0.683 A 
HETATM    5  N5  UNL     1     -17.513 -11.571  14.450  1.00  0.00    -0.176 N 
ATOM      6  H5  UNL     1     -16.555 -11.821  14.694  1.00  0.00     0.186 HD
HETATM    7  C10 UNL     1     -18.338 -12.552  14.072  1.00  0.00     0.126 A 
HETATM    8  C11 UNL     1     -19.645 -12.177  13.744  1.00  0.00     0.056 A 
ENDROOT
BRANCH   1   9
HETATM    9  N2  UNL     1     -21.377 -10.517  13.471  1.00  0.00    -0.363 N 
HETATM   10  C3  UNL     1     -21.836 -10.334  12.110  1.00  0.00     0.154 C 
HETATM   11  C2  UNL     1     -23.336 -10.579  12.116  1.00  0.00     0.291 C 
HETATM   12  N1  UNL     1     -24.050  -9.662  12.948  1.00  0.00     0.087 N 
HETATM   13  C1  UNL     1     -24.615  -8.547  12.256  1.00  0.00     0.310 C 
HETATM   14  C14 UNL     1     -23.245  -9.165  14.056  1.00  0.00     0.291 C 
HETATM   15  C13 UNL     1     -22.372 -10.328  14.521  1.00  0.00     0.154 C 
ENDBRANCH   1   9
BRANCH   8  16
HETATM   16  C12 UNL     1     -20.603 -13.209  13.320  1.00  0.00     0.275 C 
BRANCH  16  17
HETATM   17  N7  UNL     1     -21.268 -13.789  14.488  1.00  0.00    -0.075 N 
ATOM     18  H73 UNL     1     -21.713 -13.077  15.068  1.00  0.00     0.274 HD
ATOM     19  H72 UNL     1     -22.103 -14.316  14.230  1.00  0.00     0.274 HD
ATOM     20  H71 UNL     1     -20.610 -14.358  15.021  1.00  0.00     0.274 HD
ENDBRANCH  16  17
ENDBRANCH   8  16
BRANCH   4  21
HETATM   21  N4  UNL     1     -16.915  -9.300  14.942  1.00  0.00    -0.213 N 
HETATM   22  C6  UNL     1     -16.916  -8.828  16.309  1.00  0.00     0.167 C 
HETATM   23  C7  UNL     1     -15.503  -8.373  16.613  1.00  0.00     0.188 C 
HETATM   24  O1  UNL     1     -15.230  -7.283  15.832  1.00  0.00    -0.388 OA
HETATM   25  C8  UNL     1     -15.384  -7.450  14.485  1.00  0.00     0.188 C 
HETATM   26  C9  UNL     1     -15.938  -8.760  14.046  1.00  0.00     0.167 C 
ENDBRANCH   4  21
BRANCH   7  27
HETATM   27  N6  UNL     1     -17.958 -13.775  14.012  1.00  0.00    -0.384 N 
ATOM     28  H62 UNL     1     -17.136 -14.102  14.520  1.00  0.00     0.157 HD
ATOM     29  H61 UNL     1     -18.457 -14.470  13.457  1.00  0.00     0.157 HD
ENDBRANCH   7  27
TORSDOF 5
ENDMDL
MODEL 4
REMARK VINA RESULT: -6.349616101      0.546      1.573
REMARK  5 active torsions:
REMARK  status: ('A' for Active; 'I' for Inactive)
REMARK    1  A    between atoms: N2_5  and  C4_6 
REMARK    2  A    between atoms: C5_9  and  N4_10 
REMARK    3  A    between atoms: C10_18  and  N6_19 
REMARK    4  A    between atoms: C11_22  and  C12_23 
REMARK    5  A    between atoms: C12_23  and  N7_24 
ROOT
HETATM    1  C4  UNL     1     -20.050 -10.880  13.885  1.00  0.00     0.131 A 
HETATM    2  N3  UNL     1     -19.128  -9.967  14.264  1.00  0.00    -0.176 N 
ATOM      3  H3  UNL     1     -19.423  -8.994  14.352  1.00  0.00     0.186 HD
HETATM    4  C5  UNL     1     -17.854 -10.266  14.531  1.00  0.00     0.683 A 
HETATM    5  N5  UNL     1     -17.478 -11.554  14.409  1.00  0.00    -0.176 N 
ATOM      6  H5  UNL     1     -16.506 -11.789  14.610  1.00  0.00     0.186 HD
HETATM    7  C10 UNL     1     -18.298 -12.543  14.043  1.00  0.00     0.126 A 
HETATM    8  C11 UNL     1     -19.624 -12.187  13.774  1.00  0.00     0.056 A 
ENDROOT
BRANCH   1   9
HETATM    9  N2  UNL     1     -21.397 -10.556  13.605  1.00  0.00    -0.363 N 
HETATM   10  C3  UNL     1     -22.433 -10.491  14.614  1.00  0.00     0.154 C 
HETATM   11  C2  UNL     1     -23.514  -9.569  14.074  1.00  0.00     0.291 C 
HETATM   12  N1  UNL     1     -24.107 -10.051  12.866  1.00  0.00     0.087 N 
HETATM   13  C1  UNL     1     -25.332 -10.763  13.047  1.00  0.00     0.310 C 
HETATM   14  C14 UNL     1     -23.197 -10.877  12.084  1.00  0.00     0.291 C 
HETATM   15  C13 UNL     1     -21.808 -10.266  12.236  1.00  0.00     0.154 C 
ENDBRANCH   1   9
BRANCH   8  16
HETATM   16  C12 UNL     1     -20.578 -13.228  13.365  1.00  0.00     0.275 C 
BRANCH  16  17
HETATM   17  N7  UNL     1     -21.167 -13.864  14.545  1.00  0.00    -0.075 N 
ATOM     18  H73 UNL     1     -21.005 -13.319  15.392  1.00  0.00     0.274 HD
ATOM     19  H72 UNL     1     -22.186 -13.824  14.533  1.00  0.00     0.274 HD
ATOM     20  H71 UNL     1     -20.824 -14.821  14.636  1.00  0.00     0.274 HD
ENDBRANCH  16  17
ENDBRANCH   8  16
BRANCH   4  21
HETATM   21  N4  UNL     1     -16.904  -9.283  14.928  1.00  0.00    -0.213 N 
HETATM   22  C6  UNL     1     -16.875  -8.824  16.299  1.00  0.00     0.167 C 
HETATM   23  C7  UNL     1     -15.461  -8.351  16.570  1.00  0.00     0.188 C 
HETATM   24  O1  UNL     1     -15.225  -7.250  15.793  1.00  0.00    -0.388 OA
HETATM   25  C8  UNL     1     -15.413  -7.405  14.448  1.00  0.00     0.188 C 
HETATM   26  C9  UNL     1     -15.960  -8.719  14.011  1.00  0.00     0.167 C 
ENDBRANCH   4  21
BRANCH   7  27
HETATM   27  N6  UNL     1     -17.897 -13.756  13.941  1.00  0.00    -0.384 N 
ATOM     28  H62 UNL     1     -17.121 -14.010  13.330  1.00  0.00     0.157 HD
ATOM     29  H61 UNL     1     -18.334 -14.516  14.463  1.00  0.00     0.157 HD
ENDBRANCH   7  27
TORSDOF 5
ENDMDL
MODEL 5
REMARK VINA RESULT: -5.903606391      2.467      6.297
REMARK  5 active torsions:
REMARK  status: ('A' for Active; 'I' for Inactive)
REMARK    1  A    between atoms: N2_5  and  C4_6 
REMARK    2  A    between atoms: C5_9  and  N4_10 
REMARK    3  A    between atoms: C10_18  and  N6_19 
REMARK    4  A    between atoms: C11_22  and  C12_23 
REMARK    5  A    between atoms: C12_23  and  N7_24 
ROOT
HETATM    1  C4  UNL     1     -18.454 -10.396  14.148  1.00  0.00     0.131 A 
HETATM    2  N3  UNL     1     -19.622  -9.789  13.839  1.00  0.00    -0.176 N 
ATOM      3  H3  UNL     1     -19.668  -8.772  13.905  1.00  0.00     0.186 HD
HETATM    4  C5  UNL     1     -20.719 -10.445  13.451  1.00  0.00     0.683 A 
HETATM    5  N5  UNL     1     -20.645 -11.788  13.369  1.00  0.00    -0.176 N 
ATOM      6  H5  UNL     1     -21.479 -12.295  13.074  1.00  0.00     0.186 HD
HETATM    7  C10 UNL     1     -19.548 -12.496  13.648  1.00  0.00     0.126 A 
HETATM    8  C11 UNL     1     -18.422 -11.771  14.050  1.00  0.00     0.056 A 
ENDROOT
BRANCH   1   9
HETATM    9  N2  UNL     1     -17.297  -9.695  14.558  1.00  0.00    -0.363 N 
HETATM   10  C3  UNL     1     -17.068  -9.250  15.916  1.00  0.00     0.154 C 
HETATM   11  C2  UNL     1     -15.563  -9.111  16.083  1.00  0.00     0.291 C 
HETATM   12  N1  UNL     1     -14.989  -8.143  15.201  1.00  0.00     0.087 N 
HETATM   13  C1  UNL     1     -14.794  -6.852  15.780  1.00  0.00     0.310 C 
HETATM   14  C14 UNL     1     -15.745  -7.993  13.965  1.00  0.00     0.291 C 
HETATM   15  C13 UNL     1     -16.253  -9.382  13.588  1.00  0.00     0.154 C 
ENDBRANCH   1   9
BRANCH   8  16
HETATM   16  C12 UNL     1     -17.180 -12.491  14.374  1.00  0.00     0.275 C 
BRANCH  16  17
HETATM   17  N7  UNL     1     -17.145 -12.819  15.801  1.00  0.00    -0.075 N 
ATOM     18  H73 UNL     1     -16.191 -12.949  16.138  1.00  0.00     0.274 HD
ATOM     19  H72 UNL     1     -17.402 -12.021  16.382  1.00  0.00     0.274 HD
ATOM     20  H71 UNL     1     -17.731 -13.632  15.989  1.00  0.00     0.274 HD
ENDBRANCH  16  17
ENDBRANCH   8  16
BRANCH   4  21
HETATM   21  N4  UNL     1     -21.936  -9.779  13.131  1.00  0.00    -0.213 N 
HETATM   22  C6  UNL     1     -22.734 -10.236  12.016  1.00  0.00     0.167 C 
HETATM   23  C7  UNL     1     -24.166  -9.834  12.311  1.00  0.00     0.188 C 
HETATM   24  O1  UNL     1     -24.234  -8.467  12.296  1.00  0.00    -0.388 OA
HETATM   25  C8  UNL     1     -23.383  -7.809  13.138  1.00  0.00     0.188 C 
HETATM   26  C9  UNL     1     -22.411  -8.657  13.882  1.00  0.00     0.167 C 
ENDBRANCH   4  21
BRANCH   7  27
HETATM   27  N6  UNL     1     -19.522 -13.775  13.556  1.00  0.00    -0.384 N 
ATOM     28  H62 UNL     1     -19.719 -14.370  14.360  1.00  0.00     0.157 HD
ATOM     29  H61 UNL     1     -19.304 -14.249  12.679  1.00  0.00     0.157 HD
ENDBRANCH   7  27
TORSDOF 5
ENDMDL
