MODEL 1
REMARK VINA RESULT: -7.327327249      0.000      0.000
REMARK  4 active torsions:
REMARK  status: ('A' for Active; 'I' for Inactive)
REMARK    1  A    between atoms: C3_3  and  C4_4 
REMARK    2  A    between atoms: C4_4  and  N1_5 
REMARK    3  A    between atoms: N2_8  and  C7_9 
REMARK    4  A    between atoms: C10_19  and  N6_20 
ROOT
HETATM    1  C1  UNL     1     -14.599  -7.044  15.299  1.00  0.00     0.012 C 
HETATM    2  C2  UNL     1     -15.311  -7.736  14.612  1.00  0.00    -0.116 C 
HETATM    3  C3  UNL     1     -16.186  -8.606  13.787  1.00  0.00     0.123 C 
ENDROOT
BRANCH   3   4
HETATM    4  C4  UNL     1     -16.056  -9.993  14.347  1.00  0.00     0.284 C 
BRANCH   4   5
HETATM    5  N1  UNL     1     -17.298 -10.643  14.637  1.00  0.00     0.092 N 
HETATM    6  C5  UNL     1     -18.411 -10.024  13.985  1.00  0.00     0.293 C 
HETATM    7  C6  UNL     1     -19.684 -10.760  14.234  1.00  0.00     0.171 C 
HETATM    8  N2  UNL     1     -19.491 -12.070  14.837  1.00  0.00    -0.213 N 
HETATM    9  C12 UNL     1     -18.356 -12.873  14.468  1.00  0.00     0.171 C 
HETATM   10  C13 UNL     1     -17.139 -12.036  14.300  1.00  0.00     0.293 C 
BRANCH   8  11
HETATM   11  C7  UNL     1     -20.415 -12.589  15.790  1.00  0.00     0.696 A 
HETATM   12  N3  UNL     1     -21.432 -13.353  15.374  1.00  0.00    -0.131 N 
HETATM   13  N4  UNL     1     -22.332 -13.866  16.195  1.00  0.00    -0.278 N 
ATOM     14  H3  UNL     1     -21.517 -13.548  14.377  1.00  0.00     0.205 HD
HETATM   15  C8  UNL     1     -22.238 -13.620  17.522  1.00  0.00     0.162 A 
ATOM     16  H4  UNL     1     -23.090 -14.444  15.831  1.00  0.00     0.188 HD
HETATM   17  C9  UNL     1     -23.168 -14.143  18.406  1.00  0.00     0.291 A 
HETATM   18  C11 UNL     1     -21.207 -12.841  17.980  1.00  0.00     0.170 A 
HETATM   19  O1  UNL     1     -24.103 -14.854  17.965  1.00  0.00    -0.265 OA
HETATM   20  N5  UNL     1     -23.002 -13.847  19.712  1.00  0.00    -0.154 N 
HETATM   21  C10 UNL     1     -21.996 -13.085  20.169  1.00  0.00     0.680 A 
ATOM     22  H5  UNL     1     -23.674 -14.219  20.383  1.00  0.00     0.187 HD
HETATM   23  N7  UNL     1     -21.087 -12.574  19.311  1.00  0.00    -0.174 N 
ATOM     24  H7  UNL     1     -20.321 -11.994  19.654  1.00  0.00     0.186 HD
HETATM   25  N8  UNL     1     -20.296 -12.326  17.111  1.00  0.00    -0.172 N 
ATOM     26  H8  UNL     1     -19.530 -11.746  17.454  1.00  0.00     0.186 HD
BRANCH  21  27
HETATM   27  N6  UNL     1     -21.914 -12.853  21.419  1.00  0.00    -0.234 N 
ATOM     28  H62 UNL     1     -22.754 -12.756  21.988  1.00  0.00     0.174 HD
ATOM     29  H61 UNL     1     -20.992 -12.767  21.848  1.00  0.00     0.174 HD
ENDBRANCH  21  27
ENDBRANCH   8  11
ENDBRANCH   4   5
ENDBRANCH   3   4
TORSDOF 4
ENDMDL
MODEL 2
REMARK VINA RESULT: -6.801782071      4.960      7.252
REMARK  4 active torsions:
REMARK  status: ('A' for Active; 'I' for Inactive)
REMARK    1  A    between atoms: C3_3  and  C4_4 
REMARK    2  A    between atoms: C4_4  and  N1_5 
REMARK    3  A    between atoms: N2_8  and  C7_9 
REMARK    4  A    between atoms: C10_19  and  N6_20 
ROOT
HETATM    1  C1  UNL     1     -14.102 -14.375   8.234  1.00  0.00     0.012 C 
HETATM    2  C2  UNL     1     -14.093 -15.531   8.582  1.00  0.00    -0.116 C 
HETATM    3  C3  UNL     1     -14.078 -16.944   9.035  1.00  0.00     0.123 C 
ENDROOT
BRANCH   3   4
HETATM    4  C4  UNL     1     -13.345 -16.961  10.346  1.00  0.00     0.284 C 
BRANCH   4   5
HETATM    5  N1  UNL     1     -13.944 -16.171  11.379  1.00  0.00     0.092 N 
HETATM    6  C5  UNL     1     -14.737 -16.949  12.281  1.00  0.00     0.293 C 
HETATM    7  C6  UNL     1     -15.289 -16.124  13.393  1.00  0.00     0.171 C 
HETATM    8  N2  UNL     1     -14.695 -14.798  13.485  1.00  0.00    -0.213 N 
HETATM    9  C12 UNL     1     -13.301 -14.611  13.188  1.00  0.00     0.171 C 
HETATM   10  C13 UNL     1     -12.883 -15.445  12.030  1.00  0.00     0.293 C 
BRANCH   8  11
HETATM   11  C7  UNL     1     -15.469 -13.667  13.877  1.00  0.00     0.696 A 
HETATM   12  N3  UNL     1     -14.862 -12.491  14.081  1.00  0.00    -0.131 N 
HETATM   13  N4  UNL     1     -15.509 -11.400  14.449  1.00  0.00    -0.278 N 
ATOM     14  H3  UNL     1     -13.853 -12.436  13.945  1.00  0.00     0.205 HD
HETATM   15  C8  UNL     1     -16.848 -11.452  14.635  1.00  0.00     0.162 A 
ATOM     16  H4  UNL     1     -15.003 -10.526  14.592  1.00  0.00     0.188 HD
HETATM   17  C9  UNL     1     -17.553 -10.324  15.023  1.00  0.00     0.291 A 
HETATM   18  C11 UNL     1     -17.500 -12.641  14.435  1.00  0.00     0.170 A 
HETATM   19  O1  UNL     1     -16.937  -9.245  15.201  1.00  0.00    -0.265 OA
HETATM   20  N5  UNL     1     -18.885 -10.463  15.188  1.00  0.00    -0.154 N 
HETATM   21  C10 UNL     1     -19.530 -11.624  14.994  1.00  0.00     0.680 A 
ATOM     22  H5  UNL     1     -19.427  -9.648  15.475  1.00  0.00     0.187 HD
HETATM   23  N7  UNL     1     -18.847 -12.725  14.615  1.00  0.00    -0.174 N 
ATOM     24  H7  UNL     1     -19.334 -13.609  14.467  1.00  0.00     0.186 HD
HETATM   25  N8  UNL     1     -16.807 -13.749  14.055  1.00  0.00    -0.172 N 
ATOM     26  H8  UNL     1     -17.293 -14.634  13.907  1.00  0.00     0.186 HD
BRANCH  21  27
HETATM   27  N6  UNL     1     -20.791 -11.668  15.173  1.00  0.00    -0.234 N 
ATOM     28  H62 UNL     1     -21.308 -10.836  15.456  1.00  0.00     0.174 HD
ATOM     29  H61 UNL     1     -21.281 -12.552  15.028  1.00  0.00     0.174 HD
ENDBRANCH  21  27
ENDBRANCH   8  11
ENDBRANCH   4   5
ENDBRANCH   3   4
TORSDOF 4
ENDMDL
MODEL 3
REMARK VINA RESULT: -6.780262513      3.429      7.535
REMARK  4 active torsions:
REMARK  status: ('A' for Active; 'I' for Inactive)
REMARK    1  A    between atoms: C3_3  and  C4_4 
REMARK    2  A    between atoms: C4_4  and  N1_5 
REMARK    3  A    between atoms: N2_8  and  C7_9 
REMARK    4  A    between atoms: C10_19  and  N6_20 
ROOT
HETATM    1  C1  UNL     1     -22.569 -13.690  17.956  1.00  0.00     0.012 C 
HETATM    2  C2  UNL     1     -22.919 -14.412  17.053  1.00  0.00    -0.116 C 
HETATM    3  C3  UNL     1     -23.337 -15.282  15.926  1.00  0.00     0.123 C 
ENDROOT
BRANCH   3   4
HETATM    4  C4  UNL     1     -23.200 -14.457  14.679  1.00  0.00     0.284 C 
BRANCH   4   5
HETATM    5  N1  UNL     1     -21.907 -13.877  14.481  1.00  0.00     0.092 N 
HETATM    6  C5  UNL     1     -20.970 -14.796  13.910  1.00  0.00     0.293 C 
HETATM    7  C6  UNL     1     -19.652 -14.155  13.638  1.00  0.00     0.171 C 
HETATM    8  N2  UNL     1     -19.678 -12.703  13.746  1.00  0.00    -0.213 N 
HETATM    9  C12 UNL     1     -20.840 -11.970  13.321  1.00  0.00     0.171 C 
HETATM   10  C13 UNL     1     -22.090 -12.683  13.694  1.00  0.00     0.293 C 
BRANCH   8  11
HETATM   11  C7  UNL     1     -18.562 -11.980  14.259  1.00  0.00     0.696 A 
HETATM   12  N3  UNL     1     -17.810 -12.524  15.222  1.00  0.00    -0.131 N 
HETATM   13  N4  UNL     1     -16.763 -11.915  15.752  1.00  0.00    -0.278 N 
ATOM     14  H3  UNL     1     -18.055 -13.453  15.564  1.00  0.00     0.205 HD
HETATM   15  C8  UNL     1     -16.420 -10.682  15.313  1.00  0.00     0.162 A 
ATOM     16  H4  UNL     1     -16.219 -12.370  16.484  1.00  0.00     0.188 HD
HETATM   17  C9  UNL     1     -15.329 -10.017  15.851  1.00  0.00     0.291 A 
HETATM   18  C11 UNL     1     -17.171 -10.095  14.327  1.00  0.00     0.170 A 
HETATM   19  O1  UNL     1     -14.655 -10.572  16.753  1.00  0.00    -0.265 OA
HETATM   20  N5  UNL     1     -15.058  -8.791  15.359  1.00  0.00    -0.154 N 
HETATM   21  C10 UNL     1     -15.788  -8.210  14.394  1.00  0.00     0.680 A 
ATOM     22  H5  UNL     1     -14.261  -8.280  15.739  1.00  0.00     0.187 HD
HETATM   23  N7  UNL     1     -16.852  -8.854  13.867  1.00  0.00    -0.174 N 
ATOM     24  H7  UNL     1     -17.409  -8.416  13.133  1.00  0.00     0.186 HD
HETATM   25  N8  UNL     1     -18.244 -10.747  13.801  1.00  0.00    -0.172 N 
ATOM     26  H8  UNL     1     -18.802 -10.310  13.068  1.00  0.00     0.186 HD
BRANCH  21  27
HETATM   27  N6  UNL     1     -15.463  -7.047  13.986  1.00  0.00    -0.234 N 
ATOM     28  H62 UNL     1     -14.601  -6.900  13.462  1.00  0.00     0.174 HD
ATOM     29  H61 UNL     1     -16.079  -6.260  14.191  1.00  0.00     0.174 HD
ENDBRANCH  21  27
ENDBRANCH   8  11
ENDBRANCH   4   5
ENDBRANCH   3   4
TORSDOF 4
ENDMDL
MODEL 4
REMARK VINA RESULT: -6.768543469      4.809      7.344
REMARK  4 active torsions:
REMARK  status: ('A' for Active; 'I' for Inactive)
REMARK    1  A    between atoms: C3_3  and  C4_4 
REMARK    2  A    between atoms: C4_4  and  N1_5 
REMARK    3  A    between atoms: N2_8  and  C7_9 
REMARK    4  A    between atoms: C10_19  and  N6_20 
ROOT
HETATM    1  C1  UNL     1     -14.125 -14.209   8.230  1.00  0.00     0.012 C 
HETATM    2  C2  UNL     1     -14.026 -15.373   8.538  1.00  0.00    -0.116 C 
HETATM    3  C3  UNL     1     -13.900 -16.795   8.941  1.00  0.00     0.123 C 
ENDROOT
BRANCH   3   4
HETATM    4  C4  UNL     1     -13.165 -16.801  10.250  1.00  0.00     0.284 C 
BRANCH   4   5
HETATM    5  N1  UNL     1     -13.818 -16.093  11.309  1.00  0.00     0.092 N 
HETATM    6  C5  UNL     1     -14.498 -16.963  12.219  1.00  0.00     0.293 C 
HETATM    7  C6  UNL     1     -15.106 -16.215  13.357  1.00  0.00     0.171 C 
HETATM    8  N2  UNL     1     -14.656 -14.834  13.454  1.00  0.00    -0.213 N 
HETATM    9  C12 UNL     1     -13.298 -14.494  13.124  1.00  0.00     0.171 C 
HETATM   10  C13 UNL     1     -12.824 -15.264  11.944  1.00  0.00     0.293 C 
BRANCH   8  11
HETATM   11  C7  UNL     1     -15.536 -13.798  13.881  1.00  0.00     0.696 A 
HETATM   12  N3  UNL     1     -16.856 -14.023  13.909  1.00  0.00    -0.131 N 
HETATM   13  N4  UNL     1     -17.735 -13.113  14.288  1.00  0.00    -0.278 N 
ATOM     14  H3  UNL     1     -17.198 -14.941  13.626  1.00  0.00     0.205 HD
HETATM   15  C8  UNL     1     -17.302 -11.888  14.668  1.00  0.00     0.162 A 
ATOM     16  H4  UNL     1     -18.731 -13.331  14.295  1.00  0.00     0.188 HD
HETATM   17  C9  UNL     1     -18.201 -10.912  15.069  1.00  0.00     0.291 A 
HETATM   18  C11 UNL     1     -15.957 -11.625  14.650  1.00  0.00     0.170 A 
HETATM   19  O1  UNL     1     -19.429 -11.174  15.078  1.00  0.00    -0.265 OA
HETATM   20  N5  UNL     1     -17.686  -9.719  15.429  1.00  0.00    -0.154 N 
HETATM   21  C10 UNL     1     -16.371  -9.453  15.414  1.00  0.00     0.680 A 
ATOM     22  H5  UNL     1     -18.327  -8.983  15.727  1.00  0.00     0.187 HD
HETATM   23  N7  UNL     1     -15.491 -10.401  15.025  1.00  0.00    -0.174 N 
ATOM     24  H7  UNL     1     -14.490 -10.203  15.012  1.00  0.00     0.186 HD
HETATM   25  N8  UNL     1     -15.075 -12.583  14.255  1.00  0.00    -0.172 N 
ATOM     26  H8  UNL     1     -14.074 -12.386  14.241  1.00  0.00     0.186 HD
BRANCH  21  27
HETATM   27  N6  UNL     1     -15.968  -8.298  15.770  1.00  0.00    -0.234 N 
ATOM     28  H62 UNL     1     -16.055  -7.990  16.738  1.00  0.00     0.174 HD
ATOM     29  H61 UNL     1     -15.554  -7.680  15.071  1.00  0.00     0.174 HD
ENDBRANCH  21  27
ENDBRANCH   8  11
ENDBRANCH   4   5
ENDBRANCH   3   4
TORSDOF 4
ENDMDL
MODEL 5
REMARK VINA RESULT: -6.629561629      1.235      2.338
REMARK  4 active torsions:
REMARK  status: ('A' for Active; 'I' for Inactive)
REMARK    1  A    between atoms: C3_3  and  C4_4 
REMARK    2  A    between atoms: C4_4  and  N1_5 
REMARK    3  A    between atoms: N2_8  and  C7_9 
REMARK    4  A    between atoms: C10_19  and  N6_20 
ROOT
HETATM    1  C1  UNL     1     -14.589  -7.003  15.286  1.00  0.00     0.012 C 
HETATM    2  C2  UNL     1     -15.284  -7.727  14.614  1.00  0.00    -0.116 C 
HETATM    3  C3  UNL     1     -16.138  -8.635  13.809  1.00  0.00     0.123 C 
ENDROOT
BRANCH   3   4
HETATM    4  C4  UNL     1     -16.026  -9.993  14.439  1.00  0.00     0.284 C 
BRANCH   4   5
HETATM    5  N1  UNL     1     -17.276 -10.644  14.690  1.00  0.00     0.092 N 
HETATM    6  C5  UNL     1     -18.378  -9.990  14.052  1.00  0.00     0.293 C 
HETATM    7  C6  UNL     1     -19.659 -10.724  14.259  1.00  0.00     0.171 C 
HETATM    8  N2  UNL     1     -19.482 -12.060  14.811  1.00  0.00    -0.213 N 
HETATM    9  C12 UNL     1     -18.350 -12.856  14.421  1.00  0.00     0.171 C 
HETATM   10  C13 UNL     1     -17.125 -12.023  14.298  1.00  0.00     0.293 C 
BRANCH   8  11
HETATM   11  C7  UNL     1     -20.420 -12.610  15.732  1.00  0.00     0.696 A 
HETATM   12  N3  UNL     1     -20.337 -12.287  17.029  1.00  0.00    -0.131 N 
HETATM   13  N4  UNL     1     -21.166 -12.758  17.944  1.00  0.00    -0.278 N 
ATOM     14  H3  UNL     1     -19.600 -11.647  17.324  1.00  0.00     0.205 HD
HETATM   15  C8  UNL     1     -22.150 -13.609  17.574  1.00  0.00     0.162 A 
ATOM     16  H4  UNL     1     -21.064 -12.482  18.920  1.00  0.00     0.188 HD
HETATM   17  C9  UNL     1     -23.033 -14.121  18.512  1.00  0.00     0.291 A 
HETATM   18  C11 UNL     1     -22.262 -13.960  16.253  1.00  0.00     0.170 A 
HETATM   19  O1  UNL     1     -22.913 -13.786  19.715  1.00  0.00    -0.265 OA
HETATM   20  N5  UNL     1     -23.983 -14.964  18.059  1.00  0.00    -0.154 N 
HETATM   21  C10 UNL     1     -24.100 -15.313  16.768  1.00  0.00     0.680 A 
ATOM     22  H5  UNL     1     -24.645 -15.356  18.729  1.00  0.00     0.187 HD
HETATM   23  N7  UNL     1     -23.242 -14.816  15.851  1.00  0.00    -0.174 N 
ATOM     24  H7  UNL     1     -23.327 -15.079  14.869  1.00  0.00     0.186 HD
HETATM   25  N8  UNL     1     -21.394 -13.459  15.333  1.00  0.00    -0.172 N 
ATOM     26  H8  UNL     1     -21.478 -13.721  14.351  1.00  0.00     0.186 HD
BRANCH  21  27
HETATM   27  N6  UNL     1     -25.027 -16.117  16.425  1.00  0.00    -0.234 N 
ATOM     28  H62 UNL     1     -25.799 -16.323  17.058  1.00  0.00     0.174 HD
ATOM     29  H61 UNL     1     -24.989 -16.553  15.503  1.00  0.00     0.174 HD
ENDBRANCH  21  27
ENDBRANCH   8  11
ENDBRANCH   4   5
ENDBRANCH   3   4
TORSDOF 4
ENDMDL
