MODEL 1
REMARK VINA RESULT: -8.344977400      0.000      0.000
REMARK  11 active torsions:
REMARK  status: ('A' for Active; 'I' for Inactive)
REMARK    1  A    between atoms: N1_1  and  C1_4 
REMARK    2  A    between atoms: C3_8  and  N3_9 
REMARK    3  A    between atoms: N5_14  and  O1_15 
REMARK    4  A    between atoms: O1_15  and  C4_16 
REMARK    5  A    between atoms: C6_21  and  C7_22 
REMARK    6  A    between atoms: C7_22  and  N7_23 
REMARK    7  A    between atoms: C9_29  and  N10_30 
REMARK    8  A    between atoms: C14_46  and  N15_47 
REMARK    9  A    between atoms: N15_47  and  C15_49 
REMARK   10  A    between atoms: C15_49  and  C16_50 
REMARK   11  A    between atoms: C16_50  and  O3_51 
ROOT
HETATM    1  C4  UNL     1      -5.229 -37.452  21.001  1.00  0.00     0.293 C 
HETATM    2  C5  UNL     1      -5.504 -38.510  22.040  1.00  0.00     0.292 C 
HETATM    3  N6  UNL     1      -6.913 -38.695  22.308  1.00  0.00    -0.047 N 
ATOM      4  H61 UNL     1      -7.103 -38.948  23.278  1.00  0.00     0.279 HD
ATOM      5  H62 UNL     1      -7.292 -39.536  21.874  1.00  0.00     0.279 HD
HETATM    6  C6  UNL     1      -7.595 -37.497  21.899  1.00  0.00     0.318 C 
HETATM    7  N13 UNL     1      -7.451 -37.429  20.463  1.00  0.00    -0.306 N 
ATOM      8  H13 UNL     1      -8.259 -37.400  19.840  1.00  0.00     0.182 HD
HETATM    9  N14 UNL     1      -6.287 -37.407  20.031  1.00  0.00    -0.306 N 
ATOM     10  H14 UNL     1      -6.091 -37.359  19.031  1.00  0.00     0.183 HD
ENDROOT
BRANCH   1  11
HETATM   11  O1  UNL     1      -3.970 -37.614  20.422  1.00  0.00    -0.226 OA
BRANCH  11  12
HETATM   12  N5  UNL     1      -3.079 -36.579  20.362  1.00  0.00    -0.116 N 
HETATM   13  N4  UNL     1      -3.439 -35.434  19.820  1.00  0.00    -0.254 N 
HETATM   14  C3  UNL     1      -2.598 -34.393  19.741  1.00  0.00     0.144 A 
ATOM     15  H4  UNL     1      -4.384 -35.336  19.451  1.00  0.00     0.191 HD
HETATM   16  C2  UNL     1      -1.313 -34.591  20.267  1.00  0.00     0.113 A 
HETATM   17  N2  UNL     1      -0.443 -33.570  20.211  1.00  0.00    -0.187 N 
HETATM   18  C13 UNL     1      -0.925 -35.793  20.839  1.00  0.00     0.111 A 
HETATM   19  C1  UNL     1       0.792 -33.718  20.706  1.00  0.00     0.678 A 
ATOM     20  H2  UNL     1      -0.723 -32.684  19.791  1.00  0.00     0.184 HD
HETATM   21  N16 UNL     1       1.183 -34.870  21.260  1.00  0.00    -0.176 N 
HETATM   22  C14 UNL     1       0.361 -35.940  21.351  1.00  0.00     0.135 A 
ATOM     23  H16 UNL     1       2.132 -34.945  21.626  1.00  0.00     0.186 HD
HETATM   24  C12 UNL     1      -1.841 -36.807  20.883  1.00  0.00     0.303 A 
HETATM   25  O2  UNL     1      -1.583 -37.922  21.379  1.00  0.00    -0.263 OA
BRANCH  14  26
HETATM   26  N3  UNL     1      -2.912 -33.260  19.219  1.00  0.00    -0.382 N 
ATOM     27  H32 UNL     1      -2.571 -32.940  18.313  1.00  0.00     0.157 HD
ATOM     28  H31 UNL     1      -3.536 -32.624  19.717  1.00  0.00     0.157 HD
ENDBRANCH  14  26
BRANCH  19  29
HETATM   29  N1  UNL     1       1.634 -32.708  20.645  1.00  0.00    -0.234 N 
ATOM     30  H12 UNL     1       2.184 -32.562  19.798  1.00  0.00     0.174 HD
ATOM     31  H11 UNL     1       1.724 -32.085  21.447  1.00  0.00     0.174 HD
ENDBRANCH  19  29
BRANCH  22  32
HETATM   32  N15 UNL     1       0.833 -37.158  21.895  1.00  0.00    -0.373 N 
ATOM     33  H15 UNL     1       0.894 -37.973  21.284  1.00  0.00     0.161 HD
BRANCH  32  34
HETATM   34  C15 UNL     1       1.237 -37.303  23.298  1.00  0.00     0.147 C 
BRANCH  34  35
HETATM   35  C16 UNL     1       0.283 -36.713  24.271  1.00  0.00     0.183 C 
BRANCH  35  36
HETATM   36  O3  UNL     1      -1.000 -37.157  24.279  1.00  0.00    -0.399 OA
ATOM     37  H3  UNL     1      -1.691 -36.560  24.017  1.00  0.00     0.209 HD
ENDBRANCH  35  36
ENDBRANCH  34  35
ENDBRANCH  32  34
ENDBRANCH  22  32
ENDBRANCH  11  12
ENDBRANCH   1  11
BRANCH   6  38
HETATM   38  C7  UNL     1      -9.049 -37.495  22.314  1.00  0.00     0.208 C 
BRANCH  38  39
HETATM   39  N7  UNL     1      -9.225 -36.734  23.544  1.00  0.00    -0.256 N 
HETATM   40  N8  UNL     1      -8.342 -36.430  24.463  1.00  0.00    -0.238 N 
HETATM   41  N9  UNL     1      -8.959 -35.728  25.395  1.00  0.00    -0.279 N 
ATOM     42  H8  UNL     1      -7.355 -36.689  24.459  1.00  0.00     0.208 HD
HETATM   43  C8  UNL     1     -10.251 -35.568  25.088  1.00  0.00     0.139 A 
ATOM     44  H9  UNL     1      -8.512 -35.358  26.233  1.00  0.00     0.189 HD
HETATM   45  C9  UNL     1     -11.336 -34.948  25.667  1.00  0.00     0.132 A 
HETATM   46  C11 UNL     1     -10.417 -36.223  23.887  1.00  0.00     0.157 A 
HETATM   47  N11 UNL     1     -12.519 -35.016  25.018  1.00  0.00    -0.337 N 
HETATM   48  C10 UNL     1     -12.694 -35.644  23.858  1.00  0.00     0.183 A 
ATOM     49  H11 UNL     1     -13.325 -34.558  25.442  1.00  0.00     0.168 HD
HETATM   50  N12 UNL     1     -11.644 -36.246  23.295  1.00  0.00    -0.335 N 
ATOM     51  H12 UNL     1     -11.763 -36.731  22.406  1.00  0.00     0.168 HD
BRANCH  45  52
HETATM   52  N10 UNL     1     -11.177 -34.344  26.776  1.00  0.00    -0.383 N 
ATOM     53 2H10 UNL     1     -11.653 -34.613  27.638  1.00  0.00     0.157 HD
ATOM     54 1H10 UNL     1     -10.541 -33.547  26.814  1.00  0.00     0.157 HD
ENDBRANCH  45  52
ENDBRANCH  38  39
ENDBRANCH   6  38
TORSDOF 11
ENDMDL
MODEL 2
REMARK VINA RESULT: -7.976874627      5.294     10.403
REMARK  11 active torsions:
REMARK  status: ('A' for Active; 'I' for Inactive)
REMARK    1  A    between atoms: N1_1  and  C1_4 
REMARK    2  A    between atoms: C3_8  and  N3_9 
REMARK    3  A    between atoms: N5_14  and  O1_15 
REMARK    4  A    between atoms: O1_15  and  C4_16 
REMARK    5  A    between atoms: C6_21  and  C7_22 
REMARK    6  A    between atoms: C7_22  and  N7_23 
REMARK    7  A    between atoms: C9_29  and  N10_30 
REMARK    8  A    between atoms: C14_46  and  N15_47 
REMARK    9  A    between atoms: N15_47  and  C15_49 
REMARK   10  A    between atoms: C15_49  and  C16_50 
REMARK   11  A    between atoms: C16_50  and  O3_51 
ROOT
HETATM    1  C4  UNL     1      -5.872 -39.571  19.680  1.00  0.00     0.293 C 
HETATM    2  C5  UNL     1      -6.252 -38.136  19.946  1.00  0.00     0.292 C 
HETATM    3  N6  UNL     1      -5.157 -37.339  20.453  1.00  0.00    -0.047 N 
ATOM      4  H61 UNL     1      -5.460 -36.616  21.105  1.00  0.00     0.279 HD
ATOM      5  H62 UNL     1      -4.755 -36.724  19.747  1.00  0.00     0.279 HD
HETATM    6  C6  UNL     1      -4.193 -38.239  21.026  1.00  0.00     0.318 C 
HETATM    7  N13 UNL     1      -3.668 -39.013  19.924  1.00  0.00    -0.306 N 
ATOM      8  H13 UNL     1      -2.673 -39.025  19.697  1.00  0.00     0.182 HD
HETATM    9  N14 UNL     1      -4.499 -39.664  19.269  1.00  0.00    -0.306 N 
ATOM     10  H14 UNL     1      -4.219 -40.239  18.475  1.00  0.00     0.183 HD
ENDROOT
BRANCH   1  11
HETATM   11  O1  UNL     1      -6.748 -40.178  18.780  1.00  0.00    -0.226 OA
BRANCH  11  12
HETATM   12  N5  UNL     1      -7.249 -41.428  19.012  1.00  0.00    -0.116 N 
HETATM   13  N4  UNL     1      -8.203 -41.598  19.903  1.00  0.00    -0.254 N 
HETATM   14  C3  UNL     1      -8.725 -42.806  20.162  1.00  0.00     0.144 A 
ATOM     15  H4  UNL     1      -8.556 -40.787  20.411  1.00  0.00     0.191 HD
HETATM   16  C2  UNL     1      -8.197 -43.880  19.429  1.00  0.00     0.113 A 
HETATM   17  N2  UNL     1      -8.697 -45.105  19.654  1.00  0.00    -0.187 N 
HETATM   18  C13 UNL     1      -7.193 -43.710  18.487  1.00  0.00     0.111 A 
HETATM   19  C1  UNL     1      -8.223 -46.155  18.972  1.00  0.00     0.678 A 
ATOM     20  H2  UNL     1      -9.436 -45.235  20.345  1.00  0.00     0.184 HD
HETATM   21  N16 UNL     1      -7.254 -46.010  18.062  1.00  0.00    -0.176 N 
HETATM   22  C14 UNL     1      -6.705 -44.807  17.783  1.00  0.00     0.135 A 
ATOM     23  H16 UNL     1      -6.919 -46.833  17.564  1.00  0.00     0.186 HD
HETATM   24  C12 UNL     1      -6.714 -42.447  18.282  1.00  0.00     0.303 A 
HETATM   25  O2  UNL     1      -5.813 -42.197  17.455  1.00  0.00    -0.263 OA
BRANCH  14  26
HETATM   26  N3  UNL     1      -9.656 -43.012  21.024  1.00  0.00    -0.382 N 
ATOM     27  H32 UNL     1      -9.653 -43.788  21.686  1.00  0.00     0.157 HD
ATOM     28  H31 UNL     1     -10.456 -42.380  21.073  1.00  0.00     0.157 HD
ENDBRANCH  14  26
BRANCH  19  29
HETATM   29  N1  UNL     1      -8.723 -47.350  19.204  1.00  0.00    -0.234 N 
ATOM     30  H12 UNL     1      -8.135 -48.067  19.628  1.00  0.00     0.174 HD
ATOM     31  H11 UNL     1      -9.694 -47.541  18.956  1.00  0.00     0.174 HD
ENDBRANCH  19  29
BRANCH  22  32
HETATM   32  N15 UNL     1      -5.643 -44.706  16.853  1.00  0.00    -0.373 N 
ATOM     33  H15 UNL     1      -4.774 -44.263  17.152  1.00  0.00     0.161 HD
BRANCH  32  34
HETATM   34  C15 UNL     1      -5.736 -45.209  15.477  1.00  0.00     0.147 C 
BRANCH  34  35
HETATM   35  C16 UNL     1      -6.720 -44.490  14.630  1.00  0.00     0.183 C 
BRANCH  35  36
HETATM   36  O3  UNL     1      -6.900 -43.158  14.827  1.00  0.00    -0.399 OA
ATOM     37  H3  UNL     1      -7.395 -42.665  14.183  1.00  0.00     0.209 HD
ENDBRANCH  35  36
ENDBRANCH  34  35
ENDBRANCH  32  34
ENDBRANCH  22  32
ENDBRANCH  11  12
ENDBRANCH   1  11
BRANCH   6  38
HETATM   38  C7  UNL     1      -3.095 -37.507  21.764  1.00  0.00     0.208 C 
BRANCH  38  39
HETATM   39  N7  UNL     1      -2.037 -37.114  20.843  1.00  0.00    -0.256 N 
HETATM   40  N8  UNL     1      -1.064 -37.836  20.343  1.00  0.00    -0.238 N 
HETATM   41  N9  UNL     1      -0.349 -37.054  19.557  1.00  0.00    -0.279 N 
ATOM     42  H8  UNL     1      -0.891 -38.824  20.529  1.00  0.00     0.208 HD
HETATM   43  C8  UNL     1      -0.853 -35.815  19.537  1.00  0.00     0.139 A 
ATOM     44  H9  UNL     1       0.474 -37.354  19.035  1.00  0.00     0.189 HD
HETATM   45  C9  UNL     1      -0.535 -34.627  18.917  1.00  0.00     0.132 A 
HETATM   46  C11 UNL     1      -1.947 -35.860  20.374  1.00  0.00     0.157 A 
HETATM   47  N11 UNL     1      -1.322 -33.558  19.165  1.00  0.00    -0.337 N 
HETATM   48  C10 UNL     1      -2.380 -33.587  19.970  1.00  0.00     0.183 A 
ATOM     49  H11 UNL     1      -1.090 -32.676  18.708  1.00  0.00     0.168 HD
HETATM   50  N12 UNL     1      -2.691 -34.736  20.572  1.00  0.00    -0.335 N 
ATOM     51  H12 UNL     1      -3.501 -34.774  21.192  1.00  0.00     0.168 HD
BRANCH  45  52
HETATM   52  N10 UNL     1       0.477 -34.591  18.145  1.00  0.00    -0.383 N 
ATOM     53 2H10 UNL     1       1.023 -35.416  17.892  1.00  0.00     0.157 HD
ATOM     54 1H10 UNL     1       0.764 -33.694  17.753  1.00  0.00     0.157 HD
ENDBRANCH  45  52
ENDBRANCH  38  39
ENDBRANCH   6  38
TORSDOF 11
ENDMDL
MODEL 3
REMARK VINA RESULT: -7.943583910      1.949      2.292
REMARK  11 active torsions:
REMARK  status: ('A' for Active; 'I' for Inactive)
REMARK    1  A    between atoms: N1_1  and  C1_4 
REMARK    2  A    between atoms: C3_8  and  N3_9 
REMARK    3  A    between atoms: N5_14  and  O1_15 
REMARK    4  A    between atoms: O1_15  and  C4_16 
REMARK    5  A    between atoms: C6_21  and  C7_22 
REMARK    6  A    between atoms: C7_22  and  N7_23 
REMARK    7  A    between atoms: C9_29  and  N10_30 
REMARK    8  A    between atoms: C14_46  and  N15_47 
REMARK    9  A    between atoms: N15_47  and  C15_49 
REMARK   10  A    between atoms: C15_49  and  C16_50 
REMARK   11  A    between atoms: C16_50  and  O3_51 
ROOT
HETATM    1  C4  UNL     1      -5.675 -36.693  22.964  1.00  0.00     0.293 C 
HETATM    2  C5  UNL     1      -6.220 -37.273  24.245  1.00  0.00     0.292 C 
HETATM    3  N6  UNL     1      -7.391 -38.096  24.047  1.00  0.00    -0.047 N 
ATOM      4  H61 UNL     1      -8.048 -38.046  24.826  1.00  0.00     0.279 HD
ATOM      5  H62 UNL     1      -7.189 -39.094  24.105  1.00  0.00     0.279 HD
HETATM    6  C6  UNL     1      -7.983 -37.717  22.793  1.00  0.00     0.318 C 
HETATM    7  N13 UNL     1      -7.032 -38.097  21.773  1.00  0.00    -0.306 N 
ATOM      8  H13 UNL     1      -7.274 -38.744  21.023  1.00  0.00     0.182 HD
HETATM    9  N14 UNL     1      -5.901 -37.590  21.865  1.00  0.00    -0.306 N 
ATOM     10  H14 UNL     1      -5.166 -37.800  21.190  1.00  0.00     0.183 HD
ENDROOT
BRANCH   1  11
HETATM   11  O1  UNL     1      -4.336 -36.323  23.093  1.00  0.00    -0.226 OA
BRANCH  11  12
HETATM   12  N5  UNL     1      -3.622 -35.858  22.025  1.00  0.00    -0.116 N 
HETATM   13  N4  UNL     1      -4.075 -34.838  21.327  1.00  0.00    -0.254 N 
HETATM   14  C3  UNL     1      -3.407 -34.349  20.272  1.00  0.00     0.144 A 
ATOM     15  H4  UNL     1      -4.960 -34.408  21.596  1.00  0.00     0.191 HD
HETATM   16  C2  UNL     1      -2.197 -34.983  19.955  1.00  0.00     0.113 A 
HETATM   17  N2  UNL     1      -1.496 -34.519  18.909  1.00  0.00    -0.187 N 
HETATM   18  C13 UNL     1      -1.711 -36.058  20.685  1.00  0.00     0.111 A 
HETATM   19  C1  UNL     1      -0.334 -35.094  18.576  1.00  0.00     0.678 A 
ATOM     20  H2  UNL     1      -1.848 -33.729  18.368  1.00  0.00     0.184 HD
HETATM   21  N16 UNL     1       0.149 -36.132  19.268  1.00  0.00    -0.176 N 
HETATM   22  C14 UNL     1      -0.502 -36.651  20.332  1.00  0.00     0.135 A 
ATOM     23  H16 UNL     1       1.037 -36.544  18.984  1.00  0.00     0.186 HD
HETATM   24  C12 UNL     1      -2.451 -36.497  21.746  1.00  0.00     0.303 A 
HETATM   25  O2  UNL     1      -2.094 -37.455  22.462  1.00  0.00    -0.263 OA
BRANCH  14  26
HETATM   26  N3  UNL     1      -3.818 -33.356  19.566  1.00  0.00    -0.382 N 
ATOM     27  H32 UNL     1      -3.713 -32.380  19.845  1.00  0.00     0.157 HD
ATOM     28  H31 UNL     1      -4.279 -33.522  18.671  1.00  0.00     0.157 HD
ENDBRANCH  14  26
BRANCH  19  29
HETATM   29  N1  UNL     1       0.343 -34.628  17.548  1.00  0.00    -0.234 N 
ATOM     30  H12 UNL     1       1.040 -35.219  17.094  1.00  0.00     0.174 HD
ATOM     31  H11 UNL     1       0.160 -33.680  17.220  1.00  0.00     0.174 HD
ENDBRANCH  19  29
BRANCH  22  32
HETATM   32  N15 UNL     1       0.016 -37.784  21.003  1.00  0.00    -0.373 N 
ATOM     33  H15 UNL     1      -0.541 -38.639  21.017  1.00  0.00     0.161 HD
BRANCH  32  34
HETATM   34  C15 UNL     1       1.318 -37.785  21.681  1.00  0.00     0.147 C 
BRANCH  34  35
HETATM   35  C16 UNL     1       1.358 -36.977  22.926  1.00  0.00     0.183 C 
BRANCH  35  36
HETATM   36  O3  UNL     1       0.521 -37.306  23.944  1.00  0.00    -0.399 OA
ATOM     37  H3  UNL     1      -0.147 -36.683  24.204  1.00  0.00     0.209 HD
ENDBRANCH  35  36
ENDBRANCH  34  35
ENDBRANCH  32  34
ENDBRANCH  22  32
ENDBRANCH  11  12
ENDBRANCH   1  11
BRANCH   6  38
HETATM   38  C7  UNL     1      -9.327 -38.373  22.571  1.00  0.00     0.208 C 
BRANCH  38  39
HETATM   39  N7  UNL     1     -10.400 -37.500  23.031  1.00  0.00    -0.256 N 
HETATM   40  N8  UNL     1     -10.595 -36.228  22.785  1.00  0.00    -0.238 N 
HETATM   41  N9  UNL     1     -11.695 -35.863  23.416  1.00  0.00    -0.279 N 
ATOM     42  H8  UNL     1     -10.003 -35.628  22.211  1.00  0.00     0.208 HD
HETATM   43  C8  UNL     1     -12.227 -36.897  24.077  1.00  0.00     0.139 A 
ATOM     44  H9  UNL     1     -12.086 -34.921  23.400  1.00  0.00     0.189 HD
HETATM   45  C9  UNL     1     -13.330 -37.099  24.876  1.00  0.00     0.132 A 
HETATM   46  C11 UNL     1     -11.381 -37.955  23.824  1.00  0.00     0.157 A 
HETATM   47  N11 UNL     1     -13.527 -38.338  25.375  1.00  0.00    -0.337 N 
HETATM   48  C10 UNL     1     -12.720 -39.369  25.139  1.00  0.00     0.183 A 
ATOM     49  H11 UNL     1     -14.343 -38.493  25.967  1.00  0.00     0.168 HD
HETATM   50  N12 UNL     1     -11.650 -39.177  24.365  1.00  0.00    -0.335 N 
ATOM     51  H12 UNL     1     -11.023 -39.959  24.175  1.00  0.00     0.168 HD
BRANCH  45  52
HETATM   52  N10 UNL     1     -14.108 -36.117  25.106  1.00  0.00    -0.383 N 
ATOM     53 2H10 UNL     1     -13.800 -35.144  25.111  1.00  0.00     0.157 HD
ATOM     54 1H10 UNL     1     -15.092 -36.305  25.296  1.00  0.00     0.157 HD
ENDBRANCH  45  52
ENDBRANCH  38  39
ENDBRANCH   6  38
TORSDOF 11
ENDMDL
MODEL 4
REMARK VINA RESULT: -7.912969993      2.905     10.195
REMARK  11 active torsions:
REMARK  status: ('A' for Active; 'I' for Inactive)
REMARK    1  A    between atoms: N1_1  and  C1_4 
REMARK    2  A    between atoms: C3_8  and  N3_9 
REMARK    3  A    between atoms: N5_14  and  O1_15 
REMARK    4  A    between atoms: O1_15  and  C4_16 
REMARK    5  A    between atoms: C6_21  and  C7_22 
REMARK    6  A    between atoms: C7_22  and  N7_23 
REMARK    7  A    between atoms: C9_29  and  N10_30 
REMARK    8  A    between atoms: C14_46  and  N15_47 
REMARK    9  A    between atoms: N15_47  and  C15_49 
REMARK   10  A    between atoms: C15_49  and  C16_50 
REMARK   11  A    between atoms: C16_50  and  O3_51 
ROOT
HETATM    1  C4  UNL     1      -6.828 -38.434  22.159  1.00  0.00     0.293 C 
HETATM    2  C5  UNL     1      -6.957 -38.040  20.709  1.00  0.00     0.292 C 
HETATM    3  N6  UNL     1      -5.767 -38.312  19.935  1.00  0.00    -0.047 N 
ATOM      4  H61 UNL     1      -5.612 -37.631  19.191  1.00  0.00     0.279 HD
ATOM      5  H62 UNL     1      -5.858 -39.138  19.344  1.00  0.00     0.279 HD
HETATM    6  C6  UNL     1      -4.662 -38.399  20.851  1.00  0.00     0.318 C 
HETATM    7  N13 UNL     1      -4.907 -39.570  21.660  1.00  0.00    -0.306 N 
ATOM      8  H13 UNL     1      -4.245 -40.345  21.705  1.00  0.00     0.182 HD
HETATM    9  N14 UNL     1      -5.973 -39.579  22.299  1.00  0.00    -0.306 N 
ATOM     10  H14 UNL     1      -6.229 -40.365  22.897  1.00  0.00     0.183 HD
ENDROOT
BRANCH   1  11
HETATM   11  O1  UNL     1      -8.075 -38.613  22.757  1.00  0.00    -0.226 OA
BRANCH  11  12
HETATM   12  N5  UNL     1      -8.482 -37.830  23.800  1.00  0.00    -0.116 N 
HETATM   13  N4  UNL     1      -7.676 -37.626  24.821  1.00  0.00    -0.254 N 
HETATM   14  C3  UNL     1      -8.033 -36.864  25.865  1.00  0.00     0.144 A 
ATOM     15  H4  UNL     1      -6.753 -38.061  24.818  1.00  0.00     0.191 HD
HETATM   16  C2  UNL     1      -9.313 -36.294  25.808  1.00  0.00     0.113 A 
HETATM   17  N2  UNL     1      -9.706 -35.520  26.832  1.00  0.00    -0.187 N 
HETATM   18  C13 UNL     1     -10.169 -36.502  24.737  1.00  0.00     0.111 A 
HETATM   19  C1  UNL     1     -10.919 -34.954  26.814  1.00  0.00     0.678 A 
ATOM     20  H2  UNL     1      -9.081 -35.363  27.622  1.00  0.00     0.184 HD
HETATM   21  N16 UNL     1     -11.757 -35.145  25.789  1.00  0.00    -0.176 N 
HETATM   22  C14 UNL     1     -11.430 -35.911  24.725  1.00  0.00     0.135 A 
ATOM     23  H16 UNL     1     -12.673 -34.698  25.812  1.00  0.00     0.186 HD
HETATM   24  C12 UNL     1      -9.731 -37.292  23.711  1.00  0.00     0.303 A 
HETATM   25  O2  UNL     1     -10.429 -37.534  22.706  1.00  0.00    -0.263 OA
BRANCH  14  26
HETATM   26  N3  UNL     1      -7.275 -36.643  26.879  1.00  0.00    -0.382 N 
ATOM     27  H32 UNL     1      -7.241 -35.754  27.378  1.00  0.00     0.157 HD
ATOM     28  H31 UNL     1      -6.661 -37.379  27.229  1.00  0.00     0.157 HD
ENDBRANCH  14  26
BRANCH  19  29
HETATM   29  N1  UNL     1     -11.290 -34.197  27.824  1.00  0.00    -0.234 N 
ATOM     30  H12 UNL     1     -10.612 -33.950  28.544  1.00  0.00     0.174 HD
ATOM     31  H11 UNL     1     -12.254 -33.867  27.872  1.00  0.00     0.174 HD
ENDBRANCH  19  29
BRANCH  22  32
HETATM   32  N15 UNL     1     -12.367 -36.132  23.689  1.00  0.00    -0.373 N 
ATOM     33  H15 UNL     1     -12.248 -35.629  22.809  1.00  0.00     0.161 HD
BRANCH  32  34
HETATM   34  C15 UNL     1     -13.503 -37.051  23.822  1.00  0.00     0.147 C 
BRANCH  34  35
HETATM   35  C16 UNL     1     -14.832 -36.402  23.698  1.00  0.00     0.183 C 
BRANCH  35  36
HETATM   36  O3  UNL     1     -15.755 -36.615  24.670  1.00  0.00    -0.399 OA
ATOM     37  H3  UNL     1     -16.651 -36.339  24.517  1.00  0.00     0.209 HD
ENDBRANCH  35  36
ENDBRANCH  34  35
ENDBRANCH  32  34
ENDBRANCH  22  32
ENDBRANCH  11  12
ENDBRANCH   1  11
BRANCH   6  38
HETATM   38  C7  UNL     1      -3.331 -38.484  20.138  1.00  0.00     0.208 C 
BRANCH  38  39
HETATM   39  N7  UNL     1      -2.726 -37.163  20.033  1.00  0.00    -0.256 N 
HETATM   40  N8  UNL     1      -3.215 -36.068  19.506  1.00  0.00    -0.238 N 
HETATM   41  N9  UNL     1      -2.307 -35.119  19.639  1.00  0.00    -0.279 N 
ATOM     42  H8  UNL     1      -4.133 -35.966  19.072  1.00  0.00     0.208 HD
HETATM   43  C8  UNL     1      -1.218 -35.591  20.255  1.00  0.00     0.139 A 
ATOM     44  H9  UNL     1      -2.421 -34.159  19.315  1.00  0.00     0.189 HD
HETATM   45  C9  UNL     1      -0.002 -35.076  20.648  1.00  0.00     0.132 A 
HETATM   46  C11 UNL     1      -1.495 -36.917  20.507  1.00  0.00     0.157 A 
HETATM   47  N11 UNL     1       0.863 -35.908  21.267  1.00  0.00    -0.337 N 
HETATM   48  C10 UNL     1       0.608 -37.189  21.517  1.00  0.00     0.183 A 
ATOM     49  H11 UNL     1       1.764 -35.532  21.559  1.00  0.00     0.168 HD
HETATM   50  N12 UNL     1      -0.568 -37.691  21.138  1.00  0.00    -0.335 N 
ATOM     51  H12 UNL     1      -0.778 -38.673  21.323  1.00  0.00     0.168 HD
BRANCH  45  52
HETATM   52  N10 UNL     1       0.248 -33.850  20.412  1.00  0.00    -0.383 N 
ATOM     53 2H10 UNL     1       0.934 -33.536  19.724  1.00  0.00     0.157 HD
ATOM     54 1H10 UNL     1      -0.259 -33.136  20.936  1.00  0.00     0.157 HD
ENDBRANCH  45  52
ENDBRANCH  38  39
ENDBRANCH   6  38
TORSDOF 11
ENDMDL
MODEL 5
REMARK VINA RESULT: -7.911644742      5.629     10.491
REMARK  11 active torsions:
REMARK  status: ('A' for Active; 'I' for Inactive)
REMARK    1  A    between atoms: N1_1  and  C1_4 
REMARK    2  A    between atoms: C3_8  and  N3_9 
REMARK    3  A    between atoms: N5_14  and  O1_15 
REMARK    4  A    between atoms: O1_15  and  C4_16 
REMARK    5  A    between atoms: C6_21  and  C7_22 
REMARK    6  A    between atoms: C7_22  and  N7_23 
REMARK    7  A    between atoms: C9_29  and  N10_30 
REMARK    8  A    between atoms: C14_46  and  N15_47 
REMARK    9  A    between atoms: N15_47  and  C15_49 
REMARK   10  A    between atoms: C15_49  and  C16_50 
REMARK   11  A    between atoms: C16_50  and  O3_51 
ROOT
HETATM    1  C4  UNL     1      -7.141 -39.847  19.899  1.00  0.00     0.293 C 
HETATM    2  C5  UNL     1      -7.250 -39.490  21.361  1.00  0.00     0.292 C 
HETATM    3  N6  UNL     1      -6.666 -38.207  21.681  1.00  0.00    -0.047 N 
ATOM      4  H61 UNL     1      -6.253 -38.180  22.613  1.00  0.00     0.279 HD
ATOM      5  H62 UNL     1      -7.364 -37.477  21.822  1.00  0.00     0.279 HD
HETATM    6  C6  UNL     1      -5.724 -37.886  20.644  1.00  0.00     0.318 C 
HETATM    7  N13 UNL     1      -6.505 -37.698  19.442  1.00  0.00    -0.306 N 
ATOM      8  H13 UNL     1      -6.488 -36.823  18.918  1.00  0.00     0.182 HD
HETATM    9  N14 UNL     1      -7.197 -38.666  19.084  1.00  0.00    -0.306 N 
ATOM     10  H14 UNL     1      -7.780 -38.623  18.248  1.00  0.00     0.183 HD
ENDROOT
BRANCH   1  11
HETATM   11  O1  UNL     1      -8.086 -40.804  19.531  1.00  0.00    -0.226 OA
BRANCH  11  12
HETATM   12  N5  UNL     1      -7.708 -42.011  19.014  1.00  0.00    -0.116 N 
HETATM   13  N4  UNL     1      -6.913 -42.056  17.965  1.00  0.00    -0.254 N 
HETATM   14  C3  UNL     1      -6.517 -43.218  17.426  1.00  0.00     0.144 A 
ATOM     15  H4  UNL     1      -6.590 -41.182  17.551  1.00  0.00     0.191 HD
HETATM   16  C2  UNL     1      -6.996 -44.384  18.041  1.00  0.00     0.113 A 
HETATM   17  N2  UNL     1      -6.617 -45.567  17.534  1.00  0.00    -0.187 N 
HETATM   18  C13 UNL     1      -7.833 -44.346  19.147  1.00  0.00     0.111 A 
HETATM   19  C1  UNL     1      -7.049 -46.703  18.096  1.00  0.00     0.678 A 
ATOM     20  H2  UNL     1      -6.001 -45.601  16.722  1.00  0.00     0.184 HD
HETATM   21  N16 UNL     1      -7.858 -46.686  19.161  1.00  0.00    -0.176 N 
HETATM   22  C14 UNL     1      -8.279 -45.532  19.725  1.00  0.00     0.135 A 
ATOM     23  H16 UNL     1      -8.166 -47.571  19.560  1.00  0.00     0.186 HD
HETATM   24  C12 UNL     1      -8.191 -43.123  19.637  1.00  0.00     0.303 A 
HETATM   25  O2  UNL     1      -8.939 -42.990  20.628  1.00  0.00    -0.263 OA
BRANCH  14  26
HETATM   26  N3  UNL     1      -5.743 -43.302  16.403  1.00  0.00    -0.382 N 
ATOM     27  H32 UNL     1      -6.068 -43.530  15.463  1.00  0.00     0.157 HD
ATOM     28  H31 UNL     1      -4.741 -43.138  16.505  1.00  0.00     0.157 HD
ENDBRANCH  14  26
BRANCH  19  29
HETATM   29  N1  UNL     1      -6.669 -47.856  17.588  1.00  0.00    -0.234 N 
ATOM     30  H12 UNL     1      -7.360 -48.591  17.434  1.00  0.00     0.174 HD
ATOM     31  H11 UNL     1      -5.686 -47.999  17.355  1.00  0.00     0.174 HD
ENDBRANCH  19  29
BRANCH  22  32
HETATM   32  N15 UNL     1      -9.178 -45.558  20.816  1.00  0.00    -0.373 N 
ATOM     33  H15 UNL     1      -8.863 -45.193  21.716  1.00  0.00     0.161 HD
BRANCH  32  34
HETATM   34  C15 UNL     1     -10.544 -46.085  20.713  1.00  0.00     0.147 C 
BRANCH  34  35
HETATM   35  C16 UNL     1     -11.382 -45.413  19.689  1.00  0.00     0.183 C 
BRANCH  35  36
HETATM   36  O3  UNL     1     -11.731 -44.114  19.882  1.00  0.00    -0.399 OA
ATOM     37  H3  UNL     1     -12.211 -43.665  19.197  1.00  0.00     0.209 HD
ENDBRANCH  35  36
ENDBRANCH  34  35
ENDBRANCH  32  34
ENDBRANCH  22  32
ENDBRANCH  11  12
ENDBRANCH   1  11
BRANCH   6  38
HETATM   38  C7  UNL     1      -4.905 -36.658  20.972  1.00  0.00     0.208 C 
BRANCH  38  39
HETATM   39  N7  UNL     1      -3.642 -36.681  20.247  1.00  0.00    -0.256 N 
HETATM   40  N8  UNL     1      -3.030 -37.692  19.682  1.00  0.00    -0.238 N 
HETATM   41  N9  UNL     1      -1.915 -37.236  19.144  1.00  0.00    -0.279 N 
ATOM     42  H8  UNL     1      -3.357 -38.658  19.661  1.00  0.00     0.208 HD
HETATM   43  C8  UNL     1      -1.792 -35.921  19.355  1.00  0.00     0.139 A 
ATOM     44  H9  UNL     1      -1.239 -37.808  18.638  1.00  0.00     0.189 HD
HETATM   45  C9  UNL     1      -0.870 -34.949  19.036  1.00  0.00     0.132 A 
HETATM   46  C11 UNL     1      -2.915 -35.567  20.071  1.00  0.00     0.157 A 
HETATM   47  N11 UNL     1      -1.118 -33.687  19.447  1.00  0.00    -0.337 N 
HETATM   48  C10 UNL     1      -2.197 -33.331  20.138  1.00  0.00     0.183 A 
ATOM     49  H11 UNL     1      -0.438 -32.964  19.213  1.00  0.00     0.168 HD
HETATM   50  N12 UNL     1      -3.093 -34.270  20.448  1.00  0.00    -0.335 N 
ATOM     51  H12 UNL     1      -3.926 -34.012  20.978  1.00  0.00     0.168 HD
BRANCH  45  52
HETATM   52  N10 UNL     1       0.166 -35.282  18.373  1.00  0.00    -0.383 N 
ATOM     53 2H10 UNL     1       0.169 -36.014  17.662  1.00  0.00     0.157 HD
ATOM     54 1H10 UNL     1       1.044 -34.796  18.559  1.00  0.00     0.157 HD
ENDBRANCH  45  52
ENDBRANCH  38  39
ENDBRANCH   6  38
TORSDOF 11
ENDMDL
