MODEL 1
REMARK VINA RESULT: -8.385471985      0.000      0.000
REMARK  12 active torsions:
REMARK  status: ('A' for Active; 'I' for Inactive)
REMARK    1  A    between atoms: C2_2  and  N1_4 
REMARK    2  A    between atoms: C2_2  and  C16_47 
REMARK    3  A    between atoms: N1_4  and  C4_6 
REMARK    4  A    between atoms: C4_6  and  O1_7 
REMARK    5  A    between atoms: C4_6  and  C5_9 
REMARK    6  A    between atoms: C5_9  and  C6_11 
REMARK    7  A    between atoms: C7_17  and  N4_18 
REMARK    8  A    between atoms: N4_18  and  C8_20 
REMARK    9  A    between atoms: C8_20  and  N5_21 
REMARK   10  A    between atoms: N5_21  and  C9_23 
REMARK   11  A    between atoms: N8_28  and  N9_29 
REMARK   12  A    between atoms: C13_37  and  N12_38 
ROOT
HETATM    1  N5  UNL     1      -7.048 -37.021  24.013  1.00  0.00    -0.208 N 
ATOM      2  H5  UNL     1      -6.792 -36.206  24.570  1.00  0.00     0.179 HD
ENDROOT
BRANCH   1   3
HETATM    3  C8  UNL     1      -6.012 -37.982  23.713  1.00  0.00     0.263 C 
BRANCH   3   4
HETATM    4  N4  UNL     1      -4.849 -37.304  23.121  1.00  0.00    -0.356 N 
ATOM      5  H4  UNL     1      -4.421 -36.519  23.613  1.00  0.00     0.162 HD
BRANCH   4   6
HETATM    6  C7  UNL     1      -4.318 -37.720  21.888  1.00  0.00     0.157 A 
HETATM    7  C6  UNL     1      -3.874 -36.962  20.845  1.00  0.00     0.152 A 
HETATM    8  N2  UNL     1      -3.449 -37.868  19.913  1.00  0.00    -0.234 N 
HETATM    9  O3  UNL     1      -3.624 -39.076  20.359  1.00  0.00    -0.155 OA
ATOM     10  H2  UNL     1      -3.054 -37.631  19.003  1.00  0.00     0.197 HD
HETATM   11  N3  UNL     1      -4.151 -39.020  21.559  1.00  0.00    -0.223 N 
ATOM     12  H3  UNL     1      -4.393 -39.820  22.143  1.00  0.00     0.198 HD
BRANCH   7  13
HETATM   13  C5  UNL     1      -3.868 -35.535  20.723  1.00  0.00     0.229 C 
HETATM   14  O2  UNL     1      -4.641 -34.806  21.369  1.00  0.00    -0.286 OA
BRANCH  13  15
HETATM   15  C4  UNL     1      -2.897 -34.844  19.773  1.00  0.00     0.292 C 
BRANCH  15  16
HETATM   16  N1  UNL     1      -1.760 -34.557  20.572  1.00  0.00    -0.373 N 
ATOM     17  H1  UNL     1      -1.855 -33.925  21.367  1.00  0.00     0.157 HD
BRANCH  16  18
HETATM   18  C2  UNL     1      -0.512 -35.125  20.292  1.00  0.00     0.110 C 
HETATM   19  C1  UNL     1       0.182 -35.767  21.479  1.00  0.00     0.050 C 
HETATM   20  C3  UNL     1       0.427 -33.896  19.979  1.00  0.00     0.050 C 
BRANCH  18  21
HETATM   21  C16 UNL     1      -0.377 -35.999  19.122  1.00  0.00     0.201 C 
HETATM   22  O4  UNL     1      -0.663 -37.208  19.164  1.00  0.00    -0.646 OA
HETATM   23  O5  UNL     1       0.082 -35.526  17.882  1.00  0.00    -0.646 OA
ENDBRANCH  18  21
ENDBRANCH  16  18
ENDBRANCH  15  16
BRANCH  15  24
HETATM   24  O1  UNL     1      -3.553 -33.739  19.272  1.00  0.00    -0.369 OA
ATOM     25  H1  UNL     1      -4.500 -33.765  19.347  1.00  0.00     0.212 HD
ENDBRANCH  15  24
ENDBRANCH  13  15
ENDBRANCH   7  13
ENDBRANCH   4   6
ENDBRANCH   3   4
ENDBRANCH   1   3
BRANCH   1  26
HETATM   26  C9  UNL     1      -8.388 -37.129  23.590  1.00  0.00     0.710 C 
HETATM   27  N6  UNL     1      -9.439 -36.627  24.195  1.00  0.00    -0.208 N 
HETATM   28  C10 UNL     1     -10.625 -36.984  23.403  1.00  0.00     0.277 C 
ATOM     29  H6  UNL     1      -9.435 -36.086  25.060  1.00  0.00     0.179 HD
HETATM   30  N7  UNL     1     -10.193 -38.230  22.729  1.00  0.00    -0.081 NA
HETATM   31  N8  UNL     1      -8.856 -37.803  22.438  1.00  0.00    -0.001 N 
BRANCH  31  32
HETATM   32  N9  UNL     1      -8.159 -37.988  21.247  1.00  0.00    -0.034 N 
HETATM   33  C11 UNL     1      -7.515 -37.112  20.459  1.00  0.00     0.701 A 
HETATM   34  N10 UNL     1      -7.442 -35.846  20.681  1.00  0.00    -0.233 N 
HETATM   35  N11 UNL     1      -6.960 -37.748  19.398  1.00  0.00    -0.183 N 
ATOM     36 2H10 UNL     1      -7.860 -35.368  21.478  1.00  0.00     0.174 HD
ATOM     37 1H10 UNL     1      -6.953 -35.181  20.082  1.00  0.00     0.174 HD
HETATM   38  C12 UNL     1      -7.242 -39.067  19.486  1.00  0.00     0.139 A 
ATOM     39  H11 UNL     1      -6.418 -37.304  18.656  1.00  0.00     0.184 HD
HETATM   40  C13 UNL     1      -6.909 -40.136  18.669  1.00  0.00     0.131 A 
HETATM   41  C15 UNL     1      -7.984 -39.199  20.635  1.00  0.00     0.180 A 
HETATM   42  N13 UNL     1      -7.356 -41.366  19.050  1.00  0.00    -0.337 N 
HETATM   43  C14 UNL     1      -8.087 -41.493  20.181  1.00  0.00     0.183 A 
ATOM     44  H13 UNL     1      -7.141 -42.188  18.485  1.00  0.00     0.168 HD
HETATM   45  N14 UNL     1      -8.404 -40.436  20.972  1.00  0.00    -0.335 N 
ATOM     46  H14 UNL     1      -8.957 -40.577  21.818  1.00  0.00     0.168 HD
BRANCH  40  47
HETATM   47  N12 UNL     1      -6.223 -40.022  17.594  1.00  0.00    -0.383 N 
ATOM     48 2H12 UNL     1      -5.224 -40.229  17.614  1.00  0.00     0.157 HD
ATOM     49 1H12 UNL     1      -6.618 -39.736  16.698  1.00  0.00     0.157 HD
ENDBRANCH  40  47
ENDBRANCH  31  32
ENDBRANCH   1  26
TORSDOF 12
ENDMDL
MODEL 2
REMARK VINA RESULT: -8.063132217      1.194      2.066
REMARK  12 active torsions:
REMARK  status: ('A' for Active; 'I' for Inactive)
REMARK    1  A    between atoms: C2_2  and  N1_4 
REMARK    2  A    between atoms: C2_2  and  C16_47 
REMARK    3  A    between atoms: N1_4  and  C4_6 
REMARK    4  A    between atoms: C4_6  and  O1_7 
REMARK    5  A    between atoms: C4_6  and  C5_9 
REMARK    6  A    between atoms: C5_9  and  C6_11 
REMARK    7  A    between atoms: C7_17  and  N4_18 
REMARK    8  A    between atoms: N4_18  and  C8_20 
REMARK    9  A    between atoms: C8_20  and  N5_21 
REMARK   10  A    between atoms: N5_21  and  C9_23 
REMARK   11  A    between atoms: N8_28  and  N9_29 
REMARK   12  A    between atoms: C13_37  and  N12_38 
ROOT
HETATM    1  N5  UNL     1      -6.991 -37.184  23.798  1.00  0.00    -0.208 N 
ATOM      2  H5  UNL     1      -7.571 -37.161  24.636  1.00  0.00     0.179 HD
ENDROOT
BRANCH   1   3
HETATM    3  C8  UNL     1      -5.812 -38.018  23.820  1.00  0.00     0.263 C 
BRANCH   3   4
HETATM    4  N4  UNL     1      -4.685 -37.320  23.183  1.00  0.00    -0.356 N 
ATOM      5  H4  UNL     1      -4.204 -36.577  23.690  1.00  0.00     0.162 HD
BRANCH   4   6
HETATM    6  C7  UNL     1      -4.262 -37.660  21.887  1.00  0.00     0.157 A 
HETATM    7  C6  UNL     1      -3.795 -36.847  20.896  1.00  0.00     0.152 A 
HETATM    8  N2  UNL     1      -3.511 -37.692  19.858  1.00  0.00    -0.234 N 
HETATM    9  O3  UNL     1      -3.787 -38.916  20.197  1.00  0.00    -0.155 OA
ATOM     10  H2  UNL     1      -3.140 -37.404  18.953  1.00  0.00     0.197 HD
HETATM   11  N3  UNL     1      -4.245 -38.929  21.426  1.00  0.00    -0.223 N 
ATOM     12  H3  UNL     1      -4.538 -39.757  21.945  1.00  0.00     0.198 HD
BRANCH   7  13
HETATM   13  C5  UNL     1      -3.649 -35.422  20.910  1.00  0.00     0.229 C 
HETATM   14  O2  UNL     1      -4.132 -34.710  21.807  1.00  0.00    -0.286 OA
BRANCH  13  15
HETATM   15  C4  UNL     1      -2.884 -34.712  19.799  1.00  0.00     0.292 C 
BRANCH  15  16
HETATM   16  N1  UNL     1      -1.679 -34.285  20.413  1.00  0.00    -0.373 N 
ATOM     17  H1  UNL     1      -1.692 -33.470  21.026  1.00  0.00     0.157 HD
BRANCH  16  18
HETATM   18  C2  UNL     1      -0.473 -34.962  20.196  1.00  0.00     0.110 C 
HETATM   19  C1  UNL     1       0.099 -35.663  21.415  1.00  0.00     0.050 C 
HETATM   20  C3  UNL     1       0.587 -33.820  19.939  1.00  0.00     0.050 C 
BRANCH  18  21
HETATM   21  C16 UNL     1      -0.355 -35.844  19.031  1.00  0.00     0.201 C 
HETATM   22  O4  UNL     1       0.074 -35.441  17.936  1.00  0.00    -0.646 OA
HETATM   23  O5  UNL     1      -0.717 -37.201  19.079  1.00  0.00    -0.646 OA
ENDBRANCH  18  21
ENDBRANCH  16  18
ENDBRANCH  15  16
BRANCH  15  24
HETATM   24  O1  UNL     1      -3.700 -33.697  19.345  1.00  0.00    -0.369 OA
ATOM     25  H1  UNL     1      -4.536 -33.979  18.991  1.00  0.00     0.212 HD
ENDBRANCH  15  24
ENDBRANCH  13  15
ENDBRANCH   7  13
ENDBRANCH   4   6
ENDBRANCH   3   4
ENDBRANCH   1   3
BRANCH   1  26
HETATM   26  C9  UNL     1      -7.396 -36.397  22.701  1.00  0.00     0.710 C 
HETATM   27  N6  UNL     1      -7.153 -35.119  22.526  1.00  0.00    -0.208 N 
HETATM   28  C10 UNL     1      -7.760 -34.718  21.249  1.00  0.00     0.277 C 
ATOM     29  H6  UNL     1      -6.635 -34.512  23.162  1.00  0.00     0.179 HD
HETATM   30  N7  UNL     1      -8.868 -35.692  21.106  1.00  0.00    -0.081 NA
HETATM   31  N8  UNL     1      -8.145 -36.834  21.583  1.00  0.00    -0.001 N 
BRANCH  31  32
HETATM   32  N9  UNL     1      -8.153 -38.116  21.041  1.00  0.00    -0.034 N 
HETATM   33  C11 UNL     1      -7.543 -38.615  19.953  1.00  0.00     0.701 A 
HETATM   34  N10 UNL     1      -6.801 -37.932  19.154  1.00  0.00    -0.233 N 
HETATM   35  N11 UNL     1      -7.823 -39.934  19.817  1.00  0.00    -0.183 N 
ATOM     36 2H10 UNL     1      -6.590 -36.940  19.257  1.00  0.00     0.174 HD
ATOM     37 1H10 UNL     1      -6.338 -38.312  18.328  1.00  0.00     0.174 HD
HETATM   38  C12 UNL     1      -8.633 -40.313  20.830  1.00  0.00     0.139 A 
ATOM     39  H11 UNL     1      -7.480 -40.541  19.072  1.00  0.00     0.184 HD
HETATM   40  C13 UNL     1      -9.198 -41.539  21.149  1.00  0.00     0.131 A 
HETATM   41  C15 UNL     1      -8.827 -39.177  21.578  1.00  0.00     0.180 A 
HETATM   42  N13 UNL     1      -9.980 -41.586  22.264  1.00  0.00    -0.337 N 
HETATM   43  C14 UNL     1     -10.170 -40.466  22.999  1.00  0.00     0.183 A 
ATOM     44  H13 UNL     1     -10.421 -42.463  22.544  1.00  0.00     0.168 HD
HETATM   45  N14 UNL     1      -9.608 -39.273  22.674  1.00  0.00    -0.335 N 
ATOM     46  H14 UNL     1      -9.777 -38.453  23.257  1.00  0.00     0.168 HD
BRANCH  40  47
HETATM   47  N12 UNL     1      -9.027 -42.601  20.455  1.00  0.00    -0.383 N 
ATOM     48 2H12 UNL     1      -8.767 -42.521  19.472  1.00  0.00     0.157 HD
ATOM     49 1H12 UNL     1      -9.131 -43.544  20.830  1.00  0.00     0.157 HD
ENDBRANCH  40  47
ENDBRANCH  31  32
ENDBRANCH   1  26
TORSDOF 12
ENDMDL
MODEL 3
REMARK VINA RESULT: -7.965121221      1.561      4.555
REMARK  12 active torsions:
REMARK  status: ('A' for Active; 'I' for Inactive)
REMARK    1  A    between atoms: C2_2  and  N1_4 
REMARK    2  A    between atoms: C2_2  and  C16_47 
REMARK    3  A    between atoms: N1_4  and  C4_6 
REMARK    4  A    between atoms: C4_6  and  O1_7 
REMARK    5  A    between atoms: C4_6  and  C5_9 
REMARK    6  A    between atoms: C5_9  and  C6_11 
REMARK    7  A    between atoms: C7_17  and  N4_18 
REMARK    8  A    between atoms: N4_18  and  C8_20 
REMARK    9  A    between atoms: C8_20  and  N5_21 
REMARK   10  A    between atoms: N5_21  and  C9_23 
REMARK   11  A    between atoms: N8_28  and  N9_29 
REMARK   12  A    between atoms: C13_37  and  N12_38 
ROOT
HETATM    1  N5  UNL     1      -7.496 -36.585  21.616  1.00  0.00    -0.208 N 
ATOM      2  H5  UNL     1      -7.603 -35.586  21.445  1.00  0.00     0.179 HD
ENDROOT
BRANCH   1   3
HETATM    3  C8  UNL     1      -7.633 -37.478  20.488  1.00  0.00     0.263 C 
BRANCH   3   4
HETATM    4  N4  UNL     1      -6.442 -37.395  19.630  1.00  0.00    -0.356 N 
ATOM      5  H4  UNL     1      -6.526 -37.006  18.691  1.00  0.00     0.162 HD
BRANCH   4   6
HETATM    6  C7  UNL     1      -5.189 -37.844  20.084  1.00  0.00     0.157 A 
HETATM    7  C6  UNL     1      -4.127 -37.115  20.531  1.00  0.00     0.152 A 
HETATM    8  N2  UNL     1      -3.181 -38.046  20.862  1.00  0.00    -0.234 N 
HETATM    9  O3  UNL     1      -3.638 -39.241  20.631  1.00  0.00    -0.155 OA
ATOM     10  H2  UNL     1      -2.255 -37.834  21.233  1.00  0.00     0.197 HD
HETATM   11  N3  UNL     1      -4.858 -39.151  20.158  1.00  0.00    -0.223 N 
ATOM     12  H3  UNL     1      -5.455 -39.935  19.891  1.00  0.00     0.198 HD
BRANCH   7  13
HETATM   13  C5  UNL     1      -4.000 -35.691  20.619  1.00  0.00     0.229 C 
HETATM   14  O2  UNL     1      -4.726 -35.000  21.355  1.00  0.00    -0.286 OA
BRANCH  13  15
HETATM   15  C4  UNL     1      -2.952 -34.955  19.792  1.00  0.00     0.292 C 
BRANCH  15  16
HETATM   16  N1  UNL     1      -1.863 -34.769  20.682  1.00  0.00    -0.373 N 
ATOM     17  H1  UNL     1      -2.015 -34.272  21.560  1.00  0.00     0.157 HD
BRANCH  16  18
HETATM   18  C2  UNL     1      -0.586 -35.252  20.378  1.00  0.00     0.110 C 
HETATM   19  C1  UNL     1       0.180 -35.826  21.557  1.00  0.00     0.050 C 
HETATM   20  C3  UNL     1       0.258 -33.965  20.026  1.00  0.00     0.050 C 
BRANCH  18  21
HETATM   21  C16 UNL     1      -0.418 -36.133  19.218  1.00  0.00     0.201 C 
HETATM   22  O4  UNL     1      -0.718 -37.338  19.252  1.00  0.00    -0.646 OA
HETATM   23  O5  UNL     1       0.091 -35.669  17.993  1.00  0.00    -0.646 OA
ENDBRANCH  18  21
ENDBRANCH  16  18
ENDBRANCH  15  16
BRANCH  15  24
HETATM   24  O1  UNL     1      -3.547 -33.794  19.344  1.00  0.00    -0.369 OA
ATOM     25  H1  UNL     1      -4.421 -33.633  19.680  1.00  0.00     0.212 HD
ENDBRANCH  15  24
ENDBRANCH  13  15
ENDBRANCH   7  13
ENDBRANCH   4   6
ENDBRANCH   3   4
ENDBRANCH   1   3
BRANCH   1  26
HETATM   26  C9  UNL     1      -7.225 -36.998  22.936  1.00  0.00     0.710 C 
HETATM   27  N6  UNL     1      -6.073 -36.914  23.559  1.00  0.00    -0.208 N 
HETATM   28  C10 UNL     1      -6.253 -37.459  24.911  1.00  0.00     0.277 C 
ATOM     29  H6  UNL     1      -5.207 -36.538  23.173  1.00  0.00     0.179 HD
HETATM   30  N7  UNL     1      -7.372 -38.411  24.723  1.00  0.00    -0.081 NA
HETATM   31  N8  UNL     1      -8.142 -37.584  23.840  1.00  0.00    -0.001 N 
BRANCH  31  32
HETATM   32  N9  UNL     1      -9.518 -37.375  23.877  1.00  0.00    -0.034 N 
HETATM   33  C11 UNL     1     -10.519 -37.986  23.221  1.00  0.00     0.701 A 
HETATM   34  N10 UNL     1     -10.359 -38.934  22.365  1.00  0.00    -0.233 N 
HETATM   35  N11 UNL     1     -11.714 -37.460  23.584  1.00  0.00    -0.183 N 
ATOM     36 2H10 UNL     1      -9.460 -39.330  22.092  1.00  0.00     0.174 HD
ATOM     37 1H10 UNL     1     -11.119 -39.398  21.868  1.00  0.00     0.174 HD
HETATM   38  C12 UNL     1     -11.500 -36.485  24.495  1.00  0.00     0.139 A 
ATOM     39  H11 UNL     1     -12.624 -37.753  23.229  1.00  0.00     0.184 HD
HETATM   40  C13 UNL     1     -12.376 -35.651  25.174  1.00  0.00     0.131 A 
HETATM   41  C15 UNL     1     -10.137 -36.445  24.665  1.00  0.00     0.180 A 
HETATM   42  N13 UNL     1     -11.826 -34.758  26.046  1.00  0.00    -0.337 N 
HETATM   43  C14 UNL     1     -10.484 -34.721  26.211  1.00  0.00     0.183 A 
ATOM     44  H13 UNL     1     -12.425 -34.121  26.572  1.00  0.00     0.168 HD
HETATM   45  N14 UNL     1      -9.640 -35.545  25.539  1.00  0.00    -0.335 N 
ATOM     46  H14 UNL     1      -8.633 -35.484  25.694  1.00  0.00     0.168 HD
BRANCH  40  47
HETATM   47  N12 UNL     1     -13.646 -35.677  25.019  1.00  0.00    -0.383 N 
ATOM     48 2H12 UNL     1     -14.061 -35.219  24.208  1.00  0.00     0.157 HD
ATOM     49 1H12 UNL     1     -14.285 -36.142  25.664  1.00  0.00     0.157 HD
ENDBRANCH  40  47
ENDBRANCH  31  32
ENDBRANCH   1  26
TORSDOF 12
ENDMDL
MODEL 4
REMARK VINA RESULT: -7.927346506      2.679      6.893
REMARK  12 active torsions:
REMARK  status: ('A' for Active; 'I' for Inactive)
REMARK    1  A    between atoms: C2_2  and  N1_4 
REMARK    2  A    between atoms: C2_2  and  C16_47 
REMARK    3  A    between atoms: N1_4  and  C4_6 
REMARK    4  A    between atoms: C4_6  and  O1_7 
REMARK    5  A    between atoms: C4_6  and  C5_9 
REMARK    6  A    between atoms: C5_9  and  C6_11 
REMARK    7  A    between atoms: C7_17  and  N4_18 
REMARK    8  A    between atoms: N4_18  and  C8_20 
REMARK    9  A    between atoms: C8_20  and  N5_21 
REMARK   10  A    between atoms: N5_21  and  C9_23 
REMARK   11  A    between atoms: N8_28  and  N9_29 
REMARK   12  A    between atoms: C13_37  and  N12_38 
ROOT
HETATM    1  N5  UNL     1      -4.533 -39.190  19.567  1.00  0.00    -0.208 N 
ATOM      2  H5  UNL     1      -4.504 -38.326  19.026  1.00  0.00     0.179 HD
ENDROOT
BRANCH   1   3
HETATM    3  C8  UNL     1      -4.639 -40.434  18.841  1.00  0.00     0.263 C 
BRANCH   3   4
HETATM    4  N4  UNL     1      -5.985 -40.573  18.268  1.00  0.00    -0.356 N 
ATOM      5  H4  UNL     1      -6.167 -40.234  17.324  1.00  0.00     0.162 HD
BRANCH   4   6
HETATM    6  C7  UNL     1      -7.027 -41.167  19.002  1.00  0.00     0.157 A 
HETATM    7  C6  UNL     1      -7.886 -40.593  19.891  1.00  0.00     0.152 A 
HETATM    8  N2  UNL     1      -8.704 -41.612  20.294  1.00  0.00    -0.234 N 
HETATM    9  O3  UNL     1      -8.363 -42.714  19.694  1.00  0.00    -0.155 OA
ATOM     10  H2  UNL     1      -9.466 -41.522  20.965  1.00  0.00     0.197 HD
HETATM   11  N3  UNL     1      -7.346 -42.476  18.901  1.00  0.00    -0.223 N 
ATOM     12  H3  UNL     1      -6.877 -43.161  18.309  1.00  0.00     0.198 HD
BRANCH   7  13
HETATM   13  C5  UNL     1      -7.924 -39.232  20.338  1.00  0.00     0.229 C 
HETATM   14  O2  UNL     1      -7.694 -38.273  19.580  1.00  0.00    -0.286 OA
BRANCH  13  15
HETATM   15  C4  UNL     1      -8.250 -38.903  21.790  1.00  0.00     0.292 C 
BRANCH  15  16
HETATM   16  N1  UNL     1      -7.728 -37.598  21.985  1.00  0.00    -0.373 N 
ATOM     17  H1  UNL     1      -6.729 -37.437  21.860  1.00  0.00     0.157 HD
BRANCH  16  18
HETATM   18  C2  UNL     1      -8.556 -36.530  22.346  1.00  0.00     0.110 C 
HETATM   19  C1  UNL     1      -8.251 -35.907  23.696  1.00  0.00     0.050 C 
HETATM   20  C3  UNL     1      -9.972 -37.185  22.592  1.00  0.00     0.050 C 
BRANCH  18  21
HETATM   21  C16 UNL     1      -8.808 -35.466  21.368  1.00  0.00     0.201 C 
HETATM   22  O4  UNL     1      -9.800 -35.475  20.621  1.00  0.00    -0.646 OA
HETATM   23  O5  UNL     1      -7.943 -34.369  21.216  1.00  0.00    -0.646 OA
ENDBRANCH  18  21
ENDBRANCH  16  18
ENDBRANCH  15  16
BRANCH  15  24
HETATM   24  O1  UNL     1      -7.666 -39.888  22.559  1.00  0.00    -0.369 OA
ATOM     25  H1  UNL     1      -8.260 -40.559  22.873  1.00  0.00     0.212 HD
ENDBRANCH  15  24
ENDBRANCH  13  15
ENDBRANCH   7  13
ENDBRANCH   4   6
ENDBRANCH   3   4
ENDBRANCH   1   3
BRANCH   1  26
HETATM   26  C9  UNL     1      -4.468 -39.085  20.971  1.00  0.00     0.710 C 
HETATM   27  N6  UNL     1      -4.550 -40.073  21.832  1.00  0.00    -0.208 N 
HETATM   28  C10 UNL     1      -4.432 -39.503  23.181  1.00  0.00     0.277 C 
ATOM     29  H6  UNL     1      -4.673 -41.060  21.605  1.00  0.00     0.179 HD
HETATM   30  N7  UNL     1      -4.936 -38.124  22.988  1.00  0.00    -0.081 NA
HETATM   31  N8  UNL     1      -4.306 -37.896  21.720  1.00  0.00    -0.001 N 
BRANCH  31  32
HETATM   32  N9  UNL     1      -3.642 -36.743  21.311  1.00  0.00    -0.034 N 
HETATM   33  C11 UNL     1      -4.026 -35.456  21.322  1.00  0.00     0.701 A 
HETATM   34  N10 UNL     1      -5.173 -35.039  21.730  1.00  0.00    -0.233 N 
HETATM   35  N11 UNL     1      -3.039 -34.663  20.839  1.00  0.00    -0.183 N 
ATOM     36 2H10 UNL     1      -5.916 -35.636  22.093  1.00  0.00     0.174 HD
ATOM     37 1H10 UNL     1      -5.464 -34.062  21.738  1.00  0.00     0.174 HD
HETATM   38  C12 UNL     1      -1.984 -35.439  20.503  1.00  0.00     0.139 A 
ATOM     39  H11 UNL     1      -3.083 -33.648  20.745  1.00  0.00     0.184 HD
HETATM   40  C13 UNL     1      -0.741 -35.125  19.974  1.00  0.00     0.131 A 
HETATM   41  C15 UNL     1      -2.374 -36.722  20.801  1.00  0.00     0.180 A 
HETATM   42  N13 UNL     1       0.113 -36.163  19.749  1.00  0.00    -0.337 N 
HETATM   43  C14 UNL     1      -0.273 -37.426  20.044  1.00  0.00     0.183 A 
ATOM     44  H13 UNL     1       1.041 -35.988  19.361  1.00  0.00     0.168 HD
HETATM   45  N14 UNL     1      -1.493 -37.716  20.562  1.00  0.00    -0.335 N 
ATOM     46  H14 UNL     1      -1.744 -38.683  20.770  1.00  0.00     0.168 HD
BRANCH  40  47
HETATM   47  N12 UNL     1      -0.372 -33.933  19.688  1.00  0.00    -0.383 N 
ATOM     48 2H12 UNL     1      -0.495 -33.585  18.737  1.00  0.00     0.157 HD
ATOM     49 1H12 UNL     1       0.043 -33.292  20.364  1.00  0.00     0.157 HD
ENDBRANCH  40  47
ENDBRANCH  31  32
ENDBRANCH   1  26
TORSDOF 12
ENDMDL
MODEL 5
REMARK VINA RESULT: -7.869159760      0.996      2.019
REMARK  12 active torsions:
REMARK  status: ('A' for Active; 'I' for Inactive)
REMARK    1  A    between atoms: C2_2  and  N1_4 
REMARK    2  A    between atoms: C2_2  and  C16_47 
REMARK    3  A    between atoms: N1_4  and  C4_6 
REMARK    4  A    between atoms: C4_6  and  O1_7 
REMARK    5  A    between atoms: C4_6  and  C5_9 
REMARK    6  A    between atoms: C5_9  and  C6_11 
REMARK    7  A    between atoms: C7_17  and  N4_18 
REMARK    8  A    between atoms: N4_18  and  C8_20 
REMARK    9  A    between atoms: C8_20  and  N5_21 
REMARK   10  A    between atoms: N5_21  and  C9_23 
REMARK   11  A    between atoms: N8_28  and  N9_29 
REMARK   12  A    between atoms: C13_37  and  N12_38 
ROOT
HETATM    1  N5  UNL     1      -7.026 -36.984  23.993  1.00  0.00    -0.208 N 
ATOM      2  H5  UNL     1      -7.421 -36.683  24.884  1.00  0.00     0.179 HD
ENDROOT
BRANCH   1   3
HETATM    3  C8  UNL     1      -5.949 -37.947  24.027  1.00  0.00     0.263 C 
BRANCH   3   4
HETATM    4  N4  UNL     1      -4.753 -37.392  23.378  1.00  0.00    -0.356 N 
ATOM      5  H4  UNL     1      -4.170 -36.726  23.884  1.00  0.00     0.162 HD
BRANCH   4   6
HETATM    6  C7  UNL     1      -4.399 -37.767  22.070  1.00  0.00     0.157 A 
HETATM    7  C6  UNL     1      -3.976 -36.982  21.038  1.00  0.00     0.152 A 
HETATM    8  N2  UNL     1      -3.754 -37.853  20.007  1.00  0.00    -0.234 N 
HETATM    9  O3  UNL     1      -4.023 -39.066  20.389  1.00  0.00    -0.155 OA
ATOM     10  H2  UNL     1      -3.427 -37.590  19.078  1.00  0.00     0.197 HD
HETATM   11  N3  UNL     1      -4.418 -39.047  21.639  1.00  0.00    -0.223 N 
ATOM     12  H3  UNL     1      -4.691 -39.859  22.192  1.00  0.00     0.198 HD
BRANCH   7  13
HETATM   13  C5  UNL     1      -3.817 -35.559  21.011  1.00  0.00     0.229 C 
HETATM   14  O2  UNL     1      -4.354 -34.810  21.845  1.00  0.00    -0.286 OA
BRANCH  13  15
HETATM   15  C4  UNL     1      -2.969 -34.896  19.931  1.00  0.00     0.292 C 
BRANCH  15  16
HETATM   16  N1  UNL     1      -1.777 -34.515  20.599  1.00  0.00    -0.373 N 
ATOM     17  H1  UNL     1      -1.815 -33.787  21.312  1.00  0.00     0.157 HD
BRANCH  16  18
HETATM   18  C2  UNL     1      -0.550 -35.117  20.297  1.00  0.00     0.110 C 
HETATM   19  C1  UNL     1       0.149 -35.773  21.474  1.00  0.00     0.050 C 
HETATM   20  C3  UNL     1       0.416 -33.915  19.961  1.00  0.00     0.050 C 
BRANCH  18  21
HETATM   21  C16 UNL     1      -0.461 -36.000  19.130  1.00  0.00     0.201 C 
HETATM   22  O4  UNL     1      -0.002 -35.614  18.041  1.00  0.00    -0.646 OA
HETATM   23  O5  UNL     1      -0.888 -37.338  19.168  1.00  0.00    -0.646 OA
ENDBRANCH  18  21
ENDBRANCH  16  18
ENDBRANCH  15  16
BRANCH  15  24
HETATM   24  O1  UNL     1      -3.717 -33.851  19.428  1.00  0.00    -0.369 OA
ATOM     25  H1  UNL     1      -3.577 -33.663  18.507  1.00  0.00     0.212 HD
ENDBRANCH  15  24
ENDBRANCH  13  15
ENDBRANCH   7  13
ENDBRANCH   4   6
ENDBRANCH   3   4
ENDBRANCH   1   3
BRANCH   1  26
HETATM   26  C9  UNL     1      -7.568 -36.429  22.816  1.00  0.00     0.710 C 
HETATM   27  N6  UNL     1      -7.294 -35.248  22.313  1.00  0.00    -0.208 N 
HETATM   28  C10 UNL     1      -8.085 -35.091  21.084  1.00  0.00     0.277 C 
ATOM     29  H6  UNL     1      -6.649 -34.562  22.704  1.00  0.00     0.179 HD
HETATM   30  N7  UNL     1      -9.248 -35.972  21.340  1.00  0.00    -0.081 NA
HETATM   31  N8  UNL     1      -8.513 -37.037  21.956  1.00  0.00    -0.001 N 
BRANCH  31  32
HETATM   32  N9  UNL     1      -8.674 -38.402  21.737  1.00  0.00    -0.034 N 
HETATM   33  C11 UNL     1      -9.375 -39.326  22.415  1.00  0.00     0.701 A 
HETATM   34  N10 UNL     1     -10.058 -39.087  23.480  1.00  0.00    -0.233 N 
HETATM   35  N11 UNL     1      -9.258 -40.539  21.822  1.00  0.00    -0.183 N 
ATOM     36 2H10 UNL     1     -10.147 -38.175  23.925  1.00  0.00     0.174 HD
ATOM     37 1H10 UNL     1     -10.590 -39.789  23.994  1.00  0.00     0.174 HD
HETATM   38  C12 UNL     1      -8.465 -40.416  20.735  1.00  0.00     0.139 A 
ATOM     39  H11 UNL     1      -9.695 -41.402  22.144  1.00  0.00     0.184 HD
HETATM   40  C13 UNL     1      -8.038 -41.344  19.797  1.00  0.00     0.131 A 
HETATM   41  C15 UNL     1      -8.113 -39.088  20.696  1.00  0.00     0.180 A 
HETATM   42  N13 UNL     1      -7.230 -40.885  18.799  1.00  0.00    -0.337 N 
HETATM   43  C14 UNL     1      -6.884 -39.578  18.764  1.00  0.00     0.183 A 
ATOM     44  H13 UNL     1      -6.886 -41.525  18.083  1.00  0.00     0.168 HD
HETATM   45  N14 UNL     1      -7.312 -38.681  19.689  1.00  0.00    -0.335 N 
ATOM     46  H14 UNL     1      -7.027 -37.704  19.624  1.00  0.00     0.168 HD
BRANCH  40  47
HETATM   47  N12 UNL     1      -8.357 -42.583  19.828  1.00  0.00    -0.383 N 
ATOM     48 2H12 UNL     1      -7.716 -43.254  20.252  1.00  0.00     0.157 HD
ATOM     49 1H12 UNL     1      -9.230 -42.953  19.452  1.00  0.00     0.157 HD
ENDBRANCH  40  47
ENDBRANCH  31  32
ENDBRANCH   1  26
TORSDOF 12
ENDMDL
