MODEL 1
REMARK VINA RESULT: -7.728321176      0.000      0.000
REMARK  15 active torsions:
REMARK  status: ('A' for Active; 'I' for Inactive)
REMARK    1  A    between atoms: N1_1  and  C1_4 
REMARK    2  A    between atoms: C2_8  and  C3_9 
REMARK    3  A    between atoms: C5_11  and  C6_12 
REMARK    4  A    between atoms: C6_12  and  O1_13 
REMARK    5  A    between atoms: C6_12  and  O2_15 
REMARK    6  A    between atoms: N5_19  and  C7_20 
REMARK    7  A    between atoms: C7_20  and  N6_21 
REMARK    8  A    between atoms: C7_20  and  S1_31 
REMARK    9  A    between atoms: N6_21  and  O3_22 
REMARK   10  A    between atoms: N6_21  and  C8_26 
REMARK   11  A    between atoms: O3_22  and  N7_23 
REMARK   12  A    between atoms: C8_26  and  O4_27 
REMARK   13  A    between atoms: C8_26  and  O5_29 
REMARK   14  A    between atoms: C9_35  and  N8_36 
REMARK   15  A    between atoms: C12_43  and  N10_44 
ROOT
HETATM    1  C3  UNL     1      -5.542 -37.808  21.015  1.00  0.00     0.042 A 
HETATM    2  C4  UNL     1      -6.468 -36.836  21.491  1.00  0.00     0.049 A 
HETATM    3  C5  UNL     1      -6.105 -35.527  21.509  1.00  0.00     0.081 A 
HETATM    4  N4  UNL     1      -4.904 -35.206  21.084  1.00  0.00    -0.290 N 
ATOM      5  H4  UNL     1      -4.656 -34.217  21.110  1.00  0.00     0.187 HD
HETATM    6  N5  UNL     1      -3.968 -36.056  20.615  1.00  0.00    -0.213 N 
HETATM    7  C9  UNL     1      -4.311 -37.376  20.583  1.00  0.00     0.136 A 
ENDROOT
BRANCH   1   8
HETATM    8  C2  UNL     1      -5.988 -39.167  20.961  1.00  0.00     0.088 A 
HETATM    9  N3  UNL     1      -6.147 -40.028  19.967  1.00  0.00    -0.234 N 
HETATM   10  N2  UNL     1      -6.101 -40.192  18.634  1.00  0.00    -0.275 N 
HETATM   11  C11 UNL     1      -6.454 -41.243  20.478  1.00  0.00     0.165 A 
HETATM   12  C1  UNL     1      -6.369 -41.458  18.300  1.00  0.00     0.151 A 
ATOM     13  H2  UNL     1      -5.890 -39.449  17.968  1.00  0.00     0.189 HD
HETATM   14  C12 UNL     1      -6.599 -42.163  19.450  1.00  0.00     0.193 A 
HETATM   15  N9  UNL     1      -6.488 -41.170  21.813  1.00  0.00    -0.346 N 
HETATM   16  C10 UNL     1      -6.206 -39.908  22.141  1.00  0.00     0.122 A 
ATOM     17  H9  UNL     1      -6.691 -41.933  22.458  1.00  0.00     0.167 HD
BRANCH  12  18
HETATM   18  N1  UNL     1      -6.395 -41.911  17.068  1.00  0.00    -0.382 N 
ATOM     19  H12 UNL     1      -6.401 -41.364  16.206  1.00  0.00     0.157 HD
ATOM     20  H11 UNL     1      -6.415 -42.900  16.817  1.00  0.00     0.157 HD
ENDBRANCH  12  18
BRANCH  14  21
HETATM   21  N10 UNL     1      -6.930 -43.527  19.599  1.00  0.00    -0.108 N 
HETATM   22  O9  UNL     1      -6.750 -44.093  20.705  1.00  0.00    -0.531 OA
HETATM   23  O10 UNL     1      -7.455 -44.284  18.594  1.00  0.00    -0.531 OA
ENDBRANCH  14  21
ENDBRANCH   1   8
BRANCH   7  24
HETATM   24  N8  UNL     1      -3.493 -38.125  20.031  1.00  0.00    -0.383 N 
ATOM     25  H82 UNL     1      -2.787 -38.532  20.646  1.00  0.00     0.157 HD
ATOM     26  H81 UNL     1      -3.456 -38.253  19.020  1.00  0.00     0.157 HD
ENDBRANCH   7  24
BRANCH   3  27
HETATM   27  C6  UNL     1      -7.093 -34.485  21.997  1.00  0.00     0.306 C 
BRANCH  27  28
HETATM   28  O1  UNL     1      -6.518 -33.228  22.051  1.00  0.00    -0.366 OA
ATOM     29  H1  UNL     1      -6.674 -32.810  22.890  1.00  0.00     0.213 HD
ENDBRANCH  27  28
BRANCH  27  30
HETATM   30  O2  UNL     1      -8.176 -34.426  21.122  1.00  0.00    -0.366 OA
ATOM     31  H2  UNL     1      -8.983 -34.362  21.620  1.00  0.00     0.213 HD
ENDBRANCH  27  30
ENDBRANCH   3  27
BRANCH   6  32
HETATM   32  C7  UNL     1      -2.691 -35.545  20.203  1.00  0.00     0.255 C 
BRANCH  32  33
HETATM   33  N6  UNL     1      -1.519 -36.244  20.559  1.00  0.00    -0.052 NA
BRANCH  33  34
HETATM   34  O3  UNL     1      -0.850 -35.522  21.503  1.00  0.00    -0.178 OA
BRANCH  34  35
HETATM   35  N7  UNL     1       0.462 -35.443  21.318  1.00  0.00    -0.291 N 
ATOM     36  H72 UNL     1       1.032 -36.274  21.156  1.00  0.00     0.186 HD
ATOM     37  H71 UNL     1       0.843 -34.498  21.351  1.00  0.00     0.186 HD
ENDBRANCH  34  35
ENDBRANCH  33  34
BRANCH  33  38
HETATM   38  C8  UNL     1      -0.547 -36.534  19.543  1.00  0.00     0.373 C 
BRANCH  38  39
HETATM   39  O4  UNL     1      -0.304 -37.873  19.296  1.00  0.00    -0.357 OA
ATOM     40  H4  UNL     1       0.583 -38.174  19.457  1.00  0.00     0.214 HD
ENDBRANCH  38  39
BRANCH  38  41
HETATM   41  O5  UNL     1      -0.917 -35.972  18.303  1.00  0.00    -0.357 OA
ATOM     42  H5  UNL     1      -1.717 -36.362  17.972  1.00  0.00     0.214 HD
ENDBRANCH  38  41
ENDBRANCH  33  38
ENDBRANCH  32  33
BRANCH  32  43
HETATM   43  S1  UNL     1      -2.483 -33.798  20.145  1.00  0.00     0.171 S 
HETATM   44  O6  UNL     1      -3.437 -33.247  19.078  1.00  0.00    -0.589 OA
HETATM   45  O7  UNL     1      -2.990 -33.169  21.417  1.00  0.00    -0.589 OA
HETATM   46  O8  UNL     1      -1.000 -33.212  19.757  1.00  0.00    -0.589 OA
ENDBRANCH  32  43
ENDBRANCH   6  32
TORSDOF 15
ENDMDL
MODEL 2
REMARK VINA RESULT: -7.700437615      3.040      5.920
REMARK  15 active torsions:
REMARK  status: ('A' for Active; 'I' for Inactive)
REMARK    1  A    between atoms: N1_1  and  C1_4 
REMARK    2  A    between atoms: C2_8  and  C3_9 
REMARK    3  A    between atoms: C5_11  and  C6_12 
REMARK    4  A    between atoms: C6_12  and  O1_13 
REMARK    5  A    between atoms: C6_12  and  O2_15 
REMARK    6  A    between atoms: N5_19  and  C7_20 
REMARK    7  A    between atoms: C7_20  and  N6_21 
REMARK    8  A    between atoms: C7_20  and  S1_31 
REMARK    9  A    between atoms: N6_21  and  O3_22 
REMARK   10  A    between atoms: N6_21  and  C8_26 
REMARK   11  A    between atoms: O3_22  and  N7_23 
REMARK   12  A    between atoms: C8_26  and  O4_27 
REMARK   13  A    between atoms: C8_26  and  O5_29 
REMARK   14  A    between atoms: C9_35  and  N8_36 
REMARK   15  A    between atoms: C12_43  and  N10_44 
ROOT
HETATM    1  C3  UNL     1      -5.807 -37.152  21.095  1.00  0.00     0.042 A 
HETATM    2  C4  UNL     1      -5.687 -38.468  20.560  1.00  0.00     0.049 A 
HETATM    3  C5  UNL     1      -4.509 -38.853  20.006  1.00  0.00     0.081 A 
HETATM    4  N4  UNL     1      -3.517 -37.992  19.984  1.00  0.00    -0.290 N 
ATOM      5  H4  UNL     1      -2.644 -38.306  19.561  1.00  0.00     0.187 HD
HETATM    6  N5  UNL     1      -3.540 -36.733  20.468  1.00  0.00    -0.213 N 
HETATM    7  C9  UNL     1      -4.712 -36.324  21.033  1.00  0.00     0.136 A 
ENDROOT
BRANCH   1   8
HETATM    8  C2  UNL     1      -7.049 -36.809  21.718  1.00  0.00     0.088 A 
HETATM    9  N3  UNL     1      -7.438 -36.746  22.983  1.00  0.00    -0.234 N 
HETATM   10  N2  UNL     1      -7.082 -36.973  24.257  1.00  0.00    -0.275 N 
HETATM   11  C11 UNL     1      -8.683 -36.217  23.036  1.00  0.00     0.165 A 
HETATM   12  C1  UNL     1      -8.056 -36.609  25.098  1.00  0.00     0.151 A 
ATOM     13  H2  UNL     1      -6.187 -37.371  24.545  1.00  0.00     0.189 HD
HETATM   14  C12 UNL     1      -9.097 -36.120  24.356  1.00  0.00     0.193 A 
HETATM   15  N9  UNL     1      -9.100 -35.930  21.798  1.00  0.00    -0.346 N 
HETATM   16  C10 UNL     1      -8.119 -36.282  20.966  1.00  0.00     0.122 A 
ATOM     17  H9  UNL     1      -9.998 -35.520  21.539  1.00  0.00     0.167 HD
BRANCH  12  18
HETATM   18  N1  UNL     1      -7.987 -36.716  26.405  1.00  0.00    -0.382 N 
ATOM     19  H12 UNL     1      -8.086 -37.564  26.963  1.00  0.00     0.157 HD
ATOM     20  H11 UNL     1      -7.822 -35.935  27.040  1.00  0.00     0.157 HD
ENDBRANCH  12  18
BRANCH  14  21
HETATM   21  N10 UNL     1     -10.342 -35.627  24.802  1.00  0.00    -0.108 N 
HETATM   22  O9  UNL     1     -11.397 -35.990  24.224  1.00  0.00    -0.531 OA
HETATM   23  O10 UNL     1     -10.476 -34.769  25.852  1.00  0.00    -0.531 OA
ENDBRANCH  14  21
ENDBRANCH   1   8
BRANCH   7  24
HETATM   24  N8  UNL     1      -4.678 -35.216  21.586  1.00  0.00    -0.383 N 
ATOM     25  H82 UNL     1      -5.094 -34.448  21.058  1.00  0.00     0.157 HD
ATOM     26  H81 UNL     1      -4.182 -35.051  22.462  1.00  0.00     0.157 HD
ENDBRANCH   7  24
BRANCH   3  27
HETATM   27  C6  UNL     1      -4.368 -40.258  19.452  1.00  0.00     0.306 C 
BRANCH  27  28
HETATM   28  O1  UNL     1      -4.893 -41.200  20.319  1.00  0.00    -0.366 OA
ATOM     29  H1  UNL     1      -4.337 -41.968  20.376  1.00  0.00     0.213 HD
ENDBRANCH  27  28
BRANCH  27  30
HETATM   30  O2  UNL     1      -5.059 -40.352  18.245  1.00  0.00    -0.366 OA
ATOM     31  H2  UNL     1      -5.805 -40.930  18.351  1.00  0.00     0.213 HD
ENDBRANCH  27  30
ENDBRANCH   3  27
BRANCH   6  32
HETATM   32  C7  UNL     1      -2.372 -35.908  20.350  1.00  0.00     0.255 C 
BRANCH  32  33
HETATM   33  N6  UNL     1      -2.359 -34.855  19.412  1.00  0.00    -0.052 NA
BRANCH  33  34
HETATM   34  O3  UNL     1      -1.403 -35.115  18.476  1.00  0.00    -0.178 OA
BRANCH  34  35
HETATM   35  N7  UNL     1      -0.350 -34.308  18.515  1.00  0.00    -0.291 N 
ATOM     36  H72 UNL     1      -0.390 -33.396  18.972  1.00  0.00     0.186 HD
ATOM     37  H71 UNL     1       0.486 -34.671  18.058  1.00  0.00     0.186 HD
ENDBRANCH  34  35
ENDBRANCH  33  34
BRANCH  33  38
HETATM   38  C8  UNL     1      -2.091 -33.520  19.869  1.00  0.00     0.373 C 
BRANCH  38  39
HETATM   39  O4  UNL     1      -2.468 -32.497  19.019  1.00  0.00    -0.357 OA
ATOM     40  H4  UNL     1      -1.816 -32.213  18.389  1.00  0.00     0.214 HD
ENDBRANCH  38  39
BRANCH  38  41
HETATM   41  O5  UNL     1      -2.732 -33.259  21.098  1.00  0.00    -0.357 OA
ATOM     42  H5  UNL     1      -3.211 -32.439  21.071  1.00  0.00     0.214 HD
ENDBRANCH  38  41
ENDBRANCH  33  38
ENDBRANCH  32  33
BRANCH  32  43
HETATM   43  S1  UNL     1      -0.800 -36.668  20.581  1.00  0.00     0.171 S 
HETATM   44  O6  UNL     1      -0.936 -37.693  21.714  1.00  0.00    -0.589 OA
HETATM   45  O7  UNL     1      -0.452 -37.520  19.387  1.00  0.00    -0.589 OA
HETATM   46  O8  UNL     1       0.464 -35.710  21.001  1.00  0.00    -0.589 OA
ENDBRANCH  32  43
ENDBRANCH   6  32
TORSDOF 15
ENDMDL
MODEL 3
REMARK VINA RESULT: -7.592734754      1.480      2.468
REMARK  15 active torsions:
REMARK  status: ('A' for Active; 'I' for Inactive)
REMARK    1  A    between atoms: N1_1  and  C1_4 
REMARK    2  A    between atoms: C2_8  and  C3_9 
REMARK    3  A    between atoms: C5_11  and  C6_12 
REMARK    4  A    between atoms: C6_12  and  O1_13 
REMARK    5  A    between atoms: C6_12  and  O2_15 
REMARK    6  A    between atoms: N5_19  and  C7_20 
REMARK    7  A    between atoms: C7_20  and  N6_21 
REMARK    8  A    between atoms: C7_20  and  S1_31 
REMARK    9  A    between atoms: N6_21  and  O3_22 
REMARK   10  A    between atoms: N6_21  and  C8_26 
REMARK   11  A    between atoms: O3_22  and  N7_23 
REMARK   12  A    between atoms: C8_26  and  O4_27 
REMARK   13  A    between atoms: C8_26  and  O5_29 
REMARK   14  A    between atoms: C9_35  and  N8_36 
REMARK   15  A    between atoms: C12_43  and  N10_44 
ROOT
HETATM    1  C3  UNL     1      -5.570 -37.591  20.472  1.00  0.00     0.042 A 
HETATM    2  C4  UNL     1      -6.458 -36.632  21.040  1.00  0.00     0.049 A 
HETATM    3  C5  UNL     1      -5.962 -35.445  21.475  1.00  0.00     0.081 A 
HETATM    4  N4  UNL     1      -4.672 -35.225  21.356  1.00  0.00    -0.290 N 
ATOM      5  H4  UNL     1      -4.325 -34.328  21.693  1.00  0.00     0.187 HD
HETATM    6  N5  UNL     1      -3.762 -36.071  20.831  1.00  0.00    -0.213 N 
HETATM    7  C9  UNL     1      -4.237 -37.269  20.383  1.00  0.00     0.136 A 
ENDROOT
BRANCH   1   8
HETATM    8  C2  UNL     1      -6.145 -38.804  19.976  1.00  0.00     0.088 A 
HETATM    9  N3  UNL     1      -5.715 -40.056  19.931  1.00  0.00    -0.234 N 
HETATM   10  N2  UNL     1      -4.677 -40.874  20.175  1.00  0.00    -0.275 N 
HETATM   11  C11 UNL     1      -6.717 -40.853  19.492  1.00  0.00     0.165 A 
HETATM   12  C1  UNL     1      -4.995 -42.143  19.902  1.00  0.00     0.151 A 
ATOM     13  H2  UNL     1      -3.768 -40.566  20.522  1.00  0.00     0.189 HD
HETATM   14  C12 UNL     1      -6.291 -42.172  19.464  1.00  0.00     0.193 A 
HETATM   15  N9  UNL     1      -7.805 -40.112  19.255  1.00  0.00    -0.346 N 
HETATM   16  C10 UNL     1      -7.486 -38.850  19.543  1.00  0.00     0.122 A 
ATOM     17  H9  UNL     1      -8.707 -40.449  18.920  1.00  0.00     0.167 HD
BRANCH  12  18
HETATM   18  N1  UNL     1      -4.177 -43.160  20.046  1.00  0.00    -0.382 N 
ATOM     19  H12 UNL     1      -4.229 -43.904  20.742  1.00  0.00     0.157 HD
ATOM     20  H11 UNL     1      -3.361 -43.332  19.458  1.00  0.00     0.157 HD
ENDBRANCH  12  18
BRANCH  14  21
HETATM   21  N10 UNL     1      -7.058 -43.283  19.050  1.00  0.00    -0.108 N 
HETATM   22  O9  UNL     1      -8.262 -43.370  19.394  1.00  0.00    -0.531 OA
HETATM   23  O10 UNL     1      -6.563 -44.287  18.272  1.00  0.00    -0.531 OA
ENDBRANCH  14  21
ENDBRANCH   1   8
BRANCH   7  24
HETATM   24  N8  UNL     1      -3.414 -37.979  19.788  1.00  0.00    -0.383 N 
ATOM     25  H82 UNL     1      -3.751 -38.900  19.509  1.00  0.00     0.157 HD
ATOM     26  H81 UNL     1      -2.437 -37.711  19.669  1.00  0.00     0.157 HD
ENDBRANCH   7  24
BRANCH   3  27
HETATM   27  C6  UNL     1      -6.904 -34.413  22.063  1.00  0.00     0.306 C 
BRANCH  27  28
HETATM   28  O1  UNL     1      -6.324 -33.157  22.095  1.00  0.00    -0.366 OA
ATOM     29  H1  UNL     1      -6.950 -32.479  21.871  1.00  0.00     0.213 HD
ENDBRANCH  27  28
BRANCH  27  30
HETATM   30  O2  UNL     1      -8.055 -34.335  21.279  1.00  0.00    -0.366 OA
ATOM     31  H2  UNL     1      -8.743 -33.899  21.769  1.00  0.00     0.213 HD
ENDBRANCH  27  30
ENDBRANCH   3  27
BRANCH   6  32
HETATM   32  C7  UNL     1      -2.380 -35.686  20.789  1.00  0.00     0.255 C 
BRANCH  32  33
HETATM   33  N6  UNL     1      -1.816 -35.261  19.567  1.00  0.00    -0.052 NA
BRANCH  33  34
HETATM   34  O3  UNL     1      -0.729 -36.037  19.295  1.00  0.00    -0.178 OA
BRANCH  34  35
HETATM   35  N7  UNL     1       0.135 -35.505  18.439  1.00  0.00    -0.291 N 
ATOM     36  H72 UNL     1      -0.072 -35.434  17.443  1.00  0.00     0.186 HD
ATOM     37  H71 UNL     1       1.007 -35.179  18.857  1.00  0.00     0.186 HD
ENDBRANCH  34  35
ENDBRANCH  33  34
BRANCH  33  38
HETATM   38  C8  UNL     1      -1.357 -33.906  19.448  1.00  0.00     0.373 C 
BRANCH  38  39
HETATM   39  O4  UNL     1      -2.338 -32.933  19.381  1.00  0.00    -0.357 OA
ATOM     40  H4  UNL     1      -2.235 -32.282  18.697  1.00  0.00     0.214 HD
ENDBRANCH  38  39
BRANCH  38  41
HETATM   41  O5  UNL     1      -0.528 -33.547  20.531  1.00  0.00    -0.357 OA
ATOM     42  H5  UNL     1      -0.473 -32.604  20.626  1.00  0.00     0.214 HD
ENDBRANCH  38  41
ENDBRANCH  33  38
ENDBRANCH  32  33
BRANCH  32  43
HETATM   43  S1  UNL     1      -1.251 -36.555  21.824  1.00  0.00     0.171 S 
HETATM   44  O6  UNL     1      -1.930 -36.773  23.181  1.00  0.00    -0.589 OA
HETATM   45  O7  UNL     1      -1.047 -37.958  21.312  1.00  0.00    -0.589 OA
HETATM   46  O8  UNL     1       0.189 -35.843  22.160  1.00  0.00    -0.589 OA
ENDBRANCH  32  43
ENDBRANCH   6  32
TORSDOF 15
ENDMDL
MODEL 4
REMARK VINA RESULT: -7.567156065      0.905      1.145
REMARK  15 active torsions:
REMARK  status: ('A' for Active; 'I' for Inactive)
REMARK    1  A    between atoms: N1_1  and  C1_4 
REMARK    2  A    between atoms: C2_8  and  C3_9 
REMARK    3  A    between atoms: C5_11  and  C6_12 
REMARK    4  A    between atoms: C6_12  and  O1_13 
REMARK    5  A    between atoms: C6_12  and  O2_15 
REMARK    6  A    between atoms: N5_19  and  C7_20 
REMARK    7  A    between atoms: C7_20  and  N6_21 
REMARK    8  A    between atoms: C7_20  and  S1_31 
REMARK    9  A    between atoms: N6_21  and  O3_22 
REMARK   10  A    between atoms: N6_21  and  C8_26 
REMARK   11  A    between atoms: O3_22  and  N7_23 
REMARK   12  A    between atoms: C8_26  and  O4_27 
REMARK   13  A    between atoms: C8_26  and  O5_29 
REMARK   14  A    between atoms: C9_35  and  N8_36 
REMARK   15  A    between atoms: C12_43  and  N10_44 
ROOT
HETATM    1  C3  UNL     1      -5.325 -37.541  20.983  1.00  0.00     0.042 A 
HETATM    2  C4  UNL     1      -6.071 -36.396  21.388  1.00  0.00     0.049 A 
HETATM    3  C5  UNL     1      -5.460 -35.183  21.416  1.00  0.00     0.081 A 
HETATM    4  N4  UNL     1      -4.195 -35.112  21.068  1.00  0.00    -0.290 N 
ATOM      5  H4  UNL     1      -3.760 -34.191  21.101  1.00  0.00     0.187 HD
HETATM    6  N5  UNL     1      -3.416 -36.139  20.671  1.00  0.00    -0.213 N 
HETATM    7  C9  UNL     1      -4.008 -37.367  20.630  1.00  0.00     0.136 A 
ENDROOT
BRANCH   1   8
HETATM    8  C2  UNL     1      -6.025 -38.788  20.914  1.00  0.00     0.088 A 
HETATM    9  N3  UNL     1      -6.209 -39.669  19.942  1.00  0.00    -0.234 N 
HETATM   10  N2  UNL     1      -6.003 -39.931  18.641  1.00  0.00    -0.275 N 
HETATM   11  C11 UNL     1      -6.826 -40.762  20.446  1.00  0.00     0.165 A 
HETATM   12  C1  UNL     1      -6.470 -41.142  18.319  1.00  0.00     0.151 A 
ATOM     13  H2  UNL     1      -5.550 -39.293  17.987  1.00  0.00     0.189 HD
HETATM   14  C12 UNL     1      -7.004 -41.706  19.446  1.00  0.00     0.193 A 
HETATM   15  N9  UNL     1      -7.039 -40.590  21.756  1.00  0.00    -0.346 N 
HETATM   16  C10 UNL     1      -6.558 -39.388  22.074  1.00  0.00     0.122 A 
ATOM     17  H9  UNL     1      -7.484 -41.253  22.391  1.00  0.00     0.167 HD
BRANCH  12  18
HETATM   18  N1  UNL     1      -6.407 -41.666  17.117  1.00  0.00    -0.382 N 
ATOM     19  H12 UNL     1      -5.624 -41.628  16.464  1.00  0.00     0.157 HD
ATOM     20  H11 UNL     1      -7.163 -42.192  16.676  1.00  0.00     0.157 HD
ENDBRANCH  12  18
BRANCH  14  21
HETATM   21  N10 UNL     1      -7.622 -42.966  19.594  1.00  0.00    -0.108 N 
HETATM   22  O9  UNL     1      -8.267 -43.223  20.641  1.00  0.00    -0.531 OA
HETATM   23  O10 UNL     1      -7.570 -43.942  18.644  1.00  0.00    -0.531 OA
ENDBRANCH  14  21
ENDBRANCH   1   8
BRANCH   7  24
HETATM   24  N8  UNL     1      -3.320 -38.274  20.141  1.00  0.00    -0.383 N 
ATOM     25  H82 UNL     1      -2.915 -38.072  19.227  1.00  0.00     0.157 HD
ATOM     26  H81 UNL     1      -3.242 -39.198  20.566  1.00  0.00     0.157 HD
ENDBRANCH   7  24
BRANCH   3  27
HETATM   27  C6  UNL     1      -6.253 -33.958  21.827  1.00  0.00     0.306 C 
BRANCH  27  28
HETATM   28  O1  UNL     1      -6.628 -33.205  20.729  1.00  0.00    -0.366 OA
ATOM     29  H1  UNL     1      -6.563 -32.274  20.908  1.00  0.00     0.213 HD
ENDBRANCH  27  28
BRANCH  27  30
HETATM   30  O2  UNL     1      -7.411 -34.355  22.493  1.00  0.00    -0.366 OA
ATOM     31  H2  UNL     1      -7.995 -34.789  21.882  1.00  0.00     0.213 HD
ENDBRANCH  27  30
ENDBRANCH   3  27
BRANCH   6  32
HETATM   32  C7  UNL     1      -2.041 -35.897  20.339  1.00  0.00     0.255 C 
BRANCH  32  33
HETATM   33  N6  UNL     1      -1.026 -36.431  21.161  1.00  0.00    -0.052 NA
BRANCH  33  34
HETATM   34  O3  UNL     1      -0.446 -35.411  21.856  1.00  0.00    -0.178 OA
BRANCH  34  35
HETATM   35  N7  UNL     1       0.879 -35.379  21.795  1.00  0.00    -0.291 N 
ATOM     36  H72 UNL     1       1.395 -35.873  21.067  1.00  0.00     0.186 HD
ATOM     37  H71 UNL     1       1.328 -34.825  22.525  1.00  0.00     0.186 HD
ENDBRANCH  34  35
ENDBRANCH  33  34
BRANCH  33  38
HETATM   38  C8  UNL     1       0.061 -37.141  20.550  1.00  0.00     0.373 C 
BRANCH  38  39
HETATM   39  O4  UNL     1       0.620 -38.162  21.297  1.00  0.00    -0.357 OA
ATOM     40  H4  UNL     1       0.544 -38.081  22.240  1.00  0.00     0.214 HD
ENDBRANCH  38  39
BRANCH  38  41
HETATM   41  O5  UNL     1      -0.330 -37.725  19.327  1.00  0.00    -0.357 OA
ATOM     42  H5  UNL     1       0.149 -37.352  18.596  1.00  0.00     0.214 HD
ENDBRANCH  38  41
ENDBRANCH  33  38
ENDBRANCH  32  33
BRANCH  32  43
HETATM   43  S1  UNL     1      -1.627 -34.341  19.625  1.00  0.00     0.171 S 
HETATM   44  O6  UNL     1      -0.836 -34.610  18.340  1.00  0.00    -0.589 OA
HETATM   45  O7  UNL     1      -2.870 -33.649  19.126  1.00  0.00    -0.589 OA
HETATM   46  O8  UNL     1      -0.702 -33.312  20.506  1.00  0.00    -0.589 OA
ENDBRANCH  32  43
ENDBRANCH   6  32
TORSDOF 15
ENDMDL
MODEL 5
REMARK VINA RESULT: -7.517783956      1.473      1.848
REMARK  15 active torsions:
REMARK  status: ('A' for Active; 'I' for Inactive)
REMARK    1  A    between atoms: N1_1  and  C1_4 
REMARK    2  A    between atoms: C2_8  and  C3_9 
REMARK    3  A    between atoms: C5_11  and  C6_12 
REMARK    4  A    between atoms: C6_12  and  O1_13 
REMARK    5  A    between atoms: C6_12  and  O2_15 
REMARK    6  A    between atoms: N5_19  and  C7_20 
REMARK    7  A    between atoms: C7_20  and  N6_21 
REMARK    8  A    between atoms: C7_20  and  S1_31 
REMARK    9  A    between atoms: N6_21  and  O3_22 
REMARK   10  A    between atoms: N6_21  and  C8_26 
REMARK   11  A    between atoms: O3_22  and  N7_23 
REMARK   12  A    between atoms: C8_26  and  O4_27 
REMARK   13  A    between atoms: C8_26  and  O5_29 
REMARK   14  A    between atoms: C9_35  and  N8_36 
REMARK   15  A    between atoms: C12_43  and  N10_44 
ROOT
HETATM    1  C3  UNL     1      -4.033 -38.196  21.033  1.00  0.00     0.042 A 
HETATM    2  C4  UNL     1      -4.968 -37.178  21.379  1.00  0.00     0.049 A 
HETATM    3  C5  UNL     1      -4.563 -35.882  21.391  1.00  0.00     0.081 A 
HETATM    4  N4  UNL     1      -3.314 -35.614  21.083  1.00  0.00    -0.290 N 
ATOM      5  H4  UNL     1      -3.034 -34.634  21.102  1.00  0.00     0.187 HD
HETATM    6  N5  UNL     1      -2.365 -36.511  20.742  1.00  0.00    -0.213 N 
HETATM    7  C9  UNL     1      -2.749 -37.819  20.718  1.00  0.00     0.136 A 
ENDROOT
BRANCH   1   8
HETATM    8  C2  UNL     1      -4.519 -39.541  20.978  1.00  0.00     0.088 A 
HETATM    9  N3  UNL     1      -5.013 -40.285  20.000  1.00  0.00    -0.234 N 
HETATM   10  N2  UNL     1      -5.396 -40.297  18.712  1.00  0.00    -0.275 N 
HETATM   11  C11 UNL     1      -5.184 -41.550  20.448  1.00  0.00     0.165 A 
HETATM   12  C1  UNL     1      -5.799 -41.519  18.346  1.00  0.00     0.151 A 
ATOM     13  H2  UNL     1      -5.381 -39.484  18.097  1.00  0.00     0.189 HD
HETATM   14  C12 UNL     1      -5.677 -42.349  19.428  1.00  0.00     0.193 A 
HETATM   15  N9  UNL     1      -4.792 -41.628  21.725  1.00  0.00    -0.346 N 
HETATM   16  C10 UNL     1      -4.378 -40.411  22.080  1.00  0.00     0.122 A 
ATOM     17  H9  UNL     1      -4.806 -42.460  22.315  1.00  0.00     0.167 HD
BRANCH  12  18
HETATM   18  N1  UNL     1      -6.228 -41.830  17.145  1.00  0.00    -0.382 N 
ATOM     19  H12 UNL     1      -5.962 -41.396  16.261  1.00  0.00     0.157 HD
ATOM     20  H11 UNL     1      -6.904 -42.568  16.947  1.00  0.00     0.157 HD
ENDBRANCH  12  18
BRANCH  14  21
HETATM   21  N10 UNL     1      -5.990 -43.722  19.526  1.00  0.00    -0.108 N 
HETATM   22  O9  UNL     1      -5.452 -44.419  20.421  1.00  0.00    -0.531 OA
HETATM   23  O10 UNL     1      -6.870 -44.350  18.696  1.00  0.00    -0.531 OA
ENDBRANCH  14  21
ENDBRANCH   1   8
BRANCH   7  24
HETATM   24  N8  UNL     1      -1.906 -38.614  20.279  1.00  0.00    -0.383 N 
ATOM     25  H82 UNL     1      -2.282 -39.454  19.840  1.00  0.00     0.157 HD
ATOM     26  H81 UNL     1      -0.904 -38.496  20.431  1.00  0.00     0.157 HD
ENDBRANCH   7  24
BRANCH   3  27
HETATM   27  C6  UNL     1      -5.557 -34.792  21.739  1.00  0.00     0.306 C 
BRANCH  27  28
HETATM   28  O1  UNL     1      -5.086 -33.542  21.380  1.00  0.00    -0.366 OA
ATOM     29  H1  UNL     1      -5.770 -32.884  21.433  1.00  0.00     0.213 HD
ENDBRANCH  27  28
BRANCH  27  30
HETATM   30  O2  UNL     1      -6.751 -35.015  21.053  1.00  0.00    -0.366 OA
ATOM     31  H2  UNL     1      -6.958 -34.256  20.522  1.00  0.00     0.213 HD
ENDBRANCH  27  30
ENDBRANCH   3  27
BRANCH   6  32
HETATM   32  C7  UNL     1      -1.035 -36.056  20.448  1.00  0.00     0.255 C 
BRANCH  32  33
HETATM   33  N6  UNL     1      -0.104 -35.915  21.498  1.00  0.00    -0.052 NA
BRANCH  33  34
HETATM   34  O3  UNL     1       0.517 -34.708  21.372  1.00  0.00    -0.178 OA
BRANCH  34  35
HETATM   35  N7  UNL     1       1.815 -34.718  21.650  1.00  0.00    -0.291 N 
ATOM     36  H72 UNL     1       2.304 -33.876  21.955  1.00  0.00     0.186 HD
ATOM     37  H71 UNL     1       2.271 -35.623  21.534  1.00  0.00     0.186 HD
ENDBRANCH  34  35
ENDBRANCH  33  34
BRANCH  33  38
HETATM   38  C8  UNL     1       0.955 -36.877  21.622  1.00  0.00     0.373 C 
BRANCH  38  39
HETATM   39  O4  UNL     1       0.912 -37.691  22.739  1.00  0.00    -0.357 OA
ATOM     40  H4  UNL     1       1.481 -38.452  22.725  1.00  0.00     0.214 HD
ENDBRANCH  38  39
BRANCH  38  41
HETATM   41  O5  UNL     1       0.993 -37.745  20.511  1.00  0.00    -0.357 OA
ATOM     42  H5  UNL     1       0.446 -37.425  19.803  1.00  0.00     0.214 HD
ENDBRANCH  38  41
ENDBRANCH  33  38
ENDBRANCH  32  33
BRANCH  32  43
HETATM   43  S1  UNL     1      -0.835 -34.870  19.162  1.00  0.00     0.171 S 
HETATM   44  O6  UNL     1      -1.241 -35.536  17.842  1.00  0.00    -0.589 OA
HETATM   45  O7  UNL     1      -1.846 -33.762  19.313  1.00  0.00    -0.589 OA
HETATM   46  O8  UNL     1       0.666 -34.259  18.906  1.00  0.00    -0.589 OA
ENDBRANCH  32  43
ENDBRANCH   6  32
TORSDOF 15
ENDMDL
