MODEL 1
REMARK VINA RESULT: -8.370536185      0.000      0.000
REMARK  13 active torsions:
REMARK  status: ('A' for Active; 'I' for Inactive)
REMARK    1  A    between atoms: N1_2  and  C3_4 
REMARK    2  A    between atoms: C4_7  and  N3_8 
REMARK    3  A    between atoms: N5_15  and  C7_16 
REMARK    4  A    between atoms: C7_16  and  N6_19 
REMARK    5  A    between atoms: N6_19  and  C10_21 
REMARK    6  A    between atoms: C10_21  and  C11_22 
REMARK    7  A    between atoms: C11_22  and  N7_23 
REMARK    8  A    between atoms: N7_23  and  C12_26 
REMARK    9  A    between atoms: C12_26  and  C13_27 
REMARK   10  A    between atoms: C16_32  and  N9_33 
REMARK   11  A    between atoms: N9_33  and  N10_35 
REMARK   12  A    between atoms: C17_40  and  N12_41 
REMARK   13  A    between atoms: N14_46  and  N15_47 
ROOT
HETATM    1  N7  UNL     1      -3.094 -35.348  21.909  1.00  0.00    -0.064 N 
ATOM      2  H71 UNL     1      -2.580 -35.048  22.737  1.00  0.00     0.278 HD
ATOM      3  H72 UNL     1      -2.346 -35.875  21.458  1.00  0.00     0.278 HD
ENDROOT
BRANCH   1   4
HETATM    4  C11 UNL     1      -3.550 -34.209  21.089  1.00  0.00     0.277 C 
BRANCH   4   5
HETATM    5  C10 UNL     1      -2.603 -33.944  19.942  1.00  0.00     0.085 C 
BRANCH   5   6
HETATM    6  N6  UNL     1      -1.241 -33.994  20.182  1.00  0.00    -0.375 N 
ATOM      7  H6  UNL     1      -0.846 -33.306  20.823  1.00  0.00     0.161 HD
BRANCH   6   8
HETATM    8  C7  UNL     1      -0.355 -34.938  19.595  1.00  0.00     0.104 C 
HETATM    9  C8  UNL     1       0.514 -34.352  18.466  1.00  0.00     0.063 C 
HETATM   10  C9  UNL     1      -1.248 -35.895  18.859  1.00  0.00     0.063 C 
BRANCH   8  11
HETATM   11  N5  UNL     1       0.521 -35.463  20.576  1.00  0.00    -0.300 N 
HETATM   12  C6  UNL     1       0.693 -36.789  20.756  1.00  0.00     0.187 A 
HETATM   13  N4  UNL     1       1.551 -36.978  21.771  1.00  0.00    -0.346 N 
HETATM   14  C5  UNL     1       1.947 -35.814  22.262  1.00  0.00     0.123 A 
ATOM     15  H4  UNL     1       1.854 -37.889  22.115  1.00  0.00     0.167 HD
HETATM   16  C4  UNL     1       2.776 -35.401  23.257  1.00  0.00     0.145 A 
HETATM   17  C19 UNL     1       1.287 -34.836  21.493  1.00  0.00     0.157 A 
HETATM   18  N2  UNL     1       2.957 -34.095  23.496  1.00  0.00    -0.175 N 
HETATM   19  C3  UNL     1       2.335 -33.158  22.770  1.00  0.00     0.682 A 
ATOM     20  H2  UNL     1       3.584 -33.808  24.248  1.00  0.00     0.186 HD
HETATM   21  N16 UNL     1       1.502 -33.546  21.771  1.00  0.00    -0.174 N 
ATOM     22  H16 UNL     1       1.027 -32.833  21.217  1.00  0.00     0.186 HD
BRANCH  16  23
HETATM   23  N3  UNL     1       3.368 -36.323  23.957  1.00  0.00    -0.383 N 
ATOM     24  H32 UNL     1       3.902 -37.025  23.444  1.00  0.00     0.157 HD
ATOM     25  H31 UNL     1       3.306 -36.359  24.974  1.00  0.00     0.157 HD
ENDBRANCH  16  23
BRANCH  19  26
HETATM   26  N1  UNL     1       2.570 -31.796  23.084  1.00  0.00    -0.226 N 
HETATM   27  C1  UNL     1       2.960 -30.873  22.041  1.00  0.00     0.168 C 
HETATM   28  C2  UNL     1       2.417 -31.272  24.428  1.00  0.00     0.168 C 
ENDBRANCH  19  26
ENDBRANCH   8  11
ENDBRANCH   6   8
ENDBRANCH   5   6
ENDBRANCH   4   5
ENDBRANCH   1   4
BRANCH   1  29
HETATM   29  C12 UNL     1      -4.205 -36.163  22.233  1.00  0.00     0.310 C 
BRANCH  29  30
HETATM   30  C13 UNL     1      -4.092 -37.563  21.743  1.00  0.00     0.131 A 
HETATM   31  N8  UNL     1      -3.474 -38.631  22.263  1.00  0.00    -0.327 N 
HETATM   32  C14 UNL     1      -3.633 -39.679  21.433  1.00  0.00     0.157 A 
ATOM     33  H8  UNL     1      -2.965 -38.648  23.147  1.00  0.00     0.169 HD
HETATM   34  C15 UNL     1      -4.368 -39.256  20.371  1.00  0.00     0.148 A 
HETATM   35  N13 UNL     1      -3.220 -40.982  21.454  1.00  0.00    -0.170 N 
HETATM   36  C16 UNL     1      -4.668 -40.156  19.354  1.00  0.00     0.168 A 
HETATM   37  N14 UNL     1      -4.643 -37.970  20.568  1.00  0.00    -0.241 N 
HETATM   38  N11 UNL     1      -4.253 -41.425  19.394  1.00  0.00    -0.173 N 
HETATM   39  C17 UNL     1      -3.516 -41.835  20.469  1.00  0.00     0.681 A 
ATOM     40  H11 UNL     1      -4.481 -42.073  18.640  1.00  0.00     0.186 HD
HETATM   41  C18 UNL     1      -2.445 -41.422  22.586  1.00  0.00     0.177 C 
BRANCH  36  42
HETATM   42  N9  UNL     1      -5.372 -39.761  18.334  1.00  0.00    -0.290 N 
ATOM     43  H9  UNL     1      -5.844 -38.859  18.383  1.00  0.00     0.188 HD
BRANCH  42  44
HETATM   44  N10 UNL     1      -5.504 -40.521  17.182  1.00  0.00    -0.344 N 
ATOM     45 2H10 UNL     1      -4.756 -40.470  16.491  1.00  0.00     0.176 HD
ATOM     46 1H10 UNL     1      -6.313 -41.118  17.010  1.00  0.00     0.176 HD
ENDBRANCH  42  44
ENDBRANCH  36  42
BRANCH  39  47
HETATM   47  N12 UNL     1      -3.141 -43.059  20.444  1.00  0.00    -0.234 N 
ATOM     48 2H12 UNL     1      -3.162 -43.680  21.253  1.00  0.00     0.174 HD
ATOM     49 1H12 UNL     1      -2.801 -43.394  19.541  1.00  0.00     0.174 HD
ENDBRANCH  39  47
BRANCH  37  50
HETATM   50  N15 UNL     1      -5.388 -37.167  19.702  1.00  0.00    -0.337 N 
ATOM     51 2H15 UNL     1      -5.077 -36.276  19.316  1.00  0.00     0.177 HD
ATOM     52 1H15 UNL     1      -6.323 -37.382  19.354  1.00  0.00     0.177 HD
ENDBRANCH  37  50
ENDBRANCH  29  30
ENDBRANCH   1  29
TORSDOF 13
ENDMDL
MODEL 2
REMARK VINA RESULT: -7.752607377      2.413      3.252
REMARK  13 active torsions:
REMARK  status: ('A' for Active; 'I' for Inactive)
REMARK    1  A    between atoms: N1_2  and  C3_4 
REMARK    2  A    between atoms: C4_7  and  N3_8 
REMARK    3  A    between atoms: N5_15  and  C7_16 
REMARK    4  A    between atoms: C7_16  and  N6_19 
REMARK    5  A    between atoms: N6_19  and  C10_21 
REMARK    6  A    between atoms: C10_21  and  C11_22 
REMARK    7  A    between atoms: C11_22  and  N7_23 
REMARK    8  A    between atoms: N7_23  and  C12_26 
REMARK    9  A    between atoms: C12_26  and  C13_27 
REMARK   10  A    between atoms: C16_32  and  N9_33 
REMARK   11  A    between atoms: N9_33  and  N10_35 
REMARK   12  A    between atoms: C17_40  and  N12_41 
REMARK   13  A    between atoms: N14_46  and  N15_47 
ROOT
HETATM    1  N7  UNL     1      -2.907 -35.431  22.002  1.00  0.00    -0.064 N 
ATOM      2  H71 UNL     1      -3.071 -35.298  23.000  1.00  0.00     0.278 HD
ATOM      3  H72 UNL     1      -1.889 -35.365  22.013  1.00  0.00     0.278 HD
ENDROOT
BRANCH   1   4
HETATM    4  C11 UNL     1      -3.528 -34.370  21.185  1.00  0.00     0.277 C 
BRANCH   4   5
HETATM    5  C10 UNL     1      -2.653 -33.999  20.011  1.00  0.00     0.085 C 
BRANCH   5   6
HETATM    6  N6  UNL     1      -1.282 -33.952  20.195  1.00  0.00    -0.375 N 
ATOM      7  H6  UNL     1      -0.911 -33.239  20.824  1.00  0.00     0.161 HD
BRANCH   6   8
HETATM    8  C7  UNL     1      -0.356 -34.828  19.567  1.00  0.00     0.104 C 
HETATM    9  C8  UNL     1       0.479 -34.156  18.460  1.00  0.00     0.063 C 
HETATM   10  C9  UNL     1      -1.207 -35.795  18.795  1.00  0.00     0.063 C 
BRANCH   8  11
HETATM   11  N5  UNL     1       0.549 -35.350  20.522  1.00  0.00    -0.300 N 
HETATM   12  C6  UNL     1       0.751 -36.676  20.678  1.00  0.00     0.187 A 
HETATM   13  N4  UNL     1       1.631 -36.863  21.673  1.00  0.00    -0.346 N 
HETATM   14  C5  UNL     1       2.014 -35.700  22.175  1.00  0.00     0.123 A 
ATOM     15  H4  UNL     1       1.959 -37.774  21.997  1.00  0.00     0.167 HD
HETATM   16  C4  UNL     1       2.854 -35.286  23.161  1.00  0.00     0.145 A 
HETATM   17  C19 UNL     1       1.320 -34.724  21.434  1.00  0.00     0.157 A 
HETATM   18  N2  UNL     1       3.014 -33.981  23.418  1.00  0.00    -0.175 N 
HETATM   19  C3  UNL     1       2.359 -33.045  22.719  1.00  0.00     0.682 A 
ATOM     20  H2  UNL     1       3.649 -33.694  24.162  1.00  0.00     0.186 HD
HETATM   21  N16 UNL     1       1.515 -33.434  21.730  1.00  0.00    -0.174 N 
ATOM     22  H16 UNL     1       1.015 -32.722  21.197  1.00  0.00     0.186 HD
BRANCH  16  23
HETATM   23  N3  UNL     1       3.477 -36.208  23.834  1.00  0.00    -0.383 N 
ATOM     24  H32 UNL     1       4.366 -35.950  24.262  1.00  0.00     0.157 HD
ATOM     25  H31 UNL     1       3.107 -37.153  23.934  1.00  0.00     0.157 HD
ENDBRANCH  16  23
BRANCH  19  26
HETATM   26  N1  UNL     1       2.574 -31.684  23.051  1.00  0.00    -0.226 N 
HETATM   27  C1  UNL     1       2.440 -31.247  24.423  1.00  0.00     0.168 C 
HETATM   28  C2  UNL     1       2.946 -30.693  22.060  1.00  0.00     0.168 C 
ENDBRANCH  19  26
ENDBRANCH   8  11
ENDBRANCH   6   8
ENDBRANCH   5   6
ENDBRANCH   4   5
ENDBRANCH   1   4
BRANCH   1  29
HETATM   29  C12 UNL     1      -3.359 -36.693  21.548  1.00  0.00     0.310 C 
BRANCH  29  30
HETATM   30  C13 UNL     1      -4.724 -37.052  22.018  1.00  0.00     0.131 A 
HETATM   31  N8  UNL     1      -5.221 -37.191  23.255  1.00  0.00    -0.327 N 
HETATM   32  C14 UNL     1      -6.515 -37.553  23.170  1.00  0.00     0.157 A 
ATOM     33  H8  UNL     1      -4.703 -37.045  24.121  1.00  0.00     0.169 HD
HETATM   34  C15 UNL     1      -6.833 -37.642  21.852  1.00  0.00     0.148 A 
HETATM   35  N13 UNL     1      -7.487 -37.834  24.089  1.00  0.00    -0.170 N 
HETATM   36  C16 UNL     1      -8.124 -38.013  21.491  1.00  0.00     0.168 A 
HETATM   37  N14 UNL     1      -5.739 -37.335  21.160  1.00  0.00    -0.241 N 
HETATM   38  N11 UNL     1      -9.059 -38.284  22.405  1.00  0.00    -0.173 N 
HETATM   39  C17 UNL     1      -8.723 -38.190  23.726  1.00  0.00     0.681 A 
ATOM     40  H11 UNL     1     -10.001 -38.555  22.125  1.00  0.00     0.186 HD
HETATM   41  C18 UNL     1      -7.141 -37.734  25.484  1.00  0.00     0.177 C 
BRANCH  36  42
HETATM   42  N9  UNL     1      -8.439 -38.099  20.232  1.00  0.00    -0.290 N 
ATOM     43  H9  UNL     1      -7.691 -38.198  19.545  1.00  0.00     0.188 HD
BRANCH  42  44
HETATM   44  N10 UNL     1      -9.752 -38.063  19.788  1.00  0.00    -0.344 N 
ATOM     45 2H10 UNL     1     -10.302 -38.919  19.860  1.00  0.00     0.176 HD
ATOM     46 1H10 UNL     1     -10.175 -37.220  19.400  1.00  0.00     0.176 HD
ENDBRANCH  42  44
ENDBRANCH  36  42
BRANCH  39  47
HETATM   47  N12 UNL     1      -9.660 -38.471  24.553  1.00  0.00    -0.234 N 
ATOM     48 2H12 UNL     1      -9.994 -39.417  24.738  1.00  0.00     0.174 HD
ATOM     49 1H12 UNL     1     -10.076 -37.672  25.031  1.00  0.00     0.174 HD
ENDBRANCH  39  47
BRANCH  37  50
HETATM   50  N15 UNL     1      -5.654 -37.303  19.767  1.00  0.00    -0.337 N 
ATOM     51 2H15 UNL     1      -4.809 -37.489  19.227  1.00  0.00     0.177 HD
ATOM     52 1H15 UNL     1      -6.425 -37.097  19.132  1.00  0.00     0.177 HD
ENDBRANCH  37  50
ENDBRANCH  29  30
ENDBRANCH   1  29
TORSDOF 13
ENDMDL
MODEL 3
REMARK VINA RESULT: -7.689191888      1.313      2.708
REMARK  13 active torsions:
REMARK  status: ('A' for Active; 'I' for Inactive)
REMARK    1  A    between atoms: N1_2  and  C3_4 
REMARK    2  A    between atoms: C4_7  and  N3_8 
REMARK    3  A    between atoms: N5_15  and  C7_16 
REMARK    4  A    between atoms: C7_16  and  N6_19 
REMARK    5  A    between atoms: N6_19  and  C10_21 
REMARK    6  A    between atoms: C10_21  and  C11_22 
REMARK    7  A    between atoms: C11_22  and  N7_23 
REMARK    8  A    between atoms: N7_23  and  C12_26 
REMARK    9  A    between atoms: C12_26  and  C13_27 
REMARK   10  A    between atoms: C16_32  and  N9_33 
REMARK   11  A    between atoms: N9_33  and  N10_35 
REMARK   12  A    between atoms: C17_40  and  N12_41 
REMARK   13  A    between atoms: N14_46  and  N15_47 
ROOT
HETATM    1  N7  UNL     1      -3.138 -35.308  21.884  1.00  0.00    -0.064 N 
ATOM      2  H71 UNL     1      -2.710 -34.927  22.727  1.00  0.00     0.278 HD
ATOM      3  H72 UNL     1      -2.345 -35.858  21.556  1.00  0.00     0.278 HD
ENDROOT
BRANCH   1   4
HETATM    4  C11 UNL     1      -3.525 -34.254  20.925  1.00  0.00     0.277 C 
BRANCH   4   5
HETATM    5  C10 UNL     1      -2.410 -33.967  19.947  1.00  0.00     0.085 C 
BRANCH   5   6
HETATM    6  N6  UNL     1      -1.108 -33.935  20.416  1.00  0.00    -0.375 N 
ATOM      7  H6  UNL     1      -0.907 -33.338  21.219  1.00  0.00     0.161 HD
BRANCH   6   8
HETATM    8  C7  UNL     1      -0.033 -34.676  19.856  1.00  0.00     0.104 C 
HETATM    9  C8  UNL     1       0.525 -34.069  18.553  1.00  0.00     0.063 C 
HETATM   10  C9  UNL     1      -0.657 -35.956  19.381  1.00  0.00     0.063 C 
BRANCH   8  11
HETATM   11  N5  UNL     1       1.038 -34.758  20.778  1.00  0.00    -0.300 N 
HETATM   12  C6  UNL     1       2.128 -33.964  20.693  1.00  0.00     0.187 A 
HETATM   13  N4  UNL     1       2.978 -34.294  21.677  1.00  0.00    -0.346 N 
HETATM   14  C5  UNL     1       2.479 -35.280  22.406  1.00  0.00     0.123 A 
ATOM     15  H4  UNL     1       3.881 -33.848  21.840  1.00  0.00     0.167 HD
HETATM   16  C4  UNL     1       2.880 -35.998  23.489  1.00  0.00     0.145 A 
HETATM   17  C19 UNL     1       1.229 -35.579  21.831  1.00  0.00     0.157 A 
HETATM   18  N2  UNL     1       2.101 -36.965  23.992  1.00  0.00    -0.175 N 
HETATM   19  C3  UNL     1       0.910 -37.257  23.453  1.00  0.00     0.682 A 
ATOM     20  H2  UNL     1       2.422 -37.491  24.805  1.00  0.00     0.186 HD
HETATM   21  N16 UNL     1       0.489 -36.553  22.371  1.00  0.00    -0.174 N 
ATOM     22  H16 UNL     1      -0.417 -36.774  21.959  1.00  0.00     0.186 HD
BRANCH  16  23
HETATM   23  N3  UNL     1       4.041 -35.707  23.997  1.00  0.00    -0.383 N 
ATOM     24  H32 UNL     1       4.268 -36.118  24.903  1.00  0.00     0.157 HD
ATOM     25  H31 UNL     1       4.703 -35.092  23.524  1.00  0.00     0.157 HD
ENDBRANCH  16  23
BRANCH  19  26
HETATM   26  N1  UNL     1       0.144 -38.297  24.035  1.00  0.00    -0.226 N 
HETATM   27  C1  UNL     1       0.605 -39.665  23.953  1.00  0.00     0.168 C 
HETATM   28  C2  UNL     1      -1.098 -38.044  24.740  1.00  0.00     0.168 C 
ENDBRANCH  19  26
ENDBRANCH   8  11
ENDBRANCH   6   8
ENDBRANCH   5   6
ENDBRANCH   4   5
ENDBRANCH   1   4
BRANCH   1  29
HETATM   29  C12 UNL     1      -4.268 -36.112  22.171  1.00  0.00     0.310 C 
BRANCH  29  30
HETATM   30  C13 UNL     1      -4.143 -37.519  21.704  1.00  0.00     0.131 A 
HETATM   31  N8  UNL     1      -3.512 -38.572  22.240  1.00  0.00    -0.327 N 
HETATM   32  C14 UNL     1      -3.665 -39.636  21.428  1.00  0.00     0.157 A 
ATOM     33  H8  UNL     1      -2.999 -38.569  23.121  1.00  0.00     0.169 HD
HETATM   34  C15 UNL     1      -4.409 -39.238  20.363  1.00  0.00     0.148 A 
HETATM   35  N13 UNL     1      -3.239 -40.934  21.469  1.00  0.00    -0.170 N 
HETATM   36  C16 UNL     1      -4.705 -40.158  19.362  1.00  0.00     0.168 A 
HETATM   37  N14 UNL     1      -4.695 -37.951  20.539  1.00  0.00    -0.241 N 
HETATM   38  N11 UNL     1      -4.277 -41.422  19.422  1.00  0.00    -0.173 N 
HETATM   39  C17 UNL     1      -3.531 -41.806  20.500  1.00  0.00     0.681 A 
ATOM     40  H11 UNL     1      -4.502 -42.084  18.680  1.00  0.00     0.186 HD
HETATM   41  C18 UNL     1      -2.455 -41.347  22.605  1.00  0.00     0.177 C 
BRANCH  36  42
HETATM   42  N9  UNL     1      -5.417 -39.787  18.339  1.00  0.00    -0.290 N 
ATOM     43  H9  UNL     1      -5.938 -38.912  18.395  1.00  0.00     0.188 HD
BRANCH  42  44
HETATM   44  N10 UNL     1      -5.493 -40.536  17.174  1.00  0.00    -0.344 N 
ATOM     45 2H10 UNL     1      -5.413 -41.550  17.256  1.00  0.00     0.176 HD
ATOM     46 1H10 UNL     1      -5.626 -40.109  16.257  1.00  0.00     0.176 HD
ENDBRANCH  42  44
ENDBRANCH  36  42
BRANCH  39  47
HETATM   47  N12 UNL     1      -3.144 -43.027  20.493  1.00  0.00    -0.234 N 
ATOM     48 2H12 UNL     1      -3.490 -43.739  21.136  1.00  0.00     0.174 HD
ATOM     49 1H12 UNL     1      -2.441 -43.259  19.791  1.00  0.00     0.174 HD
ENDBRANCH  39  47
BRANCH  37  50
HETATM   50  N15 UNL     1      -5.452 -37.170  19.663  1.00  0.00    -0.337 N 
ATOM     51 2H15 UNL     1      -6.112 -37.533  18.976  1.00  0.00     0.177 HD
ATOM     52 1H15 UNL     1      -5.435 -36.151  19.615  1.00  0.00     0.177 HD
ENDBRANCH  37  50
ENDBRANCH  29  30
ENDBRANCH   1  29
TORSDOF 13
ENDMDL
MODEL 4
REMARK VINA RESULT: -7.669611044      1.686      2.895
REMARK  13 active torsions:
REMARK  status: ('A' for Active; 'I' for Inactive)
REMARK    1  A    between atoms: N1_2  and  C3_4 
REMARK    2  A    between atoms: C4_7  and  N3_8 
REMARK    3  A    between atoms: N5_15  and  C7_16 
REMARK    4  A    between atoms: C7_16  and  N6_19 
REMARK    5  A    between atoms: N6_19  and  C10_21 
REMARK    6  A    between atoms: C10_21  and  C11_22 
REMARK    7  A    between atoms: C11_22  and  N7_23 
REMARK    8  A    between atoms: N7_23  and  C12_26 
REMARK    9  A    between atoms: C12_26  and  C13_27 
REMARK   10  A    between atoms: C16_32  and  N9_33 
REMARK   11  A    between atoms: N9_33  and  N10_35 
REMARK   12  A    between atoms: C17_40  and  N12_41 
REMARK   13  A    between atoms: N14_46  and  N15_47 
ROOT
HETATM    1  N7  UNL     1      -5.521 -36.516  22.476  1.00  0.00    -0.064 N 
ATOM      2  H71 UNL     1      -5.865 -36.039  23.309  1.00  0.00     0.278 HD
ATOM      3  H72 UNL     1      -4.687 -36.937  22.886  1.00  0.00     0.278 HD
ENDROOT
BRANCH   1   4
HETATM    4  C11 UNL     1      -5.197 -35.576  21.385  1.00  0.00     0.277 C 
BRANCH   4   5
HETATM    5  C10 UNL     1      -3.763 -35.108  21.473  1.00  0.00     0.085 C 
BRANCH   5   6
HETATM    6  N6  UNL     1      -2.904 -35.759  22.341  1.00  0.00    -0.375 N 
ATOM      7  H6  UNL     1      -3.056 -35.634  23.342  1.00  0.00     0.161 HD
BRANCH   6   8
HETATM    8  C7  UNL     1      -1.826 -36.590  21.933  1.00  0.00     0.104 C 
HETATM    9  C8  UNL     1      -2.227 -38.063  21.718  1.00  0.00     0.063 C 
HETATM   10  C9  UNL     1      -0.926 -36.667  23.132  1.00  0.00     0.063 C 
BRANCH   8  11
HETATM   11  N5  UNL     1      -1.278 -36.118  20.716  1.00  0.00    -0.300 N 
HETATM   12  C6  UNL     1      -1.726 -36.534  19.512  1.00  0.00     0.187 A 
HETATM   13  N4  UNL     1      -0.997 -35.941  18.554  1.00  0.00    -0.346 N 
HETATM   14  C5  UNL     1      -0.085 -35.148  19.093  1.00  0.00     0.123 A 
ATOM     15  H4  UNL     1      -1.128 -36.082  17.552  1.00  0.00     0.167 HD
HETATM   16  C4  UNL     1       0.897 -34.329  18.632  1.00  0.00     0.145 A 
HETATM   17  C19 UNL     1      -0.265 -35.258  20.485  1.00  0.00     0.157 A 
HETATM   18  N2  UNL     1       1.672 -33.645  19.485  1.00  0.00    -0.175 N 
HETATM   19  C3  UNL     1       1.508 -33.742  20.810  1.00  0.00     0.682 A 
ATOM     20  H2  UNL     1       2.402 -33.036  19.117  1.00  0.00     0.186 HD
HETATM   21  N16 UNL     1       0.534 -34.555  21.295  1.00  0.00    -0.174 N 
ATOM     22  H16 UNL     1       0.408 -34.630  22.304  1.00  0.00     0.186 HD
BRANCH  16  23
HETATM   23  N3  UNL     1       1.047 -34.250  17.343  1.00  0.00    -0.383 N 
ATOM     24  H32 UNL     1       1.994 -34.350  16.977  1.00  0.00     0.157 HD
ATOM     25  H31 UNL     1       0.261 -34.090  16.712  1.00  0.00     0.157 HD
ENDBRANCH  16  23
BRANCH  19  26
HETATM   26  N1  UNL     1       2.369 -32.994  21.652  1.00  0.00    -0.226 N 
HETATM   27  C1  UNL     1       3.049 -33.646  22.750  1.00  0.00     0.168 C 
HETATM   28  C2  UNL     1       2.618 -31.580  21.447  1.00  0.00     0.168 C 
ENDBRANCH  19  26
ENDBRANCH   8  11
ENDBRANCH   6   8
ENDBRANCH   5   6
ENDBRANCH   4   5
ENDBRANCH   1   4
BRANCH   1  29
HETATM   29  C12 UNL     1      -6.434 -37.487  21.998  1.00  0.00     0.310 C 
BRANCH  29  30
HETATM   30  C13 UNL     1      -5.790 -38.741  21.525  1.00  0.00     0.131 A 
HETATM   31  N8  UNL     1      -5.205 -39.740  22.201  1.00  0.00    -0.327 N 
HETATM   32  C14 UNL     1      -4.744 -40.652  21.324  1.00  0.00     0.157 A 
ATOM     33  H8  UNL     1      -5.123 -39.800  23.215  1.00  0.00     0.169 HD
HETATM   34  C15 UNL     1      -5.048 -40.214  20.074  1.00  0.00     0.148 A 
HETATM   35  N13 UNL     1      -4.073 -41.837  21.448  1.00  0.00    -0.170 N 
HETATM   36  C16 UNL     1      -4.668 -40.980  18.977  1.00  0.00     0.168 A 
HETATM   37  N14 UNL     1      -5.683 -39.053  20.206  1.00  0.00    -0.241 N 
HETATM   38  N11 UNL     1      -4.012 -42.135  19.120  1.00  0.00    -0.173 N 
HETATM   39  C17 UNL     1      -3.714 -42.562  20.384  1.00  0.00     0.681 A 
ATOM     40  H11 UNL     1      -3.740 -42.685  18.306  1.00  0.00     0.186 HD
HETATM   41  C18 UNL     1      -3.759 -42.295  22.776  1.00  0.00     0.177 C 
BRANCH  36  42
HETATM   42  N9  UNL     1      -4.955 -40.570  17.777  1.00  0.00    -0.290 N 
ATOM     43  H9  UNL     1      -4.620 -39.654  17.478  1.00  0.00     0.188 HD
BRANCH  42  44
HETATM   44  N10 UNL     1      -5.700 -41.330  16.888  1.00  0.00    -0.344 N 
ATOM     45 2H10 UNL     1      -5.193 -41.889  16.201  1.00  0.00     0.176 HD
ATOM     46 1H10 UNL     1      -6.720 -41.346  16.902  1.00  0.00     0.176 HD
ENDBRANCH  42  44
ENDBRANCH  36  42
BRANCH  39  47
HETATM   47  N12 UNL     1      -3.077 -43.670  20.453  1.00  0.00    -0.234 N 
ATOM     48 2H12 UNL     1      -2.311 -43.929  19.832  1.00  0.00     0.174 HD
ATOM     49 1H12 UNL     1      -3.391 -44.310  21.184  1.00  0.00     0.174 HD
ENDBRANCH  39  47
BRANCH  37  50
HETATM   50  N15 UNL     1      -6.171 -38.280  19.150  1.00  0.00    -0.337 N 
ATOM     51 2H15 UNL     1      -6.900 -37.572  19.230  1.00  0.00     0.177 HD
ATOM     52 1H15 UNL     1      -5.851 -38.333  18.183  1.00  0.00     0.177 HD
ENDBRANCH  37  50
ENDBRANCH  29  30
ENDBRANCH   1  29
TORSDOF 13
ENDMDL
MODEL 5
REMARK VINA RESULT: -7.667621433      1.808      8.081
REMARK  13 active torsions:
REMARK  status: ('A' for Active; 'I' for Inactive)
REMARK    1  A    between atoms: N1_2  and  C3_4 
REMARK    2  A    between atoms: C4_7  and  N3_8 
REMARK    3  A    between atoms: N5_15  and  C7_16 
REMARK    4  A    between atoms: C7_16  and  N6_19 
REMARK    5  A    between atoms: N6_19  and  C10_21 
REMARK    6  A    between atoms: C10_21  and  C11_22 
REMARK    7  A    between atoms: C11_22  and  N7_23 
REMARK    8  A    between atoms: N7_23  and  C12_26 
REMARK    9  A    between atoms: C12_26  and  C13_27 
REMARK   10  A    between atoms: C16_32  and  N9_33 
REMARK   11  A    between atoms: N9_33  and  N10_35 
REMARK   12  A    between atoms: C17_40  and  N12_41 
REMARK   13  A    between atoms: N14_46  and  N15_47 
ROOT
HETATM    1  N7  UNL     1      -2.653 -36.322  19.568  1.00  0.00    -0.064 N 
ATOM      2  H71 UNL     1      -3.317 -36.333  18.794  1.00  0.00     0.278 HD
ATOM      3  H72 UNL     1      -3.033 -37.107  20.096  1.00  0.00     0.278 HD
ENDROOT
BRANCH   1   4
HETATM    4  C11 UNL     1      -2.701 -35.058  20.329  1.00  0.00     0.277 C 
BRANCH   4   5
HETATM    5  C10 UNL     1      -3.765 -35.103  21.401  1.00  0.00     0.085 C 
BRANCH   5   6
HETATM    6  N6  UNL     1      -4.005 -36.304  22.046  1.00  0.00    -0.375 N 
ATOM      7  H6  UNL     1      -3.224 -36.748  22.529  1.00  0.00     0.161 HD
BRANCH   6   8
HETATM    8  C7  UNL     1      -5.266 -36.960  22.081  1.00  0.00     0.104 C 
HETATM    9  C8  UNL     1      -6.466 -35.995  22.020  1.00  0.00     0.063 C 
HETATM   10  C9  UNL     1      -5.366 -37.522  23.469  1.00  0.00     0.063 C 
BRANCH   8  11
HETATM   11  N5  UNL     1      -5.383 -37.853  20.989  1.00  0.00    -0.300 N 
HETATM   12  C6  UNL     1      -6.104 -37.555  19.887  1.00  0.00     0.187 A 
HETATM   13  N4  UNL     1      -6.055 -38.600  19.046  1.00  0.00    -0.346 N 
HETATM   14  C5  UNL     1      -5.323 -39.575  19.564  1.00  0.00     0.123 A 
ATOM     15  H4  UNL     1      -6.517 -38.639  18.137  1.00  0.00     0.167 HD
HETATM   16  C4  UNL     1      -4.940 -40.822  19.182  1.00  0.00     0.145 A 
HETATM   17  C19 UNL     1      -4.887 -39.095  20.814  1.00  0.00     0.157 A 
HETATM   18  N2  UNL     1      -4.167 -41.572  19.978  1.00  0.00    -0.175 N 
HETATM   19  C3  UNL     1      -3.747 -41.125  21.169  1.00  0.00     0.682 A 
ATOM     20  H2  UNL     1      -3.892 -42.505  19.671  1.00  0.00     0.186 HD
HETATM   21  N16 UNL     1      -4.117 -39.883  21.572  1.00  0.00    -0.174 N 
ATOM     22  H16 UNL     1      -3.798 -39.541  22.478  1.00  0.00     0.186 HD
BRANCH  16  23
HETATM   23  N3  UNL     1      -5.362 -41.244  18.026  1.00  0.00    -0.383 N 
ATOM     24  H32 UNL     1      -5.234 -40.620  17.228  1.00  0.00     0.157 HD
ATOM     25  H31 UNL     1      -5.807 -42.154  17.908  1.00  0.00     0.157 HD
ENDBRANCH  16  23
BRANCH  19  26
HETATM   26  N1  UNL     1      -2.937 -41.977  21.960  1.00  0.00    -0.226 N 
HETATM   27  C1  UNL     1      -3.068 -43.412  21.839  1.00  0.00     0.168 C 
HETATM   28  C2  UNL     1      -1.950 -41.464  22.890  1.00  0.00     0.168 C 
ENDBRANCH  19  26
ENDBRANCH   8  11
ENDBRANCH   6   8
ENDBRANCH   5   6
ENDBRANCH   4   5
ENDBRANCH   1   4
BRANCH   1  29
HETATM   29  C12 UNL     1      -1.324 -36.556  19.139  1.00  0.00     0.310 C 
BRANCH  29  30
HETATM   30  C13 UNL     1      -0.343 -36.681  20.251  1.00  0.00     0.131 A 
HETATM   31  N8  UNL     1      -0.249 -37.573  21.246  1.00  0.00    -0.327 N 
HETATM   32  C14 UNL     1       0.802 -37.253  22.025  1.00  0.00     0.157 A 
ATOM     33  H8  UNL     1      -0.872 -38.367  21.390  1.00  0.00     0.169 HD
HETATM   34  C15 UNL     1       1.376 -36.137  21.505  1.00  0.00     0.148 A 
HETATM   35  N13 UNL     1       1.349 -37.794  23.155  1.00  0.00    -0.170 N 
HETATM   36  C16 UNL     1       2.489 -35.590  22.137  1.00  0.00     0.168 A 
HETATM   37  N14 UNL     1       0.674 -35.797  20.427  1.00  0.00    -0.241 N 
HETATM   38  N11 UNL     1       3.006 -36.134  23.241  1.00  0.00    -0.173 N 
HETATM   39  C17 UNL     1       2.417 -37.257  23.751  1.00  0.00     0.681 A 
ATOM     40  H11 UNL     1       3.822 -35.722  23.693  1.00  0.00     0.186 HD
HETATM   41  C18 UNL     1       0.735 -38.979  23.696  1.00  0.00     0.177 C 
BRANCH  36  42
HETATM   42  N9  UNL     1       3.046 -34.523  21.646  1.00  0.00    -0.290 N 
ATOM     43  H9  UNL     1       3.306 -34.514  20.659  1.00  0.00     0.188 HD
BRANCH  42  44
HETATM   44  N10 UNL     1       3.301 -33.396  22.413  1.00  0.00    -0.344 N 
ATOM     45 2H10 UNL     1       4.233 -32.985  22.357  1.00  0.00     0.176 HD
ATOM     46 1H10 UNL     1       2.596 -32.975  23.018  1.00  0.00     0.176 HD
ENDBRANCH  42  44
ENDBRANCH  36  42
BRANCH  39  47
HETATM   47  N12 UNL     1       2.955 -37.724  24.815  1.00  0.00    -0.234 N 
ATOM     48 2H12 UNL     1       3.580 -37.192  25.421  1.00  0.00     0.174 HD
ATOM     49 1H12 UNL     1       2.724 -38.694  25.032  1.00  0.00     0.174 HD
ENDBRANCH  39  47
BRANCH  37  50
HETATM   50  N15 UNL     1       0.949 -34.703  19.603  1.00  0.00    -0.337 N 
ATOM     51 2H15 UNL     1       1.185 -33.767  19.931  1.00  0.00     0.177 HD
ATOM     52 1H15 UNL     1       0.950 -34.717  18.583  1.00  0.00     0.177 HD
ENDBRANCH  37  50
ENDBRANCH  29  30
ENDBRANCH   1  29
TORSDOF 13
ENDMDL
