MODEL 1
REMARK VINA RESULT: -8.395501366      0.000      0.000
REMARK  15 active torsions:
REMARK  status: ('A' for Active; 'I' for Inactive)
REMARK    1  A    between atoms: N1_2  and  C3_4 
REMARK    2  A    between atoms: C6_13  and  N5_14 
REMARK    3  A    between atoms: C8_20  and  C9_21 
REMARK    4  A    between atoms: C11_26  and  C12_27 
REMARK    5  A    between atoms: C12_27  and  C13_29 
REMARK    6  A    between atoms: C13_29  and  N9_30 
REMARK    7  A    between atoms: C13_29  and  C14_34 
REMARK    8  A    between atoms: C14_34  and  C15_35 
REMARK    9  A    between atoms: C14_34  and  C16_40 
REMARK   10  A    between atoms: C15_35  and  O2_36 
REMARK   11  A    between atoms: C15_35  and  O3_38 
REMARK   12  A    between atoms: C16_40  and  O4_41 
REMARK   13  A    between atoms: C16_40  and  O5_43 
REMARK   14  A    between atoms: C16_40  and  C17_45 
REMARK   15  A    between atoms: C17_45  and  O6_46 
ROOT
HETATM    1  C9  UNL     1      -7.677 -36.345  22.618  1.00  0.00     0.107 A 
HETATM    2  N7  UNL     1      -7.581 -35.407  21.709  1.00  0.00    -0.336 N 
ATOM      3  H7  UNL     1      -8.433 -34.998  21.326  1.00  0.00     0.168 HD
HETATM    4  C10 UNL     1      -6.437 -34.987  21.286  1.00  0.00     0.138 A 
HETATM    5  N8  UNL     1      -6.344 -33.938  20.270  1.00  0.00    -0.081 NA
HETATM    6  C11 UNL     1      -5.298 -35.572  21.833  1.00  0.00     0.096 A 
HETATM    7  S1  UNL     1      -6.030 -36.685  22.919  1.00  0.00    -0.063 SA
ENDROOT
BRANCH   6   8
HETATM    8  C12 UNL     1      -3.903 -35.293  21.537  1.00  0.00     0.200 C 
HETATM    9  O1  UNL     1      -3.541 -34.118  21.824  1.00  0.00    -0.289 OA
BRANCH   8  10
HETATM   10  C13 UNL     1      -3.031 -36.297  20.963  1.00  0.00     0.272 C 
BRANCH  10  11
HETATM   11  N9  UNL     1      -2.649 -37.199  22.067  1.00  0.00    -0.067 N 
ATOM     12  H93 UNL     1      -1.641 -37.254  22.213  1.00  0.00     0.275 HD
ATOM     13  H92 UNL     1      -2.891 -36.835  22.988  1.00  0.00     0.275 HD
ATOM     14  H91 UNL     1      -3.078 -38.101  21.863  1.00  0.00     0.275 HD
ENDBRANCH  10  11
BRANCH  10  15
HETATM   15  C14 UNL     1      -1.768 -35.917  20.316  1.00  0.00     0.143 C 
BRANCH  15  16
HETATM   16  C15 UNL     1      -1.086 -37.128  19.742  1.00  0.00     0.265 C 
BRANCH  16  17
HETATM   17  O2  UNL     1      -0.328 -37.869  20.632  1.00  0.00    -0.371 OA
ATOM     18  H2  UNL     1       0.080 -38.649  20.276  1.00  0.00     0.212 HD
ENDBRANCH  16  17
BRANCH  16  19
HETATM   19  O3  UNL     1      -2.146 -38.005  19.362  1.00  0.00    -0.371 OA
ATOM     20  H3  UNL     1      -1.716 -38.782  19.027  1.00  0.00     0.212 HD
ENDBRANCH  16  19
ENDBRANCH  15  16
BRANCH  15  21
HETATM   21  C16 UNL     1      -1.658 -34.785  19.394  1.00  0.00     0.191 C 
BRANCH  21  22
HETATM   22  O4  UNL     1      -2.815 -34.180  18.971  1.00  0.00    -0.363 OA
ATOM     23  H4  UNL     1      -2.923 -34.018  18.041  1.00  0.00     0.213 HD
ENDBRANCH  21  22
BRANCH  21  24
HETATM   24  O5  UNL     1      -1.227 -35.413  18.151  1.00  0.00    -0.363 OA
ATOM     25  H5  UNL     1      -1.636 -34.873  17.485  1.00  0.00     0.213 HD
ENDBRANCH  21  24
BRANCH  21  26
HETATM   26  C17 UNL     1      -0.495 -33.832  19.634  1.00  0.00     0.233 C 
BRANCH  26  27
HETATM   27  O6  UNL     1      -0.785 -32.988  20.733  1.00  0.00    -0.396 OA
ATOM     28  H6  UNL     1      -0.414 -32.126  20.584  1.00  0.00     0.209 HD
ENDBRANCH  26  27
ENDBRANCH  21  26
ENDBRANCH  15  21
ENDBRANCH  10  15
ENDBRANCH   8  10
ENDBRANCH   6   8
BRANCH   1  29
HETATM   29  C8  UNL     1      -8.799 -36.992  23.261  1.00  0.00     0.111 A 
HETATM   30  C3  UNL     1      -9.471 -38.060  22.754  1.00  0.00     0.134 A 
HETATM   31  N2  UNL     1     -10.515 -38.637  23.450  1.00  0.00    -0.325 N 
HETATM   32  C4  UNL     1     -10.887 -38.166  24.628  1.00  0.00     0.139 A 
ATOM     33  H2  UNL     1     -11.004 -39.437  23.050  1.00  0.00     0.169 HD
HETATM   34  N3  UNL     1     -11.896 -38.686  25.350  1.00  0.00    -0.337 N 
HETATM   35  C7  UNL     1     -10.227 -37.086  25.163  1.00  0.00     0.121 A 
HETATM   36  C5  UNL     1     -12.251 -38.181  26.546  1.00  0.00     0.183 A 
ATOM     37  H3  UNL     1     -12.406 -39.488  24.979  1.00  0.00     0.168 HD
HETATM   38  N4  UNL     1     -11.617 -37.120  27.094  1.00  0.00    -0.337 N 
HETATM   39  C6  UNL     1     -10.608 -36.579  26.399  1.00  0.00     0.130 A 
ATOM     40  H4  UNL     1     -11.896 -36.746  28.001  1.00  0.00     0.168 HD
HETATM   41  N6  UNL     1      -9.214 -36.533  24.479  1.00  0.00    -0.345 N 
ATOM     42  H6  UNL     1      -8.731 -35.733  24.887  1.00  0.00     0.166 HD
BRANCH  30  43
HETATM   43  N1  UNL     1      -9.153 -38.584  21.477  1.00  0.00    -0.374 N 
HETATM   44  C1  UNL     1      -9.791 -38.058  20.304  1.00  0.00     0.150 C 
HETATM   45  C2  UNL     1      -8.181 -39.646  21.394  1.00  0.00     0.150 C 
ENDBRANCH  30  43
BRANCH  39  46
HETATM   46  N5  UNL     1      -9.968 -35.569  26.870  1.00  0.00    -0.383 N 
ATOM     47  H52 UNL     1      -9.265 -35.732  27.591  1.00  0.00     0.157 HD
ATOM     48  H51 UNL     1     -10.165 -34.630  26.524  1.00  0.00     0.157 HD
ENDBRANCH  39  46
ENDBRANCH   1  29
TORSDOF 15
ENDMDL
MODEL 2
REMARK VINA RESULT: -8.358394442      0.993      1.973
REMARK  15 active torsions:
REMARK  status: ('A' for Active; 'I' for Inactive)
REMARK    1  A    between atoms: N1_2  and  C3_4 
REMARK    2  A    between atoms: C6_13  and  N5_14 
REMARK    3  A    between atoms: C8_20  and  C9_21 
REMARK    4  A    between atoms: C11_26  and  C12_27 
REMARK    5  A    between atoms: C12_27  and  C13_29 
REMARK    6  A    between atoms: C13_29  and  N9_30 
REMARK    7  A    between atoms: C13_29  and  C14_34 
REMARK    8  A    between atoms: C14_34  and  C15_35 
REMARK    9  A    between atoms: C14_34  and  C16_40 
REMARK   10  A    between atoms: C15_35  and  O2_36 
REMARK   11  A    between atoms: C15_35  and  O3_38 
REMARK   12  A    between atoms: C16_40  and  O4_41 
REMARK   13  A    between atoms: C16_40  and  O5_43 
REMARK   14  A    between atoms: C16_40  and  C17_45 
REMARK   15  A    between atoms: C17_45  and  O6_46 
ROOT
HETATM    1  C9  UNL     1      -7.662 -36.458  22.628  1.00  0.00     0.107 A 
HETATM    2  N7  UNL     1      -7.520 -35.468  21.784  1.00  0.00    -0.336 N 
ATOM      3  H7  UNL     1      -8.349 -34.976  21.452  1.00  0.00     0.168 HD
HETATM    4  C10 UNL     1      -6.359 -35.099  21.360  1.00  0.00     0.138 A 
HETATM    5  N8  UNL     1      -6.214 -33.990  20.415  1.00  0.00    -0.081 NA
HETATM    6  C11 UNL     1      -5.252 -35.797  21.835  1.00  0.00     0.096 A 
HETATM    7  S1  UNL     1      -6.036 -36.930  22.862  1.00  0.00    -0.063 SA
ENDROOT
BRANCH   6   8
HETATM    8  C12 UNL     1      -3.847 -35.594  21.522  1.00  0.00     0.200 C 
HETATM    9  O1  UNL     1      -3.141 -35.268  22.516  1.00  0.00    -0.289 OA
BRANCH   8  10
HETATM   10  C13 UNL     1      -3.336 -35.761  20.177  1.00  0.00     0.272 C 
BRANCH  10  11
HETATM   11  N9  UNL     1      -3.314 -37.213  19.916  1.00  0.00    -0.067 N 
ATOM     12  H93 UNL     1      -3.598 -37.773  20.721  1.00  0.00     0.275 HD
ATOM     13  H92 UNL     1      -4.051 -37.521  19.282  1.00  0.00     0.275 HD
ATOM     14  H91 UNL     1      -2.376 -37.432  19.583  1.00  0.00     0.275 HD
ENDBRANCH  10  11
BRANCH  10  15
HETATM   15  C14 UNL     1      -1.995 -35.280  19.816  1.00  0.00     0.143 C 
BRANCH  15  16
HETATM   16  C15 UNL     1      -1.945 -33.779  19.865  1.00  0.00     0.265 C 
BRANCH  16  17
HETATM   17  O2  UNL     1      -0.978 -33.185  19.072  1.00  0.00    -0.371 OA
ATOM     18  H2  UNL     1      -1.208 -32.338  18.707  1.00  0.00     0.212 HD
ENDBRANCH  16  17
BRANCH  16  19
HETATM   19  O3  UNL     1      -3.183 -33.348  19.300  1.00  0.00    -0.371 OA
ATOM     20  H3  UNL     1      -2.943 -32.721  18.628  1.00  0.00     0.212 HD
ENDBRANCH  16  19
ENDBRANCH  15  16
BRANCH  15  21
HETATM   21  C16 UNL     1      -0.770 -35.851  20.379  1.00  0.00     0.191 C 
BRANCH  21  22
HETATM   22  O4  UNL     1      -0.889 -36.808  21.355  1.00  0.00    -0.363 OA
ATOM     23  H4  UNL     1      -0.701 -37.710  21.125  1.00  0.00     0.213 HD
ENDBRANCH  21  22
BRANCH  21  24
HETATM   24  O5  UNL     1      -0.224 -34.749  21.163  1.00  0.00    -0.363 OA
ATOM     25  H5  UNL     1       0.036 -35.172  21.973  1.00  0.00     0.213 HD
ENDBRANCH  21  24
BRANCH  21  26
HETATM   26  C17 UNL     1       0.375 -36.081  19.402  1.00  0.00     0.233 C 
BRANCH  26  27
HETATM   27  O6  UNL     1       0.638 -37.469  19.289  1.00  0.00    -0.396 OA
ATOM     28  H6  UNL     1       0.663 -37.718  18.373  1.00  0.00     0.209 HD
ENDBRANCH  26  27
ENDBRANCH  21  26
ENDBRANCH  15  21
ENDBRANCH  10  15
ENDBRANCH   8  10
ENDBRANCH   6   8
BRANCH   1  29
HETATM   29  C8  UNL     1      -8.812 -37.070  23.256  1.00  0.00     0.111 A 
HETATM   30  C3  UNL     1      -9.519 -38.107  22.731  1.00  0.00     0.134 A 
HETATM   31  N2  UNL     1     -10.589 -38.652  23.412  1.00  0.00    -0.325 N 
HETATM   32  C4  UNL     1     -10.954 -38.180  24.593  1.00  0.00     0.139 A 
ATOM     33  H2  UNL     1     -11.105 -39.429  23.000  1.00  0.00     0.169 HD
HETATM   34  N3  UNL     1     -11.987 -38.671  25.301  1.00  0.00    -0.337 N 
HETATM   35  C7  UNL     1     -10.258 -37.132  25.146  1.00  0.00     0.121 A 
HETATM   36  C5  UNL     1     -12.333 -38.166  26.499  1.00  0.00     0.183 A 
ATOM     37  H3  UNL     1     -12.524 -39.449  24.917  1.00  0.00     0.168 HD
HETATM   38  N4  UNL     1     -11.664 -37.135  27.065  1.00  0.00    -0.337 N 
HETATM   39  C6  UNL     1     -10.631 -36.624  26.384  1.00  0.00     0.130 A 
ATOM     40  H4  UNL     1     -11.937 -36.761  27.974  1.00  0.00     0.168 HD
HETATM   41  N6  UNL     1      -9.220 -36.610  24.475  1.00  0.00    -0.345 N 
ATOM     42  H6  UNL     1      -8.712 -35.832  24.896  1.00  0.00     0.166 HD
BRANCH  30  43
HETATM   43  N1  UNL     1      -9.210 -38.628  21.451  1.00  0.00    -0.374 N 
HETATM   44  C1  UNL     1      -9.798 -38.049  20.277  1.00  0.00     0.150 C 
HETATM   45  C2  UNL     1      -8.299 -39.743  21.366  1.00  0.00     0.150 C 
ENDBRANCH  30  43
BRANCH  39  46
HETATM   46  N5  UNL     1      -9.957 -35.644  26.871  1.00  0.00    -0.383 N 
ATOM     47  H52 UNL     1     -10.117 -35.380  27.843  1.00  0.00     0.157 HD
ATOM     48  H51 UNL     1      -9.281 -35.148  26.291  1.00  0.00     0.157 HD
ENDBRANCH  39  46
ENDBRANCH   1  29
TORSDOF 15
ENDMDL
MODEL 3
REMARK VINA RESULT: -7.985112494      1.186      1.592
REMARK  15 active torsions:
REMARK  status: ('A' for Active; 'I' for Inactive)
REMARK    1  A    between atoms: N1_2  and  C3_4 
REMARK    2  A    between atoms: C6_13  and  N5_14 
REMARK    3  A    between atoms: C8_20  and  C9_21 
REMARK    4  A    between atoms: C11_26  and  C12_27 
REMARK    5  A    between atoms: C12_27  and  C13_29 
REMARK    6  A    between atoms: C13_29  and  N9_30 
REMARK    7  A    between atoms: C13_29  and  C14_34 
REMARK    8  A    between atoms: C14_34  and  C15_35 
REMARK    9  A    between atoms: C14_34  and  C16_40 
REMARK   10  A    between atoms: C15_35  and  O2_36 
REMARK   11  A    between atoms: C15_35  and  O3_38 
REMARK   12  A    between atoms: C16_40  and  O4_41 
REMARK   13  A    between atoms: C16_40  and  O5_43 
REMARK   14  A    between atoms: C16_40  and  C17_45 
REMARK   15  A    between atoms: C17_45  and  O6_46 
ROOT
HETATM    1  C9  UNL     1      -7.717 -36.392  22.617  1.00  0.00     0.107 A 
HETATM    2  N7  UNL     1      -7.628 -35.423  21.740  1.00  0.00    -0.336 N 
ATOM      3  H7  UNL     1      -8.481 -34.982  21.399  1.00  0.00     0.168 HD
HETATM    4  C10 UNL     1      -6.489 -35.013  21.296  1.00  0.00     0.138 A 
HETATM    5  N8  UNL     1      -6.402 -33.929  20.316  1.00  0.00    -0.081 NA
HETATM    6  C11 UNL     1      -5.347 -35.642  21.785  1.00  0.00     0.096 A 
HETATM    7  S1  UNL     1      -6.069 -36.778  22.853  1.00  0.00    -0.063 SA
ENDROOT
BRANCH   6   8
HETATM    8  C12 UNL     1      -3.955 -35.383  21.455  1.00  0.00     0.200 C 
HETATM    9  O1  UNL     1      -3.394 -34.545  22.214  1.00  0.00    -0.289 OA
BRANCH   8  10
HETATM   10  C13 UNL     1      -3.300 -36.046  20.346  1.00  0.00     0.272 C 
BRANCH  10  11
HETATM   11  N9  UNL     1      -4.227 -37.093  19.878  1.00  0.00    -0.067 N 
ATOM     12  H93 UNL     1      -4.641 -37.634  20.637  1.00  0.00     0.275 HD
ATOM     13  H92 UNL     1      -5.098 -36.721  19.499  1.00  0.00     0.275 HD
ATOM     14  H91 UNL     1      -3.707 -37.663  19.213  1.00  0.00     0.275 HD
ENDBRANCH  10  11
BRANCH  10  15
HETATM   15  C14 UNL     1      -2.008 -36.723  20.530  1.00  0.00     0.143 C 
BRANCH  15  16
HETATM   16  C15 UNL     1      -2.172 -37.941  21.395  1.00  0.00     0.265 C 
BRANCH  16  17
HETATM   17  O2  UNL     1      -2.252 -39.148  20.723  1.00  0.00    -0.371 OA
ATOM     18  H2  UNL     1      -1.451 -39.443  20.308  1.00  0.00     0.212 HD
ENDBRANCH  16  17
BRANCH  16  19
HETATM   19  O3  UNL     1      -0.959 -38.030  22.143  1.00  0.00    -0.371 OA
ATOM     20  H3  UNL     1      -0.291 -38.253  21.505  1.00  0.00     0.212 HD
ENDBRANCH  16  19
ENDBRANCH  15  16
BRANCH  15  21
HETATM   21  C16 UNL     1      -1.095 -37.003  19.421  1.00  0.00     0.191 C 
BRANCH  21  22
HETATM   22  O4  UNL     1      -1.495 -37.900  18.463  1.00  0.00    -0.363 OA
ATOM     23  H4  UNL     1      -1.706 -38.785  18.737  1.00  0.00     0.213 HD
ENDBRANCH  21  22
BRANCH  21  24
HETATM   24  O5  UNL     1      -0.028 -37.766  20.059  1.00  0.00    -0.363 OA
ATOM     25  H5  UNL     1       0.555 -37.964  19.335  1.00  0.00     0.213 HD
ENDBRANCH  21  24
BRANCH  21  26
HETATM   26  C17 UNL     1      -0.300 -35.819  18.888  1.00  0.00     0.233 C 
BRANCH  26  27
HETATM   27  O6  UNL     1       0.939 -36.269  18.367  1.00  0.00    -0.396 OA
ATOM     28  H6  UNL     1       0.819 -36.578  17.477  1.00  0.00     0.209 HD
ENDBRANCH  26  27
ENDBRANCH  21  26
ENDBRANCH  15  21
ENDBRANCH  10  15
ENDBRANCH   8  10
ENDBRANCH   6   8
BRANCH   1  29
HETATM   29  C8  UNL     1      -8.833 -37.037  23.272  1.00  0.00     0.111 A 
HETATM   30  C3  UNL     1      -9.503 -38.113  22.778  1.00  0.00     0.134 A 
HETATM   31  N2  UNL     1     -10.541 -38.688  23.484  1.00  0.00    -0.325 N 
HETATM   32  C4  UNL     1     -10.910 -38.207  24.659  1.00  0.00     0.139 A 
ATOM     33  H2  UNL     1     -11.029 -39.494  23.094  1.00  0.00     0.169 HD
HETATM   34  N3  UNL     1     -11.912 -38.725  25.391  1.00  0.00    -0.337 N 
HETATM   35  C7  UNL     1     -10.252 -37.119  25.181  1.00  0.00     0.121 A 
HETATM   36  C5  UNL     1     -12.265 -38.210  26.584  1.00  0.00     0.183 A 
ATOM     37  H3  UNL     1     -12.421 -39.532  25.030  1.00  0.00     0.168 HD
HETATM   38  N4  UNL     1     -11.632 -37.141  27.119  1.00  0.00    -0.337 N 
HETATM   39  C6  UNL     1     -10.629 -36.602  26.414  1.00  0.00     0.130 A 
ATOM     40  H4  UNL     1     -11.909 -36.760  28.024  1.00  0.00     0.168 HD
HETATM   41  N6  UNL     1      -9.245 -36.569  24.486  1.00  0.00    -0.345 N 
ATOM     42  H6  UNL     1      -8.764 -35.762  24.885  1.00  0.00     0.166 HD
BRANCH  30  43
HETATM   43  N1  UNL     1      -9.188 -38.648  21.504  1.00  0.00    -0.374 N 
HETATM   44  C1  UNL     1      -9.770 -38.080  20.322  1.00  0.00     0.150 C 
HETATM   45  C2  UNL     1      -8.278 -39.764  21.435  1.00  0.00     0.150 C 
ENDBRANCH  30  43
BRANCH  39  46
HETATM   46  N5  UNL     1      -9.992 -35.585  26.872  1.00  0.00    -0.383 N 
ATOM     47  H52 UNL     1      -9.205 -35.222  26.333  1.00  0.00     0.157 HD
ATOM     48  H51 UNL     1     -10.272 -35.158  27.754  1.00  0.00     0.157 HD
ENDBRANCH  39  46
ENDBRANCH   1  29
TORSDOF 15
ENDMDL
MODEL 4
REMARK VINA RESULT: -7.936789792      1.088      1.540
REMARK  15 active torsions:
REMARK  status: ('A' for Active; 'I' for Inactive)
REMARK    1  A    between atoms: N1_2  and  C3_4 
REMARK    2  A    between atoms: C6_13  and  N5_14 
REMARK    3  A    between atoms: C8_20  and  C9_21 
REMARK    4  A    between atoms: C11_26  and  C12_27 
REMARK    5  A    between atoms: C12_27  and  C13_29 
REMARK    6  A    between atoms: C13_29  and  N9_30 
REMARK    7  A    between atoms: C13_29  and  C14_34 
REMARK    8  A    between atoms: C14_34  and  C15_35 
REMARK    9  A    between atoms: C14_34  and  C16_40 
REMARK   10  A    between atoms: C15_35  and  O2_36 
REMARK   11  A    between atoms: C15_35  and  O3_38 
REMARK   12  A    between atoms: C16_40  and  O4_41 
REMARK   13  A    between atoms: C16_40  and  O5_43 
REMARK   14  A    between atoms: C16_40  and  C17_45 
REMARK   15  A    between atoms: C17_45  and  O6_46 
ROOT
HETATM    1  C9  UNL     1      -7.211 -36.027  22.471  1.00  0.00     0.107 A 
HETATM    2  N7  UNL     1      -7.223 -35.009  21.649  1.00  0.00    -0.336 N 
ATOM      3  H7  UNL     1      -8.117 -34.602  21.376  1.00  0.00     0.168 HD
HETATM    4  C10 UNL     1      -6.134 -34.507  21.175  1.00  0.00     0.138 A 
HETATM    5  N8  UNL     1      -6.161 -33.367  20.256  1.00  0.00    -0.081 NA
HETATM    6  C11 UNL     1      -4.934 -35.092  21.570  1.00  0.00     0.096 A 
HETATM    7  S1  UNL     1      -5.534 -36.327  22.604  1.00  0.00    -0.063 SA
ENDROOT
BRANCH   6   8
HETATM    8  C12 UNL     1      -3.579 -34.731  21.189  1.00  0.00     0.200 C 
HETATM    9  O1  UNL     1      -3.152 -33.679  21.740  1.00  0.00    -0.289 OA
BRANCH   8  10
HETATM   10  C13 UNL     1      -2.812 -35.532  20.255  1.00  0.00     0.272 C 
BRANCH  10  11
HETATM   11  N9  UNL     1      -3.633 -36.719  19.951  1.00  0.00    -0.067 N 
ATOM     12  H93 UNL     1      -3.661 -37.397  20.713  1.00  0.00     0.275 HD
ATOM     13  H92 UNL     1      -4.633 -36.522  19.921  1.00  0.00     0.275 HD
ATOM     14  H91 UNL     1      -3.271 -37.105  19.080  1.00  0.00     0.275 HD
ENDBRANCH  10  11
BRANCH  10  15
HETATM   15  C14 UNL     1      -1.489 -36.056  20.622  1.00  0.00     0.143 C 
BRANCH  15  16
HETATM   16  C15 UNL     1      -1.427 -37.539  20.385  1.00  0.00     0.265 C 
BRANCH  16  17
HETATM   17  O2  UNL     1      -0.708 -37.939  19.272  1.00  0.00    -0.371 OA
ATOM     18  H2  UNL     1      -0.693 -37.324  18.548  1.00  0.00     0.212 HD
ENDBRANCH  16  17
BRANCH  16  19
HETATM   19  O3  UNL     1      -0.690 -38.060  21.491  1.00  0.00    -0.371 OA
ATOM     20  H3  UNL     1       0.125 -37.573  21.497  1.00  0.00     0.212 HD
ENDBRANCH  16  19
ENDBRANCH  15  16
BRANCH  15  21
HETATM   21  C16 UNL     1      -0.240 -35.419  20.202  1.00  0.00     0.191 C 
BRANCH  21  22
HETATM   22  O4  UNL     1       0.941 -35.943  20.662  1.00  0.00    -0.363 OA
ATOM     23  H4  UNL     1       1.322 -35.570  21.449  1.00  0.00     0.213 HD
ENDBRANCH  21  22
BRANCH  21  24
HETATM   24  O5  UNL     1      -0.258 -34.152  20.925  1.00  0.00    -0.363 OA
ATOM     25  H5  UNL     1       0.128 -33.545  20.303  1.00  0.00     0.213 HD
ENDBRANCH  21  24
BRANCH  21  26
HETATM   26  C17 UNL     1      -0.192 -34.911  18.767  1.00  0.00     0.233 C 
BRANCH  26  27
HETATM   27  O6  UNL     1       0.813 -35.602  18.047  1.00  0.00    -0.396 OA
ATOM     28  H6  UNL     1       1.636 -35.133  18.112  1.00  0.00     0.209 HD
ENDBRANCH  26  27
ENDBRANCH  21  26
ENDBRANCH  15  21
ENDBRANCH  10  15
ENDBRANCH   8  10
ENDBRANCH   6   8
BRANCH   1  29
HETATM   29  C8  UNL     1      -8.253 -36.774  23.141  1.00  0.00     0.111 A 
HETATM   30  C3  UNL     1      -8.740 -37.972  22.718  1.00  0.00     0.134 A 
HETATM   31  N2  UNL     1      -9.716 -38.634  23.436  1.00  0.00    -0.325 N 
HETATM   32  C4  UNL     1     -10.203 -38.119  24.553  1.00  0.00     0.139 A 
ATOM     33  H2  UNL     1     -10.067 -39.530  23.100  1.00  0.00     0.169 HD
HETATM   34  N3  UNL     1     -11.154 -38.718  25.292  1.00  0.00    -0.337 N 
HETATM   35  C7  UNL     1      -9.730 -36.910  25.003  1.00  0.00     0.121 A 
HETATM   36  C5  UNL     1     -11.629 -38.167  26.425  1.00  0.00     0.183 A 
ATOM     37  H3  UNL     1     -11.526 -39.617  24.985  1.00  0.00     0.168 HD
HETATM   38  N4  UNL     1     -11.179 -36.978  26.888  1.00  0.00    -0.337 N 
HETATM   39  C6  UNL     1     -10.233 -36.357  26.174  1.00  0.00     0.130 A 
ATOM     40  H4  UNL     1     -11.548 -36.570  27.747  1.00  0.00     0.168 HD
HETATM   41  N6  UNL     1      -8.781 -36.276  24.297  1.00  0.00    -0.345 N 
ATOM     42  H6  UNL     1      -8.438 -35.379  24.642  1.00  0.00     0.166 HD
BRANCH  30  43
HETATM   43  N1  UNL     1      -8.295 -38.554  21.506  1.00  0.00    -0.374 N 
HETATM   44  C1  UNL     1      -8.825 -38.100  20.253  1.00  0.00     0.150 C 
HETATM   45  C2  UNL     1      -7.308 -39.603  21.571  1.00  0.00     0.150 C 
ENDBRANCH  30  43
BRANCH  39  46
HETATM   46  N5  UNL     1      -9.767 -35.225  26.564  1.00  0.00    -0.383 N 
ATOM     47  H52 UNL     1      -8.912 -35.217  27.121  1.00  0.00     0.157 HD
ATOM     48  H51 UNL     1     -10.247 -34.359  26.318  1.00  0.00     0.157 HD
ENDBRANCH  39  46
ENDBRANCH   1  29
TORSDOF 15
ENDMDL
MODEL 5
REMARK VINA RESULT: -7.924793076      2.692      4.527
REMARK  15 active torsions:
REMARK  status: ('A' for Active; 'I' for Inactive)
REMARK    1  A    between atoms: N1_2  and  C3_4 
REMARK    2  A    between atoms: C6_13  and  N5_14 
REMARK    3  A    between atoms: C8_20  and  C9_21 
REMARK    4  A    between atoms: C11_26  and  C12_27 
REMARK    5  A    between atoms: C12_27  and  C13_29 
REMARK    6  A    between atoms: C13_29  and  N9_30 
REMARK    7  A    between atoms: C13_29  and  C14_34 
REMARK    8  A    between atoms: C14_34  and  C15_35 
REMARK    9  A    between atoms: C14_34  and  C16_40 
REMARK   10  A    between atoms: C15_35  and  O2_36 
REMARK   11  A    between atoms: C15_35  and  O3_38 
REMARK   12  A    between atoms: C16_40  and  O4_41 
REMARK   13  A    between atoms: C16_40  and  O5_43 
REMARK   14  A    between atoms: C16_40  and  C17_45 
REMARK   15  A    between atoms: C17_45  and  O6_46 
ROOT
HETATM    1  C9  UNL     1      -5.564 -37.825  21.621  1.00  0.00     0.107 A 
HETATM    2  N7  UNL     1      -4.681 -37.408  22.493  1.00  0.00    -0.336 N 
ATOM      3  H7  UNL     1      -4.665 -37.827  23.422  1.00  0.00     0.168 HD
HETATM    4  C10 UNL     1      -3.832 -36.480  22.208  1.00  0.00     0.138 A 
HETATM    5  N8  UNL     1      -2.850 -36.023  23.193  1.00  0.00    -0.081 NA
HETATM    6  C11 UNL     1      -3.888 -35.932  20.929  1.00  0.00     0.096 A 
HETATM    7  S1  UNL     1      -5.190 -36.843  20.274  1.00  0.00    -0.063 SA
ENDROOT
BRANCH   6   8
HETATM    8  C12 UNL     1      -3.061 -34.885  20.354  1.00  0.00     0.200 C 
HETATM    9  O1  UNL     1      -3.551 -33.726  20.459  1.00  0.00    -0.289 OA
BRANCH   8  10
HETATM   10  C13 UNL     1      -1.791 -35.178  19.722  1.00  0.00     0.272 C 
BRANCH  10  11
HETATM   11  N9  UNL     1      -1.936 -36.502  19.087  1.00  0.00    -0.067 N 
ATOM     12  H93 UNL     1      -1.834 -37.277  19.742  1.00  0.00     0.275 HD
ATOM     13  H92 UNL     1      -2.892 -36.708  18.796  1.00  0.00     0.275 HD
ATOM     14  H91 UNL     1      -1.266 -36.529  18.320  1.00  0.00     0.275 HD
ENDBRANCH  10  11
BRANCH  10  15
HETATM   15  C14 UNL     1      -0.556 -35.259  20.514  1.00  0.00     0.143 C 
BRANCH  15  16
HETATM   16  C15 UNL     1      -0.229 -36.692  20.832  1.00  0.00     0.265 C 
BRANCH  16  17
HETATM   17  O2  UNL     1       0.838 -37.233  20.137  1.00  0.00    -0.371 OA
ATOM     18  H2  UNL     1       0.751 -38.147  19.894  1.00  0.00     0.212 HD
ENDBRANCH  16  17
BRANCH  16  19
HETATM   19  O3  UNL     1       0.203 -36.680  22.193  1.00  0.00    -0.371 OA
ATOM     20  H3  UNL     1      -0.398 -37.256  22.649  1.00  0.00     0.212 HD
ENDBRANCH  16  19
ENDBRANCH  15  16
BRANCH  15  21
HETATM   21  C16 UNL     1       0.660 -34.523  20.165  1.00  0.00     0.191 C 
BRANCH  21  22
HETATM   22  O4  UNL     1       1.815 -34.822  20.842  1.00  0.00    -0.363 OA
ATOM     23  H4  UNL     1       2.598 -34.326  20.635  1.00  0.00     0.213 HD
ENDBRANCH  21  22
BRANCH  21  24
HETATM   24  O5  UNL     1       0.396 -33.186  20.684  1.00  0.00    -0.363 OA
ATOM     25  H5  UNL     1       1.208 -32.963  21.123  1.00  0.00     0.213 HD
ENDBRANCH  21  24
BRANCH  21  26
HETATM   26  C17 UNL     1       0.855 -34.207  18.688  1.00  0.00     0.233 C 
BRANCH  26  27
HETATM   27  O6  UNL     1       1.043 -35.408  17.961  1.00  0.00    -0.396 OA
ATOM     28  H6  UNL     1       1.772 -35.310  17.361  1.00  0.00     0.209 HD
ENDBRANCH  26  27
ENDBRANCH  21  26
ENDBRANCH  15  21
ENDBRANCH  10  15
ENDBRANCH   8  10
ENDBRANCH   6   8
BRANCH   1  29
HETATM   29  C8  UNL     1      -6.608 -38.825  21.666  1.00  0.00     0.111 A 
HETATM   30  C3  UNL     1      -7.918 -38.563  21.922  1.00  0.00     0.134 A 
HETATM   31  N2  UNL     1      -8.858 -39.575  21.917  1.00  0.00    -0.325 N 
HETATM   32  C4  UNL     1      -8.507 -40.825  21.663  1.00  0.00     0.139 A 
ATOM     33  H2  UNL     1      -9.834 -39.356  22.111  1.00  0.00     0.169 HD
HETATM   34  N3  UNL     1      -9.378 -41.850  21.645  1.00  0.00    -0.337 N 
HETATM   35  C7  UNL     1      -7.190 -41.118  21.403  1.00  0.00     0.121 A 
HETATM   36  C5  UNL     1      -8.988 -43.112  21.385  1.00  0.00     0.183 A 
ATOM     37  H3  UNL     1     -10.363 -41.665  21.834  1.00  0.00     0.168 HD
HETATM   38  N4  UNL     1      -7.698 -43.426  21.126  1.00  0.00    -0.337 N 
HETATM   39  C6  UNL     1      -6.806 -42.427  21.137  1.00  0.00     0.130 A 
ATOM     40  H4  UNL     1      -7.415 -44.386  20.930  1.00  0.00     0.168 HD
HETATM   41  N6  UNL     1      -6.286 -40.127  21.411  1.00  0.00    -0.345 N 
ATOM     42  H6  UNL     1      -5.311 -40.357  21.216  1.00  0.00     0.166 HD
BRANCH  30  43
HETATM   43  N1  UNL     1      -8.352 -37.254  22.246  1.00  0.00    -0.374 N 
HETATM   44  C1  UNL     1      -8.235 -36.771  23.592  1.00  0.00     0.150 C 
HETATM   45  C2  UNL     1      -8.906 -36.435  21.197  1.00  0.00     0.150 C 
ENDBRANCH  30  43
BRANCH  39  46
HETATM   46  N5  UNL     1      -5.567 -42.664  20.898  1.00  0.00    -0.383 N 
ATOM     47  H52 UNL     1      -5.290 -42.889  19.942  1.00  0.00     0.157 HD
ATOM     48  H51 UNL     1      -4.882 -42.625  21.652  1.00  0.00     0.157 HD
ENDBRANCH  39  46
ENDBRANCH   1  29
TORSDOF 15
ENDMDL
