MODEL 1
REMARK VINA RESULT: -9.445371804      0.000      0.000
REMARK  14 active torsions:
REMARK  status: ('A' for Active; 'I' for Inactive)
REMARK    1  A    between atoms: C3_5  and  C4_6 
REMARK    2  A    between atoms: C4_6  and  C5_11 
REMARK    3  A    between atoms: N2_7  and  O1_9 
REMARK    4  A    between atoms: C5_11  and  N3_12 
REMARK    5  A    between atoms: C5_11  and  C6_16 
REMARK    6  A    between atoms: C6_16  and  C8_18 
REMARK    7  A    between atoms: C8_18  and  C9_19 
REMARK       I    between atoms: C9_19  and  N4_21 
REMARK    8  A    between atoms: N4_21  and  C10_23 
REMARK    9  A    between atoms: C10_23  and  O3_24 
REMARK   10  A    between atoms: C10_23  and  C11_26 
REMARK   11  A    between atoms: C13_30  and  N6_31 
REMARK   12  A    between atoms: C14_36  and  C15_37 
REMARK   13  A    between atoms: C17_43  and  N10_44 
REMARK   14  A    between atoms: N10_44  and  O5_46 
ROOT
HETATM    1  C10 UNL     1      -5.876 -35.631  21.812  1.00  0.00     0.289 C 
ENDROOT
BRANCH   1   2
HETATM    2  N4  UNL     1      -4.854 -36.544  22.310  1.00  0.00    -0.329 N 
HETATM    3  C9  UNL     1      -3.500 -36.122  22.446  1.00  0.00     0.220 C 
HETATM    4  O2  UNL     1      -3.148 -34.945  22.137  1.00  0.00    -0.274 OA
ATOM      5  H4  UNL     1      -5.112 -37.497  22.565  1.00  0.00     0.165 HD
BRANCH   3   6
HETATM    6  C8  UNL     1      -2.495 -37.062  22.949  1.00  0.00     0.109 C 
BRANCH   6   7
HETATM    7  C6  UNL     1      -1.107 -36.519  22.734  1.00  0.00     0.027 C 
HETATM    8  C7  UNL     1      -0.387 -36.496  24.061  1.00  0.00     0.013 C 
BRANCH   7   9
HETATM    9  C5  UNL     1      -0.400 -37.432  21.744  1.00  0.00     0.242 C 
BRANCH   9  10
HETATM   10  C4  UNL     1       0.164 -36.664  20.620  1.00  0.00     0.108 C 
HETATM   11  N2  UNL     1       0.484 -37.255  19.536  1.00  0.00    -0.268 N 
ATOM     12  H2  UNL     1       0.341 -38.261  19.447  1.00  0.00     0.194 HD
BRANCH  10  13
HETATM   13  C3  UNL     1       0.367 -35.235  20.743  1.00  0.00     0.154 A 
HETATM   14  N1  UNL     1       1.533 -34.598  21.002  1.00  0.00    -0.322 N 
HETATM   15  C2  UNL     1       1.330 -33.271  21.042  1.00  0.00     0.144 A 
ATOM     16  H1  UNL     1       2.433 -35.056  21.145  1.00  0.00     0.169 HD
HETATM   17  C1  UNL     1       2.378 -32.232  21.301  1.00  0.00     0.100 C 
HETATM   18  O6  UNL     1       0.049 -33.099  20.810  1.00  0.00    -0.223 OA
HETATM   19  N12 UNL     1      -0.541 -34.237  20.630  1.00  0.00    -0.241 N 
ATOM     20  H12 UNL     1      -1.534 -34.362  20.435  1.00  0.00     0.196 HD
ENDBRANCH  10  13
BRANCH  11  21
HETATM   21  O1  UNL     1       1.018 -36.550  18.487  1.00  0.00    -0.290 OA
ATOM     22  H1  UNL     1       1.366 -37.003  17.727  1.00  0.00     0.244 HD
ENDBRANCH  11  21
ENDBRANCH   9  10
BRANCH   9  23
HETATM   23  N3  UNL     1      -1.320 -38.401  21.190  1.00  0.00    -0.069 N 
ATOM     24  H33 UNL     1      -2.290 -38.226  21.456  1.00  0.00     0.275 HD
ATOM     25  H32 UNL     1      -1.439 -38.305  20.182  1.00  0.00     0.275 HD
ATOM     26  H31 UNL     1      -0.993 -39.327  21.466  1.00  0.00     0.275 HD
ENDBRANCH   9  23
ENDBRANCH   7   9
ENDBRANCH   6   7
ENDBRANCH   3   6
ENDBRANCH   1   2
BRANCH   1  27
HETATM   27  O3  UNL     1      -5.660 -35.417  20.472  1.00  0.00    -0.369 OA
ATOM     28  H3  UNL     1      -6.181 -34.672  20.195  1.00  0.00     0.212 HD
ENDBRANCH   1  27
BRANCH   1  29
HETATM   29  C11 UNL     1      -7.195 -36.286  22.030  1.00  0.00     0.133 A 
HETATM   30  N5  UNL     1      -7.898 -36.058  23.166  1.00  0.00    -0.337 N 
HETATM   31  C12 UNL     1      -9.080 -36.660  23.331  1.00  0.00     0.108 A 
ATOM     32  H5  UNL     1      -7.529 -35.436  23.885  1.00  0.00     0.167 HD
HETATM   33  C13 UNL     1      -9.858 -36.478  24.464  1.00  0.00     0.130 A 
HETATM   34  C16 UNL     1      -9.581 -37.504  22.359  1.00  0.00     0.111 A 
HETATM   35  N7  UNL     1     -11.059 -37.096  24.619  1.00  0.00    -0.323 N 
HETATM   36  C14 UNL     1     -11.518 -37.908  23.660  1.00  0.00     0.174 A 
ATOM     37  H7  UNL     1     -11.608 -36.941  25.464  1.00  0.00     0.169 HD
HETATM   38  N9  UNL     1     -10.773 -38.101  22.545  1.00  0.00    -0.333 N 
ATOM     39  H9  UNL     1     -11.130 -38.722  21.818  1.00  0.00     0.168 HD
HETATM   40  C17 UNL     1      -8.876 -37.743  21.202  1.00  0.00     0.156 A 
HETATM   41  N11 UNL     1      -7.675 -37.103  21.085  1.00  0.00    -0.325 N 
ATOM     42  H11 UNL     1      -7.121 -37.255  20.243  1.00  0.00     0.169 HD
BRANCH  33  43
HETATM   43  N6  UNL     1      -9.465 -35.713  25.407  1.00  0.00    -0.384 N 
ATOM     44  H62 UNL     1      -8.875 -36.124  26.131  1.00  0.00     0.157 HD
ATOM     45  H61 UNL     1      -9.739 -34.730  25.427  1.00  0.00     0.157 HD
ENDBRANCH  33  43
BRANCH  36  46
HETATM   46  C15 UNL     1     -12.805 -38.593  23.791  1.00  0.00     0.298 C 
HETATM   47  N8  UNL     1     -13.972 -38.023  23.238  1.00  0.00    -0.054 NA
HETATM   48  O4  UNL     1     -12.883 -39.679  24.388  1.00  0.00    -0.268 OA
ENDBRANCH  36  46
BRANCH  40  49
HETATM   49  N10 UNL     1      -9.317 -38.524  20.280  1.00  0.00    -0.251 N 
ATOM     50  H10 UNL     1      -9.019 -39.498  20.231  1.00  0.00     0.196 HD
BRANCH  49  51
HETATM   51  O5  UNL     1     -10.205 -38.006  19.362  1.00  0.00    -0.288 OA
ATOM     52  H5  UNL     1     -11.067 -38.399  19.303  1.00  0.00     0.244 HD
ENDBRANCH  49  51
ENDBRANCH  40  49
ENDBRANCH   1  29
TORSDOF 14
ENDMDL
MODEL 2
REMARK VINA RESULT: -9.429596514      2.509      4.558
REMARK  14 active torsions:
REMARK  status: ('A' for Active; 'I' for Inactive)
REMARK    1  A    between atoms: C3_5  and  C4_6 
REMARK    2  A    between atoms: C4_6  and  C5_11 
REMARK    3  A    between atoms: N2_7  and  O1_9 
REMARK    4  A    between atoms: C5_11  and  N3_12 
REMARK    5  A    between atoms: C5_11  and  C6_16 
REMARK    6  A    between atoms: C6_16  and  C8_18 
REMARK    7  A    between atoms: C8_18  and  C9_19 
REMARK       I    between atoms: C9_19  and  N4_21 
REMARK    8  A    between atoms: N4_21  and  C10_23 
REMARK    9  A    between atoms: C10_23  and  O3_24 
REMARK   10  A    between atoms: C10_23  and  C11_26 
REMARK   11  A    between atoms: C13_30  and  N6_31 
REMARK   12  A    between atoms: C14_36  and  C15_37 
REMARK   13  A    between atoms: C17_43  and  N10_44 
REMARK   14  A    between atoms: N10_44  and  O5_46 
ROOT
HETATM    1  C10 UNL     1      -2.263 -35.119  20.188  1.00  0.00     0.289 C 
ENDROOT
BRANCH   1   2
HETATM    2  N4  UNL     1      -1.448 -35.822  21.172  1.00  0.00    -0.329 N 
HETATM    3  C9  UNL     1      -0.031 -35.886  21.036  1.00  0.00     0.220 C 
HETATM    4  O2  UNL     1       0.558 -35.336  20.058  1.00  0.00    -0.274 OA
ATOM      5  H4  UNL     1      -1.898 -36.273  21.967  1.00  0.00     0.165 HD
BRANCH   3   6
HETATM    6  C8  UNL     1       0.762 -36.599  22.041  1.00  0.00     0.109 C 
BRANCH   6   7
HETATM    7  C6  UNL     1       0.909 -35.768  23.288  1.00  0.00     0.027 C 
HETATM    8  C7  UNL     1       0.389 -36.563  24.461  1.00  0.00     0.013 C 
BRANCH   7   9
HETATM    9  C5  UNL     1       2.384 -35.443  23.458  1.00  0.00     0.242 C 
BRANCH   9  10
HETATM   10  C4  UNL     1       2.794 -34.342  22.569  1.00  0.00     0.108 C 
HETATM   11  N2  UNL     1       3.209 -34.590  21.388  1.00  0.00    -0.268 N 
ATOM     12  H2  UNL     1       3.249 -35.555  21.059  1.00  0.00     0.194 HD
BRANCH  10  13
HETATM   13  C3  UNL     1       2.737 -32.971  23.034  1.00  0.00     0.154 A 
HETATM   14  N1  UNL     1       3.723 -32.280  23.654  1.00  0.00    -0.322 N 
HETATM   15  C2  UNL     1       3.301 -31.037  23.936  1.00  0.00     0.144 A 
ATOM     16  H1  UNL     1       4.648 -32.649  23.875  1.00  0.00     0.169 HD
HETATM   17  C1  UNL     1       4.107 -29.973  24.619  1.00  0.00     0.100 C 
HETATM   18  O6  UNL     1       2.068 -30.968  23.492  1.00  0.00    -0.223 OA
HETATM   19  N12 UNL     1       1.710 -32.092  22.957  1.00  0.00    -0.241 N 
ATOM     20  H12 UNL     1       0.799 -32.284  22.543  1.00  0.00     0.196 HD
ENDBRANCH  10  13
BRANCH  11  21
HETATM   21  O1  UNL     1       3.601 -33.571  20.557  1.00  0.00    -0.290 OA
ATOM     22  H1  UNL     1       4.061 -33.759  19.747  1.00  0.00     0.244 HD
ENDBRANCH  11  21
ENDBRANCH   9  10
BRANCH   9  23
HETATM   23  N3  UNL     1       3.205 -36.591  23.135  1.00  0.00    -0.069 N 
ATOM     24  H33 UNL     1       4.189 -36.454  23.368  1.00  0.00     0.275 HD
ATOM     25  H32 UNL     1       3.032 -37.388  23.747  1.00  0.00     0.275 HD
ATOM     26  H31 UNL     1       3.055 -36.806  22.148  1.00  0.00     0.275 HD
ENDBRANCH   9  23
ENDBRANCH   7   9
ENDBRANCH   6   7
ENDBRANCH   3   6
ENDBRANCH   1   2
BRANCH   1  27
HETATM   27  O3  UNL     1      -1.878 -35.520  18.931  1.00  0.00    -0.369 OA
ATOM     28  H3  UNL     1      -0.929 -35.524  18.891  1.00  0.00     0.212 HD
ENDBRANCH   1  27
BRANCH   1  29
HETATM   29  C11 UNL     1      -3.681 -35.494  20.443  1.00  0.00     0.133 A 
HETATM   30  N5  UNL     1      -4.176 -36.668  19.986  1.00  0.00    -0.337 N 
HETATM   31  C12 UNL     1      -5.454 -36.977  20.233  1.00  0.00     0.108 A 
ATOM     32  H5  UNL     1      -3.582 -37.309  19.459  1.00  0.00     0.167 HD
HETATM   33  C13 UNL     1      -6.034 -38.159  19.798  1.00  0.00     0.130 A 
HETATM   34  C16 UNL     1      -6.261 -36.110  20.944  1.00  0.00     0.111 A 
HETATM   35  N7  UNL     1      -7.333 -38.460  20.057  1.00  0.00    -0.323 N 
HETATM   36  C14 UNL     1      -8.090 -37.600  20.749  1.00  0.00     0.174 A 
ATOM     37  H7  UNL     1      -7.731 -39.338  19.725  1.00  0.00     0.169 HD
HETATM   38  N9  UNL     1      -7.544 -36.439  21.183  1.00  0.00    -0.333 N 
ATOM     39  H9  UNL     1      -8.127 -35.789  21.710  1.00  0.00     0.168 HD
HETATM   40  C17 UNL     1      -5.768 -34.914  21.414  1.00  0.00     0.156 A 
HETATM   41  N11 UNL     1      -4.458 -34.650  21.133  1.00  0.00    -0.325 N 
ATOM     42  H11 UNL     1      -4.055 -33.773  21.462  1.00  0.00     0.169 HD
BRANCH  33  43
HETATM   43  N6  UNL     1      -5.354 -39.011  19.135  1.00  0.00    -0.384 N 
ATOM     44  H62 UNL     1      -4.342 -39.007  19.264  1.00  0.00     0.157 HD
ATOM     45  H61 UNL     1      -5.815 -39.665  18.502  1.00  0.00     0.157 HD
ENDBRANCH  33  43
BRANCH  36  46
HETATM   46  C15 UNL     1      -9.494 -37.888  21.046  1.00  0.00     0.298 C 
HETATM   47  N8  UNL     1     -10.017 -37.626  22.331  1.00  0.00    -0.054 NA
HETATM   48  O4  UNL     1     -10.239 -38.364  20.173  1.00  0.00    -0.268 OA
ENDBRANCH  36  46
BRANCH  40  49
HETATM   49  N10 UNL     1      -6.496 -34.088  22.079  1.00  0.00    -0.251 N 
ATOM     50  H10 UNL     1      -7.337 -34.402  22.563  1.00  0.00     0.196 HD
BRANCH  49  51
HETATM   51  O5  UNL     1      -6.106 -32.767  22.118  1.00  0.00    -0.288 OA
ATOM     52  H5  UNL     1      -6.722 -32.129  22.457  1.00  0.00     0.244 HD
ENDBRANCH  49  51
ENDBRANCH  40  49
ENDBRANCH   1  29
TORSDOF 14
ENDMDL
MODEL 3
REMARK VINA RESULT: -9.321315689      1.302      1.632
REMARK  14 active torsions:
REMARK  status: ('A' for Active; 'I' for Inactive)
REMARK    1  A    between atoms: C3_5  and  C4_6 
REMARK    2  A    between atoms: C4_6  and  C5_11 
REMARK    3  A    between atoms: N2_7  and  O1_9 
REMARK    4  A    between atoms: C5_11  and  N3_12 
REMARK    5  A    between atoms: C5_11  and  C6_16 
REMARK    6  A    between atoms: C6_16  and  C8_18 
REMARK    7  A    between atoms: C8_18  and  C9_19 
REMARK       I    between atoms: C9_19  and  N4_21 
REMARK    8  A    between atoms: N4_21  and  C10_23 
REMARK    9  A    between atoms: C10_23  and  O3_24 
REMARK   10  A    between atoms: C10_23  and  C11_26 
REMARK   11  A    between atoms: C13_30  and  N6_31 
REMARK   12  A    between atoms: C14_36  and  C15_37 
REMARK   13  A    between atoms: C17_43  and  N10_44 
REMARK   14  A    between atoms: N10_44  and  O5_46 
ROOT
HETATM    1  C10 UNL     1      -6.363 -35.394  21.583  1.00  0.00     0.289 C 
ENDROOT
BRANCH   1   2
HETATM    2  N4  UNL     1      -5.320 -36.372  21.296  1.00  0.00    -0.329 N 
HETATM    3  C9  UNL     1      -3.967 -36.131  21.672  1.00  0.00     0.220 C 
HETATM    4  O2  UNL     1      -3.634 -35.061  22.264  1.00  0.00    -0.274 OA
ATOM      5  H4  UNL     1      -5.562 -37.240  20.819  1.00  0.00     0.165 HD
BRANCH   3   6
HETATM    6  C8  UNL     1      -2.941 -37.132  21.370  1.00  0.00     0.109 C 
BRANCH   6   7
HETATM    7  C6  UNL     1      -1.563 -36.543  21.524  1.00  0.00     0.027 C 
HETATM    8  C7  UNL     1      -0.669 -37.571  22.174  1.00  0.00     0.013 C 
BRANCH   7   9
HETATM    9  C5  UNL     1      -1.058 -36.176  20.138  1.00  0.00     0.242 C 
BRANCH   9  10
HETATM   10  C4  UNL     1      -0.947 -34.715  19.980  1.00  0.00     0.108 C 
HETATM   11  N2  UNL     1      -1.987 -34.014  19.745  1.00  0.00    -0.268 N 
ATOM     12  H2  UNL     1      -2.897 -34.468  19.673  1.00  0.00     0.194 HD
BRANCH  10  13
HETATM   13  C3  UNL     1       0.344 -34.068  20.083  1.00  0.00     0.154 A 
HETATM   14  N1  UNL     1       0.747 -33.201  21.042  1.00  0.00    -0.322 N 
HETATM   15  C2  UNL     1       2.009 -32.810  20.804  1.00  0.00     0.144 A 
ATOM     16  H1  UNL     1       0.177 -32.891  21.829  1.00  0.00     0.169 HD
HETATM   17  C1  UNL     1       2.803 -31.856  21.644  1.00  0.00     0.100 C 
HETATM   18  O6  UNL     1       2.375 -33.432  19.707  1.00  0.00    -0.223 OA
HETATM   19  N12 UNL     1       1.416 -34.178  19.262  1.00  0.00    -0.241 N 
ATOM     20  H12 UNL     1       1.460 -34.758  18.424  1.00  0.00     0.196 HD
ENDBRANCH  10  13
BRANCH  11  21
HETATM   21  O1  UNL     1      -1.891 -32.654  19.587  1.00  0.00    -0.290 OA
ATOM     22  H1  UNL     1      -2.584 -32.082  19.896  1.00  0.00     0.244 HD
ENDBRANCH  11  21
ENDBRANCH   9  10
BRANCH   9  23
HETATM   23  N3  UNL     1      -1.964 -36.656  19.116  1.00  0.00    -0.069 N 
ATOM     24  H33 UNL     1      -2.137 -37.659  19.177  1.00  0.00     0.275 HD
ATOM     25  H32 UNL     1      -2.925 -36.346  19.260  1.00  0.00     0.275 HD
ATOM     26  H31 UNL     1      -1.584 -36.371  18.213  1.00  0.00     0.275 HD
ENDBRANCH   9  23
ENDBRANCH   7   9
ENDBRANCH   6   7
ENDBRANCH   3   6
ENDBRANCH   1   2
BRANCH   1  27
HETATM   27  O3  UNL     1      -6.569 -34.629  20.459  1.00  0.00    -0.369 OA
ATOM     28  H3  UNL     1      -7.401 -34.179  20.548  1.00  0.00     0.212 HD
ENDBRANCH   1  27
BRANCH   1  29
HETATM   29  C11 UNL     1      -7.595 -36.154  21.931  1.00  0.00     0.133 A 
HETATM   30  N5  UNL     1      -8.185 -35.990  23.139  1.00  0.00    -0.337 N 
HETATM   31  C12 UNL     1      -9.292 -36.686  23.422  1.00  0.00     0.108 A 
ATOM     32  H5  UNL     1      -7.791 -35.345  23.824  1.00  0.00     0.167 HD
HETATM   33  C13 UNL     1      -9.954 -36.574  24.635  1.00  0.00     0.130 A 
HETATM   34  C16 UNL     1      -9.828 -37.561  22.497  1.00  0.00     0.111 A 
HETATM   35  N7  UNL     1     -11.078 -37.287  24.909  1.00  0.00    -0.323 N 
HETATM   36  C14 UNL     1     -11.573 -38.127  23.993  1.00  0.00     0.174 A 
ATOM     37  H7  UNL     1     -11.543 -37.182  25.810  1.00  0.00     0.169 HD
HETATM   38  N9  UNL     1     -10.942 -38.252  22.801  1.00  0.00    -0.333 N 
ATOM     39  H9  UNL     1     -11.325 -38.894  22.107  1.00  0.00     0.168 HD
HETATM   40  C17 UNL     1      -9.235 -37.735  21.267  1.00  0.00     0.156 A 
HETATM   41  N11 UNL     1      -8.108 -37.001  21.031  1.00  0.00    -0.325 N 
ATOM     42  H11 UNL     1      -7.639 -37.102  20.132  1.00  0.00     0.169 HD
BRANCH  33  43
HETATM   43  N6  UNL     1      -9.522 -35.786  25.542  1.00  0.00    -0.384 N 
ATOM     44  H62 UNL     1      -9.532 -34.787  25.338  1.00  0.00     0.157 HD
ATOM     45  H61 UNL     1      -9.180 -36.154  26.430  1.00  0.00     0.157 HD
ENDBRANCH  33  43
BRANCH  36  46
HETATM   46  C15 UNL     1     -12.781 -38.912  24.251  1.00  0.00     0.298 C 
HETATM   47  N8  UNL     1     -14.033 -38.469  23.774  1.00  0.00    -0.054 NA
HETATM   48  O4  UNL     1     -12.716 -39.975  24.891  1.00  0.00    -0.268 OA
ENDBRANCH  36  46
BRANCH  40  49
HETATM   49  N10 UNL     1      -9.711 -38.542  20.386  1.00  0.00    -0.251 N 
ATOM     50  H10 UNL     1      -9.725 -39.549  20.550  1.00  0.00     0.196 HD
BRANCH  49  51
HETATM   51  O5  UNL     1     -10.203 -38.007  19.215  1.00  0.00    -0.288 OA
ATOM     52  H5  UNL     1     -11.046 -38.315  18.903  1.00  0.00     0.244 HD
ENDBRANCH  49  51
ENDBRANCH  40  49
ENDBRANCH   1  29
TORSDOF 14
ENDMDL
MODEL 4
REMARK VINA RESULT: -9.174553900      2.486      4.701
REMARK  14 active torsions:
REMARK  status: ('A' for Active; 'I' for Inactive)
REMARK    1  A    between atoms: C3_5  and  C4_6 
REMARK    2  A    between atoms: C4_6  and  C5_11 
REMARK    3  A    between atoms: N2_7  and  O1_9 
REMARK    4  A    between atoms: C5_11  and  N3_12 
REMARK    5  A    between atoms: C5_11  and  C6_16 
REMARK    6  A    between atoms: C6_16  and  C8_18 
REMARK    7  A    between atoms: C8_18  and  C9_19 
REMARK       I    between atoms: C9_19  and  N4_21 
REMARK    8  A    between atoms: N4_21  and  C10_23 
REMARK    9  A    between atoms: C10_23  and  O3_24 
REMARK   10  A    between atoms: C10_23  and  C11_26 
REMARK   11  A    between atoms: C13_30  and  N6_31 
REMARK   12  A    between atoms: C14_36  and  C15_37 
REMARK   13  A    between atoms: C17_43  and  N10_44 
REMARK   14  A    between atoms: N10_44  and  O5_46 
ROOT
HETATM    1  C10 UNL     1      -1.570 -36.810  19.726  1.00  0.00     0.289 C 
ENDROOT
BRANCH   1   2
HETATM    2  N4  UNL     1      -0.827 -36.943  20.973  1.00  0.00    -0.329 N 
HETATM    3  C9  UNL     1       0.583 -37.149  20.967  1.00  0.00     0.220 C 
HETATM    4  O2  UNL     1       1.228 -37.222  19.879  1.00  0.00    -0.274 OA
ATOM      5  H4  UNL     1      -1.323 -36.889  21.862  1.00  0.00     0.165 HD
BRANCH   3   6
HETATM    6  C8  UNL     1       1.303 -37.279  22.236  1.00  0.00     0.109 C 
BRANCH   6   7
HETATM    7  C6  UNL     1       1.087 -36.062  23.096  1.00  0.00     0.027 C 
HETATM    8  C7  UNL     1       0.895 -36.508  24.525  1.00  0.00     0.013 C 
BRANCH   7   9
HETATM    9  C5  UNL     1       2.314 -35.175  22.959  1.00  0.00     0.242 C 
BRANCH   9  10
HETATM   10  C4  UNL     1       1.972 -33.882  22.340  1.00  0.00     0.108 C 
HETATM   11  N2  UNL     1       2.280 -32.790  22.921  1.00  0.00    -0.268 N 
ATOM     12  H2  UNL     1       2.771 -32.814  23.815  1.00  0.00     0.194 HD
BRANCH  10  13
HETATM   13  C3  UNL     1       1.275 -33.845  21.071  1.00  0.00     0.154 A 
HETATM   14  N1  UNL     1       1.776 -34.173  19.856  1.00  0.00    -0.322 N 
HETATM   15  C2  UNL     1       0.834 -34.012  18.914  1.00  0.00     0.144 A 
ATOM     16  H1  UNL     1       2.729 -34.493  19.682  1.00  0.00     0.169 HD
HETATM   17  C1  UNL     1       1.007 -34.274  17.448  1.00  0.00     0.100 C 
HETATM   18  O6  UNL     1      -0.236 -33.590  19.547  1.00  0.00    -0.223 OA
HETATM   19  N12 UNL     1      -0.005 -33.483  20.816  1.00  0.00    -0.241 N 
ATOM     20  H12 UNL     1      -0.680 -33.174  21.515  1.00  0.00     0.196 HD
ENDBRANCH  10  13
BRANCH  11  21
HETATM   21  O1  UNL     1       1.957 -31.582  22.356  1.00  0.00    -0.290 OA
ATOM     22  H1  UNL     1       2.563 -30.850  22.398  1.00  0.00     0.244 HD
ENDBRANCH  11  21
ENDBRANCH   9  10
BRANCH   9  23
HETATM   23  N3  UNL     1       3.315 -35.805  22.126  1.00  0.00    -0.069 N 
ATOM     24  H33 UNL     1       3.426 -36.800  22.320  1.00  0.00     0.275 HD
ATOM     25  H32 UNL     1       3.024 -35.891  21.152  1.00  0.00     0.275 HD
ATOM     26  H31 UNL     1       4.182 -35.278  22.237  1.00  0.00     0.275 HD
ENDBRANCH   9  23
ENDBRANCH   7   9
ENDBRANCH   6   7
ENDBRANCH   3   6
ENDBRANCH   1   2
BRANCH   1  27
HETATM   27  O3  UNL     1      -1.343 -37.927  18.957  1.00  0.00    -0.369 OA
ATOM     28  H3  UNL     1      -0.602 -37.758  18.388  1.00  0.00     0.212 HD
ENDBRANCH   1  27
BRANCH   1  29
HETATM   29  C11 UNL     1      -3.012 -36.705  20.081  1.00  0.00     0.133 A 
HETATM   30  N5  UNL     1      -3.842 -37.760  19.907  1.00  0.00    -0.337 N 
HETATM   31  C12 UNL     1      -5.132 -37.635  20.238  1.00  0.00     0.108 A 
ATOM     32  H5  UNL     1      -3.489 -38.639  19.529  1.00  0.00     0.167 HD
HETATM   33  C13 UNL     1      -6.045 -38.669  20.090  1.00  0.00     0.130 A 
HETATM   34  C16 UNL     1      -5.614 -36.446  20.749  1.00  0.00     0.111 A 
HETATM   35  N7  UNL     1      -7.353 -38.528  20.430  1.00  0.00    -0.323 N 
HETATM   36  C14 UNL     1      -7.790 -37.363  20.923  1.00  0.00     0.174 A 
ATOM     37  H7  UNL     1      -7.999 -39.307  20.310  1.00  0.00     0.169 HD
HETATM   38  N9  UNL     1      -6.916 -36.340  21.075  1.00  0.00    -0.333 N 
ATOM     39  H9  UNL     1      -7.256 -35.455  21.452  1.00  0.00     0.168 HD
HETATM   40  C17 UNL     1      -4.780 -35.367  20.930  1.00  0.00     0.156 A 
HETATM   41  N11 UNL     1      -3.473 -35.549  20.576  1.00  0.00    -0.325 N 
ATOM     42  H11 UNL     1      -2.822 -34.773  20.693  1.00  0.00     0.169 HD
BRANCH  33  43
HETATM   43  N6  UNL     1      -5.676 -39.799  19.625  1.00  0.00    -0.384 N 
ATOM     44  H62 UNL     1      -4.988 -39.795  18.872  1.00  0.00     0.157 HD
ATOM     45  H61 UNL     1      -6.065 -40.666  19.998  1.00  0.00     0.157 HD
ENDBRANCH  33  43
BRANCH  36  46
HETATM   46  C15 UNL     1      -9.191 -37.172  21.299  1.00  0.00     0.298 C 
HETATM   47  N8  UNL     1      -9.883 -38.183  22.002  1.00  0.00    -0.054 NA
HETATM   48  O4  UNL     1      -9.785 -36.122  21.007  1.00  0.00    -0.268 OA
ENDBRANCH  36  46
BRANCH  40  49
HETATM   49  N10 UNL     1      -5.200 -34.248  21.403  1.00  0.00    -0.251 N 
ATOM     50  H10 UNL     1      -4.918 -33.931  22.331  1.00  0.00     0.196 HD
BRANCH  49  51
HETATM   51  O5  UNL     1      -6.044 -33.488  20.621  1.00  0.00    -0.288 OA
ATOM     52  H5  UNL     1      -5.660 -32.808  20.081  1.00  0.00     0.244 HD
ENDBRANCH  49  51
ENDBRANCH  40  49
ENDBRANCH   1  29
TORSDOF 14
ENDMDL
MODEL 5
REMARK VINA RESULT: -9.166023699      1.033      1.135
REMARK  14 active torsions:
REMARK  status: ('A' for Active; 'I' for Inactive)
REMARK    1  A    between atoms: C3_5  and  C4_6 
REMARK    2  A    between atoms: C4_6  and  C5_11 
REMARK    3  A    between atoms: N2_7  and  O1_9 
REMARK    4  A    between atoms: C5_11  and  N3_12 
REMARK    5  A    between atoms: C5_11  and  C6_16 
REMARK    6  A    between atoms: C6_16  and  C8_18 
REMARK    7  A    between atoms: C8_18  and  C9_19 
REMARK       I    between atoms: C9_19  and  N4_21 
REMARK    8  A    between atoms: N4_21  and  C10_23 
REMARK    9  A    between atoms: C10_23  and  O3_24 
REMARK   10  A    between atoms: C10_23  and  C11_26 
REMARK   11  A    between atoms: C13_30  and  N6_31 
REMARK   12  A    between atoms: C14_36  and  C15_37 
REMARK   13  A    between atoms: C17_43  and  N10_44 
REMARK   14  A    between atoms: N10_44  and  O5_46 
ROOT
HETATM    1  C10 UNL     1      -6.272 -34.952  21.730  1.00  0.00     0.289 C 
ENDROOT
BRANCH   1   2
HETATM    2  N4  UNL     1      -5.186 -35.780  21.219  1.00  0.00    -0.329 N 
HETATM    3  C9  UNL     1      -3.853 -35.281  21.154  1.00  0.00     0.220 C 
HETATM    4  O2  UNL     1      -3.576 -34.105  21.538  1.00  0.00    -0.274 OA
ATOM      5  H4  UNL     1      -5.384 -36.729  20.904  1.00  0.00     0.165 HD
BRANCH   3   6
HETATM    6  C8  UNL     1      -2.783 -36.136  20.637  1.00  0.00     0.109 C 
BRANCH   6   7
HETATM    7  C6  UNL     1      -1.630 -36.189  21.604  1.00  0.00     0.027 C 
HETATM    8  C7  UNL     1      -2.045 -37.004  22.805  1.00  0.00     0.013 C 
BRANCH   7   9
HETATM    9  C5  UNL     1      -0.452 -36.830  20.889  1.00  0.00     0.242 C 
BRANCH   9  10
HETATM   10  C4  UNL     1       0.333 -35.826  20.149  1.00  0.00     0.108 C 
HETATM   11  N2  UNL     1       0.556 -35.978  18.901  1.00  0.00    -0.268 N 
ATOM     12  H2  UNL     1       0.182 -36.793  18.417  1.00  0.00     0.194 HD
BRANCH  10  13
HETATM   13  C3  UNL     1       0.864 -34.667  20.835  1.00  0.00     0.154 A 
HETATM   14  N1  UNL     1       2.017 -34.596  21.542  1.00  0.00    -0.322 N 
HETATM   15  C2  UNL     1       2.177 -33.358  22.034  1.00  0.00     0.144 A 
ATOM     16  H1  UNL     1       2.668 -35.369  21.680  1.00  0.00     0.169 HD
HETATM   17  C1  UNL     1       3.330 -32.888  22.867  1.00  0.00     0.100 C 
HETATM   18  O6  UNL     1       1.129 -32.676  21.631  1.00  0.00    -0.223 OA
HETATM   19  N12 UNL     1       0.341 -33.421  20.925  1.00  0.00    -0.241 N 
ATOM     20  H12 UNL     1      -0.536 -33.118  20.502  1.00  0.00     0.196 HD
ENDBRANCH  10  13
BRANCH  11  21
HETATM   21  O1  UNL     1       1.294 -35.053  18.207  1.00  0.00    -0.290 OA
ATOM     22  H1  UNL     1       2.232 -35.163  18.102  1.00  0.00     0.244 HD
ENDBRANCH  11  21
ENDBRANCH   9  10
BRANCH   9  23
HETATM   23  N3  UNL     1      -0.906 -37.817  19.933  1.00  0.00    -0.069 N 
ATOM     24  H33 UNL     1      -0.903 -38.766  20.309  1.00  0.00     0.275 HD
ATOM     25  H32 UNL     1      -1.905 -37.754  19.740  1.00  0.00     0.275 HD
ATOM     26  H31 UNL     1      -0.331 -37.720  19.095  1.00  0.00     0.275 HD
ENDBRANCH   9  23
ENDBRANCH   7   9
ENDBRANCH   6   7
ENDBRANCH   3   6
ENDBRANCH   1   2
BRANCH   1  27
HETATM   27  O3  UNL     1      -6.616 -34.034  20.765  1.00  0.00    -0.369 OA
ATOM     28  H3  UNL     1      -7.287 -33.461  21.117  1.00  0.00     0.212 HD
ENDBRANCH   1  27
BRANCH   1  29
HETATM   29  C11 UNL     1      -7.417 -35.857  22.021  1.00  0.00     0.133 A 
HETATM   30  N5  UNL     1      -8.055 -35.798  23.214  1.00  0.00    -0.337 N 
HETATM   31  C12 UNL     1      -9.081 -36.624  23.446  1.00  0.00     0.108 A 
ATOM     32  H5  UNL     1      -7.757 -35.133  23.927  1.00  0.00     0.167 HD
HETATM   33  C13 UNL     1      -9.784 -36.625  24.641  1.00  0.00     0.130 A 
HETATM   34  C16 UNL     1      -9.487 -37.528  22.482  1.00  0.00     0.111 A 
HETATM   35  N7  UNL     1     -10.826 -37.469  24.862  1.00  0.00    -0.323 N 
HETATM   36  C14 UNL     1     -11.195 -38.333  23.909  1.00  0.00     0.174 A 
ATOM     37  H7  UNL     1     -11.324 -37.445  25.751  1.00  0.00     0.169 HD
HETATM   38  N9  UNL     1     -10.522 -38.350  22.734  1.00  0.00    -0.333 N 
ATOM     39  H9  UNL     1     -10.810 -39.012  22.013  1.00  0.00     0.168 HD
HETATM   40  C17 UNL     1      -8.846 -37.596  21.267  1.00  0.00     0.156 A 
HETATM   41  N11 UNL     1      -7.805 -36.731  21.084  1.00  0.00    -0.325 N 
ATOM     42  H11 UNL     1      -7.303 -36.751  20.197  1.00  0.00     0.169 HD
BRANCH  33  43
HETATM   43  N6  UNL     1      -9.471 -35.819  25.580  1.00  0.00    -0.384 N 
ATOM     44  H62 UNL     1      -8.873 -35.029  25.340  1.00  0.00     0.157 HD
ATOM     45  H61 UNL     1      -9.809 -35.972  26.530  1.00  0.00     0.157 HD
ENDBRANCH  33  43
BRANCH  36  46
HETATM   46  C15 UNL     1     -12.311 -39.260  24.111  1.00  0.00     0.298 C 
HETATM   47  N8  UNL     1     -13.636 -38.839  23.871  1.00  0.00    -0.054 NA
HETATM   48  O4  UNL     1     -12.103 -40.423  24.494  1.00  0.00    -0.268 OA
ENDBRANCH  36  46
BRANCH  40  49
HETATM   49  N10 UNL     1      -9.201 -38.427  20.351  1.00  0.00    -0.251 N 
ATOM     50  H10 UNL     1      -8.723 -39.321  20.239  1.00  0.00     0.196 HD
BRANCH  49  51
HETATM   51  O5  UNL     1     -10.249 -38.074  19.528  1.00  0.00    -0.288 OA
ATOM     52  H5  UNL     1     -10.165 -38.252  18.598  1.00  0.00     0.244 HD
ENDBRANCH  49  51
ENDBRANCH  40  49
ENDBRANCH   1  29
TORSDOF 14
ENDMDL
