MODEL 1
REMARK VINA RESULT: -9.326617535      0.000      0.000
REMARK  13 active torsions:
REMARK  status: ('A' for Active; 'I' for Inactive)
REMARK    1  A    between atoms: O1_2  and  C2_3 
REMARK    2  A    between atoms: C2_3  and  C3_5 
REMARK    3  A    between atoms: C4_6  and  O3_7 
REMARK    4  A    between atoms: N1_9  and  C5_10 
REMARK    5  A    between atoms: C8_19  and  C9_20 
REMARK    6  A    between atoms: C9_20  and  O4_21 
REMARK    7  A    between atoms: C9_20  and  N6_23 
REMARK    8  A    between atoms: N6_23  and  N7_25 
REMARK    9  A    between atoms: C10_27  and  O5_28 
REMARK   10  A    between atoms: C10_27  and  N8_30 
REMARK   11  A    between atoms: N8_30  and  N9_32 
REMARK   12  A    between atoms: C12_34  and  C14_36 
REMARK   13  A    between atoms: C15_45  and  O6_46 
ROOT
HETATM    1  C9  UNL     1      -3.350 -37.503  22.403  1.00  0.00     0.287 C 
ENDROOT
BRANCH   1   2
HETATM    2  C8  UNL     1      -2.493 -36.836  21.395  1.00  0.00     0.123 A 
HETATM    3  N1  UNL     1      -2.982 -35.752  20.752  1.00  0.00    -0.121 N 
HETATM    4  C4  UNL     1      -2.207 -35.124  19.858  1.00  0.00     0.184 A 
HETATM    5  C3  UNL     1      -0.936 -35.504  19.544  1.00  0.00     0.144 A 
HETATM    6  C16 UNL     1      -0.426 -36.602  20.188  1.00  0.00     0.227 A 
HETATM    7  C15 UNL     1      -1.216 -37.280  21.130  1.00  0.00     0.145 A 
HETATM    8  O7  UNL     1       0.718 -37.024  19.971  1.00  0.00    -0.284 OA
BRANCH   3   9
HETATM    9  C5  UNL     1      -4.313 -35.326  21.058  1.00  0.00     0.694 A 
HETATM   10  N2  UNL     1      -5.460 -35.979  20.941  1.00  0.00    -0.175 N 
HETATM   11  C6  UNL     1      -6.461 -35.191  21.344  1.00  0.00     0.173 A 
ATOM     12  H2  UNL     1      -5.562 -36.934  20.598  1.00  0.00     0.185 HD
HETATM   13  N3  UNL     1      -7.869 -35.517  21.377  1.00  0.00    -0.079 NA
HETATM   14  C7  UNL     1      -5.907 -33.992  21.728  1.00  0.00     0.173 A 
HETATM   15  N4  UNL     1      -6.602 -32.862  22.225  1.00  0.00    -0.079 NA
HETATM   16  N5  UNL     1      -4.586 -34.101  21.542  1.00  0.00    -0.175 N 
ATOM     17  H5  UNL     1      -3.898 -33.373  21.736  1.00  0.00     0.185 HD
ENDBRANCH   3   9
BRANCH   4  18
HETATM   18  O3  UNL     1      -2.758 -34.015  19.225  1.00  0.00    -0.344 OA
ATOM     19  H3  UNL     1      -3.703 -33.937  19.166  1.00  0.00     0.219 HD
ENDBRANCH   4  18
BRANCH   5  20
HETATM   20  C2  UNL     1      -0.136 -34.761  18.546  1.00  0.00     0.301 C 
HETATM   21  O2  UNL     1       0.046 -35.244  17.400  1.00  0.00    -0.259 OA
BRANCH  20  22
HETATM   22  O1  UNL     1       0.424 -33.539  18.834  1.00  0.00    -0.322 OA
HETATM   23  C1  UNL     1       0.981 -33.217  20.094  1.00  0.00     0.213 C 
ENDBRANCH  20  22
ENDBRANCH   5  20
BRANCH   7  24
HETATM   24  O6  UNL     1      -0.649 -38.379  21.743  1.00  0.00    -0.355 OA
ATOM     25  H6  UNL     1       0.208 -38.367  22.153  1.00  0.00     0.218 HD
ENDBRANCH   7  24
ENDBRANCH   1   2
BRANCH   1  26
HETATM   26  O4  UNL     1      -2.884 -37.427  23.698  1.00  0.00    -0.370 OA
ATOM     27  H4  UNL     1      -3.080 -38.184  24.236  1.00  0.00     0.212 HD
ENDBRANCH   1  26
BRANCH   1  28
HETATM   28  N6  UNL     1      -3.513 -38.922  22.068  1.00  0.00    -0.299 N 
ATOM     29  H6  UNL     1      -2.721 -39.564  22.072  1.00  0.00     0.183 HD
BRANCH  28  30
HETATM   30  N7  UNL     1      -4.795 -39.353  21.742  1.00  0.00    -0.266 N 
HETATM   31  C10 UNL     1      -5.113 -39.573  20.525  1.00  0.00     0.253 C 
ATOM     32  H7  UNL     1      -5.484 -39.495  22.481  1.00  0.00     0.190 HD
BRANCH  31  33
HETATM   33  O5  UNL     1      -4.173 -39.378  19.536  1.00  0.00    -0.330 OA
ATOM     34  H5  UNL     1      -4.324 -39.743  18.672  1.00  0.00     0.221 HD
ENDBRANCH  31  33
BRANCH  31  35
HETATM   35  N8  UNL     1      -6.404 -40.007  20.193  1.00  0.00    -0.260 N 
HETATM   36  C11 UNL     1      -7.509 -39.808  21.145  1.00  0.00     0.181 C 
BRANCH  35  37
HETATM   37  N9  UNL     1      -6.722 -40.633  18.995  1.00  0.00    -0.297 N 
HETATM   38  C12 UNL     1      -6.600 -41.909  18.841  1.00  0.00     0.069 C 
HETATM   39  C13 UNL     1      -6.101 -42.697  19.996  1.00  0.00     0.074 C 
ATOM     40  H9  UNL     1      -7.063 -40.070  18.216  1.00  0.00     0.187 HD
BRANCH  38  41
HETATM   41  C14 UNL     1      -6.932 -42.567  17.581  1.00  0.00     0.161 A 
HETATM   42  N10 UNL     1      -7.988 -43.332  17.275  1.00  0.00    -0.267 N 
HETATM   43  N11 UNL     1      -7.862 -43.711  15.996  1.00  0.00    -0.227 N 
ATOM     44  H10 UNL     1      -8.752 -43.581  17.904  1.00  0.00     0.190 HD
HETATM   45  N12 UNL     1      -6.755 -43.200  15.505  1.00  0.00    -0.227 N 
ATOM     46  H11 UNL     1      -8.518 -44.302  15.486  1.00  0.00     0.210 HD
HETATM   47  N13 UNL     1      -6.182 -42.499  16.471  1.00  0.00    -0.267 N 
ATOM     48  H12 UNL     1      -6.403 -43.320  14.555  1.00  0.00     0.210 HD
ATOM     49  H13 UNL     1      -5.305 -41.985  16.384  1.00  0.00     0.190 HD
ENDBRANCH  38  41
ENDBRANCH  35  37
ENDBRANCH  31  35
ENDBRANCH  28  30
ENDBRANCH   1  28
TORSDOF 13
ENDMDL
MODEL 2
REMARK VINA RESULT: -9.143105520      0.869      1.050
REMARK  13 active torsions:
REMARK  status: ('A' for Active; 'I' for Inactive)
REMARK    1  A    between atoms: O1_2  and  C2_3 
REMARK    2  A    between atoms: C2_3  and  C3_5 
REMARK    3  A    between atoms: C4_6  and  O3_7 
REMARK    4  A    between atoms: N1_9  and  C5_10 
REMARK    5  A    between atoms: C8_19  and  C9_20 
REMARK    6  A    between atoms: C9_20  and  O4_21 
REMARK    7  A    between atoms: C9_20  and  N6_23 
REMARK    8  A    between atoms: N6_23  and  N7_25 
REMARK    9  A    between atoms: C10_27  and  O5_28 
REMARK   10  A    between atoms: C10_27  and  N8_30 
REMARK   11  A    between atoms: N8_30  and  N9_32 
REMARK   12  A    between atoms: C12_34  and  C14_36 
REMARK   13  A    between atoms: C15_45  and  O6_46 
ROOT
HETATM    1  C9  UNL     1      -3.140 -38.076  22.237  1.00  0.00     0.287 C 
ENDROOT
BRANCH   1   2
HETATM    2  C8  UNL     1      -2.327 -37.230  21.331  1.00  0.00     0.123 A 
HETATM    3  N1  UNL     1      -2.940 -36.218  20.676  1.00  0.00    -0.121 N 
HETATM    4  C4  UNL     1      -2.211 -35.430  19.875  1.00  0.00     0.184 A 
HETATM    5  C3  UNL     1      -0.872 -35.576  19.667  1.00  0.00     0.144 A 
HETATM    6  C16 UNL     1      -0.236 -36.599  20.323  1.00  0.00     0.227 A 
HETATM    7  C15 UNL     1      -0.975 -37.441  21.170  1.00  0.00     0.145 A 
HETATM    8  O7  UNL     1       0.977 -36.812  20.199  1.00  0.00    -0.284 OA
BRANCH   3   9
HETATM    9  C5  UNL     1      -4.345 -36.036  20.872  1.00  0.00     0.694 A 
HETATM   10  N2  UNL     1      -5.360 -36.783  20.466  1.00  0.00    -0.175 N 
HETATM   11  C6  UNL     1      -6.507 -36.232  20.875  1.00  0.00     0.173 A 
ATOM     12  H2  UNL     1      -5.279 -37.645  19.926  1.00  0.00     0.185 HD
HETATM   13  N3  UNL     1      -7.845 -36.727  20.643  1.00  0.00    -0.079 NA
HETATM   14  C7  UNL     1      -6.186 -35.088  21.567  1.00  0.00     0.173 A 
HETATM   15  N4  UNL     1      -7.093 -34.189  22.179  1.00  0.00    -0.079 NA
HETATM   16  N5  UNL     1      -4.850 -34.990  21.551  1.00  0.00    -0.175 N 
ATOM     17  H5  UNL     1      -4.305 -34.244  21.982  1.00  0.00     0.185 HD
ENDBRANCH   3   9
BRANCH   4  18
HETATM   18  O3  UNL     1      -2.888 -34.403  19.225  1.00  0.00    -0.344 OA
ATOM     19  H3  UNL     1      -3.257 -34.564  18.364  1.00  0.00     0.219 HD
ENDBRANCH   4  18
BRANCH   5  20
HETATM   20  C2  UNL     1      -0.130 -34.666  18.767  1.00  0.00     0.301 C 
HETATM   21  O2  UNL     1       0.193 -35.047  17.613  1.00  0.00    -0.259 OA
BRANCH  20  22
HETATM   22  O1  UNL     1       0.224 -33.396  19.155  1.00  0.00    -0.322 OA
HETATM   23  C1  UNL     1       1.054 -33.127  20.269  1.00  0.00     0.213 C 
ENDBRANCH  20  22
ENDBRANCH   5  20
BRANCH   7  24
HETATM   24  O6  UNL     1      -0.282 -38.454  21.801  1.00  0.00    -0.355 OA
ATOM     25  H6  UNL     1       0.566 -38.333  22.211  1.00  0.00     0.218 HD
ENDBRANCH   7  24
ENDBRANCH   1   2
BRANCH   1  26
HETATM   26  O4  UNL     1      -2.751 -38.042  23.559  1.00  0.00    -0.370 OA
ATOM     27  H4  UNL     1      -3.413 -37.721  24.160  1.00  0.00     0.212 HD
ENDBRANCH   1  26
BRANCH   1  28
HETATM   28  N6  UNL     1      -3.101 -39.474  21.793  1.00  0.00    -0.299 N 
ATOM     29  H6  UNL     1      -2.228 -40.001  21.771  1.00  0.00     0.183 HD
BRANCH  28  30
HETATM   30  N7  UNL     1      -4.306 -40.048  21.404  1.00  0.00    -0.266 N 
HETATM   31  C10 UNL     1      -4.660 -40.039  20.177  1.00  0.00     0.253 C 
ATOM     32  H7  UNL     1      -4.911 -40.480  22.102  1.00  0.00     0.190 HD
BRANCH  31  33
HETATM   33  O5  UNL     1      -3.834 -39.452  19.241  1.00  0.00    -0.330 OA
ATOM     34  H5  UNL     1      -2.963 -39.805  19.102  1.00  0.00     0.221 HD
ENDBRANCH  31  33
BRANCH  31  35
HETATM   35  N8  UNL     1      -5.873 -40.616  19.779  1.00  0.00    -0.260 N 
HETATM   36  C11 UNL     1      -7.007 -40.651  20.718  1.00  0.00     0.181 C 
BRANCH  35  37
HETATM   37  N9  UNL     1      -6.088 -41.177  18.528  1.00  0.00    -0.297 N 
HETATM   38  C12 UNL     1      -5.578 -42.315  18.196  1.00  0.00     0.069 C 
HETATM   39  C13 UNL     1      -4.744 -43.016  19.205  1.00  0.00     0.074 C 
ATOM     40  H9  UNL     1      -6.664 -40.676  17.851  1.00  0.00     0.187 HD
BRANCH  38  41
HETATM   41  C14 UNL     1      -5.801 -42.904  16.878  1.00  0.00     0.161 A 
HETATM   42  N10 UNL     1      -4.999 -43.696  16.156  1.00  0.00    -0.267 N 
HETATM   43  N11 UNL     1      -5.633 -43.984  15.010  1.00  0.00    -0.227 N 
ATOM     44  H10 UNL     1      -4.072 -44.022  16.429  1.00  0.00     0.190 HD
HETATM   45  N12 UNL     1      -6.805 -43.389  15.008  1.00  0.00    -0.227 N 
ATOM     46  H11 UNL     1      -5.265 -44.570  14.261  1.00  0.00     0.210 HD
HETATM   47  N13 UNL     1      -6.913 -42.726  16.149  1.00  0.00    -0.267 N 
ATOM     48  H12 UNL     1      -7.502 -43.431  14.265  1.00  0.00     0.210 HD
ATOM     49  H13 UNL     1      -7.718 -42.167  16.430  1.00  0.00     0.190 HD
ENDBRANCH  38  41
ENDBRANCH  35  37
ENDBRANCH  31  35
ENDBRANCH  28  30
ENDBRANCH   1  28
TORSDOF 13
ENDMDL
MODEL 3
REMARK VINA RESULT: -9.128195988      2.445      3.796
REMARK  13 active torsions:
REMARK  status: ('A' for Active; 'I' for Inactive)
REMARK    1  A    between atoms: O1_2  and  C2_3 
REMARK    2  A    between atoms: C2_3  and  C3_5 
REMARK    3  A    between atoms: C4_6  and  O3_7 
REMARK    4  A    between atoms: N1_9  and  C5_10 
REMARK    5  A    between atoms: C8_19  and  C9_20 
REMARK    6  A    between atoms: C9_20  and  O4_21 
REMARK    7  A    between atoms: C9_20  and  N6_23 
REMARK    8  A    between atoms: N6_23  and  N7_25 
REMARK    9  A    between atoms: C10_27  and  O5_28 
REMARK   10  A    between atoms: C10_27  and  N8_30 
REMARK   11  A    between atoms: N8_30  and  N9_32 
REMARK   12  A    between atoms: C12_34  and  C14_36 
REMARK   13  A    between atoms: C15_45  and  O6_46 
ROOT
HETATM    1  C9  UNL     1      -2.373 -36.679  20.708  1.00  0.00     0.287 C 
ENDROOT
BRANCH   1   2
HETATM    2  C8  UNL     1      -1.302 -35.657  20.631  1.00  0.00     0.123 A 
HETATM    3  N1  UNL     1      -0.744 -35.224  21.784  1.00  0.00    -0.121 N 
HETATM    4  C4  UNL     1       0.244 -34.321  21.727  1.00  0.00     0.184 A 
HETATM    5  C3  UNL     1       0.736 -33.796  20.570  1.00  0.00     0.144 A 
HETATM    6  C16 UNL     1       0.180 -34.224  19.392  1.00  0.00     0.227 A 
HETATM    7  C15 UNL     1      -0.857 -35.170  19.421  1.00  0.00     0.145 A 
HETATM    8  O7  UNL     1       0.560 -33.806  18.290  1.00  0.00    -0.284 OA
BRANCH   3   9
HETATM    9  C5  UNL     1      -1.237 -35.755  23.017  1.00  0.00     0.694 A 
HETATM   10  N2  UNL     1      -2.454 -35.697  23.538  1.00  0.00    -0.175 N 
HETATM   11  C6  UNL     1      -2.463 -36.331  24.715  1.00  0.00     0.173 A 
ATOM     12  H2  UNL     1      -3.258 -35.240  23.108  1.00  0.00     0.185 HD
HETATM   13  N3  UNL     1      -3.587 -36.499  25.607  1.00  0.00    -0.079 NA
HETATM   14  C7  UNL     1      -1.190 -36.803  24.933  1.00  0.00     0.173 A 
HETATM   15  N4  UNL     1      -0.744 -37.538  26.058  1.00  0.00    -0.079 NA
HETATM   16  N5  UNL     1      -0.456 -36.436  23.875  1.00  0.00    -0.175 N 
ATOM     17  H5  UNL     1       0.535 -36.639  23.741  1.00  0.00     0.185 HD
ENDBRANCH   3   9
BRANCH   4  18
HETATM   18  O3  UNL     1       0.784 -33.909  22.941  1.00  0.00    -0.344 OA
ATOM     19  H3  UNL     1       0.765 -34.504  23.681  1.00  0.00     0.219 HD
ENDBRANCH   4  18
BRANCH   5  20
HETATM   20  C2  UNL     1       1.832 -32.800  20.582  1.00  0.00     0.301 C 
HETATM   21  O2  UNL     1       2.921 -33.057  20.011  1.00  0.00    -0.259 OA
BRANCH  20  22
HETATM   22  O1  UNL     1       1.695 -31.585  21.208  1.00  0.00    -0.322 OA
HETATM   23  C1  UNL     1       2.744 -30.950  21.913  1.00  0.00     0.213 C 
ENDBRANCH  20  22
ENDBRANCH   5  20
BRANCH   7  24
HETATM   24  O6  UNL     1      -1.379 -35.561  18.205  1.00  0.00    -0.355 OA
ATOM     25  H6  UNL     1      -0.845 -35.825  17.465  1.00  0.00     0.218 HD
ENDBRANCH   7  24
ENDBRANCH   1   2
BRANCH   1  26
HETATM   26  O4  UNL     1      -2.120 -37.832  19.997  1.00  0.00    -0.370 OA
ATOM     27  H4  UNL     1      -2.432 -37.823  19.100  1.00  0.00     0.212 HD
ENDBRANCH   1  26
BRANCH   1  28
HETATM   28  N6  UNL     1      -3.639 -36.120  20.221  1.00  0.00    -0.299 N 
ATOM     29  H6  UNL     1      -3.744 -35.123  20.032  1.00  0.00     0.183 HD
BRANCH  28  30
HETATM   30  N7  UNL     1      -4.692 -37.008  20.030  1.00  0.00    -0.266 N 
HETATM   31  C10 UNL     1      -5.872 -36.704  20.412  1.00  0.00     0.253 C 
ATOM     32  H7  UNL     1      -4.521 -37.909  19.583  1.00  0.00     0.190 HD
BRANCH  31  33
HETATM   33  O5  UNL     1      -6.092 -35.483  21.016  1.00  0.00    -0.330 OA
ATOM     34  H5  UNL     1      -6.511 -34.789  20.522  1.00  0.00     0.221 HD
ENDBRANCH  31  33
BRANCH  31  35
HETATM   35  N8  UNL     1      -6.936 -37.596  20.222  1.00  0.00    -0.260 N 
HETATM   36  C11 UNL     1      -8.146 -37.477  21.053  1.00  0.00     0.181 C 
BRANCH  35  37
HETATM   37  N9  UNL     1      -6.928 -38.617  19.281  1.00  0.00    -0.297 N 
HETATM   38  C12 UNL     1      -6.573 -39.820  19.585  1.00  0.00     0.069 C 
HETATM   39  C13 UNL     1      -6.168 -40.083  20.989  1.00  0.00     0.074 C 
ATOM     40  H9  UNL     1      -7.211 -38.411  18.323  1.00  0.00     0.187 HD
BRANCH  38  41
HETATM   41  C14 UNL     1      -6.562 -40.893  18.594  1.00  0.00     0.161 A 
HETATM   42  N10 UNL     1      -5.821 -41.017  17.487  1.00  0.00    -0.267 N 
HETATM   43  N11 UNL     1      -6.161 -42.170  16.894  1.00  0.00    -0.227 N 
ATOM     44  H10 UNL     1      -5.122 -40.353  17.153  1.00  0.00     0.190 HD
HETATM   45  N12 UNL     1      -7.093 -42.760  17.609  1.00  0.00    -0.227 N 
ATOM     46  H11 UNL     1      -5.761 -42.531  16.029  1.00  0.00     0.210 HD
HETATM   47  N13 UNL     1      -7.342 -41.982  18.650  1.00  0.00    -0.267 N 
ATOM     48  H12 UNL     1      -7.541 -43.652  17.400  1.00  0.00     0.210 HD
ATOM     49  H13 UNL     1      -8.023 -42.181  19.384  1.00  0.00     0.190 HD
ENDBRANCH  38  41
ENDBRANCH  35  37
ENDBRANCH  31  35
ENDBRANCH  28  30
ENDBRANCH   1  28
TORSDOF 13
ENDMDL
MODEL 4
REMARK VINA RESULT: -9.119854284      4.057      8.089
REMARK  13 active torsions:
REMARK  status: ('A' for Active; 'I' for Inactive)
REMARK    1  A    between atoms: O1_2  and  C2_3 
REMARK    2  A    between atoms: C2_3  and  C3_5 
REMARK    3  A    between atoms: C4_6  and  O3_7 
REMARK    4  A    between atoms: N1_9  and  C5_10 
REMARK    5  A    between atoms: C8_19  and  C9_20 
REMARK    6  A    between atoms: C9_20  and  O4_21 
REMARK    7  A    between atoms: C9_20  and  N6_23 
REMARK    8  A    between atoms: N6_23  and  N7_25 
REMARK    9  A    between atoms: C10_27  and  O5_28 
REMARK   10  A    between atoms: C10_27  and  N8_30 
REMARK   11  A    between atoms: N8_30  and  N9_32 
REMARK   12  A    between atoms: C12_34  and  C14_36 
REMARK   13  A    between atoms: C15_45  and  O6_46 
ROOT
HETATM    1  C9  UNL     1      -3.578 -37.912  20.481  1.00  0.00     0.287 C 
ENDROOT
BRANCH   1   2
HETATM    2  C8  UNL     1      -4.966 -37.491  20.784  1.00  0.00     0.123 A 
HETATM    3  N1  UNL     1      -5.220 -36.170  20.927  1.00  0.00    -0.121 N 
HETATM    4  C4  UNL     1      -6.476 -35.775  21.175  1.00  0.00     0.184 A 
HETATM    5  C3  UNL     1      -7.536 -36.623  21.295  1.00  0.00     0.144 A 
HETATM    6  C16 UNL     1      -7.295 -37.965  21.154  1.00  0.00     0.227 A 
HETATM    7  C15 UNL     1      -5.988 -38.408  20.894  1.00  0.00     0.145 A 
HETATM    8  O7  UNL     1      -8.193 -38.812  21.246  1.00  0.00    -0.284 OA
BRANCH   3   9
HETATM    9  C5  UNL     1      -4.129 -35.253  20.806  1.00  0.00     0.694 A 
HETATM   10  N2  UNL     1      -3.249 -35.109  19.827  1.00  0.00    -0.175 N 
HETATM   11  C6  UNL     1      -2.399 -34.124  20.137  1.00  0.00     0.173 A 
ATOM     12  H2  UNL     1      -3.223 -35.662  18.970  1.00  0.00     0.185 HD
HETATM   13  N3  UNL     1      -1.290 -33.646  19.343  1.00  0.00    -0.079 NA
HETATM   14  C7  UNL     1      -2.772 -33.637  21.368  1.00  0.00     0.173 A 
HETATM   15  N4  UNL     1      -2.150 -32.585  22.082  1.00  0.00    -0.079 NA
HETATM   16  N5  UNL     1      -3.838 -34.348  21.757  1.00  0.00    -0.175 N 
ATOM     17  H5  UNL     1      -4.346 -34.223  22.633  1.00  0.00     0.185 HD
ENDBRANCH   3   9
BRANCH   4  18
HETATM   18  O3  UNL     1      -6.683 -34.407  21.312  1.00  0.00    -0.344 OA
ATOM     19  H3  UNL     1      -6.508 -33.994  22.150  1.00  0.00     0.219 HD
ENDBRANCH   4  18
BRANCH   5  20
HETATM   20  C2  UNL     1      -8.899 -36.114  21.568  1.00  0.00     0.301 C 
HETATM   21  O2  UNL     1      -9.528 -35.491  20.676  1.00  0.00    -0.259 OA
BRANCH  20  22
HETATM   22  O1  UNL     1      -9.510 -36.303  22.784  1.00  0.00    -0.322 OA
HETATM   23  C1  UNL     1      -8.864 -36.076  24.023  1.00  0.00     0.213 C 
ENDBRANCH  20  22
ENDBRANCH   5  20
BRANCH   7  24
HETATM   24  O6  UNL     1      -5.807 -39.770  20.764  1.00  0.00    -0.355 OA
ATOM     25  H6  UNL     1      -6.003 -40.252  19.970  1.00  0.00     0.218 HD
ENDBRANCH   7  24
ENDBRANCH   1   2
BRANCH   1  26
HETATM   26  O4  UNL     1      -3.467 -38.864  19.491  1.00  0.00    -0.370 OA
ATOM     27  H4  UNL     1      -2.651 -38.840  19.006  1.00  0.00     0.212 HD
ENDBRANCH   1  26
BRANCH   1  28
HETATM   28  N6  UNL     1      -2.936 -38.444  21.689  1.00  0.00    -0.299 N 
ATOM     29  H6  UNL     1      -3.250 -39.314  22.119  1.00  0.00     0.183 HD
BRANCH  28  30
HETATM   30  N7  UNL     1      -1.883 -37.710  22.223  1.00  0.00    -0.266 N 
HETATM   31  C10 UNL     1      -2.069 -36.955  23.236  1.00  0.00     0.253 C 
ATOM     32  H7  UNL     1      -0.956 -37.775  21.803  1.00  0.00     0.190 HD
BRANCH  31  33
HETATM   33  O5  UNL     1      -3.327 -36.876  23.796  1.00  0.00    -0.330 OA
ATOM     34  H5  UNL     1      -3.425 -36.978  24.735  1.00  0.00     0.221 HD
ENDBRANCH  31  33
BRANCH  31  35
HETATM   35  N8  UNL     1      -1.011 -36.213  23.777  1.00  0.00    -0.260 N 
HETATM   36  C11 UNL     1      -0.499 -36.543  25.118  1.00  0.00     0.181 C 
BRANCH  35  37
HETATM   37  N9  UNL     1      -0.395 -35.156  23.121  1.00  0.00    -0.297 N 
HETATM   38  C12 UNL     1       0.760 -35.284  22.560  1.00  0.00     0.069 C 
HETATM   39  C13 UNL     1       1.420 -36.611  22.639  1.00  0.00     0.074 C 
ATOM     40  H9  UNL     1      -0.868 -34.254  23.081  1.00  0.00     0.187 HD
BRANCH  38  41
HETATM   41  C14 UNL     1       1.409 -34.171  21.873  1.00  0.00     0.161 A 
HETATM   42  N10 UNL     1       0.973 -32.919  21.684  1.00  0.00    -0.267 N 
HETATM   43  N11 UNL     1       1.914 -32.257  20.997  1.00  0.00    -0.227 N 
ATOM     44  H10 UNL     1       0.083 -32.538  22.005  1.00  0.00     0.190 HD
HETATM   45  N12 UNL     1       2.920 -33.068  20.758  1.00  0.00    -0.227 N 
ATOM     46  H11 UNL     1       1.858 -31.281  20.707  1.00  0.00     0.210 HD
HETATM   47  N13 UNL     1       2.616 -34.241  21.291  1.00  0.00    -0.267 N 
ATOM     48  H12 UNL     1       3.777 -32.837  20.255  1.00  0.00     0.210 HD
ATOM     49  H13 UNL     1       3.209 -35.071  21.265  1.00  0.00     0.190 HD
ENDBRANCH  38  41
ENDBRANCH  35  37
ENDBRANCH  31  35
ENDBRANCH  28  30
ENDBRANCH   1  28
TORSDOF 13
ENDMDL
MODEL 5
REMARK VINA RESULT: -8.978210755      2.361      4.056
REMARK  13 active torsions:
REMARK  status: ('A' for Active; 'I' for Inactive)
REMARK    1  A    between atoms: O1_2  and  C2_3 
REMARK    2  A    between atoms: C2_3  and  C3_5 
REMARK    3  A    between atoms: C4_6  and  O3_7 
REMARK    4  A    between atoms: N1_9  and  C5_10 
REMARK    5  A    between atoms: C8_19  and  C9_20 
REMARK    6  A    between atoms: C9_20  and  O4_21 
REMARK    7  A    between atoms: C9_20  and  N6_23 
REMARK    8  A    between atoms: N6_23  and  N7_25 
REMARK    9  A    between atoms: C10_27  and  O5_28 
REMARK   10  A    between atoms: C10_27  and  N8_30 
REMARK   11  A    between atoms: N8_30  and  N9_32 
REMARK   12  A    between atoms: C12_34  and  C14_36 
REMARK   13  A    between atoms: C15_45  and  O6_46 
ROOT
HETATM    1  C9  UNL     1      -3.614 -37.763  22.153  1.00  0.00     0.287 C 
ENDROOT
BRANCH   1   2
HETATM    2  C8  UNL     1      -2.689 -37.036  21.251  1.00  0.00     0.123 A 
HETATM    3  N1  UNL     1      -3.112 -35.879  20.694  1.00  0.00    -0.121 N 
HETATM    4  C4  UNL     1      -2.276 -35.199  19.899  1.00  0.00     0.184 A 
HETATM    5  C3  UNL     1      -1.006 -35.596  19.604  1.00  0.00     0.144 A 
HETATM    6  C16 UNL     1      -0.562 -36.768  20.161  1.00  0.00     0.227 A 
HETATM    7  C15 UNL     1      -1.417 -37.502  20.999  1.00  0.00     0.145 A 
HETATM    8  O7  UNL     1       0.575 -37.211  19.953  1.00  0.00    -0.284 OA
BRANCH   3   9
HETATM    9  C5  UNL     1      -4.440 -35.433  20.983  1.00  0.00     0.694 A 
HETATM   10  N2  UNL     1      -5.597 -36.059  20.823  1.00  0.00    -0.175 N 
HETATM   11  C6  UNL     1      -6.591 -35.261  21.225  1.00  0.00     0.173 A 
ATOM     12  H2  UNL     1      -5.711 -37.002  20.450  1.00  0.00     0.185 HD
HETATM   13  N3  UNL     1      -8.006 -35.558  21.218  1.00  0.00    -0.079 NA
HETATM   14  C7  UNL     1      -6.022 -34.085  21.655  1.00  0.00     0.173 A 
HETATM   15  N4  UNL     1      -6.704 -32.956  22.169  1.00  0.00    -0.079 NA
HETATM   16  N5  UNL     1      -4.699 -34.217  21.496  1.00  0.00    -0.175 N 
ATOM     17  H5  UNL     1      -4.001 -33.510  21.725  1.00  0.00     0.185 HD
ENDBRANCH   3   9
BRANCH   4  18
HETATM   18  O3  UNL     1      -2.759 -34.016  19.352  1.00  0.00    -0.344 OA
ATOM     19  H3  UNL     1      -2.583 -33.822  18.438  1.00  0.00     0.219 HD
ENDBRANCH   4  18
BRANCH   5  20
HETATM   20  C2  UNL     1      -0.136 -34.793  18.716  1.00  0.00     0.301 C 
HETATM   21  O2  UNL     1       0.253 -35.268  17.620  1.00  0.00    -0.259 OA
BRANCH  20  22
HETATM   22  O1  UNL     1       0.268 -33.524  19.056  1.00  0.00    -0.322 OA
HETATM   23  C1  UNL     1       0.908 -33.213  20.279  1.00  0.00     0.213 C 
ENDBRANCH  20  22
ENDBRANCH   5  20
BRANCH   7  24
HETATM   24  O6  UNL     1      -0.917 -38.674  21.527  1.00  0.00    -0.355 OA
ATOM     25  H6  UNL     1      -0.954 -39.510  21.077  1.00  0.00     0.218 HD
ENDBRANCH   7  24
ENDBRANCH   1   2
BRANCH   1  26
HETATM   26  O4  UNL     1      -3.090 -38.070  23.390  1.00  0.00    -0.370 OA
ATOM     27  H4  UNL     1      -3.309 -38.937  23.710  1.00  0.00     0.212 HD
ENDBRANCH   1  26
BRANCH   1  28
HETATM   28  N6  UNL     1      -4.051 -39.016  21.526  1.00  0.00    -0.299 N 
ATOM     29  H6  UNL     1      -3.439 -39.539  20.900  1.00  0.00     0.183 HD
BRANCH  28  30
HETATM   30  N7  UNL     1      -5.335 -39.459  21.823  1.00  0.00    -0.266 N 
HETATM   31  C10 UNL     1      -6.279 -39.320  20.974  1.00  0.00     0.253 C 
ATOM     32  H7  UNL     1      -5.524 -39.898  22.724  1.00  0.00     0.190 HD
BRANCH  31  33
HETATM   33  O5  UNL     1      -6.012 -38.725  19.759  1.00  0.00    -0.330 OA
ATOM     34  H5  UNL     1      -6.682 -38.720  19.086  1.00  0.00     0.221 HD
ENDBRANCH  31  33
BRANCH  31  35
HETATM   35  N8  UNL     1      -7.574 -39.765  21.269  1.00  0.00    -0.260 N 
HETATM   36  C11 UNL     1      -7.874 -41.206  21.249  1.00  0.00     0.181 C 
BRANCH  35  37
HETATM   37  N9  UNL     1      -8.628 -38.917  21.585  1.00  0.00    -0.297 N 
HETATM   38  C12 UNL     1      -8.982 -38.698  22.807  1.00  0.00     0.069 C 
HETATM   39  C13 UNL     1      -8.220 -39.388  23.878  1.00  0.00     0.074 C 
ATOM     40  H9  UNL     1      -9.137 -38.455  20.831  1.00  0.00     0.187 HD
BRANCH  38  41
HETATM   41  C14 UNL     1     -10.092 -37.809  23.138  1.00  0.00     0.161 A 
HETATM   42  N10 UNL     1     -10.232 -36.500  22.898  1.00  0.00    -0.267 N 
HETATM   43  N11 UNL     1     -11.420 -36.118  23.387  1.00  0.00    -0.227 N 
ATOM     44  H10 UNL     1      -9.555 -35.900  22.426  1.00  0.00     0.190 HD
HETATM   45  N12 UNL     1     -12.017 -37.160  23.923  1.00  0.00    -0.227 N 
ATOM     46  H11 UNL     1     -11.800 -35.173  23.349  1.00  0.00     0.210 HD
HETATM   47  N13 UNL     1     -11.208 -38.197  23.774  1.00  0.00    -0.267 N 
ATOM     48  H12 UNL     1     -12.933 -37.167  24.371  1.00  0.00     0.210 HD
ATOM     49  H13 UNL     1     -11.404 -39.146  24.093  1.00  0.00     0.190 HD
ENDBRANCH  38  41
ENDBRANCH  35  37
ENDBRANCH  31  35
ENDBRANCH  28  30
ENDBRANCH   1  28
TORSDOF 13
ENDMDL
