MODEL 1
REMARK VINA RESULT: -9.178193909      0.000      0.000
REMARK  16 active torsions:
REMARK  status: ('A' for Active; 'I' for Inactive)
REMARK    1  A    between atoms: O1_2  and  C2_3 
REMARK    2  A    between atoms: N2_6  and  C3_7 
REMARK    3  A    between atoms: C3_7  and  O2_8 
REMARK    4  A    between atoms: C3_7  and  C4_10 
REMARK    5  A    between atoms: C4_10  and  C5_11 
REMARK    6  A    between atoms: C5_11  and  C6_12 
REMARK    7  A    between atoms: C6_12  and  C10_28 
REMARK    8  A    between atoms: N3_13  and  N4_15 
REMARK       I    between atoms: N4_15  and  C7_17 
REMARK       I    between atoms: C7_17  and  N5_19 
REMARK    9  A    between atoms: N5_19  and  N6_21 
REMARK       I    between atoms: N6_21  and  C8_23 
REMARK   10  A    between atoms: C8_23  and  C9_25 
REMARK   11  A    between atoms: C9_25  and  O5_26 
REMARK   12  A    between atoms: C10_28  and  O6_29 
REMARK   13  A    between atoms: C10_28  and  O7_31 
REMARK   14  A    between atoms: C12_35  and  O8_36 
REMARK   15  A    between atoms: C14_39  and  O9_40 
REMARK   16  A    between atoms: C17_46  and  O10_47 
ROOT
HETATM    1  C3  UNL     1      -2.419 -37.770  21.656  1.00  0.00     0.156 C 
ENDROOT
BRANCH   1   2
HETATM    2  N2  UNL     1      -3.531 -38.567  21.697  1.00  0.00    -0.168 N 
HETATM    3  N1  UNL     1      -3.280 -39.909  21.991  1.00  0.00    -0.254 N 
HETATM    4  C2  UNL     1      -4.381 -40.617  22.034  1.00  0.00     0.191 A 
ATOM      5  H1  UNL     1      -2.349 -40.292  22.154  1.00  0.00     0.191 HD
HETATM    6  C11 UNL     1      -5.371 -39.687  21.758  1.00  0.00     0.145 A 
HETATM    7  N7  UNL     1      -4.833 -38.464  21.562  1.00  0.00    -0.223 N 
HETATM    8  C12 UNL     1      -6.725 -39.565  21.639  1.00  0.00     0.114 A 
HETATM    9  C18 UNL     1      -5.822 -37.576  21.329  1.00  0.00     0.110 A 
HETATM   10  C13 UNL     1      -7.049 -38.256  21.371  1.00  0.00     0.066 A 
HETATM   11  C17 UNL     1      -5.874 -36.232  21.118  1.00  0.00     0.122 A 
HETATM   12  C14 UNL     1      -8.257 -37.614  21.207  1.00  0.00     0.107 A 
HETATM   13  C15 UNL     1      -8.308 -36.260  20.994  1.00  0.00     0.107 A 
HETATM   14  N8  UNL     1      -9.532 -35.565  20.822  1.00  0.00    -0.097 NA
HETATM   15  C16 UNL     1      -7.106 -35.610  20.956  1.00  0.00     0.108 A 
HETATM   16  N9  UNL     1      -7.128 -34.213  20.737  1.00  0.00    -0.097 NA
BRANCH   4  17
HETATM   17  O1  UNL     1      -4.553 -41.969  22.288  1.00  0.00    -0.338 OA
HETATM   18  C1  UNL     1      -4.773 -42.954  21.309  1.00  0.00     0.211 C 
ENDBRANCH   4  17
BRANCH  12  19
HETATM   19  O9  UNL     1      -9.409 -38.336  21.250  1.00  0.00    -0.358 OA
ATOM     20  H9  UNL     1     -10.241 -37.884  21.315  1.00  0.00     0.217 HD
ENDBRANCH  12  19
BRANCH  11  21
HETATM   21  O10 UNL     1      -4.800 -35.438  21.053  1.00  0.00    -0.357 OA
ATOM     22  H10 UNL     1      -4.427 -35.170  21.885  1.00  0.00     0.218 HD
ENDBRANCH  11  21
BRANCH   8  23
HETATM   23  O8  UNL     1      -7.640 -40.595  21.766  1.00  0.00    -0.357 OA
ATOM     24  H8  UNL     1      -7.740 -41.323  21.164  1.00  0.00     0.217 HD
ENDBRANCH   8  23
ENDBRANCH   1   2
BRANCH   1  25
HETATM   25  O2  UNL     1      -2.578 -36.735  22.523  1.00  0.00    -0.347 OA
ATOM     26  H2  UNL     1      -1.791 -36.643  23.048  1.00  0.00     0.219 HD
ENDBRANCH   1  25
BRANCH   1  27
HETATM   27  C4  UNL     1      -1.127 -37.575  21.080  1.00  0.00     0.093 C 
BRANCH  27  28
HETATM   28  C5  UNL     1      -0.450 -36.241  21.273  1.00  0.00     0.067 C 
BRANCH  28  29
HETATM   29  C6  UNL     1      -0.597 -35.362  20.107  1.00  0.00     0.058 C 
HETATM   30  N3  UNL     1       0.275 -34.430  19.803  1.00  0.00    -0.300 N 
ATOM     31  H3  UNL     1       0.110 -33.856  18.975  1.00  0.00     0.186 HD
BRANCH  30  32
HETATM   32  N4  UNL     1       1.418 -34.194  20.566  1.00  0.00    -0.250 N 
HETATM   33  C7  UNL     1       1.370 -33.195  21.568  1.00  0.00     0.353 C 
HETATM   34  O3  UNL     1       0.321 -32.523  21.776  1.00  0.00    -0.244 OA
HETATM   35  N5  UNL     1       2.499 -32.900  22.388  1.00  0.00    -0.248 N 
ATOM     36  H5  UNL     1       3.356 -33.430  22.233  1.00  0.00     0.192 HD
ATOM     37  H4  UNL     1       2.271 -34.729  20.405  1.00  0.00     0.192 HD
BRANCH  35  38
HETATM   38  N6  UNL     1       2.501 -31.929  23.390  1.00  0.00    -0.264 N 
HETATM   39  C8  UNL     1       2.946 -30.614  23.086  1.00  0.00     0.259 C 
HETATM   40  O4  UNL     1       3.328 -30.365  21.915  1.00  0.00    -0.269 OA
ATOM     41  H6  UNL     1       2.185 -32.160  24.332  1.00  0.00     0.190 HD
BRANCH  39  42
HETATM   42  C9  UNL     1       2.977 -29.528  24.083  1.00  0.00     0.268 C 
BRANCH  42  43
HETATM   43  O5  UNL     1       1.681 -29.111  24.425  1.00  0.00    -0.392 OA
ATOM     44  H5  UNL     1       1.138 -29.005  23.653  1.00  0.00     0.210 HD
ENDBRANCH  42  43
ENDBRANCH  39  42
ENDBRANCH  35  38
ENDBRANCH  30  32
BRANCH  29  45
HETATM   45  C10 UNL     1      -1.742 -35.413  19.170  1.00  0.00     0.302 C 
BRANCH  45  46
HETATM   46  O6  UNL     1      -1.366 -35.658  17.875  1.00  0.00    -0.366 OA
ATOM     47  H6  UNL     1      -2.090 -35.920  17.320  1.00  0.00     0.213 HD
ENDBRANCH  45  46
BRANCH  45  48
HETATM   48  O7  UNL     1      -2.570 -34.284  19.276  1.00  0.00    -0.366 OA
ATOM     49  H7  UNL     1      -3.347 -34.353  18.734  1.00  0.00     0.213 HD
ENDBRANCH  45  48
ENDBRANCH  29  45
ENDBRANCH  28  29
ENDBRANCH  27  28
ENDBRANCH   1  27
TORSDOF 16
ENDMDL
MODEL 2
REMARK VINA RESULT: -9.174385345      1.546      1.694
REMARK  16 active torsions:
REMARK  status: ('A' for Active; 'I' for Inactive)
REMARK    1  A    between atoms: O1_2  and  C2_3 
REMARK    2  A    between atoms: N2_6  and  C3_7 
REMARK    3  A    between atoms: C3_7  and  O2_8 
REMARK    4  A    between atoms: C3_7  and  C4_10 
REMARK    5  A    between atoms: C4_10  and  C5_11 
REMARK    6  A    between atoms: C5_11  and  C6_12 
REMARK    7  A    between atoms: C6_12  and  C10_28 
REMARK    8  A    between atoms: N3_13  and  N4_15 
REMARK       I    between atoms: N4_15  and  C7_17 
REMARK       I    between atoms: C7_17  and  N5_19 
REMARK    9  A    between atoms: N5_19  and  N6_21 
REMARK       I    between atoms: N6_21  and  C8_23 
REMARK   10  A    between atoms: C8_23  and  C9_25 
REMARK   11  A    between atoms: C9_25  and  O5_26 
REMARK   12  A    between atoms: C10_28  and  O6_29 
REMARK   13  A    between atoms: C10_28  and  O7_31 
REMARK   14  A    between atoms: C12_35  and  O8_36 
REMARK   15  A    between atoms: C14_39  and  O9_40 
REMARK   16  A    between atoms: C17_46  and  O10_47 
ROOT
HETATM    1  C3  UNL     1      -2.289 -37.105  21.505  1.00  0.00     0.156 C 
ENDROOT
BRANCH   1   2
HETATM    2  N2  UNL     1      -3.358 -37.863  21.110  1.00  0.00    -0.168 N 
HETATM    3  N1  UNL     1      -3.052 -39.189  20.796  1.00  0.00    -0.254 N 
HETATM    4  C2  UNL     1      -4.115 -39.868  20.443  1.00  0.00     0.191 A 
ATOM      5  H1  UNL     1      -2.112 -39.583  20.838  1.00  0.00     0.191 HD
HETATM    6  C11 UNL     1      -5.137 -38.936  20.538  1.00  0.00     0.145 A 
HETATM    7  N7  UNL     1      -4.654 -37.741  20.942  1.00  0.00    -0.223 N 
HETATM    8  C12 UNL     1      -6.487 -38.807  20.390  1.00  0.00     0.114 A 
HETATM    9  C18 UNL     1      -5.675 -36.867  21.057  1.00  0.00     0.110 A 
HETATM   10  C13 UNL     1      -6.865 -37.523  20.707  1.00  0.00     0.066 A 
HETATM   11  C17 UNL     1      -5.787 -35.571  21.459  1.00  0.00     0.122 A 
HETATM   12  C14 UNL     1      -8.095 -36.904  20.758  1.00  0.00     0.107 A 
HETATM   13  C15 UNL     1      -8.206 -35.599  21.163  1.00  0.00     0.107 A 
HETATM   14  N8  UNL     1      -9.454 -34.930  21.231  1.00  0.00    -0.097 NA
HETATM   15  C16 UNL     1      -7.040 -34.971  21.503  1.00  0.00     0.108 A 
HETATM   16  N9  UNL     1      -7.124 -33.624  21.924  1.00  0.00    -0.097 NA
BRANCH   4  17
HETATM   17  O1  UNL     1      -4.229 -41.196  20.060  1.00  0.00    -0.338 OA
HETATM   18  C1  UNL     1      -4.700 -41.639  18.811  1.00  0.00     0.211 C 
ENDBRANCH   4  17
BRANCH  12  19
HETATM   19  O9  UNL     1      -9.208 -37.598  20.396  1.00  0.00    -0.358 OA
ATOM     20  H9  UNL     1      -9.988 -37.543  20.935  1.00  0.00     0.217 HD
ENDBRANCH  12  19
BRANCH  11  21
HETATM   21  O10 UNL     1      -4.755 -34.805  21.829  1.00  0.00    -0.357 OA
ATOM     22  H10 UNL     1      -4.434 -34.935  22.714  1.00  0.00     0.218 HD
ENDBRANCH  11  21
BRANCH   8  23
HETATM   23  O8  UNL     1      -7.352 -39.806  19.982  1.00  0.00    -0.357 OA
ATOM     24  H8  UNL     1      -7.971 -40.263  20.540  1.00  0.00     0.217 HD
ENDBRANCH   8  23
ENDBRANCH   1   2
BRANCH   1  25
HETATM   25  O2  UNL     1      -1.228 -37.920  21.748  1.00  0.00    -0.347 OA
ATOM     26  H2  UNL     1      -0.458 -37.570  21.314  1.00  0.00     0.219 HD
ENDBRANCH   1  25
BRANCH   1  27
HETATM   27  C4  UNL     1      -1.808 -35.786  21.761  1.00  0.00     0.093 C 
BRANCH  27  28
HETATM   28  C5  UNL     1      -1.709 -34.821  20.606  1.00  0.00     0.067 C 
BRANCH  28  29
HETATM   29  C6  UNL     1      -0.440 -34.942  19.879  1.00  0.00     0.058 C 
HETATM   30  N3  UNL     1       0.618 -34.222  20.169  1.00  0.00    -0.300 N 
ATOM     31  H3  UNL     1       1.469 -34.360  19.623  1.00  0.00     0.186 HD
BRANCH  30  32
HETATM   32  N4  UNL     1       0.626 -33.277  21.195  1.00  0.00    -0.250 N 
HETATM   33  C7  UNL     1       1.766 -32.453  21.350  1.00  0.00     0.353 C 
HETATM   34  O3  UNL     1       2.764 -32.561  20.583  1.00  0.00    -0.244 OA
HETATM   35  N5  UNL     1       1.844 -31.464  22.374  1.00  0.00    -0.248 N 
ATOM     36  H5  UNL     1       1.049 -31.364  23.005  1.00  0.00     0.192 HD
ATOM     37  H4  UNL     1      -0.174 -33.182  21.821  1.00  0.00     0.192 HD
BRANCH  35  38
HETATM   38  N6  UNL     1       2.943 -30.625  22.565  1.00  0.00    -0.264 N 
HETATM   39  C8  UNL     1       3.252 -30.169  23.875  1.00  0.00     0.259 C 
HETATM   40  O4  UNL     1       2.519 -30.537  24.827  1.00  0.00    -0.269 OA
ATOM     41  H6  UNL     1       3.519 -30.342  21.772  1.00  0.00     0.190 HD
BRANCH  39  42
HETATM   42  C9  UNL     1       4.395 -29.284  24.166  1.00  0.00     0.268 C 
BRANCH  42  43
HETATM   43  O5  UNL     1       3.989 -28.145  24.880  1.00  0.00    -0.392 OA
ATOM     44  H5  UNL     1       4.077 -28.276  25.817  1.00  0.00     0.210 HD
ENDBRANCH  42  43
ENDBRANCH  39  42
ENDBRANCH  35  38
ENDBRANCH  30  32
BRANCH  29  45
HETATM   45  C10 UNL     1      -0.223 -35.859  18.738  1.00  0.00     0.302 C 
BRANCH  45  46
HETATM   46  O6  UNL     1       0.303 -37.067  19.113  1.00  0.00    -0.366 OA
ATOM     47  H6  UNL     1      -0.167 -37.470  19.835  1.00  0.00     0.213 HD
ENDBRANCH  45  46
BRANCH  45  48
HETATM   48  O7  UNL     1       0.515 -35.260  17.703  1.00  0.00    -0.366 OA
ATOM     49  H7  UNL     1       0.648 -35.847  16.969  1.00  0.00     0.213 HD
ENDBRANCH  45  48
ENDBRANCH  29  45
ENDBRANCH  28  29
ENDBRANCH  27  28
ENDBRANCH   1  27
TORSDOF 16
ENDMDL
MODEL 3
REMARK VINA RESULT: -8.764304492      2.450      3.106
REMARK  16 active torsions:
REMARK  status: ('A' for Active; 'I' for Inactive)
REMARK    1  A    between atoms: O1_2  and  C2_3 
REMARK    2  A    between atoms: N2_6  and  C3_7 
REMARK    3  A    between atoms: C3_7  and  O2_8 
REMARK    4  A    between atoms: C3_7  and  C4_10 
REMARK    5  A    between atoms: C4_10  and  C5_11 
REMARK    6  A    between atoms: C5_11  and  C6_12 
REMARK    7  A    between atoms: C6_12  and  C10_28 
REMARK    8  A    between atoms: N3_13  and  N4_15 
REMARK       I    between atoms: N4_15  and  C7_17 
REMARK       I    between atoms: C7_17  and  N5_19 
REMARK    9  A    between atoms: N5_19  and  N6_21 
REMARK       I    between atoms: N6_21  and  C8_23 
REMARK   10  A    between atoms: C8_23  and  C9_25 
REMARK   11  A    between atoms: C9_25  and  O5_26 
REMARK   12  A    between atoms: C10_28  and  O6_29 
REMARK   13  A    between atoms: C10_28  and  O7_31 
REMARK   14  A    between atoms: C12_35  and  O8_36 
REMARK   15  A    between atoms: C14_39  and  O9_40 
REMARK   16  A    between atoms: C17_46  and  O10_47 
ROOT
HETATM    1  C3  UNL     1      -3.324 -34.354  21.141  1.00  0.00     0.156 C 
ENDROOT
BRANCH   1   2
HETATM    2  N2  UNL     1      -3.572 -35.347  22.049  1.00  0.00    -0.168 N 
HETATM    3  N1  UNL     1      -2.460 -35.758  22.787  1.00  0.00    -0.254 N 
HETATM    4  C2  UNL     1      -2.762 -36.695  23.651  1.00  0.00     0.191 A 
ATOM      5  H1  UNL     1      -1.523 -35.373  22.668  1.00  0.00     0.191 HD
HETATM    6  C11 UNL     1      -4.121 -36.886  23.455  1.00  0.00     0.145 A 
HETATM    7  N7  UNL     1      -4.582 -36.061  22.489  1.00  0.00    -0.223 N 
HETATM    8  C12 UNL     1      -5.181 -37.607  23.921  1.00  0.00     0.114 A 
HETATM    9  C18 UNL     1      -5.911 -36.246  22.345  1.00  0.00     0.110 A 
HETATM   10  C13 UNL     1      -6.324 -37.235  23.252  1.00  0.00     0.066 A 
HETATM   11  C17 UNL     1      -6.881 -35.676  21.579  1.00  0.00     0.122 A 
HETATM   12  C14 UNL     1      -7.640 -37.625  23.374  1.00  0.00     0.107 A 
HETATM   13  C15 UNL     1      -8.616 -37.049  22.602  1.00  0.00     0.107 A 
HETATM   14  N8  UNL     1      -9.980 -37.422  22.701  1.00  0.00    -0.097 NA
HETATM   15  C16 UNL     1      -8.201 -36.087  21.723  1.00  0.00     0.108 A 
HETATM   16  N9  UNL     1      -9.186 -35.476  20.913  1.00  0.00    -0.097 NA
BRANCH   4  17
HETATM   17  O1  UNL     1      -1.948 -37.360  24.555  1.00  0.00    -0.338 OA
HETATM   18  C1  UNL     1      -1.506 -36.834  25.782  1.00  0.00     0.211 C 
ENDBRANCH   4  17
BRANCH  12  19
HETATM   19  O9  UNL     1      -7.968 -38.596  24.268  1.00  0.00    -0.358 OA
ATOM     20  H9  UNL     1      -8.758 -38.504  24.787  1.00  0.00     0.217 HD
ENDBRANCH  12  19
BRANCH  11  21
HETATM   21  O10 UNL     1      -6.658 -34.720  20.671  1.00  0.00    -0.357 OA
ATOM     22  H10 UNL     1      -6.332 -35.011  19.828  1.00  0.00     0.218 HD
ENDBRANCH  11  21
BRANCH   8  23
HETATM   23  O8  UNL     1      -5.127 -38.568  24.915  1.00  0.00    -0.357 OA
ATOM     24  H8  UNL     1      -5.876 -38.996  25.312  1.00  0.00     0.217 HD
ENDBRANCH   8  23
ENDBRANCH   1   2
BRANCH   1  25
HETATM   25  O2  UNL     1      -3.976 -33.224  21.523  1.00  0.00    -0.347 OA
ATOM     26  H2  UNL     1      -3.908 -32.574  20.833  1.00  0.00     0.219 HD
ENDBRANCH   1  25
BRANCH   1  27
HETATM   27  C4  UNL     1      -2.640 -33.997  19.940  1.00  0.00     0.093 C 
BRANCH  27  28
HETATM   28  C5  UNL     1      -1.189 -33.593  20.033  1.00  0.00     0.067 C 
BRANCH  28  29
HETATM   29  C6  UNL     1      -0.278 -34.737  19.909  1.00  0.00     0.058 C 
HETATM   30  N3  UNL     1       0.676 -34.984  20.774  1.00  0.00    -0.300 N 
ATOM     31  H3  UNL     1       1.273 -35.799  20.627  1.00  0.00     0.186 HD
BRANCH  30  32
HETATM   32  N4  UNL     1       0.908 -34.177  21.888  1.00  0.00    -0.250 N 
HETATM   33  C7  UNL     1       1.943 -33.215  21.825  1.00  0.00     0.353 C 
HETATM   34  O3  UNL     1       2.652 -33.079  20.789  1.00  0.00    -0.244 OA
HETATM   35  N5  UNL     1       2.235 -32.354  22.924  1.00  0.00    -0.248 N 
ATOM     36  H5  UNL     1       1.675 -32.450  23.771  1.00  0.00     0.192 HD
ATOM     37  H4  UNL     1       0.342 -34.279  22.731  1.00  0.00     0.192 HD
BRANCH  35  38
HETATM   38  N6  UNL     1       3.242 -31.387  22.910  1.00  0.00    -0.264 N 
HETATM   39  C8  UNL     1       3.323 -30.450  23.975  1.00  0.00     0.259 C 
HETATM   40  O4  UNL     1       2.479 -30.522  24.903  1.00  0.00    -0.269 OA
ATOM     41  H6  UNL     1       3.913 -31.353  22.142  1.00  0.00     0.190 HD
BRANCH  39  42
HETATM   42  C9  UNL     1       4.355 -29.399  24.042  1.00  0.00     0.268 C 
BRANCH  42  43
HETATM   43  O5  UNL     1       4.463 -28.870  25.337  1.00  0.00    -0.392 OA
ATOM     44  H5  UNL     1       3.800 -29.231  25.914  1.00  0.00     0.210 HD
ENDBRANCH  42  43
ENDBRANCH  39  42
ENDBRANCH  35  38
ENDBRANCH  30  32
BRANCH  29  45
HETATM   45  C10 UNL     1      -0.319 -35.712  18.795  1.00  0.00     0.302 C 
BRANCH  45  46
HETATM   46  O6  UNL     1       0.207 -36.932  19.131  1.00  0.00    -0.366 OA
ATOM     47  H6  UNL     1       0.505 -37.428  18.379  1.00  0.00     0.213 HD
ENDBRANCH  45  46
BRANCH  45  48
HETATM   48  O7  UNL     1       0.245 -35.199  17.616  1.00  0.00    -0.366 OA
ATOM     49  H7  UNL     1       0.288 -35.849  16.924  1.00  0.00     0.213 HD
ENDBRANCH  45  48
ENDBRANCH  29  45
ENDBRANCH  28  29
ENDBRANCH  27  28
ENDBRANCH   1  27
TORSDOF 16
ENDMDL
MODEL 4
REMARK VINA RESULT: -8.747622795      3.022      7.011
REMARK  16 active torsions:
REMARK  status: ('A' for Active; 'I' for Inactive)
REMARK    1  A    between atoms: O1_2  and  C2_3 
REMARK    2  A    between atoms: N2_6  and  C3_7 
REMARK    3  A    between atoms: C3_7  and  O2_8 
REMARK    4  A    between atoms: C3_7  and  C4_10 
REMARK    5  A    between atoms: C4_10  and  C5_11 
REMARK    6  A    between atoms: C5_11  and  C6_12 
REMARK    7  A    between atoms: C6_12  and  C10_28 
REMARK    8  A    between atoms: N3_13  and  N4_15 
REMARK       I    between atoms: N4_15  and  C7_17 
REMARK       I    between atoms: C7_17  and  N5_19 
REMARK    9  A    between atoms: N5_19  and  N6_21 
REMARK       I    between atoms: N6_21  and  C8_23 
REMARK   10  A    between atoms: C8_23  and  C9_25 
REMARK   11  A    between atoms: C9_25  and  O5_26 
REMARK   12  A    between atoms: C10_28  and  O6_29 
REMARK   13  A    between atoms: C10_28  and  O7_31 
REMARK   14  A    between atoms: C12_35  and  O8_36 
REMARK   15  A    between atoms: C14_39  and  O9_40 
REMARK   16  A    between atoms: C17_46  and  O10_47 
ROOT
HETATM    1  C3  UNL     1      -7.037 -35.335  22.243  1.00  0.00     0.156 C 
ENDROOT
BRANCH   1   2
HETATM    2  N2  UNL     1      -5.878 -35.777  22.823  1.00  0.00    -0.168 N 
HETATM    3  N1  UNL     1      -6.048 -36.782  23.778  1.00  0.00    -0.254 N 
HETATM    4  C2  UNL     1      -4.905 -37.176  24.284  1.00  0.00     0.191 A 
ATOM      5  H1  UNL     1      -6.953 -37.163  24.050  1.00  0.00     0.191 HD
HETATM    6  C11 UNL     1      -3.973 -36.392  23.621  1.00  0.00     0.145 A 
HETATM    7  N7  UNL     1      -4.586 -35.562  22.748  1.00  0.00    -0.223 N 
HETATM    8  C12 UNL     1      -2.630 -36.178  23.520  1.00  0.00     0.114 A 
HETATM    9  C18 UNL     1      -3.652 -34.839  22.096  1.00  0.00     0.110 A 
HETATM   10  C13 UNL     1      -2.386 -35.212  22.572  1.00  0.00     0.066 A 
HETATM   11  C17 UNL     1      -3.683 -33.908  21.102  1.00  0.00     0.122 A 
HETATM   12  C14 UNL     1      -1.219 -34.674  22.074  1.00  0.00     0.107 A 
HETATM   13  C15 UNL     1      -1.251 -33.737  21.073  1.00  0.00     0.107 A 
HETATM   14  N8  UNL     1      -0.072 -33.164  20.534  1.00  0.00    -0.097 NA
HETATM   15  C16 UNL     1      -2.490 -33.383  20.617  1.00  0.00     0.108 A 
HETATM   16  N9  UNL     1      -2.554 -32.418  19.585  1.00  0.00    -0.097 NA
BRANCH   4  17
HETATM   17  O1  UNL     1      -4.651 -38.138  25.249  1.00  0.00    -0.338 OA
HETATM   18  C1  UNL     1      -4.022 -39.373  25.012  1.00  0.00     0.211 C 
ENDBRANCH   4  17
BRANCH  12  19
HETATM   19  O9  UNL     1      -0.026 -35.075  22.588  1.00  0.00    -0.358 OA
ATOM     20  H9  UNL     1       0.751 -35.044  22.043  1.00  0.00     0.217 HD
ENDBRANCH  12  19
BRANCH  11  21
HETATM   21  O10 UNL     1      -4.803 -33.447  20.536  1.00  0.00    -0.357 OA
ATOM     22  H10 UNL     1      -5.418 -33.016  21.117  1.00  0.00     0.218 HD
ENDBRANCH  11  21
BRANCH   8  23
HETATM   23  O8  UNL     1      -1.653 -36.828  24.253  1.00  0.00    -0.357 OA
ATOM     24  H8  UNL     1      -1.129 -37.560  23.949  1.00  0.00     0.217 HD
ENDBRANCH   8  23
ENDBRANCH   1   2
BRANCH   1  25
HETATM   25  O2  UNL     1      -7.041 -33.976  22.229  1.00  0.00    -0.347 OA
ATOM     26  H2  UNL     1      -7.692 -33.671  21.608  1.00  0.00     0.219 HD
ENDBRANCH   1  25
BRANCH   1  27
HETATM   27  C4  UNL     1      -8.265 -35.714  21.622  1.00  0.00     0.093 C 
BRANCH  27  28
HETATM   28  C5  UNL     1      -8.231 -36.785  20.560  1.00  0.00     0.067 C 
BRANCH  28  29
HETATM   29  C6  UNL     1      -7.945 -38.115  21.111  1.00  0.00     0.058 C 
HETATM   30  N3  UNL     1      -6.811 -38.742  20.906  1.00  0.00    -0.300 N 
ATOM     31  H3  UNL     1      -6.679 -39.664  21.321  1.00  0.00     0.186 HD
BRANCH  30  32
HETATM   32  N4  UNL     1      -5.779 -38.196  20.142  1.00  0.00    -0.250 N 
HETATM   33  C7  UNL     1      -4.445 -38.361  20.588  1.00  0.00     0.353 C 
HETATM   34  O3  UNL     1      -4.181 -38.986  21.653  1.00  0.00    -0.244 OA
HETATM   35  N5  UNL     1      -3.340 -37.834  19.858  1.00  0.00    -0.248 N 
ATOM     36  H5  UNL     1      -3.533 -37.324  18.996  1.00  0.00     0.192 HD
ATOM     37  H4  UNL     1      -5.981 -37.689  19.281  1.00  0.00     0.192 HD
BRANCH  35  38
HETATM   38  N6  UNL     1      -2.008 -37.973  20.253  1.00  0.00    -0.264 N 
HETATM   39  C8  UNL     1      -1.010 -37.174  19.632  1.00  0.00     0.259 C 
HETATM   40  O4  UNL     1      -1.361 -36.362  18.739  1.00  0.00    -0.269 OA
ATOM     41  H6  UNL     1      -1.754 -38.642  20.980  1.00  0.00     0.190 HD
BRANCH  39  42
HETATM   42  C9  UNL     1       0.418 -37.255  19.990  1.00  0.00     0.268 C 
BRANCH  42  43
HETATM   43  O5  UNL     1       0.590 -37.735  21.298  1.00  0.00    -0.392 OA
ATOM     44  H5  UNL     1       1.496 -37.965  21.465  1.00  0.00     0.210 HD
ENDBRANCH  42  43
ENDBRANCH  39  42
ENDBRANCH  35  38
ENDBRANCH  30  32
BRANCH  29  45
HETATM   45  C10 UNL     1      -8.900 -38.896  21.929  1.00  0.00     0.302 C 
BRANCH  45  46
HETATM   46  O6  UNL     1     -10.206 -38.689  21.573  1.00  0.00    -0.366 OA
ATOM     47  H6  UNL     1     -10.796 -38.662  22.317  1.00  0.00     0.213 HD
ENDBRANCH  45  46
BRANCH  45  48
HETATM   48  O7  UNL     1      -8.692 -38.720  23.307  1.00  0.00    -0.366 OA
ATOM     49  H7  UNL     1      -9.037 -39.441  23.819  1.00  0.00     0.213 HD
ENDBRANCH  45  48
ENDBRANCH  29  45
ENDBRANCH  28  29
ENDBRANCH  27  28
ENDBRANCH   1  27
TORSDOF 16
ENDMDL
MODEL 5
REMARK VINA RESULT: -8.686330421      2.860      5.961
REMARK  16 active torsions:
REMARK  status: ('A' for Active; 'I' for Inactive)
REMARK    1  A    between atoms: O1_2  and  C2_3 
REMARK    2  A    between atoms: N2_6  and  C3_7 
REMARK    3  A    between atoms: C3_7  and  O2_8 
REMARK    4  A    between atoms: C3_7  and  C4_10 
REMARK    5  A    between atoms: C4_10  and  C5_11 
REMARK    6  A    between atoms: C5_11  and  C6_12 
REMARK    7  A    between atoms: C6_12  and  C10_28 
REMARK    8  A    between atoms: N3_13  and  N4_15 
REMARK       I    between atoms: N4_15  and  C7_17 
REMARK       I    between atoms: C7_17  and  N5_19 
REMARK    9  A    between atoms: N5_19  and  N6_21 
REMARK       I    between atoms: N6_21  and  C8_23 
REMARK   10  A    between atoms: C8_23  and  C9_25 
REMARK   11  A    between atoms: C9_25  and  O5_26 
REMARK   12  A    between atoms: C10_28  and  O6_29 
REMARK   13  A    between atoms: C10_28  and  O7_31 
REMARK   14  A    between atoms: C12_35  and  O8_36 
REMARK   15  A    between atoms: C14_39  and  O9_40 
REMARK   16  A    between atoms: C17_46  and  O10_47 
ROOT
HETATM    1  C3  UNL     1      -1.592 -34.063  22.098  1.00  0.00     0.156 C 
ENDROOT
BRANCH   1   2
HETATM    2  N2  UNL     1      -2.143 -35.112  22.783  1.00  0.00    -0.168 N 
HETATM    3  N1  UNL     1      -1.258 -35.791  23.625  1.00  0.00    -0.254 N 
HETATM    4  C2  UNL     1      -1.845 -36.772  24.265  1.00  0.00     0.191 A 
ATOM      5  H1  UNL     1      -0.272 -35.552  23.728  1.00  0.00     0.191 HD
HETATM    6  C11 UNL     1      -3.155 -36.711  23.815  1.00  0.00     0.145 A 
HETATM    7  N7  UNL     1      -3.306 -35.704  22.927  1.00  0.00    -0.223 N 
HETATM    8  C12 UNL     1      -4.372 -37.304  23.976  1.00  0.00     0.114 A 
HETATM    9  C18 UNL     1      -4.595 -35.649  22.534  1.00  0.00     0.110 A 
HETATM   10  C13 UNL     1      -5.304 -36.667  23.190  1.00  0.00     0.066 A 
HETATM   11  C17 UNL     1      -5.313 -34.833  21.714  1.00  0.00     0.122 A 
HETATM   12  C14 UNL     1      -6.660 -36.850  23.025  1.00  0.00     0.107 A 
HETATM   13  C15 UNL     1      -7.382 -36.027  22.199  1.00  0.00     0.107 A 
HETATM   14  N8  UNL     1      -8.778 -36.183  22.006  1.00  0.00    -0.097 NA
HETATM   15  C16 UNL     1      -6.680 -35.040  21.566  1.00  0.00     0.108 A 
HETATM   16  N9  UNL     1      -7.400 -34.176  20.708  1.00  0.00    -0.097 NA
BRANCH   4  17
HETATM   17  O1  UNL     1      -1.317 -37.672  25.178  1.00  0.00    -0.338 OA
HETATM   18  C1  UNL     1      -0.929 -37.356  26.492  1.00  0.00     0.211 C 
ENDBRANCH   4  17
BRANCH  12  19
HETATM   19  O9  UNL     1      -7.283 -37.863  23.685  1.00  0.00    -0.358 OA
ATOM     20  H9  UNL     1      -6.787 -38.396  24.295  1.00  0.00     0.217 HD
ENDBRANCH  12  19
BRANCH  11  21
HETATM   21  O10 UNL     1      -4.793 -33.816  21.019  1.00  0.00    -0.357 OA
ATOM     22  H10 UNL     1      -5.416 -33.233  20.601  1.00  0.00     0.218 HD
ENDBRANCH  11  21
BRANCH   8  23
HETATM   23  O8  UNL     1      -4.641 -38.383  24.799  1.00  0.00    -0.357 OA
ATOM     24  H8  UNL     1      -4.001 -38.851  25.324  1.00  0.00     0.217 HD
ENDBRANCH   8  23
ENDBRANCH   1   2
BRANCH   1  25
HETATM   25  O2  UNL     1      -0.335 -33.834  22.565  1.00  0.00    -0.347 OA
ATOM     26  H2  UNL     1      -0.310 -32.986  22.993  1.00  0.00     0.219 HD
ENDBRANCH   1  25
BRANCH   1  27
HETATM   27  C4  UNL     1      -1.785 -33.095  21.067  1.00  0.00     0.093 C 
BRANCH  27  28
HETATM   28  C5  UNL     1      -1.961 -33.583  19.650  1.00  0.00     0.067 C 
BRANCH  28  29
HETATM   29  C6  UNL     1      -0.795 -34.327  19.162  1.00  0.00     0.058 C 
HETATM   30  N3  UNL     1      -0.846 -35.596  18.833  1.00  0.00    -0.300 N 
ATOM     31  H3  UNL     1       0.005 -36.050  18.499  1.00  0.00     0.186 HD
BRANCH  30  32
HETATM   32  N4  UNL     1      -2.017 -36.348  18.921  1.00  0.00    -0.250 N 
HETATM   33  C7  UNL     1      -2.104 -37.354  19.913  1.00  0.00     0.353 C 
HETATM   34  O3  UNL     1      -1.148 -37.578  20.708  1.00  0.00    -0.244 OA
HETATM   35  N5  UNL     1      -3.270 -38.160  20.064  1.00  0.00    -0.248 N 
ATOM     36  H5  UNL     1      -4.052 -37.996  19.431  1.00  0.00     0.192 HD
ATOM     37  H4  UNL     1      -2.795 -36.177  18.284  1.00  0.00     0.192 HD
BRANCH  35  38
HETATM   38  N6  UNL     1      -3.406 -39.160  21.029  1.00  0.00    -0.264 N 
HETATM   39  C8  UNL     1      -4.683 -39.743  21.253  1.00  0.00     0.259 C 
HETATM   40  O4  UNL     1      -5.657 -39.334  20.572  1.00  0.00    -0.269 OA
ATOM     41  H6  UNL     1      -2.597 -39.471  21.567  1.00  0.00     0.190 HD
BRANCH  39  42
HETATM   42  C9  UNL     1      -4.915 -40.806  22.248  1.00  0.00     0.268 C 
BRANCH  42  43
HETATM   43  O5  UNL     1      -5.915 -40.439  23.163  1.00  0.00    -0.392 OA
ATOM     44  H5  UNL     1      -6.449 -39.730  22.825  1.00  0.00     0.210 HD
ENDBRANCH  42  43
ENDBRANCH  39  42
ENDBRANCH  35  38
ENDBRANCH  30  32
BRANCH  29  45
HETATM   45  C10 UNL     1       0.557 -33.743  19.011  1.00  0.00     0.302 C 
BRANCH  45  46
HETATM   46  O6  UNL     1       1.177 -34.118  17.848  1.00  0.00    -0.366 OA
ATOM     47  H6  UNL     1       2.123 -34.043  17.890  1.00  0.00     0.213 HD
ENDBRANCH  45  46
BRANCH  45  48
HETATM   48  O7  UNL     1       1.365 -33.966  20.138  1.00  0.00    -0.366 OA
ATOM     49  H7  UNL     1       2.205 -34.346  19.911  1.00  0.00     0.213 HD
ENDBRANCH  45  48
ENDBRANCH  29  45
ENDBRANCH  28  29
ENDBRANCH  27  28
ENDBRANCH   1  27
TORSDOF 16
ENDMDL
