MODEL 1
REMARK VINA RESULT: -7.018431295      0.000      0.000
REMARK  2 active torsions:
REMARK  status: ('A' for Active; 'I' for Inactive)
REMARK    1  A    between atoms: C2_7  and  N3_8 
REMARK    2  A    between atoms: N3_8  and  C3_10 
ROOT
HETATM    1 CL1  UNL     1      -4.237  16.336  -7.137  1.00  0.00    -0.060 Cl
HETATM    2  C1  UNL     1      -5.456  15.054  -7.084  1.00  0.00     0.158 A 
HETATM    3  N1  UNL     1      -5.107  13.782  -6.817  1.00  0.00    -0.273 N 
ATOM      4  H1  UNL     1      -4.122  13.575  -6.646  1.00  0.00     0.188 HD
HETATM    5  N2  UNL     1      -5.966  12.795  -6.765  1.00  0.00    -0.131 N 
ATOM      6  H2  UNL     1      -5.642  11.850  -6.559  1.00  0.00     0.205 HD
HETATM    7  C2  UNL     1      -7.286  13.026  -6.985  1.00  0.00     0.694 A 
HETATM    8  N4  UNL     1      -7.660  14.291  -7.253  1.00  0.00    -0.177 N 
ATOM      9  H4  UNL     1      -8.647  14.484  -7.420  1.00  0.00     0.185 HD
HETATM   10  C10 UNL     1      -6.786  15.309  -7.309  1.00  0.00     0.159 A 
HETATM   11 CL2  UNL     1      -7.272  16.948  -7.656  1.00  0.00    -0.060 Cl
ENDROOT
BRANCH   7  12
HETATM   12  N3  UNL     1      -8.114  12.047  -6.930  1.00  0.00    -0.220 N 
ATOM     13  H3  UNL     1      -8.232  11.547  -6.048  1.00  0.00     0.178 HD
BRANCH  12  14
HETATM   14  C3  UNL     1      -8.886  11.632  -8.081  1.00  0.00     0.103 C 
HETATM   15  C4  UNL     1      -8.931  10.130  -8.150  1.00  0.00     0.026 C 
HETATM   16  C5  UNL     1     -10.093   9.615  -8.960  1.00  0.00     0.007 C 
HETATM   17  C6  UNL     1     -11.272  10.555  -8.861  1.00  0.00    -0.014 C 
HETATM   18  C7  UNL     1     -11.231  11.174  -7.481  1.00  0.00     0.011 C 
HETATM   19  C9  UNL     1     -10.899  11.922  -9.414  1.00  0.00     0.011 C 
HETATM   20  C8  UNL     1     -10.285  12.208  -8.060  1.00  0.00     0.009 C 
ENDBRANCH  12  14
ENDBRANCH   7  12
TORSDOF 2
ENDMDL
MODEL 2
REMARK VINA RESULT: -6.745526001      0.815      1.705
REMARK  2 active torsions:
REMARK  status: ('A' for Active; 'I' for Inactive)
REMARK    1  A    between atoms: C2_7  and  N3_8 
REMARK    2  A    between atoms: N3_8  and  C3_10 
ROOT
HETATM    1 CL1  UNL     1      -5.069  16.733  -7.025  1.00  0.00    -0.060 Cl
HETATM    2  C1  UNL     1      -5.987  15.220  -6.997  1.00  0.00     0.158 A 
HETATM    3  N1  UNL     1      -7.273  15.186  -7.393  1.00  0.00    -0.273 N 
ATOM      4  H1  UNL     1      -7.705  16.054  -7.710  1.00  0.00     0.188 HD
HETATM    5  N2  UNL     1      -7.998  14.096  -7.393  1.00  0.00    -0.131 N 
ATOM      6  H2  UNL     1      -8.969  14.131  -7.705  1.00  0.00     0.205 HD
HETATM    7  C2  UNL     1      -7.461  12.918  -6.981  1.00  0.00     0.694 A 
HETATM    8  N4  UNL     1      -6.176  12.926  -6.581  1.00  0.00    -0.177 N 
ATOM      9  H4  UNL     1      -5.756  12.051  -6.268  1.00  0.00     0.185 HD
HETATM   10  C10 UNL     1      -5.425  14.040  -6.577  1.00  0.00     0.159 A 
HETATM   11 CL2  UNL     1      -3.760  14.049  -6.058  1.00  0.00    -0.060 Cl
ENDROOT
BRANCH   7  12
HETATM   12  N3  UNL     1      -8.186  11.859  -6.988  1.00  0.00    -0.220 N 
ATOM     13  H3  UNL     1      -8.217  11.275  -6.152  1.00  0.00     0.178 HD
BRANCH  12  14
HETATM   14  C3  UNL     1      -8.961  11.469  -8.146  1.00  0.00     0.103 C 
HETATM   15  C4  UNL     1      -9.105   9.973  -8.182  1.00  0.00     0.026 C 
HETATM   16  C5  UNL     1     -10.282   9.518  -9.005  1.00  0.00     0.007 C 
HETATM   17  C6  UNL     1     -11.398  10.536  -8.952  1.00  0.00    -0.014 C 
HETATM   18  C7  UNL     1     -11.343  11.183  -7.585  1.00  0.00     0.011 C 
HETATM   19  C9  UNL     1     -10.923  11.862  -9.527  1.00  0.00     0.011 C 
HETATM   20  C8  UNL     1     -10.318  12.137  -8.167  1.00  0.00     0.009 C 
ENDBRANCH  12  14
ENDBRANCH   7  12
TORSDOF 2
ENDMDL
MODEL 3
REMARK VINA RESULT: -6.675577657      3.898      8.202
REMARK  2 active torsions:
REMARK  status: ('A' for Active; 'I' for Inactive)
REMARK    1  A    between atoms: C2_7  and  N3_8 
REMARK    2  A    between atoms: N3_8  and  C3_10 
ROOT
HETATM    1 CL1  UNL     1      -7.368  12.490  -7.259  1.00  0.00    -0.060 Cl
HETATM    2  C1  UNL     1      -5.965  13.459  -6.785  1.00  0.00     0.158 A 
HETATM    3  N1  UNL     1      -4.917  12.894  -6.157  1.00  0.00    -0.273 N 
ATOM      4  H1  UNL     1      -4.952  11.893  -5.961  1.00  0.00     0.188 HD
HETATM    5  N2  UNL     1      -3.855  13.563  -5.784  1.00  0.00    -0.131 N 
ATOM      6  H2  UNL     1      -3.091  13.080  -5.311  1.00  0.00     0.205 HD
HETATM    7  C2  UNL     1      -3.767  14.896  -6.026  1.00  0.00     0.694 A 
HETATM    8  N4  UNL     1      -4.802  15.484  -6.654  1.00  0.00    -0.177 N 
ATOM      9  H4  UNL     1      -4.754  16.485  -6.845  1.00  0.00     0.185 HD
HETATM   10  C10 UNL     1      -5.896  14.806  -7.040  1.00  0.00     0.159 A 
HETATM   11 CL2  UNL     1      -7.237  15.569  -7.853  1.00  0.00    -0.060 Cl
ENDROOT
BRANCH   7  12
HETATM   12  N3  UNL     1      -2.718  15.536  -5.655  1.00  0.00    -0.220 N 
ATOM     13  H3  UNL     1      -2.138  15.146  -4.911  1.00  0.00     0.178 HD
BRANCH  12  14
HETATM   14  C3  UNL     1      -2.335  16.793  -6.258  1.00  0.00     0.103 C 
HETATM   15  C4  UNL     1      -2.714  17.931  -5.350  1.00  0.00     0.026 C 
HETATM   16  C5  UNL     1      -1.921  19.184  -5.619  1.00  0.00     0.007 C 
HETATM   17  C6  UNL     1      -0.536  18.845  -6.120  1.00  0.00    -0.014 C 
HETATM   18  C7  UNL     1      -0.131  17.547  -5.456  1.00  0.00     0.011 C 
HETATM   19  C9  UNL     1      -0.628  18.071  -7.427  1.00  0.00     0.011 C 
HETATM   20  C8  UNL     1      -0.858  16.837  -6.581  1.00  0.00     0.009 C 
ENDBRANCH  12  14
ENDBRANCH   7  12
TORSDOF 2
ENDMDL
MODEL 4
REMARK VINA RESULT: -6.649510939      3.892      5.398
REMARK  2 active torsions:
REMARK  status: ('A' for Active; 'I' for Inactive)
REMARK    1  A    between atoms: C2_7  and  N3_8 
REMARK    2  A    between atoms: N3_8  and  C3_10 
ROOT
HETATM    1 CL1  UNL     1       0.102  17.384  -4.617  1.00  0.00    -0.060 Cl
HETATM    2  C1  UNL     1      -1.375  16.939  -5.485  1.00  0.00     0.158 A 
HETATM    3  N1  UNL     1      -2.586  17.258  -4.994  1.00  0.00    -0.273 N 
ATOM      4  H1  UNL     1      -2.632  17.764  -4.109  1.00  0.00     0.188 HD
HETATM    5  N2  UNL     1      -3.710  16.954  -5.594  1.00  0.00    -0.131 N 
ATOM      6  H2  UNL     1      -4.599  17.222  -5.173  1.00  0.00     0.205 HD
HETATM    7  C2  UNL     1      -3.694  16.284  -6.775  1.00  0.00     0.694 A 
HETATM    8  N4  UNL     1      -2.494  15.954  -7.287  1.00  0.00    -0.177 N 
ATOM      9  H4  UNL     1      -2.462  15.451  -8.174  1.00  0.00     0.185 HD
HETATM   10  C10 UNL     1      -1.336  16.262  -6.678  1.00  0.00     0.159 A 
HETATM   11 CL2  UNL     1       0.218  15.834  -7.343  1.00  0.00    -0.060 Cl
ENDROOT
BRANCH   7  12
HETATM   12  N3  UNL     1      -4.804  15.994  -7.350  1.00  0.00    -0.220 N 
ATOM     13  H3  UNL     1      -5.021  16.421  -8.251  1.00  0.00     0.178 HD
BRANCH  12  14
HETATM   14  C3  UNL     1      -5.757  15.081  -6.757  1.00  0.00     0.103 C 
HETATM   15  C4  UNL     1      -7.038  15.099  -7.546  1.00  0.00     0.026 C 
HETATM   16  C5  UNL     1      -7.866  13.856  -7.346  1.00  0.00     0.007 C 
HETATM   17  C6  UNL     1      -6.981  12.660  -7.080  1.00  0.00    -0.014 C 
HETATM   18  C7  UNL     1      -5.700  12.876  -7.856  1.00  0.00     0.011 C 
HETATM   19  C9  UNL     1      -6.172  12.881  -5.810  1.00  0.00     0.011 C 
HETATM   20  C8  UNL     1      -5.207  13.675  -6.664  1.00  0.00     0.009 C 
ENDBRANCH  12  14
ENDBRANCH   7  12
TORSDOF 2
ENDMDL
MODEL 5
REMARK VINA RESULT: -6.643717301      4.172      8.397
REMARK  2 active torsions:
REMARK  status: ('A' for Active; 'I' for Inactive)
REMARK    1  A    between atoms: C2_7  and  N3_8 
REMARK    2  A    between atoms: N3_8  and  C3_10 
ROOT
HETATM    1 CL1  UNL     1      -6.947  12.415  -7.308  1.00  0.00    -0.060 Cl
HETATM    2  C1  UNL     1      -5.704  13.561  -6.784  1.00  0.00     0.158 A 
HETATM    3  N1  UNL     1      -4.594  13.133  -6.154  1.00  0.00    -0.273 N 
ATOM      4  H1  UNL     1      -4.488  12.133  -5.986  1.00  0.00     0.188 HD
HETATM    5  N2  UNL     1      -3.644  13.936  -5.745  1.00  0.00    -0.131 N 
ATOM      6  H2  UNL     1      -2.825  13.554  -5.271  1.00  0.00     0.205 HD
HETATM    7  C2  UNL     1      -3.745  15.274  -5.949  1.00  0.00     0.694 A 
HETATM    8  N4  UNL     1      -4.846  15.727  -6.578  1.00  0.00    -0.177 N 
ATOM      9  H4  UNL     1      -4.939  16.729  -6.741  1.00  0.00     0.185 HD
HETATM   10  C10 UNL     1      -5.826  14.911  -7.001  1.00  0.00     0.159 A 
HETATM   11 CL2  UNL     1      -7.251  15.498  -7.816  1.00  0.00    -0.060 Cl
ENDROOT
BRANCH   7  12
HETATM   12  N3  UNL     1      -2.804  16.046  -5.542  1.00  0.00    -0.220 N 
ATOM     13  H3  UNL     1      -2.884  16.483  -4.623  1.00  0.00     0.178 HD
BRANCH  12  14
HETATM   14  C3  UNL     1      -1.633  16.316  -6.348  1.00  0.00     0.103 C 
HETATM   15  C4  UNL     1      -1.796  17.632  -7.058  1.00  0.00     0.026 C 
HETATM   16  C5  UNL     1      -0.481  18.236  -7.481  1.00  0.00     0.007 C 
HETATM   17  C6  UNL     1       0.618  17.855  -6.516  1.00  0.00    -0.014 C 
HETATM   18  C7  UNL     1      -0.016  17.736  -5.147  1.00  0.00     0.011 C 
HETATM   19  C9  UNL     1       0.793  16.344  -6.494  1.00  0.00     0.011 C 
HETATM   20  C8  UNL     1      -0.366  16.308  -5.522  1.00  0.00     0.009 C 
ENDBRANCH  12  14
ENDBRANCH   7  12
TORSDOF 2
ENDMDL
