MODEL 1
REMARK VINA RESULT: -7.072278585      0.000      0.000
REMARK  2 active torsions:
REMARK  status: ('A' for Active; 'I' for Inactive)
REMARK    1  A    between atoms: O1_2  and  C2_3 
REMARK    2  A    between atoms: C2_3  and  C3_5 
ROOT
HETATM    1  C3  UNL     1      -5.640  14.988  -7.519  1.00  0.00     0.119 C 
HETATM    2  C4  UNL     1      -4.455  14.303  -6.859  1.00  0.00     0.018 C 
HETATM    3  C5  UNL     1      -4.117  15.050  -5.587  1.00  0.00     0.010 C 
HETATM    4  C6  UNL     1      -3.449  16.396  -5.902  1.00  0.00    -0.035 C 
HETATM    5  C7  UNL     1      -3.801  17.348  -4.834  1.00  0.00     0.037 C 
HETATM    6  C8  UNL     1      -2.673  18.107  -4.217  1.00  0.00     0.233 C 
HETATM    7  N1  UNL     1      -1.416  17.438  -4.231  1.00  0.00    -0.075 N 
ATOM      8  H11 UNL     1      -1.405  16.594  -3.659  1.00  0.00     0.277 HD
ATOM      9  H12 UNL     1      -0.687  17.946  -3.730  1.00  0.00     0.277 HD
HETATM   10  C9  UNL     1      -1.079  17.186  -5.630  1.00  0.00     0.233 C 
HETATM   11  C10 UNL     1      -2.004  16.119  -6.105  1.00  0.00     0.037 C 
HETATM   12  C11 UNL     1      -4.071  16.891  -7.215  1.00  0.00     0.047 C 
HETATM   13  C12 UNL     1      -5.528  16.458  -7.213  1.00  0.00     0.184 C 
HETATM   14  F1  UNL     1      -6.219  17.221  -8.124  1.00  0.00    -0.248 F 
ENDROOT
BRANCH   1  15
HETATM   15  C2  UNL     1      -6.888  14.430  -6.942  1.00  0.00     0.265 C 
HETATM   16  O2  UNL     1      -7.898  15.171  -6.849  1.00  0.00    -0.265 OA
BRANCH  15  17
HETATM   17  O1  UNL     1      -6.955  13.119  -6.509  1.00  0.00    -0.326 OA
HETATM   18  C1  UNL     1      -7.800  12.200  -7.176  1.00  0.00     0.213 C 
ENDBRANCH  15  17
ENDBRANCH   1  15
TORSDOF 2
ENDMDL
MODEL 2
REMARK VINA RESULT: -7.051791560      3.714      5.658
REMARK  2 active torsions:
REMARK  status: ('A' for Active; 'I' for Inactive)
REMARK    1  A    between atoms: O1_2  and  C2_3 
REMARK    2  A    between atoms: C2_3  and  C3_5 
ROOT
HETATM    1  C3  UNL     1      -1.812  17.527  -5.476  1.00  0.00     0.119 C 
HETATM    2  C4  UNL     1      -1.651  16.373  -6.452  1.00  0.00     0.018 C 
HETATM    3  C5  UNL     1      -2.908  16.273  -7.289  1.00  0.00     0.010 C 
HETATM    4  C6  UNL     1      -4.073  15.708  -6.464  1.00  0.00    -0.035 C 
HETATM    5  C7  UNL     1      -5.327  16.284  -6.979  1.00  0.00     0.037 C 
HETATM    6  C8  UNL     1      -6.430  15.324  -7.280  1.00  0.00     0.233 C 
HETATM    7  N1  UNL     1      -6.007  14.015  -7.649  1.00  0.00    -0.075 N 
ATOM      8  H11 UNL     1      -5.498  13.993  -8.533  1.00  0.00     0.277 HD
ATOM      9  H12 UNL     1      -6.779  13.409  -7.928  1.00  0.00     0.277 HD
HETATM   10  C9  UNL     1      -5.235  13.480  -6.530  1.00  0.00     0.233 C 
HETATM   11  C10 UNL     1      -3.947  14.228  -6.506  1.00  0.00     0.037 C 
HETATM   12  C11 UNL     1      -3.867  16.204  -5.026  1.00  0.00     0.047 C 
HETATM   13  C12 UNL     1      -3.272  17.599  -5.114  1.00  0.00     0.184 C 
HETATM   14  F1  UNL     1      -3.466  18.242  -3.915  1.00  0.00    -0.248 F 
ENDROOT
BRANCH   1  15
HETATM   15  C2  UNL     1      -1.379  18.776  -6.149  1.00  0.00     0.265 C 
HETATM   16  O2  UNL     1      -2.254  19.581  -6.556  1.00  0.00    -0.265 OA
BRANCH  15  17
HETATM   17  O1  UNL     1      -0.040  19.066  -6.334  1.00  0.00    -0.326 OA
HETATM   18  C1  UNL     1       0.482  19.177  -7.645  1.00  0.00     0.213 C 
ENDBRANCH  15  17
ENDBRANCH   1  15
TORSDOF 2
ENDMDL
MODEL 3
REMARK VINA RESULT: -6.689334785      3.785      5.639
REMARK  2 active torsions:
REMARK  status: ('A' for Active; 'I' for Inactive)
REMARK    1  A    between atoms: O1_2  and  C2_3 
REMARK    2  A    between atoms: C2_3  and  C3_5 
ROOT
HETATM    1  C3  UNL     1      -1.577  17.303  -5.050  1.00  0.00     0.119 C 
HETATM    2  C4  UNL     1      -1.451  16.090  -5.956  1.00  0.00     0.018 C 
HETATM    3  C5  UNL     1      -2.589  16.114  -6.953  1.00  0.00     0.010 C 
HETATM    4  C6  UNL     1      -3.919  15.752  -6.278  1.00  0.00    -0.035 C 
HETATM    5  C7  UNL     1      -5.003  16.463  -6.979  1.00  0.00     0.037 C 
HETATM    6  C8  UNL     1      -6.179  15.643  -7.395  1.00  0.00     0.233 C 
HETATM    7  N1  UNL     1      -5.897  14.272  -7.659  1.00  0.00    -0.075 N 
ATOM      8  H11 UNL     1      -5.284  14.137  -8.463  1.00  0.00     0.277 HD
ATOM      9  H12 UNL     1      -6.702  13.760  -8.020  1.00  0.00     0.277 HD
HETATM   10  C9  UNL     1      -5.360  13.698  -6.427  1.00  0.00     0.233 C 
HETATM   11  C10 UNL     1      -3.995  14.268  -6.252  1.00  0.00     0.037 C 
HETATM   12  C11 UNL     1      -3.837  16.291  -4.842  1.00  0.00     0.047 C 
HETATM   13  C12 UNL     1      -3.047  17.588  -4.895  1.00  0.00     0.184 C 
HETATM   14  F1  UNL     1      -3.307  18.312  -3.756  1.00  0.00    -0.248 F 
ENDROOT
BRANCH   1  15
HETATM   15  C2  UNL     1      -0.890  18.448  -5.699  1.00  0.00     0.265 C 
HETATM   16  O2  UNL     1       0.365  18.490  -5.685  1.00  0.00    -0.265 OA
BRANCH  15  17
HETATM   17  O1  UNL     1      -1.605  19.458  -6.315  1.00  0.00    -0.326 OA
HETATM   18  C1  UNL     1      -1.508  19.637  -7.715  1.00  0.00     0.213 C 
ENDBRANCH  15  17
ENDBRANCH   1  15
TORSDOF 2
ENDMDL
MODEL 4
REMARK VINA RESULT: -6.672561664      2.105      3.166
REMARK  2 active torsions:
REMARK  status: ('A' for Active; 'I' for Inactive)
REMARK    1  A    between atoms: O1_2  and  C2_3 
REMARK    2  A    between atoms: C2_3  and  C3_5 
ROOT
HETATM    1  C3  UNL     1      -5.193  15.691  -6.187  1.00  0.00     0.119 C 
HETATM    2  C4  UNL     1      -4.449  16.954  -5.789  1.00  0.00     0.018 C 
HETATM    3  C5  UNL     1      -3.226  17.089  -6.670  1.00  0.00     0.010 C 
HETATM    4  C6  UNL     1      -2.151  16.066  -6.278  1.00  0.00    -0.035 C 
HETATM    5  C7  UNL     1      -1.388  15.709  -7.488  1.00  0.00     0.037 C 
HETATM    6  C8  UNL     1       0.099  15.769  -7.380  1.00  0.00     0.233 C 
HETATM    7  N1  UNL     1       0.600  16.711  -6.436  1.00  0.00    -0.075 N 
ATOM      8  H11 UNL     1       0.394  17.677  -6.688  1.00  0.00     0.277 HD
ATOM      9  H12 UNL     1       1.617  16.785  -6.447  1.00  0.00     0.277 HD
HETATM   10  C9  UNL     1       0.067  16.334  -5.129  1.00  0.00     0.233 C 
HETATM   11  C10 UNL     1      -1.386  16.660  -5.152  1.00  0.00     0.037 C 
HETATM   12  C11 UNL     1      -2.900  14.816  -5.793  1.00  0.00     0.047 C 
HETATM   13  C12 UNL     1      -4.159  14.692  -6.636  1.00  0.00     0.184 C 
HETATM   14  F1  UNL     1      -4.626  13.403  -6.548  1.00  0.00    -0.248 F 
ENDROOT
BRANCH   1  15
HETATM   15  C2  UNL     1      -6.117  16.019  -7.301  1.00  0.00     0.265 C 
HETATM   16  O2  UNL     1      -6.639  15.080  -7.953  1.00  0.00    -0.265 OA
BRANCH  15  17
HETATM   17  O1  UNL     1      -6.410  17.330  -7.628  1.00  0.00    -0.326 OA
HETATM   18  C1  UNL     1      -7.728  17.818  -7.466  1.00  0.00     0.213 C 
ENDBRANCH  15  17
ENDBRANCH   1  15
TORSDOF 2
ENDMDL
MODEL 5
REMARK VINA RESULT: -6.527067450      1.955      2.875
REMARK  2 active torsions:
REMARK  status: ('A' for Active; 'I' for Inactive)
REMARK    1  A    between atoms: O1_2  and  C2_3 
REMARK    2  A    between atoms: C2_3  and  C3_5 
ROOT
HETATM    1  C3  UNL     1      -5.008  15.752  -6.132  1.00  0.00     0.119 C 
HETATM    2  C4  UNL     1      -4.243  17.001  -5.727  1.00  0.00     0.018 C 
HETATM    3  C5  UNL     1      -3.029  17.131  -6.620  1.00  0.00     0.010 C 
HETATM    4  C6  UNL     1      -1.963  16.089  -6.254  1.00  0.00    -0.035 C 
HETATM    5  C7  UNL     1      -1.219  15.738  -7.476  1.00  0.00     0.037 C 
HETATM    6  C8  UNL     1       0.270  15.776  -7.385  1.00  0.00     0.233 C 
HETATM    7  N1  UNL     1       0.794  16.699  -6.436  1.00  0.00    -0.075 N 
ATOM      8  H11 UNL     1       0.599  17.672  -6.674  1.00  0.00     0.277 HD
ATOM      9  H12 UNL     1       1.812  16.761  -6.458  1.00  0.00     0.277 HD
HETATM   10  C9  UNL     1       0.272  16.314  -5.127  1.00  0.00     0.233 C 
HETATM   11  C10 UNL     1      -1.178  16.659  -5.129  1.00  0.00     0.037 C 
HETATM   12  C11 UNL     1      -2.723  14.843  -5.776  1.00  0.00     0.047 C 
HETATM   13  C12 UNL     1      -3.993  14.746  -6.605  1.00  0.00     0.184 C 
HETATM   14  F1  UNL     1      -4.476  13.462  -6.528  1.00  0.00    -0.248 F 
ENDROOT
BRANCH   1  15
HETATM   15  C2  UNL     1      -5.941  16.107  -7.231  1.00  0.00     0.265 C 
HETATM   16  O2  UNL     1      -6.057  17.313  -7.562  1.00  0.00    -0.265 OA
BRANCH  15  17
HETATM   17  O1  UNL     1      -6.676  15.139  -7.889  1.00  0.00    -0.326 OA
HETATM   18  C1  UNL     1      -7.551  14.300  -7.158  1.00  0.00     0.213 C 
ENDBRANCH  15  17
ENDBRANCH   1  15
TORSDOF 2
ENDMDL
