MODEL 1
REMARK VINA RESULT: -2.592793536      0.000      0.000
REMARK  1 active torsions:
REMARK  status: ('A' for Active; 'I' for Inactive)
REMARK    1  A    between atoms: N1_1  and  C1_5 
ROOT
HETATM    1  C1  UNL     1     -33.818   6.348  -8.898  1.00  0.00     0.183 C 
HETATM    2  C2  UNL     1     -33.092   5.265  -9.693  1.00  0.00     0.033 C 
HETATM    3  C3  UNL     1     -33.901   4.244  -8.886  1.00  0.00     0.004 C 
HETATM    4  C4  UNL     1     -34.006   5.308  -7.809  1.00  0.00     0.033 C 
ENDROOT
BRANCH   1   5
HETATM    5  N1  UNL     1     -32.961   7.420  -8.484  1.00  0.00    -0.075 N 
ATOM      6  H13 UNL     1     -33.475   8.097  -7.920  1.00  0.00     0.274 HD
ATOM      7  H12 UNL     1     -32.288   7.098  -7.788  1.00  0.00     0.274 HD
ATOM      8  H11 UNL     1     -32.487   7.881  -9.260  1.00  0.00     0.274 HD
ENDBRANCH   1   5
TORSDOF 1
ENDMDL
MODEL 2
REMARK VINA RESULT: -2.483971317      1.925      2.632
REMARK  1 active torsions:
REMARK  status: ('A' for Active; 'I' for Inactive)
REMARK    1  A    between atoms: N1_1  and  C1_5 
ROOT
HETATM    1  C1  UNL     1     -34.217   4.835  -8.916  1.00  0.00     0.183 C 
HETATM    2  C2  UNL     1     -33.760   5.783  -7.809  1.00  0.00     0.033 C 
HETATM    3  C3  UNL     1     -33.048   6.586  -8.903  1.00  0.00     0.004 C 
HETATM    4  C4  UNL     1     -33.002   5.296  -9.700  1.00  0.00     0.033 C 
ENDROOT
BRANCH   1   5
HETATM    5  N1  UNL     1     -34.135   3.451  -8.549  1.00  0.00    -0.075 N 
ATOM      6  H13 UNL     1     -33.171   3.186  -8.350  1.00  0.00     0.274 HD
ATOM      7  H12 UNL     1     -34.546   3.297  -7.628  1.00  0.00     0.274 HD
ATOM      8  H11 UNL     1     -34.548   2.825  -9.239  1.00  0.00     0.274 HD
ENDBRANCH   1   5
TORSDOF 1
ENDMDL
MODEL 3
REMARK VINA RESULT: -2.470791949      0.561      1.435
REMARK  1 active torsions:
REMARK  status: ('A' for Active; 'I' for Inactive)
REMARK    1  A    between atoms: N1_1  and  C1_5 
ROOT
HETATM    1  C1  UNL     1     -33.270   6.218  -8.537  1.00  0.00     0.183 C 
HETATM    2  C2  UNL     1     -34.350   5.421  -7.810  1.00  0.00     0.033 C 
HETATM    3  C3  UNL     1     -33.856   4.197  -8.587  1.00  0.00     0.004 C 
HETATM    4  C4  UNL     1     -33.352   5.174  -9.634  1.00  0.00     0.033 C 
ENDROOT
BRANCH   1   5
HETATM    5  N1  UNL     1     -33.716   7.508  -8.979  1.00  0.00    -0.075 N 
ATOM      6  H13 UNL     1     -33.583   7.611  -9.985  1.00  0.00     0.274 HD
ATOM      7  H12 UNL     1     -34.732   7.574  -8.935  1.00  0.00     0.274 HD
ATOM      8  H11 UNL     1     -33.281   8.281  -8.475  1.00  0.00     0.274 HD
ENDBRANCH   1   5
TORSDOF 1
ENDMDL
MODEL 4
REMARK VINA RESULT: -2.374461207      2.085      2.453
REMARK  1 active torsions:
REMARK  status: ('A' for Active; 'I' for Inactive)
REMARK    1  A    between atoms: N1_1  and  C1_5 
ROOT
HETATM    1  C1  UNL     1     -33.717   4.192  -9.169  1.00  0.00     0.183 C 
HETATM    2  C2  UNL     1     -33.469   5.483  -9.946  1.00  0.00     0.033 C 
HETATM    3  C3  UNL     1     -33.230   6.156  -8.591  1.00  0.00     0.004 C 
HETATM    4  C4  UNL     1     -34.104   5.069  -7.993  1.00  0.00     0.033 C 
ENDROOT
BRANCH   1   5
HETATM    5  N1  UNL     1     -34.826   3.431  -9.668  1.00  0.00    -0.075 N 
ATOM      6  H13 UNL     1     -34.956   2.580  -9.123  1.00  0.00     0.274 HD
ATOM      7  H12 UNL     1     -35.708   3.900  -9.461  1.00  0.00     0.274 HD
ATOM      8  H11 UNL     1     -34.755   3.217 -10.662  1.00  0.00     0.274 HD
ENDBRANCH   1   5
TORSDOF 1
ENDMDL
MODEL 5
REMARK VINA RESULT: -2.372340276      8.917      9.614
REMARK  1 active torsions:
REMARK  status: ('A' for Active; 'I' for Inactive)
REMARK    1  A    between atoms: N1_1  and  C1_5 
ROOT
HETATM    1  C1  UNL     1     -28.788  10.406 -16.338  1.00  0.00     0.183 C 
HETATM    2  C2  UNL     1     -30.095   9.636 -16.514  1.00  0.00     0.033 C 
HETATM    3  C3  UNL     1     -30.138   9.521 -14.987  1.00  0.00     0.004 C 
HETATM    4  C4  UNL     1     -28.628   9.673 -15.019  1.00  0.00     0.033 C 
ENDROOT
BRANCH   1   5
HETATM    5  N1  UNL     1     -27.779  10.039 -17.290  1.00  0.00    -0.075 N 
ATOM      6  H13 UNL     1     -28.171   9.987 -18.230  1.00  0.00     0.274 HD
ATOM      7  H12 UNL     1     -27.115  10.801 -17.425  1.00  0.00     0.274 HD
ATOM      8  H11 UNL     1     -27.294   9.174 -17.052  1.00  0.00     0.274 HD
ENDBRANCH   1   5
TORSDOF 1
ENDMDL
