MODEL 1
REMARK VINA RESULT: -2.859627099      0.000      0.000
REMARK  1 active torsions:
REMARK  status: ('A' for Active; 'I' for Inactive)
REMARK    1  A    between atoms: O1_1  and  C1_3 
ROOT
HETATM    1  C1  UNL     1     -28.122  10.346 -16.574  1.00  0.00     0.118 C 
HETATM    2  C2  UNL     1     -29.561   9.943 -16.897  1.00  0.00     0.032 C 
HETATM    3  C3  UNL     1     -29.814  10.047 -15.390  1.00  0.00     0.005 C 
HETATM    4  C4  UNL     1     -28.344   9.675 -15.213  1.00  0.00     0.032 C 
ENDROOT
BRANCH   1   5
HETATM    5  O1  UNL     1     -27.160   9.726 -17.337  1.00  0.00    -0.396 OA
ATOM      6  H1  UNL     1     -27.492   9.228 -18.075  1.00  0.00     0.210 HD
ENDBRANCH   1   5
TORSDOF 1
ENDMDL
MODEL 2
REMARK VINA RESULT: -2.807387460      0.877      1.495
REMARK  1 active torsions:
REMARK  status: ('A' for Active; 'I' for Inactive)
REMARK    1  A    between atoms: O1_1  and  C1_3 
ROOT
HETATM    1  C1  UNL     1     -28.210  10.099 -16.917  1.00  0.00     0.118 C 
HETATM    2  C2  UNL     1     -28.353   9.863 -15.412  1.00  0.00     0.032 C 
HETATM    3  C3  UNL     1     -29.153  11.168 -15.392  1.00  0.00     0.005 C 
HETATM    4  C4  UNL     1     -28.308  11.594 -16.590  1.00  0.00     0.032 C 
ENDROOT
BRANCH   1   5
HETATM    5  O1  UNL     1     -26.995   9.736 -17.449  1.00  0.00    -0.396 OA
ATOM      6  H1  UNL     1     -26.586   8.983 -17.039  1.00  0.00     0.210 HD
ENDBRANCH   1   5
TORSDOF 1
ENDMDL
MODEL 3
REMARK VINA RESULT: -2.752117865      9.972     10.610
REMARK  1 active torsions:
REMARK  status: ('A' for Active; 'I' for Inactive)
REMARK    1  A    between atoms: O1_1  and  C1_3 
ROOT
HETATM    1  C1  UNL     1     -33.805   4.829  -9.488  1.00  0.00     0.118 C 
HETATM    2  C2  UNL     1     -34.121   3.433  -8.948  1.00  0.00     0.032 C 
HETATM    3  C3  UNL     1     -34.847   4.154  -7.809  1.00  0.00     0.005 C 
HETATM    4  C4  UNL     1     -33.857   5.296  -8.028  1.00  0.00     0.032 C 
ENDROOT
BRANCH   1   5
HETATM    5  O1  UNL     1     -32.562   4.963 -10.059  1.00  0.00    -0.396 OA
ATOM      6  H1  UNL     1     -31.848   5.089  -9.445  1.00  0.00     0.210 HD
ENDBRANCH   1   5
TORSDOF 1
ENDMDL
MODEL 4
REMARK VINA RESULT: -2.669510264      1.076      1.596
REMARK  1 active torsions:
REMARK  status: ('A' for Active; 'I' for Inactive)
REMARK    1  A    between atoms: O1_1  and  C1_3 
ROOT
HETATM    1  C1  UNL     1     -28.086  10.522 -16.838  1.00  0.00     0.118 C 
HETATM    2  C2  UNL     1     -28.679  11.587 -17.762  1.00  0.00     0.032 C 
HETATM    3  C3  UNL     1     -30.010  11.300 -17.062  1.00  0.00     0.005 C 
HETATM    4  C4  UNL     1     -29.481   9.885 -16.843  1.00  0.00     0.032 C 
ENDROOT
BRANCH   1   5
HETATM    5  O1  UNL     1     -27.122   9.727 -17.412  1.00  0.00    -0.396 OA
ATOM      6  H1  UNL     1     -26.262  10.127 -17.483  1.00  0.00     0.210 HD
ENDBRANCH   1   5
TORSDOF 1
ENDMDL
MODEL 5
REMARK VINA RESULT: -2.664138463      0.752      1.406
REMARK  1 active torsions:
REMARK  status: ('A' for Active; 'I' for Inactive)
REMARK    1  A    between atoms: O1_1  and  C1_3 
ROOT
HETATM    1  C1  UNL     1     -28.055   9.991 -16.378  1.00  0.00     0.118 C 
HETATM    2  C2  UNL     1     -28.357  11.444 -16.009  1.00  0.00     0.032 C 
HETATM    3  C3  UNL     1     -29.804  10.982 -15.816  1.00  0.00     0.005 C 
HETATM    4  C4  UNL     1     -29.505   9.919 -16.870  1.00  0.00     0.032 C 
ENDROOT
BRANCH   1   5
HETATM    5  O1  UNL     1     -27.129   9.827 -17.381  1.00  0.00    -0.396 OA
ATOM      6  H1  UNL     1     -27.351  10.246 -18.205  1.00  0.00     0.210 HD
ENDBRANCH   1   5
TORSDOF 1
ENDMDL
