MODEL 1
REMARK VINA RESULT: -3.529144458      0.000      0.000
REMARK  1 active torsions:
REMARK  status: ('A' for Active; 'I' for Inactive)
REMARK    1  A    between atoms: C3_3  and  O1_4 
ROOT
HETATM    1  C1  UNL     1     -32.648   8.163  -8.273  1.00  0.00     0.015 C 
HETATM    2  C2  UNL     1     -33.015   7.060  -8.599  1.00  0.00    -0.079 C 
HETATM    3  C3  UNL     1     -33.440   5.713  -8.989  1.00  0.00     0.120 A 
HETATM    4  C4  UNL     1     -34.005   4.790  -7.934  1.00  0.00     0.055 A 
HETATM    5  C5  UNL     1     -34.919   5.391  -9.011  1.00  0.00     0.055 A 
ENDROOT
BRANCH   3   6
HETATM    6  O1  UNL     1     -32.599   5.120  -9.921  1.00  0.00    -0.378 OA
ATOM      7  H1  UNL     1     -31.766   5.566 -10.014  1.00  0.00     0.211 HD
ENDBRANCH   3   6
TORSDOF 1
ENDMDL
MODEL 2
REMARK VINA RESULT: -3.193513671     10.249     10.939
REMARK  1 active torsions:
REMARK  status: ('A' for Active; 'I' for Inactive)
REMARK    1  A    between atoms: C3_3  and  O1_4 
ROOT
HETATM    1  C1  UNL     1     -27.934  12.878 -17.990  1.00  0.00     0.015 C 
HETATM    2  C2  UNL     1     -27.990  11.753 -17.555  1.00  0.00    -0.079 C 
HETATM    3  C3  UNL     1     -28.036  10.390 -17.019  1.00  0.00     0.120 A 
HETATM    4  C4  UNL     1     -28.426  10.186 -15.572  1.00  0.00     0.055 A 
HETATM    5  C5  UNL     1     -29.381   9.774 -16.701  1.00  0.00     0.055 A 
ENDROOT
BRANCH   3   6
HETATM    6  O1  UNL     1     -27.008   9.581 -17.485  1.00  0.00    -0.378 OA
ATOM      7  H1  UNL     1     -26.867   8.808 -16.952  1.00  0.00     0.211 HD
ENDBRANCH   3   6
TORSDOF 1
ENDMDL
MODEL 3
REMARK VINA RESULT: -3.075983612      9.800     10.701
REMARK  1 active torsions:
REMARK  status: ('A' for Active; 'I' for Inactive)
REMARK    1  A    between atoms: C3_3  and  O1_4 
ROOT
HETATM    1  C1  UNL     1     -28.874   9.800 -14.551  1.00  0.00     0.015 C 
HETATM    2  C2  UNL     1     -28.518  10.190 -15.637  1.00  0.00    -0.079 C 
HETATM    3  C3  UNL     1     -28.092  10.642 -16.964  1.00  0.00     0.120 A 
HETATM    4  C4  UNL     1     -29.129  11.192 -17.917  1.00  0.00     0.055 A 
HETATM    5  C5  UNL     1     -28.097  12.125 -17.268  1.00  0.00     0.055 A 
ENDROOT
BRANCH   3   6
HETATM    6  O1  UNL     1     -27.119   9.833 -17.535  1.00  0.00    -0.378 OA
ATOM      7  H1  UNL     1     -27.168   9.797 -18.483  1.00  0.00     0.211 HD
ENDBRANCH   3   6
TORSDOF 1
ENDMDL
MODEL 4
REMARK VINA RESULT: -3.026383621      9.110      9.872
REMARK  1 active torsions:
REMARK  status: ('A' for Active; 'I' for Inactive)
REMARK    1  A    between atoms: C3_3  and  O1_4 
ROOT
HETATM    1  C1  UNL     1     -29.686  11.256 -18.137  1.00  0.00     0.015 C 
HETATM    2  C2  UNL     1     -29.205  10.758 -17.147  1.00  0.00    -0.079 C 
HETATM    3  C3  UNL     1     -28.603  10.170 -15.948  1.00  0.00     0.120 A 
HETATM    4  C4  UNL     1     -28.884  10.802 -14.603  1.00  0.00     0.055 A 
HETATM    5  C5  UNL     1     -29.493   9.440 -14.965  1.00  0.00     0.055 A 
ENDROOT
BRANCH   3   6
HETATM    6  O1  UNL     1     -27.301   9.729 -16.146  1.00  0.00    -0.378 OA
ATOM      7  H1  UNL     1     -26.815  10.258 -16.767  1.00  0.00     0.211 HD
ENDBRANCH   3   6
TORSDOF 1
ENDMDL
MODEL 5
REMARK VINA RESULT: -2.990744474      9.001      9.870
REMARK  1 active torsions:
REMARK  status: ('A' for Active; 'I' for Inactive)
REMARK    1  A    between atoms: C3_3  and  O1_4 
ROOT
HETATM    1  C1  UNL     1     -28.997  11.343 -13.601  1.00  0.00     0.015 C 
HETATM    2  C2  UNL     1     -28.702  10.972 -14.711  1.00  0.00    -0.079 C 
HETATM    3  C3  UNL     1     -28.345  10.499 -16.052  1.00  0.00     0.120 A 
HETATM    4  C4  UNL     1     -29.451  10.141 -17.019  1.00  0.00     0.055 A 
HETATM    5  C5  UNL     1     -28.604  11.402 -17.238  1.00  0.00     0.055 A 
ENDROOT
BRANCH   3   6
HETATM    6  O1  UNL     1     -27.240   9.659 -16.062  1.00  0.00    -0.378 OA
ATOM      7  H1  UNL     1     -26.494  10.025 -16.523  1.00  0.00     0.211 HD
ENDBRANCH   3   6
TORSDOF 1
ENDMDL
