MODEL 1
REMARK VINA RESULT: -3.235891156      0.000      0.000
REMARK  1 active torsions:
REMARK  status: ('A' for Active; 'I' for Inactive)
REMARK    1  A    between atoms: O1_1  and  C1_3 
ROOT
HETATM    1  C1  UNL     1     -34.353   5.301 -10.263  1.00  0.00     0.127 A 
HETATM    2  C2  UNL     1     -33.418   5.889  -9.290  1.00  0.00     0.021 A 
HETATM    3  C3  UNL     1     -33.671   5.801  -7.810  1.00  0.00     0.008 C 
HETATM    4  C4  UNL     1     -34.149   4.372  -7.907  1.00  0.00     0.008 C 
HETATM    5  C5  UNL     1     -33.664   4.353  -9.333  1.00  0.00     0.021 A 
ENDROOT
BRANCH   1   6
HETATM    6  O1  UNL     1     -33.986   5.311 -11.584  1.00  0.00    -0.395 OA
ATOM      7  H1  UNL     1     -34.505   4.795 -12.190  1.00  0.00     0.210 HD
ENDBRANCH   1   6
TORSDOF 1
ENDMDL
MODEL 2
REMARK VINA RESULT: -3.227217192      9.303      9.982
REMARK  1 active torsions:
REMARK  status: ('A' for Active; 'I' for Inactive)
REMARK    1  A    between atoms: O1_1  and  C1_3 
ROOT
HETATM    1  C1  UNL     1     -28.244  10.020 -16.845  1.00  0.00     0.127 A 
HETATM    2  C2  UNL     1     -28.402  11.198 -15.977  1.00  0.00     0.021 A 
HETATM    3  C3  UNL     1     -29.665  11.428 -15.192  1.00  0.00     0.008 C 
HETATM    4  C4  UNL     1     -29.783   9.968 -14.825  1.00  0.00     0.008 C 
HETATM    5  C5  UNL     1     -28.398   9.761 -15.380  1.00  0.00     0.021 A 
ENDROOT
BRANCH   1   6
HETATM    6  O1  UNL     1     -27.017   9.816 -17.424  1.00  0.00    -0.395 OA
ATOM      7  H1  UNL     1     -26.982   9.753 -18.372  1.00  0.00     0.210 HD
ENDBRANCH   1   6
TORSDOF 1
ENDMDL
MODEL 3
REMARK VINA RESULT: -3.181608480      9.213      9.926
REMARK  1 active torsions:
REMARK  status: ('A' for Active; 'I' for Inactive)
REMARK    1  A    between atoms: O1_1  and  C1_3 
ROOT
HETATM    1  C1  UNL     1     -28.056  10.406 -16.736  1.00  0.00     0.127 A 
HETATM    2  C2  UNL     1     -28.493   9.834 -15.452  1.00  0.00     0.021 A 
HETATM    3  C3  UNL     1     -29.646  10.422 -14.685  1.00  0.00     0.008 C 
HETATM    4  C4  UNL     1     -30.457  10.643 -15.940  1.00  0.00     0.008 C 
HETATM    5  C5  UNL     1     -29.436   9.830 -16.691  1.00  0.00     0.021 A 
ENDROOT
BRANCH   1   6
HETATM    6  O1  UNL     1     -27.084   9.736 -17.434  1.00  0.00    -0.395 OA
ATOM      7  H1  UNL     1     -26.385  10.250 -17.820  1.00  0.00     0.210 HD
ENDBRANCH   1   6
TORSDOF 1
ENDMDL
MODEL 4
REMARK VINA RESULT: -3.143274862      9.031      9.786
REMARK  1 active torsions:
REMARK  status: ('A' for Active; 'I' for Inactive)
REMARK    1  A    between atoms: O1_1  and  C1_3 
ROOT
HETATM    1  C1  UNL     1     -27.887   9.819 -16.132  1.00  0.00     0.127 A 
HETATM    2  C2  UNL     1     -29.357   9.902 -16.124  1.00  0.00     0.021 A 
HETATM    3  C3  UNL     1     -30.127  10.002 -14.835  1.00  0.00     0.008 C 
HETATM    4  C4  UNL     1     -29.128  10.961 -14.233  1.00  0.00     0.008 C 
HETATM    5  C5  UNL     1     -28.487  11.077 -15.591  1.00  0.00     0.021 A 
ENDROOT
BRANCH   1   6
HETATM    6  O1  UNL     1     -27.255   9.861 -17.349  1.00  0.00    -0.395 OA
ATOM      7  H1  UNL     1     -26.881  10.690 -17.623  1.00  0.00     0.210 HD
ENDBRANCH   1   6
TORSDOF 1
ENDMDL
MODEL 5
REMARK VINA RESULT: -3.054206305      1.701      2.147
REMARK  1 active torsions:
REMARK  status: ('A' for Active; 'I' for Inactive)
REMARK    1  A    between atoms: O1_1  and  C1_3 
ROOT
HETATM    1  C1  UNL     1     -34.057   6.835  -8.995  1.00  0.00     0.127 A 
HETATM    2  C2  UNL     1     -33.740   5.938  -7.872  1.00  0.00     0.021 A 
HETATM    3  C3  UNL     1     -34.106   4.479  -7.910  1.00  0.00     0.008 C 
HETATM    4  C4  UNL     1     -33.708   4.346  -9.360  1.00  0.00     0.008 C 
HETATM    5  C5  UNL     1     -33.100   5.721  -9.274  1.00  0.00     0.021 A 
ENDROOT
BRANCH   1   6
HETATM    6  O1  UNL     1     -33.576   8.119  -8.939  1.00  0.00    -0.395 OA
ATOM      7  H1  UNL     1     -32.991   8.402  -9.632  1.00  0.00     0.210 HD
ENDBRANCH   1   6
TORSDOF 1
ENDMDL
