MODEL 1
REMARK VINA RESULT: -4.476352360      0.000      0.000
REMARK  1 active torsions:
REMARK  status: ('A' for Active; 'I' for Inactive)
REMARK    1  A    between atoms: N1_2  and  C2_4 
REMARK       I    between atoms: N5_13  and  C6_15 
ROOT
HETATM    1  C2  UNL     1     -23.398  62.915  40.729  1.00  0.00     0.694 A 
HETATM    2  N2  UNL     1     -24.593  63.138  40.164  1.00  0.00    -0.166 N 
ATOM      3  H2  UNL     1     -24.659  63.175  39.146  1.00  0.00     0.186 HD
HETATM    4  C3  UNL     1     -25.714  63.314  40.902  1.00  0.00     0.217 A 
HETATM    5  C4  UNL     1     -26.977  63.551  40.265  1.00  0.00     0.138 C 
HETATM    6  N3  UNL     1     -27.996  63.761  39.754  1.00  0.00    -0.188 NA
HETATM    7  N4  UNL     1     -25.619  63.262  42.254  1.00  0.00    -0.165 N 
ATOM      8  H4  UNL     1     -26.452  63.393  42.828  1.00  0.00     0.186 HD
HETATM    9  C5  UNL     1     -24.444  63.042  42.833  1.00  0.00     0.701 A 
HETATM   10  N5  UNL     1     -24.341  62.991  44.116  1.00  0.00    -0.163 N 
ATOM     11  H5  UNL     1     -25.167  63.119  44.700  1.00  0.00     0.187 HD
HETATM   12  C6  UNL     1     -23.082  62.756  44.715  1.00  0.00     0.200 C 
HETATM   13  N6  UNL     1     -22.640  61.553  44.852  1.00  0.00    -0.373 N 
ATOM     14  H61 UNL     1     -21.732  61.383  45.284  1.00  0.00     0.158 HD
ATOM     15  H62 UNL     1     -23.203  60.766  44.526  1.00  0.00     0.158 HD
HETATM   16  N7  UNL     1     -22.298  63.853  45.169  1.00  0.00    -0.063 NA
HETATM   17  N8  UNL     1     -23.326  62.868  42.067  1.00  0.00    -0.022 N 
ATOM     18  H8  UNL     1     -22.427  62.699  42.518  1.00  0.00     0.203 HD
ENDROOT
BRANCH   1  19
HETATM   19  N1  UNL     1     -22.357  62.752  40.018  1.00  0.00    -0.230 N 
HETATM   20  C1  UNL     1     -22.304  62.771  38.591  1.00  0.00     0.165 C 
ATOM     21  H1  UNL     1     -21.479  62.592  40.512  1.00  0.00     0.177 HD
ENDBRANCH   1  19
TORSDOF 1
ENDMDL
MODEL 2
REMARK VINA RESULT: -4.409249808      1.213      4.747
REMARK  1 active torsions:
REMARK  status: ('A' for Active; 'I' for Inactive)
REMARK    1  A    between atoms: N1_2  and  C2_4 
REMARK       I    between atoms: N5_13  and  C6_15 
ROOT
HETATM    1  C2  UNL     1     -25.744  63.226  41.446  1.00  0.00     0.694 A 
HETATM    2  N2  UNL     1     -25.501  63.161  42.762  1.00  0.00    -0.166 N 
ATOM      3  H2  UNL     1     -26.289  63.133  43.410  1.00  0.00     0.186 HD
HETATM    4  C3  UNL     1     -24.242  63.132  43.258  1.00  0.00     0.217 A 
HETATM    5  C4  UNL     1     -24.016  63.063  44.673  1.00  0.00     0.138 C 
HETATM    6  N3  UNL     1     -23.831  63.025  45.817  1.00  0.00    -0.188 NA
HETATM    7  N4  UNL     1     -23.198  63.169  42.392  1.00  0.00    -0.165 N 
ATOM      8  H4  UNL     1     -22.242  63.148  42.746  1.00  0.00     0.186 HD
HETATM    9  C5  UNL     1     -23.419  63.233  41.084  1.00  0.00     0.701 A 
HETATM   10  N5  UNL     1     -22.437  63.269  40.251  1.00  0.00    -0.163 N 
ATOM     11  H5  UNL     1     -21.477  63.247  40.594  1.00  0.00     0.187 HD
HETATM   12  C6  UNL     1     -22.690  63.337  38.862  1.00  0.00     0.200 C 
HETATM   13  N6  UNL     1     -22.932  62.264  38.191  1.00  0.00    -0.373 N 
ATOM     14  H61 UNL     1     -23.115  62.313  37.188  1.00  0.00     0.158 HD
ATOM     15  H62 UNL     1     -22.940  61.360  38.665  1.00  0.00     0.158 HD
HETATM   16  N7  UNL     1     -22.679  64.597  38.201  1.00  0.00    -0.063 NA
HETATM   17  N8  UNL     1     -24.699  63.262  40.607  1.00  0.00    -0.022 N 
ATOM     18  H8  UNL     1     -24.861  63.311  39.600  1.00  0.00     0.203 HD
ENDROOT
BRANCH   1  19
HETATM   19  N1  UNL     1     -26.935  63.253  40.999  1.00  0.00    -0.230 N 
HETATM   20  C1  UNL     1     -27.322  63.587  39.666  1.00  0.00     0.165 C 
ATOM     21  H1  UNL     1     -27.680  63.014  41.652  1.00  0.00     0.177 HD
ENDBRANCH   1  19
TORSDOF 1
ENDMDL
MODEL 3
REMARK VINA RESULT: -3.688898046      1.205      3.398
REMARK  1 active torsions:
REMARK  status: ('A' for Active; 'I' for Inactive)
REMARK    1  A    between atoms: N1_2  and  C2_4 
REMARK       I    between atoms: N5_13  and  C6_15 
ROOT
HETATM    1  C2  UNL     1     -25.760  63.243  40.831  1.00  0.00     0.694 A 
HETATM    2  N2  UNL     1     -24.907  63.233  39.797  1.00  0.00    -0.166 N 
ATOM      3  H2  UNL     1     -25.276  63.326  38.850  1.00  0.00     0.186 HD
HETATM    4  C3  UNL     1     -23.571  63.102  39.971  1.00  0.00     0.217 A 
HETATM    5  C4  UNL     1     -22.685  63.094  38.843  1.00  0.00     0.138 C 
HETATM    6  N3  UNL     1     -21.969  63.069  37.932  1.00  0.00    -0.188 NA
HETATM    7  N4  UNL     1     -23.087  62.979  41.233  1.00  0.00    -0.165 N 
ATOM      8  H4  UNL     1     -22.083  62.880  41.385  1.00  0.00     0.186 HD
HETATM    9  C5  UNL     1     -23.916  62.988  42.270  1.00  0.00     0.701 A 
HETATM   10  N5  UNL     1     -23.468  62.872  43.472  1.00  0.00    -0.163 N 
ATOM     11  H5  UNL     1     -22.467  62.773  43.636  1.00  0.00     0.187 HD
HETATM   12  C6  UNL     1     -24.366  62.883  44.565  1.00  0.00     0.200 C 
HETATM   13  N6  UNL     1     -24.775  64.000  45.060  1.00  0.00    -0.373 N 
ATOM     14  H61 UNL     1     -25.423  64.008  45.848  1.00  0.00     0.158 HD
ATOM     15  H62 UNL     1     -24.449  64.881  44.662  1.00  0.00     0.158 HD
HETATM   16  N7  UNL     1     -24.821  61.655  45.120  1.00  0.00    -0.063 NA
HETATM   17  N8  UNL     1     -25.261  63.120  42.069  1.00  0.00    -0.022 N 
ATOM     18  H8  UNL     1     -25.892  63.126  42.871  1.00  0.00     0.203 HD
ENDROOT
BRANCH   1  19
HETATM   19  N1  UNL     1     -27.012  63.367  40.646  1.00  0.00    -0.230 N 
HETATM   20  C1  UNL     1     -27.643  63.823  39.449  1.00  0.00     0.165 C 
ATOM     21  H1  UNL     1     -27.622  63.117  41.425  1.00  0.00     0.177 HD
ENDBRANCH   1  19
TORSDOF 1
ENDMDL
MODEL 4
REMARK VINA RESULT: -3.471630074      1.838      5.626
REMARK  1 active torsions:
REMARK  status: ('A' for Active; 'I' for Inactive)
REMARK    1  A    between atoms: N1_2  and  C2_4 
REMARK       I    between atoms: N5_13  and  C6_15 
ROOT
HETATM    1  C2  UNL     1     -25.201  63.736  44.523  1.00  0.00     0.694 A 
HETATM    2  N2  UNL     1     -24.254  63.267  45.347  1.00  0.00    -0.166 N 
ATOM      3  H2  UNL     1     -24.411  63.306  46.354  1.00  0.00     0.186 HD
HETATM    4  C3  UNL     1     -23.095  62.744  44.883  1.00  0.00     0.217 A 
HETATM    5  C4  UNL     1     -22.101  62.252  45.793  1.00  0.00     0.138 C 
HETATM    6  N3  UNL     1     -21.288  61.870  46.526  1.00  0.00    -0.188 NA
HETATM    7  N4  UNL     1     -22.891  62.694  43.543  1.00  0.00    -0.165 N 
ATOM      8  H4  UNL     1     -22.024  62.304  43.173  1.00  0.00     0.186 HD
HETATM    9  C5  UNL     1     -23.818  63.153  42.710  1.00  0.00     0.701 A 
HETATM   10  N5  UNL     1     -23.637  63.112  41.435  1.00  0.00    -0.163 N 
ATOM     11  H5  UNL     1     -22.775  62.722  41.055  1.00  0.00     0.187 HD
HETATM   12  C6  UNL     1     -24.635  63.605  40.563  1.00  0.00     0.200 C 
HETATM   13  N6  UNL     1     -25.630  62.859  40.224  1.00  0.00    -0.373 N 
ATOM     14  H61 UNL     1     -26.350  63.215  39.595  1.00  0.00     0.158 HD
ATOM     15  H62 UNL     1     -25.698  61.908  40.587  1.00  0.00     0.158 HD
HETATM   16  N7  UNL     1     -24.541  64.931  40.057  1.00  0.00    -0.063 NA
HETATM   17  N8  UNL     1     -24.980  63.677  43.201  1.00  0.00    -0.022 N 
ATOM     18  H8  UNL     1     -25.688  64.029  42.556  1.00  0.00     0.203 HD
ENDROOT
BRANCH   1  19
HETATM   19  N1  UNL     1     -26.283  64.224  44.978  1.00  0.00    -0.230 N 
HETATM   20  C1  UNL     1     -26.404  65.416  45.755  1.00  0.00     0.165 C 
ATOM     21  H1  UNL     1     -27.144  63.718  44.769  1.00  0.00     0.177 HD
ENDBRANCH   1  19
TORSDOF 1
ENDMDL
MODEL 5
REMARK VINA RESULT: -1.797316670      1.318      1.318
REMARK  1 active torsions:
REMARK  status: ('A' for Active; 'I' for Inactive)
REMARK    1  A    between atoms: N1_2  and  C2_4 
REMARK       I    between atoms: N5_13  and  C6_15 
ROOT
HETATM    1  C2  UNL     1     -23.355  62.351  40.237  1.00  0.00     0.694 A 
HETATM    2  N2  UNL     1     -24.261  62.975  39.472  1.00  0.00    -0.166 N 
ATOM      3  H2  UNL     1     -24.229  62.845  38.460  1.00  0.00     0.186 HD
HETATM    4  C3  UNL     1     -25.217  63.774  40.001  1.00  0.00     0.217 A 
HETATM    5  C4  UNL     1     -26.172  64.429  39.154  1.00  0.00     0.138 C 
HETATM    6  N3  UNL     1     -26.934  64.973  38.470  1.00  0.00    -0.188 NA
HETATM    7  N4  UNL     1     -25.255  63.943  41.346  1.00  0.00    -0.165 N 
ATOM      8  H4  UNL     1     -25.968  64.541  41.764  1.00  0.00     0.186 HD
HETATM    9  C5  UNL     1     -24.366  63.332  42.121  1.00  0.00     0.701 A 
HETATM   10  N5  UNL     1     -24.392  63.485  43.400  1.00  0.00    -0.163 N 
ATOM     11  H5  UNL     1     -25.100  64.079  43.829  1.00  0.00     0.187 HD
HETATM   12  C6  UNL     1     -23.437  62.826  44.209  1.00  0.00     0.200 C 
HETATM   13  N6  UNL     1     -23.623  61.604  44.572  1.00  0.00    -0.373 N 
ATOM     14  H61 UNL     1     -22.935  61.130  45.156  1.00  0.00     0.158 HD
ATOM     15  H62 UNL     1     -24.464  61.109  44.275  1.00  0.00     0.158 HD
HETATM   16  N7  UNL     1     -22.265  63.517  44.625  1.00  0.00    -0.063 NA
HETATM   17  N8  UNL     1     -23.410  62.531  41.564  1.00  0.00    -0.022 N 
ATOM     18  H8  UNL     1     -22.730  62.065  42.165  1.00  0.00     0.203 HD
ENDROOT
BRANCH   1  19
HETATM   19  N1  UNL     1     -22.464  61.604  39.721  1.00  0.00    -0.230 N 
HETATM   20  C1  UNL     1     -22.232  60.232  40.040  1.00  0.00     0.165 C 
ATOM     21  H1  UNL     1     -21.860  62.024  39.014  1.00  0.00     0.177 HD
ENDBRANCH   1  19
TORSDOF 1
ENDMDL
