MODEL 1
REMARK VINA RESULT: -3.467874300      0.000      0.000
REMARK  2 active torsions:
REMARK  status: ('A' for Active; 'I' for Inactive)
REMARK    1  A    between atoms: C3_7  and  N3_8 
REMARK    2  A    between atoms: C5_12  and  N4_13 
REMARK       I    between atoms: N4_13  and  C6_15 
ROOT
HETATM    1  C1  UNL     1     -22.423  61.216  39.317  1.00  0.00     0.165 C 
HETATM    2  N1  UNL     1     -22.637  62.607  38.986  1.00  0.00    -0.230 N 
ATOM      3  H1  UNL     1     -22.231  62.970  38.123  1.00  0.00     0.177 HD
HETATM    4  C2  UNL     1     -23.314  63.404  39.726  1.00  0.00     0.683 A 
HETATM    5  N2  UNL     1     -23.443  64.679  39.313  1.00  0.00    -0.155 N 
ATOM      6  H2  UNL     1     -23.020  65.002  38.443  1.00  0.00     0.188 HD
HETATM    7  C3  UNL     1     -24.157  65.507  40.098  1.00  0.00     0.241 A 
HETATM    8  O1  UNL     1     -24.707  65.097  41.224  1.00  0.00    -0.245 OA
HETATM    9  C5  UNL     1     -24.598  63.862  41.654  1.00  0.00     0.248 A 
HETATM   10  N7  UNL     1     -23.890  63.014  40.886  1.00  0.00    -0.154 N 
ATOM     11  H7  UNL     1     -23.784  62.045  41.188  1.00  0.00     0.188 HD
ENDROOT
BRANCH   9  12
HETATM   12  N4  UNL     1     -25.124  63.432  42.749  1.00  0.00    -0.296 N 
HETATM   13  C6  UNL     1     -24.417  63.111  43.907  1.00  0.00     0.189 C 
HETATM   14  N5  UNL     1     -25.050  62.790  44.973  1.00  0.00    -0.373 N 
HETATM   15  N6  UNL     1     -23.005  63.132  43.933  1.00  0.00    -0.064 NA
ATOM     16  H52 UNL     1     -26.070  62.776  44.955  1.00  0.00     0.158 HD
ATOM     17  H51 UNL     1     -24.533  62.556  45.821  1.00  0.00     0.158 HD
ATOM     18  H4  UNL     1     -26.137  63.317  42.771  1.00  0.00     0.172 HD
ENDBRANCH   9  12
BRANCH   7  19
HETATM   19  N3  UNL     1     -24.312  66.726  39.754  1.00  0.00    -0.360 N 
HETATM   20  C4  UNL     1     -24.711  67.788  40.621  1.00  0.00     0.150 C 
ATOM     21  H3  UNL     1     -24.137  66.962  38.778  1.00  0.00     0.162 HD
ENDBRANCH   7  19
TORSDOF 2
ENDMDL
MODEL 2
REMARK VINA RESULT: -2.731907112      2.423      5.572
REMARK  2 active torsions:
REMARK  status: ('A' for Active; 'I' for Inactive)
REMARK    1  A    between atoms: C3_7  and  N3_8 
REMARK    2  A    between atoms: C5_12  and  N4_13 
REMARK       I    between atoms: N4_13  and  C6_15 
ROOT
HETATM    1  C1  UNL     1     -26.556  60.116  45.676  1.00  0.00     0.165 C 
HETATM    2  N1  UNL     1     -25.234  60.567  46.051  1.00  0.00    -0.230 N 
ATOM      3  H1  UNL     1     -24.782  60.132  46.855  1.00  0.00     0.177 HD
HETATM    4  C2  UNL     1     -24.605  61.487  45.419  1.00  0.00     0.683 A 
HETATM    5  N2  UNL     1     -23.380  61.821  45.864  1.00  0.00    -0.155 N 
ATOM      6  H2  UNL     1     -22.964  61.363  46.674  1.00  0.00     0.188 HD
HETATM    7  C3  UNL     1     -22.729  62.789  45.192  1.00  0.00     0.241 A 
HETATM    8  O1  UNL     1     -23.259  63.388  44.145  1.00  0.00    -0.245 OA
HETATM    9  C5  UNL     1     -24.451  63.084  43.687  1.00  0.00     0.248 A 
HETATM   10  N7  UNL     1     -25.123  62.119  44.341  1.00  0.00    -0.154 N 
ATOM     11  H7  UNL     1     -26.053  61.856  44.014  1.00  0.00     0.188 HD
ENDROOT
BRANCH   9  12
HETATM   12  N4  UNL     1     -24.997  63.652  42.666  1.00  0.00    -0.296 N 
HETATM   13  C6  UNL     1     -24.620  63.450  41.339  1.00  0.00     0.189 C 
HETATM   14  N5  UNL     1     -25.299  63.987  40.395  1.00  0.00    -0.373 N 
HETATM   15  N6  UNL     1     -23.498  62.660  41.008  1.00  0.00    -0.064 NA
ATOM     16  H52 UNL     1     -26.110  64.558  40.634  1.00  0.00     0.158 HD
ATOM     17  H51 UNL     1     -25.024  63.839  39.424  1.00  0.00     0.158 HD
ATOM     18  H4  UNL     1     -25.765  64.299  42.844  1.00  0.00     0.172 HD
ENDBRANCH   9  12
BRANCH   7  19
HETATM   19  N3  UNL     1     -21.563  63.146  45.570  1.00  0.00    -0.360 N 
HETATM   20  C4  UNL     1     -21.257  63.817  46.792  1.00  0.00     0.150 C 
ATOM     21  H3  UNL     1     -20.784  62.935  44.947  1.00  0.00     0.162 HD
ENDBRANCH   7  19
TORSDOF 2
ENDMDL
MODEL 3
REMARK VINA RESULT: -2.698481256      1.033      4.050
REMARK  2 active torsions:
REMARK  status: ('A' for Active; 'I' for Inactive)
REMARK    1  A    between atoms: C3_7  and  N3_8 
REMARK    2  A    between atoms: C5_12  and  N4_13 
REMARK       I    between atoms: N4_13  and  C6_15 
ROOT
HETATM    1  C1  UNL     1     -22.075  62.671  37.848  1.00  0.00     0.165 C 
HETATM    2  N1  UNL     1     -22.607  62.409  39.167  1.00  0.00    -0.230 N 
ATOM      3  H1  UNL     1     -22.424  61.500  39.594  1.00  0.00     0.177 HD
HETATM    4  C2  UNL     1     -23.297  63.265  39.824  1.00  0.00     0.683 A 
HETATM    5  N2  UNL     1     -23.739  62.905  41.043  1.00  0.00    -0.155 N 
ATOM      6  H2  UNL     1     -23.535  61.985  41.433  1.00  0.00     0.188 HD
HETATM    7  C3  UNL     1     -24.462  63.813  41.724  1.00  0.00     0.241 A 
HETATM    8  O1  UNL     1     -24.731  65.004  41.228  1.00  0.00    -0.245 OA
HETATM    9  C5  UNL     1     -24.315  65.385  40.043  1.00  0.00     0.248 A 
HETATM   10  N7  UNL     1     -23.589  64.495  39.341  1.00  0.00    -0.154 N 
ATOM     11  H7  UNL     1     -23.247  64.755  38.416  1.00  0.00     0.188 HD
ENDROOT
BRANCH   9  12
HETATM   12  N4  UNL     1     -24.561  66.541  39.530  1.00  0.00    -0.296 N 
HETATM   13  C6  UNL     1     -24.815  67.704  40.256  1.00  0.00     0.189 C 
HETATM   14  N5  UNL     1     -24.946  68.822  39.645  1.00  0.00    -0.373 N 
HETATM   15  N6  UNL     1     -24.932  67.678  41.663  1.00  0.00    -0.064 NA
ATOM     16  H52 UNL     1     -24.861  68.841  38.629  1.00  0.00     0.158 HD
ATOM     17  H51 UNL     1     -25.132  69.673  40.176  1.00  0.00     0.158 HD
ATOM     18  H4  UNL     1     -24.571  66.611  38.512  1.00  0.00     0.172 HD
ENDBRANCH   9  12
BRANCH   7  19
HETATM   19  N3  UNL     1     -24.907  63.525  42.886  1.00  0.00    -0.360 N 
HETATM   20  C4  UNL     1     -24.119  63.069  43.986  1.00  0.00     0.150 C 
ATOM     21  H3  UNL     1     -25.909  63.630  43.041  1.00  0.00     0.162 HD
ENDBRANCH   7  19
TORSDOF 2
ENDMDL
MODEL 4
REMARK VINA RESULT: -2.429660612      2.569      5.820
REMARK  2 active torsions:
REMARK  status: ('A' for Active; 'I' for Inactive)
REMARK    1  A    between atoms: C3_7  and  N3_8 
REMARK    2  A    between atoms: C5_12  and  N4_13 
REMARK       I    between atoms: N4_13  and  C6_15 
ROOT
HETATM    1  C1  UNL     1     -20.636  63.610  45.192  1.00  0.00     0.165 C 
HETATM    2  N1  UNL     1     -21.533  62.666  45.823  1.00  0.00    -0.230 N 
ATOM      3  H1  UNL     1     -21.192  62.128  46.619  1.00  0.00     0.177 HD
HETATM    4  C2  UNL     1     -22.736  62.474  45.425  1.00  0.00     0.683 A 
HETATM    5  N2  UNL     1     -23.474  61.567  46.092  1.00  0.00    -0.155 N 
ATOM      6  H2  UNL     1     -23.095  61.049  46.883  1.00  0.00     0.188 HD
HETATM    7  C3  UNL     1     -24.736  61.375  45.666  1.00  0.00     0.241 A 
HETATM    8  O1  UNL     1     -25.235  62.039  44.643  1.00  0.00    -0.245 OA
HETATM    9  C5  UNL     1     -24.541  62.929  43.973  1.00  0.00     0.248 A 
HETATM   10  N7  UNL     1     -23.276  63.141  44.379  1.00  0.00    -0.154 N 
ATOM     11  H7  UNL     1     -22.705  63.825  43.883  1.00  0.00     0.188 HD
ENDROOT
BRANCH   9  12
HETATM   12  N4  UNL     1     -25.000  63.595  42.969  1.00  0.00    -0.296 N 
HETATM   13  C6  UNL     1     -24.542  63.486  41.657  1.00  0.00     0.189 C 
HETATM   14  N5  UNL     1     -25.140  64.119  40.718  1.00  0.00    -0.373 N 
HETATM   15  N6  UNL     1     -23.424  62.686  41.335  1.00  0.00    -0.064 NA
ATOM     16  H52 UNL     1     -25.948  64.697  40.950  1.00  0.00     0.158 HD
ATOM     17  H51 UNL     1     -24.805  64.040  39.757  1.00  0.00     0.158 HD
ATOM     18  H4  UNL     1     -25.759  64.252  43.149  1.00  0.00     0.172 HD
ENDBRANCH   9  12
BRANCH   7  19
HETATM   19  N3  UNL     1     -25.482  60.527  46.261  1.00  0.00    -0.360 N 
HETATM   20  C4  UNL     1     -26.759  60.081  45.805  1.00  0.00     0.150 C 
ATOM     21  H3  UNL     1     -25.136  60.135  47.136  1.00  0.00     0.162 HD
ENDBRANCH   7  19
TORSDOF 2
ENDMDL
MODEL 5
REMARK VINA RESULT: -2.339975383      2.155      4.638
REMARK  2 active torsions:
REMARK  status: ('A' for Active; 'I' for Inactive)
REMARK    1  A    between atoms: C3_7  and  N3_8 
REMARK    2  A    between atoms: C5_12  and  N4_13 
REMARK       I    between atoms: N4_13  and  C6_15 
ROOT
HETATM    1  C1  UNL     1     -22.609  63.024  44.876  1.00  0.00     0.165 C 
HETATM    2  N1  UNL     1     -23.957  63.118  44.358  1.00  0.00    -0.230 N 
ATOM      3  H1  UNL     1     -24.731  63.155  45.021  1.00  0.00     0.177 HD
HETATM    4  C2  UNL     1     -24.221  63.157  43.105  1.00  0.00     0.683 A 
HETATM    5  N2  UNL     1     -25.516  63.243  42.745  1.00  0.00    -0.155 N 
ATOM      6  H2  UNL     1     -26.261  63.276  43.440  1.00  0.00     0.188 HD
HETATM    7  C3  UNL     1     -25.781  63.284  41.426  1.00  0.00     0.241 A 
HETATM    8  O1  UNL     1     -24.825  63.241  40.521  1.00  0.00    -0.245 OA
HETATM    9  C5  UNL     1     -23.554  63.157  40.840  1.00  0.00     0.248 A 
HETATM   10  N7  UNL     1     -23.262  63.115  42.153  1.00  0.00    -0.154 N 
ATOM     11  H7  UNL     1     -22.285  63.050  42.440  1.00  0.00     0.188 HD
ENDROOT
BRANCH   9  12
HETATM   12  N4  UNL     1     -22.597  63.113  39.979  1.00  0.00    -0.296 N 
HETATM   13  C6  UNL     1     -22.733  62.729  38.645  1.00  0.00     0.189 C 
HETATM   14  N5  UNL     1     -21.734  62.821  37.850  1.00  0.00    -0.373 N 
HETATM   15  N6  UNL     1     -23.959  62.238  38.146  1.00  0.00    -0.064 NA
ATOM     16  H52 UNL     1     -20.848  63.176  38.211  1.00  0.00     0.158 HD
ATOM     17  H51 UNL     1     -21.833  62.540  36.874  1.00  0.00     0.158 HD
ATOM     18  H4  UNL     1     -21.665  63.380  40.298  1.00  0.00     0.172 HD
ENDBRANCH   9  12
BRANCH   7  19
HETATM   19  N3  UNL     1     -26.992  63.366  41.028  1.00  0.00    -0.360 N 
HETATM   20  C4  UNL     1     -27.409  63.535  39.673  1.00  0.00     0.150 C 
ATOM     21  H3  UNL     1     -27.722  63.307  41.737  1.00  0.00     0.162 HD
ENDBRANCH   7  19
TORSDOF 2
ENDMDL
