MODEL 1
REMARK VINA RESULT: -4.890126413      0.000      0.000
REMARK  4 active torsions:
REMARK  status: ('A' for Active; 'I' for Inactive)
REMARK    1  A    between atoms: O1_2  and  C2_3 
REMARK    2  A    between atoms: C3_6  and  N2_7 
REMARK    3  A    between atoms: C4_12  and  N4_13 
REMARK    4  A    between atoms: N4_13  and  C5_15 
ROOT
HETATM    1  C2  UNL     1     -23.731  62.525  39.693  1.00  0.00     0.252 A 
HETATM    2  N1  UNL     1     -25.012  62.776  39.452  1.00  0.00    -0.154 N 
ATOM      3  H1  UNL     1     -25.402  62.621  38.523  1.00  0.00     0.188 HD
HETATM    4  C3  UNL     1     -25.799  63.241  40.457  1.00  0.00     0.693 A 
HETATM    5  N3  UNL     1     -25.299  63.447  41.678  1.00  0.00    -0.022 N 
ATOM      6  H3  UNL     1     -25.903  63.796  42.422  1.00  0.00     0.203 HD
HETATM    7  C4  UNL     1     -24.021  63.199  41.926  1.00  0.00     0.701 A 
HETATM    8  N6  UNL     1     -23.250  62.740  40.927  1.00  0.00    -0.153 N 
ATOM      9  H6  UNL     1     -22.265  62.547  41.112  1.00  0.00     0.188 HD
ENDROOT
BRANCH   7  10
HETATM   10  N4  UNL     1     -23.482  63.375  43.068  1.00  0.00    -0.168 N 
ATOM     11  H4  UNL     1     -22.624  63.923  43.127  1.00  0.00     0.186 HD
BRANCH  10  12
HETATM   12  C5  UNL     1     -24.030  62.836  44.261  1.00  0.00     0.199 C 
HETATM   13  N5  UNL     1     -25.405  63.068  44.519  1.00  0.00    -0.069 NA
HETATM   14  S1  UNL     1     -23.178  61.974  45.345  1.00  0.00    -0.044 SA
ENDBRANCH  10  12
ENDBRANCH   7  10
BRANCH   4  15
HETATM   15  N2  UNL     1     -27.038  63.476  40.199  1.00  0.00    -0.234 N 
ATOM     16  H22 UNL     1     -27.307  64.139  39.473  1.00  0.00     0.174 HD
ATOM     17  H21 UNL     1     -27.745  62.980  40.742  1.00  0.00     0.174 HD
ENDBRANCH   4  15
BRANCH   1  18
HETATM   18  O1  UNL     1     -22.875  62.051  38.720  1.00  0.00    -0.326 OA
HETATM   19  C1  UNL     1     -22.152  62.918  37.865  1.00  0.00     0.213 C 
ENDBRANCH   1  18
TORSDOF 4
ENDMDL
MODEL 2
REMARK VINA RESULT: -4.828772950      3.155      4.905
REMARK  4 active torsions:
REMARK  status: ('A' for Active; 'I' for Inactive)
REMARK    1  A    between atoms: O1_2  and  C2_3 
REMARK    2  A    between atoms: C3_6  and  N2_7 
REMARK    3  A    between atoms: C4_12  and  N4_13 
REMARK    4  A    between atoms: N4_13  and  C5_15 
ROOT
HETATM    1  C2  UNL     1     -23.064  62.844  44.870  1.00  0.00     0.252 A 
HETATM    2  N1  UNL     1     -24.255  63.236  45.303  1.00  0.00    -0.154 N 
ATOM      3  H1  UNL     1     -24.454  63.268  46.303  1.00  0.00     0.188 HD
HETATM    4  C3  UNL     1     -25.207  63.595  44.402  1.00  0.00     0.693 A 
HETATM    5  N3  UNL     1     -24.956  63.557  43.092  1.00  0.00    -0.022 N 
ATOM      6  H3  UNL     1     -25.681  63.830  42.428  1.00  0.00     0.203 HD
HETATM    7  C4  UNL     1     -23.769  63.166  42.650  1.00  0.00     0.701 A 
HETATM    8  N6  UNL     1     -22.834  62.813  43.547  1.00  0.00    -0.153 N 
ATOM      9  H6  UNL     1     -21.919  62.510  43.213  1.00  0.00     0.188 HD
ENDROOT
BRANCH   7  10
HETATM   10  N4  UNL     1     -23.467  63.107  41.413  1.00  0.00    -0.168 N 
ATOM     11  H4  UNL     1     -22.592  62.657  41.143  1.00  0.00     0.186 HD
BRANCH  10  12
HETATM   12  C5  UNL     1     -24.301  63.642  40.397  1.00  0.00     0.199 C 
HETATM   13  N5  UNL     1     -24.390  65.053  40.293  1.00  0.00    -0.069 NA
HETATM   14  S1  UNL     1     -25.155  62.736  39.351  1.00  0.00    -0.044 SA
ENDBRANCH  10  12
ENDBRANCH   7  10
BRANCH   4  15
HETATM   15  N2  UNL     1     -26.354  63.973  44.848  1.00  0.00    -0.234 N 
ATOM     16  H22 UNL     1     -26.468  64.877  45.307  1.00  0.00     0.174 HD
ATOM     17  H21 UNL     1     -27.147  63.343  44.730  1.00  0.00     0.174 HD
ENDBRANCH   4  15
BRANCH   1  18
HETATM   18  O1  UNL     1     -22.051  62.466  45.727  1.00  0.00    -0.326 OA
HETATM   19  C1  UNL     1     -21.818  61.111  46.066  1.00  0.00     0.213 C 
ENDBRANCH   1  18
TORSDOF 4
ENDMDL
MODEL 3
REMARK VINA RESULT: -4.715990011      1.624      2.919
REMARK  4 active torsions:
REMARK  status: ('A' for Active; 'I' for Inactive)
REMARK    1  A    between atoms: O1_2  and  C2_3 
REMARK    2  A    between atoms: C3_6  and  N2_7 
REMARK    3  A    between atoms: C4_12  and  N4_13 
REMARK    4  A    between atoms: N4_13  and  C5_15 
ROOT
HETATM    1  C2  UNL     1     -25.297  63.457  39.966  1.00  0.00     0.252 A 
HETATM    2  N1  UNL     1     -24.092  63.192  39.476  1.00  0.00    -0.154 N 
ATOM      3  H1  UNL     1     -23.948  63.135  38.468  1.00  0.00     0.188 HD
HETATM    4  C3  UNL     1     -23.053  62.999  40.329  1.00  0.00     0.693 A 
HETATM    5  N3  UNL     1     -23.231  63.072  41.650  1.00  0.00    -0.022 N 
ATOM      6  H3  UNL     1     -22.441  62.925  42.278  1.00  0.00     0.203 HD
HETATM    7  C4  UNL     1     -24.431  63.335  42.149  1.00  0.00     0.701 A 
HETATM    8  N6  UNL     1     -25.453  63.525  41.298  1.00  0.00    -0.153 N 
ATOM      9  H6  UNL     1     -26.378  63.727  41.676  1.00  0.00     0.188 HD
ENDROOT
BRANCH   7  10
HETATM   10  N4  UNL     1     -24.667  63.418  43.399  1.00  0.00    -0.168 N 
ATOM     11  H4  UNL     1     -25.503  63.914  43.708  1.00  0.00     0.186 HD
BRANCH  10  12
HETATM   12  C5  UNL     1     -23.812  62.846  44.377  1.00  0.00     0.199 C 
HETATM   13  N5  UNL     1     -22.486  63.340  44.463  1.00  0.00    -0.069 NA
HETATM   14  S1  UNL     1     -24.262  61.664  45.399  1.00  0.00    -0.044 SA
ENDBRANCH  10  12
ENDBRANCH   7  10
BRANCH   4  15
HETATM   15  N2  UNL     1     -21.895  62.745  39.828  1.00  0.00    -0.234 N 
ATOM     16  H22 UNL     1     -21.168  62.297  40.386  1.00  0.00     0.174 HD
ATOM     17  H21 UNL     1     -21.724  63.002  38.857  1.00  0.00     0.174 HD
ENDBRANCH   4  15
BRANCH   1  18
HETATM   18  O1  UNL     1     -26.396  63.664  39.159  1.00  0.00    -0.326 OA
HETATM   19  C1  UNL     1     -27.719  63.626  39.663  1.00  0.00     0.213 C 
ENDBRANCH   1  18
TORSDOF 4
ENDMDL
MODEL 4
REMARK VINA RESULT: -4.693562512      3.203      5.290
REMARK  4 active torsions:
REMARK  status: ('A' for Active; 'I' for Inactive)
REMARK    1  A    between atoms: O1_2  and  C2_3 
REMARK    2  A    between atoms: C3_6  and  N2_7 
REMARK    3  A    between atoms: C4_12  and  N4_13 
REMARK    4  A    between atoms: N4_13  and  C5_15 
ROOT
HETATM    1  C2  UNL     1     -22.622  61.719  45.426  1.00  0.00     0.252 A 
HETATM    2  N1  UNL     1     -23.599  61.008  45.975  1.00  0.00    -0.154 N 
ATOM      3  H1  UNL     1     -23.390  60.312  46.690  1.00  0.00     0.188 HD
HETATM    4  C3  UNL     1     -24.880  61.217  45.574  1.00  0.00     0.693 A 
HETATM    5  N3  UNL     1     -25.164  62.126  44.638  1.00  0.00    -0.022 N 
ATOM      6  H3  UNL     1     -26.131  62.271  44.348  1.00  0.00     0.203 HD
HETATM    7  C4  UNL     1     -24.194  62.839  44.085  1.00  0.00     0.701 A 
HETATM    8  N6  UNL     1     -22.930  62.627  44.487  1.00  0.00    -0.153 N 
ATOM      9  H6  UNL     1     -22.180  63.173  44.064  1.00  0.00     0.188 HD
ENDROOT
BRANCH   7  10
HETATM   10  N4  UNL     1     -24.398  63.722  43.187  1.00  0.00    -0.168 N 
ATOM     11  H4  UNL     1     -24.254  64.704  43.423  1.00  0.00     0.186 HD
BRANCH  10  12
HETATM   12  C5  UNL     1     -24.818  63.391  41.873  1.00  0.00     0.199 C 
HETATM   13  N5  UNL     1     -26.193  63.114  41.670  1.00  0.00    -0.069 NA
HETATM   14  S1  UNL     1     -23.818  63.310  40.592  1.00  0.00    -0.044 SA
ENDBRANCH  10  12
ENDBRANCH   7  10
BRANCH   4  15
HETATM   15  N2  UNL     1     -25.810  60.515  46.122  1.00  0.00    -0.234 N 
ATOM     16  H22 UNL     1     -25.687  59.516  46.285  1.00  0.00     0.174 HD
ATOM     17  H21 UNL     1     -26.674  60.987  46.389  1.00  0.00     0.174 HD
ENDBRANCH   4  15
BRANCH   1  18
HETATM   18  O1  UNL     1     -21.299  61.560  45.785  1.00  0.00    -0.326 OA
HETATM   19  C1  UNL     1     -20.850  60.446  46.535  1.00  0.00     0.213 C 
ENDBRANCH   1  18
TORSDOF 4
ENDMDL
MODEL 5
REMARK VINA RESULT: -4.325355794      1.614      2.746
REMARK  4 active torsions:
REMARK  status: ('A' for Active; 'I' for Inactive)
REMARK    1  A    between atoms: O1_2  and  C2_3 
REMARK    2  A    between atoms: C3_6  and  N2_7 
REMARK    3  A    between atoms: C4_12  and  N4_13 
REMARK    4  A    between atoms: N4_13  and  C5_15 
ROOT
HETATM    1  C2  UNL     1     -25.753  63.208  40.392  1.00  0.00     0.252 A 
HETATM    2  N1  UNL     1     -25.023  62.764  39.377  1.00  0.00    -0.154 N 
ATOM      3  H1  UNL     1     -25.448  62.616  38.463  1.00  0.00     0.188 HD
HETATM    4  C3  UNL     1     -23.702  62.508  39.569  1.00  0.00     0.693 A 
HETATM    5  N3  UNL     1     -23.136  62.699  40.763  1.00  0.00    -0.022 N 
ATOM      6  H3  UNL     1     -22.143  62.503  40.891  1.00  0.00     0.203 HD
HETATM    7  C4  UNL     1     -23.858  63.142  41.782  1.00  0.00     0.701 A 
HETATM    8  N6  UNL     1     -25.163  63.392  41.584  1.00  0.00    -0.153 N 
ATOM      9  H6  UNL     1     -25.723  63.733  42.364  1.00  0.00     0.188 HD
ENDROOT
BRANCH   7  10
HETATM   10  N4  UNL     1     -23.378  63.344  42.945  1.00  0.00    -0.168 N 
ATOM     11  H4  UNL     1     -22.476  63.814  43.029  1.00  0.00     0.186 HD
BRANCH  10  12
HETATM   12  C5  UNL     1     -24.049  62.942  44.129  1.00  0.00     0.199 C 
HETATM   13  N5  UNL     1     -25.428  63.249  44.242  1.00  0.00    -0.069 NA
HETATM   14  S1  UNL     1     -23.331  62.152  45.357  1.00  0.00    -0.044 SA
ENDBRANCH  10  12
ENDBRANCH   7  10
BRANCH   4  15
HETATM   15  N2  UNL     1     -23.015  62.079  38.569  1.00  0.00    -0.234 N 
ATOM     16  H22 UNL     1     -22.660  61.123  38.547  1.00  0.00     0.174 HD
ATOM     17  H21 UNL     1     -22.835  62.721  37.798  1.00  0.00     0.174 HD
ENDBRANCH   4  15
BRANCH   1  18
HETATM   18  O1  UNL     1     -27.099  63.489  40.269  1.00  0.00    -0.326 OA
HETATM   19  C1  UNL     1     -27.621  64.210  39.168  1.00  0.00     0.213 C 
ENDBRANCH   1  18
TORSDOF 4
ENDMDL
