MODEL 1
REMARK VINA RESULT: -6.843736698      0.000      0.000
REMARK  4 active torsions:
REMARK  status: ('A' for Active; 'I' for Inactive)
REMARK    1  A    between atoms: N1_1  and  N2_4 
REMARK    2  A    between atoms: C3_9  and  N4_10 
REMARK    3  A    between atoms: N4_10  and  N5_12 
REMARK    4  A    between atoms: N5_12  and  C4_14 
ROOT
HETATM    1  N4  UNL     1      18.853  -9.025 -22.504  1.00  0.00    -0.128 N 
ATOM      2  H4  UNL     1      19.519  -8.889 -21.742  1.00  0.00     0.205 HD
ENDROOT
BRANCH   1   3
HETATM    3  C3  UNL     1      19.265  -9.590 -23.757  1.00  0.00     0.709 C 
HETATM    4  N2  UNL     1      20.270  -9.004 -24.574  1.00  0.00    -0.128 N 
HETATM    5  C1  UNL     1      20.000  -9.519 -25.903  1.00  0.00     0.187 C 
HETATM    6  C2  UNL     1      19.480 -10.897 -25.564  1.00  0.00     0.160 C 
HETATM    7  N3  UNL     1      18.810 -10.663 -24.307  1.00  0.00    -0.222 N 
ATOM      8  H3  UNL     1      18.083 -11.258 -23.912  1.00  0.00     0.177 HD
BRANCH   4   9
HETATM    9  N1  UNL     1      21.282  -8.137 -24.199  1.00  0.00    -0.329 N 
ATOM     10  H12 UNL     1      22.193  -8.002 -24.637  1.00  0.00     0.177 HD
ATOM     11  H11 UNL     1      21.281  -7.486 -23.414  1.00  0.00     0.177 HD
ENDBRANCH   4   9
ENDBRANCH   1   3
BRANCH   1  12
HETATM   12  N5  UNL     1      17.522  -8.671 -22.362  1.00  0.00    -0.249 N 
ATOM     13  H5  UNL     1      16.908  -9.266 -21.807  1.00  0.00     0.191 HD
BRANCH  12  14
HETATM   14  C4  UNL     1      17.028  -7.594 -22.921  1.00  0.00     0.263 A 
HETATM   15  N6  UNL     1      17.663  -6.766 -23.766  1.00  0.00    -0.259 N 
HETATM   16  N7  UNL     1      16.813  -5.822 -24.085  1.00  0.00    -0.242 N 
ATOM     17  H6  UNL     1      18.624  -6.854 -24.096  1.00  0.00     0.190 HD
HETATM   18  C5  UNL     1      15.648  -6.045 -23.452  1.00  0.00     0.387 A 
ATOM     19  H7  UNL     1      17.004  -5.042 -24.714  1.00  0.00     0.192 HD
HETATM   20  O1  UNL     1      14.583  -5.387 -23.481  1.00  0.00    -0.236 OA
HETATM   21  O2  UNL     1      15.821  -7.131 -22.757  1.00  0.00    -0.224 OA
ENDBRANCH  12  14
ENDBRANCH   1  12
TORSDOF 4
ENDMDL
MODEL 2
REMARK VINA RESULT: -6.834686298      3.866      5.278
REMARK  4 active torsions:
REMARK  status: ('A' for Active; 'I' for Inactive)
REMARK    1  A    between atoms: N1_1  and  N2_4 
REMARK    2  A    between atoms: C3_9  and  N4_10 
REMARK    3  A    between atoms: N4_10  and  N5_12 
REMARK    4  A    between atoms: N5_12  and  C4_14 
ROOT
HETATM    1  N4  UNL     1      21.719  -9.000 -23.656  1.00  0.00    -0.128 N 
ATOM      2  H4  UNL     1      21.176  -8.776 -22.822  1.00  0.00     0.205 HD
ENDROOT
BRANCH   1   3
HETATM    3  C3  UNL     1      23.154  -8.983 -23.633  1.00  0.00     0.709 C 
HETATM    4  N2  UNL     1      23.908  -9.069 -22.431  1.00  0.00    -0.128 N 
HETATM    5  C1  UNL     1      25.192  -8.485 -22.769  1.00  0.00     0.187 C 
HETATM    6  C2  UNL     1      25.317  -8.912 -24.214  1.00  0.00     0.160 C 
HETATM    7  N3  UNL     1      23.941  -8.894 -24.650  1.00  0.00    -0.222 N 
ATOM      8  H3  UNL     1      23.636  -8.821 -25.620  1.00  0.00     0.177 HD
BRANCH   4   9
HETATM    9  N1  UNL     1      23.516  -9.588 -21.210  1.00  0.00    -0.329 N 
ATOM     10  H12 UNL     1      23.069  -9.103 -20.432  1.00  0.00     0.177 HD
ATOM     11  H11 UNL     1      23.611 -10.550 -20.886  1.00  0.00     0.177 HD
ENDBRANCH   4   9
ENDBRANCH   1   3
BRANCH   1  12
HETATM   12  N5  UNL     1      21.097  -9.331 -24.849  1.00  0.00    -0.249 N 
ATOM     13  H5  UNL     1      21.501  -9.001 -25.725  1.00  0.00     0.191 HD
BRANCH  12  14
HETATM   14  C4  UNL     1      20.006 -10.055 -24.885  1.00  0.00     0.263 A 
HETATM   15  N6  UNL     1      19.103 -10.192 -23.900  1.00  0.00    -0.259 N 
HETATM   16  N7  UNL     1      18.173 -11.000 -24.347  1.00  0.00    -0.242 N 
ATOM     17  H6  UNL     1      19.134  -9.752 -22.981  1.00  0.00     0.190 HD
HETATM   18  C5  UNL     1      18.479 -11.374 -25.602  1.00  0.00     0.387 A 
ATOM     19  H7  UNL     1      17.348 -11.298 -23.826  1.00  0.00     0.192 HD
HETATM   20  O1  UNL     1      17.861 -12.131 -26.383  1.00  0.00    -0.236 OA
HETATM   21  O2  UNL     1      19.599 -10.778 -25.889  1.00  0.00    -0.224 OA
ENDBRANCH  12  14
ENDBRANCH   1  12
TORSDOF 4
ENDMDL
MODEL 3
REMARK VINA RESULT: -6.790533943      3.594      4.970
REMARK  4 active torsions:
REMARK  status: ('A' for Active; 'I' for Inactive)
REMARK    1  A    between atoms: N1_1  and  N2_4 
REMARK    2  A    between atoms: C3_9  and  N4_10 
REMARK    3  A    between atoms: N4_10  and  N5_12 
REMARK    4  A    between atoms: N5_12  and  C4_14 
ROOT
HETATM    1  N4  UNL     1      21.087  -7.855 -24.253  1.00  0.00    -0.128 N 
ATOM      2  H4  UNL     1      20.545  -7.093 -24.662  1.00  0.00     0.205 HD
ENDROOT
BRANCH   1   3
HETATM    3  C3  UNL     1      22.522  -7.840 -24.276  1.00  0.00     0.709 C 
HETATM    4  N2  UNL     1      23.280  -8.223 -25.416  1.00  0.00    -0.128 N 
HETATM    5  C1  UNL     1      24.578  -8.587 -24.881  1.00  0.00     0.187 C 
HETATM    6  C2  UNL     1      24.683  -7.614 -23.728  1.00  0.00     0.160 C 
HETATM    7  N3  UNL     1      23.306  -7.493 -23.313  1.00  0.00    -0.222 N 
ATOM      8  H3  UNL     1      22.998  -7.179 -22.394  1.00  0.00     0.177 HD
BRANCH   4   9
HETATM    9  N1  UNL     1      22.880  -8.248 -26.741  1.00  0.00    -0.329 N 
ATOM     10  H12 UNL     1      23.462  -8.333 -27.575  1.00  0.00     0.177 HD
ATOM     11  H11 UNL     1      21.929  -8.184 -27.103  1.00  0.00     0.177 HD
ENDBRANCH   4   9
ENDBRANCH   1   3
BRANCH   1  12
HETATM   12  N5  UNL     1      20.463  -8.939 -23.658  1.00  0.00    -0.249 N 
ATOM     13  H5  UNL     1      20.607  -9.107 -22.662  1.00  0.00     0.191 HD
BRANCH  12  14
HETATM   14  C4  UNL     1      19.694  -9.754 -24.336  1.00  0.00     0.263 A 
HETATM   15  N6  UNL     1      18.657 -10.462 -23.857  1.00  0.00    -0.259 N 
HETATM   16  N7  UNL     1      18.165 -11.144 -24.861  1.00  0.00    -0.242 N 
ATOM     17  H6  UNL     1      18.317 -10.466 -22.895  1.00  0.00     0.190 HD
HETATM   18  C5  UNL     1      18.879 -10.876 -25.968  1.00  0.00     0.387 A 
ATOM     19  H7  UNL     1      17.367 -11.777 -24.811  1.00  0.00     0.192 HD
HETATM   20  O1  UNL     1      18.743 -11.314 -27.133  1.00  0.00    -0.236 OA
HETATM   21  O2  UNL     1      19.797 -10.028 -25.605  1.00  0.00    -0.224 OA
ENDBRANCH  12  14
ENDBRANCH   1  12
TORSDOF 4
ENDMDL
MODEL 4
REMARK VINA RESULT: -6.742488049      3.574      4.793
REMARK  4 active torsions:
REMARK  status: ('A' for Active; 'I' for Inactive)
REMARK    1  A    between atoms: N1_1  and  N2_4 
REMARK    2  A    between atoms: C3_9  and  N4_10 
REMARK    3  A    between atoms: N4_10  and  N5_12 
REMARK    4  A    between atoms: N5_12  and  C4_14 
ROOT
HETATM    1  N4  UNL     1      20.913  -7.833 -24.229  1.00  0.00    -0.128 N 
ATOM      2  H4  UNL     1      20.399  -6.954 -24.153  1.00  0.00     0.205 HD
ENDROOT
BRANCH   1   3
HETATM    3  C3  UNL     1      22.172  -7.899 -24.914  1.00  0.00     0.709 C 
HETATM    4  N2  UNL     1      23.404  -7.545 -24.299  1.00  0.00    -0.128 N 
HETATM    5  C1  UNL     1      24.282  -7.227 -25.410  1.00  0.00     0.187 C 
HETATM    6  C2  UNL     1      23.776  -8.200 -26.449  1.00  0.00     0.160 C 
HETATM    7  N3  UNL     1      22.370  -8.271 -26.132  1.00  0.00    -0.222 N 
ATOM      8  H3  UNL     1      21.640  -8.572 -26.777  1.00  0.00     0.177 HD
BRANCH   4   9
HETATM    9  N1  UNL     1      23.709  -7.509 -22.950  1.00  0.00    -0.329 N 
ATOM     10  H12 UNL     1      23.586  -8.246 -22.255  1.00  0.00     0.177 HD
ATOM     11  H11 UNL     1      24.111  -6.733 -22.426  1.00  0.00     0.177 HD
ENDBRANCH   4   9
ENDBRANCH   1   3
BRANCH   1  12
HETATM   12  N5  UNL     1      20.418  -9.002 -23.676  1.00  0.00    -0.249 N 
ATOM     13  H5  UNL     1      20.668  -9.240 -22.717  1.00  0.00     0.191 HD
BRANCH  12  14
HETATM   14  C4  UNL     1      19.638  -9.812 -24.349  1.00  0.00     0.263 A 
HETATM   15  N6  UNL     1      18.587 -10.496 -23.867  1.00  0.00    -0.259 N 
HETATM   16  N7  UNL     1      18.088 -11.180 -24.866  1.00  0.00    -0.242 N 
ATOM     17  H6  UNL     1      18.243 -10.485 -22.907  1.00  0.00     0.190 HD
HETATM   18  C5  UNL     1      18.811 -10.936 -25.973  1.00  0.00     0.387 A 
ATOM     19  H7  UNL     1      17.279 -11.800 -24.813  1.00  0.00     0.192 HD
HETATM   20  O1  UNL     1      18.673 -11.384 -27.133  1.00  0.00    -0.236 OA
HETATM   21  O2  UNL     1      19.741 -10.100 -25.615  1.00  0.00    -0.224 OA
ENDBRANCH  12  14
ENDBRANCH   1  12
TORSDOF 4
ENDMDL
MODEL 5
REMARK VINA RESULT: -6.683515748      2.670      4.608
REMARK  4 active torsions:
REMARK  status: ('A' for Active; 'I' for Inactive)
REMARK    1  A    between atoms: N1_1  and  N2_4 
REMARK    2  A    between atoms: C3_9  and  N4_10 
REMARK    3  A    between atoms: N4_10  and  N5_12 
REMARK    4  A    between atoms: N5_12  and  C4_14 
ROOT
HETATM    1  N4  UNL     1      18.782  -8.943 -22.465  1.00  0.00    -0.128 N 
ATOM      2  H4  UNL     1      18.954  -8.733 -21.482  1.00  0.00     0.205 HD
ENDROOT
BRANCH   1   3
HETATM    3  C3  UNL     1      17.532  -8.610 -23.087  1.00  0.00     0.709 C 
HETATM    4  N2  UNL     1      17.325  -7.401 -23.805  1.00  0.00    -0.128 N 
HETATM    5  C1  UNL     1      15.887  -7.209 -23.779  1.00  0.00     0.187 C 
HETATM    6  C2  UNL     1      15.416  -8.645 -23.823  1.00  0.00     0.160 C 
HETATM    7  N3  UNL     1      16.458  -9.323 -23.090  1.00  0.00    -0.222 N 
ATOM      8  H3  UNL     1      16.359 -10.233 -22.640  1.00  0.00     0.177 HD
BRANCH   4   9
HETATM    9  N1  UNL     1      18.272  -6.585 -24.399  1.00  0.00    -0.329 N 
ATOM     10  H12 UNL     1      18.218  -5.582 -24.576  1.00  0.00     0.177 HD
ATOM     11  H11 UNL     1      19.186  -6.857 -24.758  1.00  0.00     0.177 HD
ENDBRANCH   4   9
ENDBRANCH   1   3
BRANCH   1  12
HETATM   12  N5  UNL     1      19.747  -9.558 -23.246  1.00  0.00    -0.249 N 
ATOM     13  H5  UNL     1      20.708  -9.596 -22.906  1.00  0.00     0.191 HD
BRANCH  12  14
HETATM   14  C4  UNL     1      19.462 -10.092 -24.408  1.00  0.00     0.263 A 
HETATM   15  N6  UNL     1      19.962  -9.729 -25.601  1.00  0.00    -0.259 N 
HETATM   16  N7  UNL     1      19.417 -10.514 -26.497  1.00  0.00    -0.242 N 
ATOM     17  H6  UNL     1      20.637  -8.985 -25.776  1.00  0.00     0.190 HD
HETATM   18  C5  UNL     1      18.579 -11.368 -25.883  1.00  0.00     0.387 A 
ATOM     19  H7  UNL     1      19.599 -10.483 -27.500  1.00  0.00     0.192 HD
HETATM   20  O1  UNL     1      17.865 -12.275 -26.368  1.00  0.00    -0.236 OA
HETATM   21  O2  UNL     1      18.636 -11.078 -24.617  1.00  0.00    -0.224 OA
ENDBRANCH  12  14
ENDBRANCH   1  12
TORSDOF 4
ENDMDL
