MODEL 1
REMARK VINA RESULT: -6.097403155      0.000      0.000
REMARK  4 active torsions:
REMARK  status: ('A' for Active; 'I' for Inactive)
REMARK    1  A    between atoms: N1_2  and  N2_3 
REMARK    2  A    between atoms: N1_2  and  N3_6 
REMARK    3  A    between atoms: N3_6  and  C2_8 
REMARK    4  A    between atoms: C3_11  and  N5_12 
ROOT
HETATM    1  C2  UNL     1      18.119  -7.590 -24.496  1.00  0.00     0.718 A 
HETATM    2  N4  UNL     1      18.624  -6.505 -25.119  1.00  0.00    -0.021 N 
ATOM      3  H4  UNL     1      19.444  -6.610 -25.717  1.00  0.00     0.203 HD
HETATM    4  C3  UNL     1      18.073  -5.289 -24.971  1.00  0.00     0.694 A 
HETATM    5  N6  UNL     1      16.994  -5.188 -24.175  1.00  0.00    -0.140 N 
ATOM      6  H6  UNL     1      16.555  -4.277 -24.044  1.00  0.00     0.189 HD
HETATM    7  C4  UNL     1      16.473  -6.278 -23.538  1.00  0.00     0.354 A 
HETATM    8  O1  UNL     1      15.458  -6.175 -22.790  1.00  0.00    -0.245 OA
HETATM    9  N7  UNL     1      17.041  -7.488 -23.700  1.00  0.00    -0.135 N 
HETATM   10  C5  UNL     1      16.502  -8.646 -23.034  1.00  0.00     0.180 C 
ENDROOT
BRANCH   1  11
HETATM   11  N3  UNL     1      18.638  -8.766 -24.629  1.00  0.00    -0.115 N 
ATOM     12  H3  UNL     1      18.155  -9.445 -25.216  1.00  0.00     0.207 HD
BRANCH  11  13
HETATM   13  N1  UNL     1      19.818  -9.150 -24.014  1.00  0.00    -0.231 N 
HETATM   14  C1  UNL     1      21.070  -9.208 -24.745  1.00  0.00     0.200 C 
BRANCH  13  15
HETATM   15  N2  UNL     1      19.811  -9.487 -22.673  1.00  0.00    -0.329 N 
ATOM     16  H22 UNL     1      19.007  -9.979 -22.282  1.00  0.00     0.178 HD
ATOM     17  H21 UNL     1      20.613  -9.235 -22.095  1.00  0.00     0.178 HD
ENDBRANCH  13  15
ENDBRANCH  11  13
ENDBRANCH   1  11
BRANCH   4  18
HETATM   18  N5  UNL     1      18.543  -4.234 -25.562  1.00  0.00    -0.234 N 
ATOM     19  H52 UNL     1      19.004  -4.320 -26.468  1.00  0.00     0.174 HD
ATOM     20  H51 UNL     1      18.473  -3.301 -25.155  1.00  0.00     0.174 HD
ENDBRANCH   4  18
TORSDOF 4
ENDMDL
MODEL 2
REMARK VINA RESULT: -5.904585511      2.554      3.456
REMARK  4 active torsions:
REMARK  status: ('A' for Active; 'I' for Inactive)
REMARK    1  A    between atoms: N1_2  and  N2_3 
REMARK    2  A    between atoms: N1_2  and  N3_6 
REMARK    3  A    between atoms: N3_6  and  C2_8 
REMARK    4  A    between atoms: C3_11  and  N5_12 
ROOT
HETATM    1  C2  UNL     1      18.863  -7.526 -25.075  1.00  0.00     0.718 A 
HETATM    2  N4  UNL     1      18.537  -6.225 -24.919  1.00  0.00    -0.021 N 
ATOM      3  H4  UNL     1      18.267  -5.886 -23.996  1.00  0.00     0.203 HD
HETATM    4  C3  UNL     1      18.561  -5.367 -25.953  1.00  0.00     0.694 A 
HETATM    5  N6  UNL     1      18.921  -5.850 -27.154  1.00  0.00    -0.140 N 
ATOM      6  H6  UNL     1      18.948  -5.221 -27.956  1.00  0.00     0.189 HD
HETATM    7  C4  UNL     1      19.253  -7.164 -27.324  1.00  0.00     0.354 A 
HETATM    8  O1  UNL     1      19.591  -7.612 -28.459  1.00  0.00    -0.245 OA
HETATM    9  N7  UNL     1      19.223  -8.008 -26.276  1.00  0.00    -0.135 N 
HETATM   10  C5  UNL     1      19.570  -9.396 -26.441  1.00  0.00     0.180 C 
ENDROOT
BRANCH   1  11
HETATM   11  N3  UNL     1      18.845  -8.363 -24.090  1.00  0.00    -0.115 N 
ATOM     12  H3  UNL     1      19.728  -8.770 -23.785  1.00  0.00     0.207 HD
BRANCH  11  13
HETATM   13  N1  UNL     1      17.686  -8.736 -23.430  1.00  0.00    -0.231 N 
HETATM   14  C1  UNL     1      16.591  -9.384 -24.126  1.00  0.00     0.200 C 
BRANCH  13  15
HETATM   15  N2  UNL     1      17.564  -8.489 -22.074  1.00  0.00    -0.329 N 
ATOM     16  H22 UNL     1      17.649  -7.534 -21.726  1.00  0.00     0.178 HD
ATOM     17  H21 UNL     1      17.392  -9.272 -21.443  1.00  0.00     0.178 HD
ENDBRANCH  13  15
ENDBRANCH  11  13
ENDBRANCH   1  11
BRANCH   4  18
HETATM   18  N5  UNL     1      18.252  -4.114 -25.823  1.00  0.00    -0.234 N 
ATOM     19  H52 UNL     1      17.681  -3.807 -25.036  1.00  0.00     0.174 HD
ATOM     20  H51 UNL     1      18.560  -3.403 -26.487  1.00  0.00     0.174 HD
ENDBRANCH   4  18
TORSDOF 4
ENDMDL
MODEL 3
REMARK VINA RESULT: -5.854426308      2.607      4.670
REMARK  4 active torsions:
REMARK  status: ('A' for Active; 'I' for Inactive)
REMARK    1  A    between atoms: N1_2  and  N2_3 
REMARK    2  A    between atoms: N1_2  and  N3_6 
REMARK    3  A    between atoms: N3_6  and  C2_8 
REMARK    4  A    between atoms: C3_11  and  N5_12 
ROOT
HETATM    1  C2  UNL     1      18.713  -7.521 -25.080  1.00  0.00     0.718 A 
HETATM    2  N4  UNL     1      17.867  -7.918 -24.106  1.00  0.00    -0.021 N 
ATOM      3  H4  UNL     1      17.559  -7.242 -23.407  1.00  0.00     0.203 HD
HETATM    4  C3  UNL     1      17.422  -9.183 -24.036  1.00  0.00     0.694 A 
HETATM    5  N6  UNL     1      17.850 -10.047 -24.973  1.00  0.00    -0.140 N 
ATOM      6  H6  UNL     1      17.527 -11.014 -24.944  1.00  0.00     0.189 HD
HETATM    7  C4  UNL     1      18.706  -9.657 -25.963  1.00  0.00     0.354 A 
HETATM    8  O1  UNL     1      19.105 -10.476 -26.842  1.00  0.00    -0.245 OA
HETATM    9  N7  UNL     1      19.142  -8.385 -26.016  1.00  0.00    -0.135 N 
HETATM   10  C5  UNL     1      20.045  -7.960 -27.055  1.00  0.00     0.180 C 
ENDROOT
BRANCH   1  11
HETATM   11  N3  UNL     1      19.151  -6.307 -25.160  1.00  0.00    -0.115 N 
ATOM     12  H3  UNL     1      20.159  -6.155 -25.158  1.00  0.00     0.207 HD
BRANCH  11  13
HETATM   13  N1  UNL     1      18.320  -5.203 -25.249  1.00  0.00    -0.231 N 
HETATM   14  C1  UNL     1      18.060  -4.551 -26.518  1.00  0.00     0.200 C 
BRANCH  13  15
HETATM   15  N2  UNL     1      17.720  -4.706 -24.106  1.00  0.00    -0.329 N 
ATOM     16  H22 UNL     1      16.704  -4.638 -24.060  1.00  0.00     0.178 HD
ATOM     17  H21 UNL     1      18.309  -4.414 -23.326  1.00  0.00     0.178 HD
ENDBRANCH  13  15
ENDBRANCH  11  13
ENDBRANCH   1  11
BRANCH   4  18
HETATM   18  N5  UNL     1      16.608  -9.584 -23.108  1.00  0.00    -0.234 N 
ATOM     19  H52 UNL     1      16.578 -10.569 -22.846  1.00  0.00     0.174 HD
ATOM     20  H51 UNL     1      15.981  -8.946 -22.617  1.00  0.00     0.174 HD
ENDBRANCH   4  18
TORSDOF 4
ENDMDL
MODEL 4
REMARK VINA RESULT: -5.748498748      0.859      1.212
REMARK  4 active torsions:
REMARK  status: ('A' for Active; 'I' for Inactive)
REMARK    1  A    between atoms: N1_2  and  N2_3 
REMARK    2  A    between atoms: N1_2  and  N3_6 
REMARK    3  A    between atoms: N3_6  and  C2_8 
REMARK    4  A    between atoms: C3_11  and  N5_12 
ROOT
HETATM    1  C2  UNL     1      18.174  -7.666 -24.684  1.00  0.00     0.718 A 
HETATM    2  N4  UNL     1      18.648  -6.542 -25.261  1.00  0.00    -0.021 N 
ATOM      3  H4  UNL     1      19.414  -6.611 -25.932  1.00  0.00     0.203 HD
HETATM    4  C3  UNL     1      18.135  -5.335 -24.974  1.00  0.00     0.694 A 
HETATM    5  N6  UNL     1      17.128  -5.282 -24.085  1.00  0.00    -0.140 N 
ATOM      6  H6  UNL     1      16.719  -4.379 -23.848  1.00  0.00     0.189 HD
HETATM    7  C4  UNL     1      16.640  -6.413 -23.494  1.00  0.00     0.354 A 
HETATM    8  O1  UNL     1      15.692  -6.355 -22.657  1.00  0.00    -0.245 OA
HETATM    9  N7  UNL     1      17.168  -7.613 -23.795  1.00  0.00    -0.135 N 
HETATM   10  C5  UNL     1      16.663  -8.813 -23.178  1.00  0.00     0.180 C 
ENDROOT
BRANCH   1  11
HETATM   11  N3  UNL     1      18.658  -8.835 -24.950  1.00  0.00    -0.115 N 
ATOM     12  H3  UNL     1      18.052  -9.647 -24.839  1.00  0.00     0.207 HD
BRANCH  11  13
HETATM   13  N1  UNL     1      19.959  -9.041 -25.379  1.00  0.00    -0.231 N 
HETATM   14  C1  UNL     1      21.072  -9.040 -24.449  1.00  0.00     0.200 C 
BRANCH  13  15
HETATM   15  N2  UNL     1      20.209  -9.254 -26.722  1.00  0.00    -0.329 N 
ATOM     16  H22 UNL     1      20.775  -8.583 -27.242  1.00  0.00     0.178 HD
ATOM     17  H21 UNL     1      19.818 -10.082 -27.172  1.00  0.00     0.178 HD
ENDBRANCH  13  15
ENDBRANCH  11  13
ENDBRANCH   1  11
BRANCH   4  18
HETATM   18  N5  UNL     1      18.576  -4.243 -25.519  1.00  0.00    -0.234 N 
ATOM     19  H52 UNL     1      18.301  -3.337 -25.141  1.00  0.00     0.174 HD
ATOM     20  H51 UNL     1      19.200  -4.249 -26.327  1.00  0.00     0.174 HD
ENDBRANCH   4  18
TORSDOF 4
ENDMDL
MODEL 5
REMARK VINA RESULT: -5.615714071      2.636      4.986
REMARK  4 active torsions:
REMARK  status: ('A' for Active; 'I' for Inactive)
REMARK    1  A    between atoms: N1_2  and  N2_3 
REMARK    2  A    between atoms: N1_2  and  N3_6 
REMARK    3  A    between atoms: N3_6  and  C2_8 
REMARK    4  A    between atoms: C3_11  and  N5_12 
ROOT
HETATM    1  C2  UNL     1      18.910  -7.347 -25.095  1.00  0.00     0.718 A 
HETATM    2  N4  UNL     1      18.399  -8.340 -24.338  1.00  0.00    -0.021 N 
ATOM      3  H4  UNL     1      17.988  -8.115 -23.432  1.00  0.00     0.203 HD
HETATM    4  C3  UNL     1      18.418  -9.619 -24.750  1.00  0.00     0.694 A 
HETATM    5  N6  UNL     1      18.968  -9.878 -25.949  1.00  0.00    -0.140 N 
ATOM      6  H6  UNL     1      18.997 -10.839 -26.287  1.00  0.00     0.189 HD
HETATM    7  C4  UNL     1      19.489  -8.881 -26.725  1.00  0.00     0.354 A 
HETATM    8  O1  UNL     1      20.006  -9.133 -27.852  1.00  0.00    -0.245 OA
HETATM    9  N7  UNL     1      19.461  -7.606 -26.294  1.00  0.00    -0.135 N 
HETATM   10  C5  UNL     1      20.007  -6.546 -27.101  1.00  0.00     0.180 C 
ENDROOT
BRANCH   1  11
HETATM   11  N3  UNL     1      18.899  -6.112 -24.712  1.00  0.00    -0.115 N 
ATOM     12  H3  UNL     1      19.776  -5.694 -24.403  1.00  0.00     0.207 HD
BRANCH  11  13
HETATM   13  N1  UNL     1      17.757  -5.330 -24.700  1.00  0.00    -0.231 N 
HETATM   14  C1  UNL     1      16.683  -5.571 -23.755  1.00  0.00     0.200 C 
BRANCH  13  15
HETATM   15  N2  UNL     1      17.631  -4.291 -25.605  1.00  0.00    -0.329 N 
ATOM     16  H22 UNL     1      17.803  -4.464 -26.596  1.00  0.00     0.178 HD
ATOM     17  H21 UNL     1      17.369  -3.367 -25.263  1.00  0.00     0.178 HD
ENDBRANCH  13  15
ENDBRANCH  11  13
ENDBRANCH   1  11
BRANCH   4  18
HETATM   18  N5  UNL     1      17.931 -10.587 -24.037  1.00  0.00    -0.234 N 
ATOM     19  H52 UNL     1      16.928 -10.635 -23.859  1.00  0.00     0.174 HD
ATOM     20  H51 UNL     1      18.517 -11.320 -23.637  1.00  0.00     0.174 HD
ENDBRANCH   4  18
TORSDOF 4
ENDMDL
