MODEL 1
REMARK VINA RESULT: -7.289256524      0.000      0.000
REMARK  2 active torsions:
REMARK  status: ('A' for Active; 'I' for Inactive)
REMARK    1  A    between atoms: N1_1  and  N2_4 
REMARK    2  A    between atoms: N2_4  and  C1_6 
ROOT
HETATM    1  C1  UNL     1      17.735  -9.214 -24.288  1.00  0.00     0.153 C 
HETATM    2  N3  UNL     1      17.789 -10.506 -24.636  1.00  0.00    -0.291 N 
ATOM      3  H3  UNL     1      17.231 -11.143 -24.066  1.00  0.00     0.172 HD
HETATM    4  C2  UNL     1      18.492 -11.078 -25.651  1.00  0.00     0.328 C 
HETATM    5  O1  UNL     1      18.489 -12.328 -25.637  1.00  0.00    -0.247 OA
HETATM    6  N4  UNL     1      19.180 -10.476 -26.652  1.00  0.00    -0.273 N 
ATOM      7  H4  UNL     1      19.534 -11.113 -27.365  1.00  0.00     0.173 HD
HETATM    8  C3  UNL     1      19.474  -9.192 -26.866  1.00  0.00     0.278 C 
HETATM    9  O2  UNL     1      20.168  -8.902 -27.889  1.00  0.00    -0.265 OA
HETATM   10  C4  UNL     1      19.110  -8.114 -26.093  1.00  0.00     0.133 A 
HETATM   11  N5  UNL     1      19.476  -6.845 -26.361  1.00  0.00    -0.346 N 
ATOM     12  H5  UNL     1      20.048  -6.516 -27.138  1.00  0.00     0.167 HD
HETATM   13  C5  UNL     1      18.923  -6.104 -25.382  1.00  0.00     0.181 A 
HETATM   14  N6  UNL     1      18.236  -6.872 -24.527  1.00  0.00    -0.347 N 
ATOM     15  H6  UNL     1      17.730  -6.542 -23.705  1.00  0.00     0.167 HD
HETATM   16  C6  UNL     1      18.324  -8.151 -24.935  1.00  0.00     0.112 A 
ENDROOT
BRANCH   1  17
HETATM   17  N2  UNL     1      17.071  -8.883 -23.243  1.00  0.00    -0.290 N 
ATOM     18  H2  UNL     1      16.057  -8.830 -23.346  1.00  0.00     0.188 HD
BRANCH  17  19
HETATM   19  N1  UNL     1      17.573  -8.593 -22.008  1.00  0.00    -0.344 N 
ATOM     20  H12 UNL     1      18.546  -8.289 -21.994  1.00  0.00     0.176 HD
ATOM     21  H11 UNL     1      17.081  -8.650 -21.116  1.00  0.00     0.176 HD
ENDBRANCH  17  19
ENDBRANCH   1  17
TORSDOF 2
ENDMDL
MODEL 2
REMARK VINA RESULT: -7.184908992      1.947      3.549
REMARK  2 active torsions:
REMARK  status: ('A' for Active; 'I' for Inactive)
REMARK    1  A    between atoms: N1_1  and  N2_4 
REMARK    2  A    between atoms: N2_4  and  C1_6 
ROOT
HETATM    1  C1  UNL     1      18.319  -6.935 -24.759  1.00  0.00     0.153 C 
HETATM    2  N3  UNL     1      17.496  -7.154 -23.725  1.00  0.00    -0.291 N 
ATOM      3  H3  UNL     1      17.097  -6.322 -23.290  1.00  0.00     0.172 HD
HETATM    4  C2  UNL     1      17.123  -8.346 -23.181  1.00  0.00     0.328 C 
HETATM    5  O1  UNL     1      16.477  -8.244 -22.116  1.00  0.00    -0.247 OA
HETATM    6  N4  UNL     1      17.360  -9.600 -23.640  1.00  0.00    -0.273 N 
ATOM      7  H4  UNL     1      16.883 -10.336 -23.121  1.00  0.00     0.173 HD
HETATM    8  C3  UNL     1      18.110 -10.036 -24.652  1.00  0.00     0.278 C 
HETATM    9  O2  UNL     1      18.177 -11.289 -24.848  1.00  0.00    -0.265 OA
HETATM   10  C4  UNL     1      18.843  -9.277 -25.535  1.00  0.00     0.133 A 
HETATM   11  N5  UNL     1      19.605  -9.798 -26.517  1.00  0.00    -0.346 N 
ATOM     12  H5  UNL     1      19.742 -10.785 -26.737  1.00  0.00     0.167 HD
HETATM   13  C5  UNL     1      20.146  -8.738 -27.145  1.00  0.00     0.181 A 
HETATM   14  N6  UNL     1      19.745  -7.590 -26.584  1.00  0.00    -0.347 N 
ATOM     15  H6  UNL     1      20.020  -6.654 -26.882  1.00  0.00     0.167 HD
HETATM   16  C6  UNL     1      18.920  -7.879 -25.561  1.00  0.00     0.112 A 
ENDROOT
BRANCH   1  17
HETATM   17  N2  UNL     1      18.609  -5.727 -25.072  1.00  0.00    -0.290 N 
ATOM     18  H2  UNL     1      19.565  -5.554 -25.382  1.00  0.00     0.188 HD
BRANCH  17  19
HETATM   19  N1  UNL     1      17.777  -4.646 -25.035  1.00  0.00    -0.344 N 
ATOM     20  H12 UNL     1      16.950  -4.752 -24.446  1.00  0.00     0.176 HD
ATOM     21  H11 UNL     1      17.897  -3.761 -25.527  1.00  0.00     0.176 HD
ENDBRANCH  17  19
ENDBRANCH   1  17
TORSDOF 2
ENDMDL
MODEL 3
REMARK VINA RESULT: -7.137516167      1.323      3.361
REMARK  2 active torsions:
REMARK  status: ('A' for Active; 'I' for Inactive)
REMARK    1  A    between atoms: N1_1  and  N2_4 
REMARK    2  A    between atoms: N2_4  and  C1_6 
ROOT
HETATM    1  C1  UNL     1      17.988  -8.527 -24.151  1.00  0.00     0.153 C 
HETATM    2  N3  UNL     1      18.221  -7.230 -24.389  1.00  0.00    -0.291 N 
ATOM      3  H3  UNL     1      17.911  -6.583 -23.665  1.00  0.00     0.172 HD
HETATM    4  C2  UNL     1      18.819  -6.665 -25.474  1.00  0.00     0.328 C 
HETATM    5  O1  UNL     1      18.751  -5.418 -25.507  1.00  0.00    -0.247 OA
HETATM    6  N4  UNL     1      19.464  -7.273 -26.501  1.00  0.00    -0.273 N 
ATOM      7  H4  UNL     1      19.932  -6.634 -27.143  1.00  0.00     0.173 HD
HETATM    8  C3  UNL     1      19.593  -8.563 -26.815  1.00  0.00     0.278 C 
HETATM    9  O2  UNL     1      20.241  -8.859 -27.866  1.00  0.00    -0.265 OA
HETATM   10  C4  UNL     1      19.094  -9.644 -26.124  1.00  0.00     0.133 A 
HETATM   11  N5  UNL     1      19.241 -10.921 -26.527  1.00  0.00    -0.346 N 
ATOM     12  H5  UNL     1      19.719 -11.256 -27.362  1.00  0.00     0.167 HD
HETATM   13  C5  UNL     1      18.620 -11.661 -25.588  1.00  0.00     0.181 A 
HETATM   14  N6  UNL     1      18.100 -10.884 -24.630  1.00  0.00    -0.347 N 
ATOM     15  H6  UNL     1      17.583 -11.211 -23.813  1.00  0.00     0.167 HD
HETATM   16  C6  UNL     1      18.374  -9.599 -24.924  1.00  0.00     0.112 A 
ENDROOT
BRANCH   1  17
HETATM   17  N2  UNL     1      17.335  -8.854 -23.098  1.00  0.00    -0.290 N 
ATOM     18  H2  UNL     1      16.524  -9.458 -23.234  1.00  0.00     0.188 HD
BRANCH  17  19
HETATM   19  N1  UNL     1      17.607  -8.482 -21.814  1.00  0.00    -0.344 N 
ATOM     20  H12 UNL     1      18.201  -7.659 -21.715  1.00  0.00     0.176 HD
ATOM     21  H11 UNL     1      17.282  -8.937 -20.961  1.00  0.00     0.176 HD
ENDBRANCH  17  19
ENDBRANCH   1  17
TORSDOF 2
ENDMDL
MODEL 4
REMARK VINA RESULT: -7.042099088      1.082      3.409
REMARK  2 active torsions:
REMARK  status: ('A' for Active; 'I' for Inactive)
REMARK    1  A    between atoms: N1_1  and  N2_4 
REMARK    2  A    between atoms: N2_4  and  C1_6 
ROOT
HETATM    1  C1  UNL     1      18.812  -7.242 -25.305  1.00  0.00     0.153 C 
HETATM    2  N3  UNL     1      19.555  -7.618 -26.354  1.00  0.00    -0.291 N 
ATOM      3  H3  UNL     1      20.096  -6.879 -26.804  1.00  0.00     0.172 HD
HETATM    4  C2  UNL     1      19.682  -8.860 -26.897  1.00  0.00     0.328 C 
HETATM    5  O1  UNL     1      20.311  -8.887 -27.977  1.00  0.00    -0.247 OA
HETATM    6  N4  UNL     1      19.219 -10.044 -26.425  1.00  0.00    -0.273 N 
ATOM      7  H4  UNL     1      19.535 -10.860 -26.948  1.00  0.00     0.173 HD
HETATM    8  C3  UNL     1      18.422 -10.326 -25.393  1.00  0.00     0.278 C 
HETATM    9  O2  UNL     1      18.122 -11.542 -25.187  1.00  0.00    -0.265 OA
HETATM   10  C4  UNL     1      17.867  -9.438 -24.501  1.00  0.00     0.133 A 
HETATM   11  N5  UNL     1      17.042  -9.801 -23.499  1.00  0.00    -0.346 N 
ATOM     12  H5  UNL     1      16.724 -10.742 -23.269  1.00  0.00     0.167 HD
HETATM   13  C5  UNL     1      16.728  -8.654 -22.868  1.00  0.00     0.181 A 
HETATM   14  N6  UNL     1      17.328  -7.606 -23.446  1.00  0.00    -0.347 N 
ATOM     15  H6  UNL     1      17.244  -6.634 -23.149  1.00  0.00     0.167 HD
HETATM   16  C6  UNL     1      18.061  -8.051 -24.483  1.00  0.00     0.112 A 
ENDROOT
BRANCH   1  17
HETATM   17  N2  UNL     1      18.767  -6.000 -24.995  1.00  0.00    -0.290 N 
ATOM     18  H2  UNL     1      19.211  -5.734 -24.116  1.00  0.00     0.188 HD
BRANCH  17  19
HETATM   19  N1  UNL     1      18.189  -4.994 -25.713  1.00  0.00    -0.344 N 
ATOM     20  H12 UNL     1      18.257  -5.087 -26.726  1.00  0.00     0.176 HD
ATOM     21  H11 UNL     1      17.705  -4.175 -25.344  1.00  0.00     0.176 HD
ENDBRANCH  17  19
ENDBRANCH   1  17
TORSDOF 2
ENDMDL
MODEL 5
REMARK VINA RESULT: -6.823501795      2.005      3.501
REMARK  2 active torsions:
REMARK  status: ('A' for Active; 'I' for Inactive)
REMARK    1  A    between atoms: N1_1  and  N2_4 
REMARK    2  A    between atoms: N2_4  and  C1_6 
ROOT
HETATM    1  C1  UNL     1      18.945  -8.348 -26.020  1.00  0.00     0.153 C 
HETATM    2  N3  UNL     1      18.829  -9.655 -25.752  1.00  0.00    -0.291 N 
ATOM      3  H3  UNL     1      19.345 -10.283 -26.369  1.00  0.00     0.172 HD
HETATM    4  C2  UNL     1      18.111 -10.254 -24.763  1.00  0.00     0.328 C 
HETATM    5  O1  UNL     1      18.049 -11.499 -24.854  1.00  0.00    -0.247 OA
HETATM    6  N4  UNL     1      17.468  -9.681 -23.715  1.00  0.00    -0.273 N 
ATOM      7  H4  UNL     1      17.091 -10.343 -23.038  1.00  0.00     0.173 HD
HETATM    8  C3  UNL     1      17.244  -8.400 -23.418  1.00  0.00     0.278 C 
HETATM    9  O2  UNL     1      16.580  -8.139 -22.367  1.00  0.00    -0.265 OA
HETATM   10  C4  UNL     1      17.653  -7.295 -24.128  1.00  0.00     0.133 A 
HETATM   11  N5  UNL     1      17.356  -6.028 -23.776  1.00  0.00    -0.346 N 
ATOM     12  H5  UNL     1      16.812  -5.720 -22.971  1.00  0.00     0.167 HD
HETATM   13  C5  UNL     1      17.934  -5.256 -24.716  1.00  0.00     0.181 A 
HETATM   14  N6  UNL     1      18.569  -6.003 -25.628  1.00  0.00    -0.347 N 
ATOM     15  H6  UNL     1      19.080  -5.649 -26.437  1.00  0.00     0.167 HD
HETATM   16  C6  UNL     1      18.420  -7.300 -25.299  1.00  0.00     0.112 A 
ENDROOT
BRANCH   1  17
HETATM   17  N2  UNL     1      19.611  -7.986 -27.054  1.00  0.00    -0.290 N 
ATOM     18  H2  UNL     1      19.358  -7.089 -27.467  1.00  0.00     0.188 HD
BRANCH  17  19
HETATM   19  N1  UNL     1      20.622  -8.671 -27.661  1.00  0.00    -0.344 N 
ATOM     20  H12 UNL     1      21.198  -8.123 -28.299  1.00  0.00     0.176 HD
ATOM     21  H11 UNL     1      20.855  -9.657 -27.542  1.00  0.00     0.176 HD
ENDBRANCH  17  19
ENDBRANCH   1  17
TORSDOF 2
ENDMDL
