MODEL 1
REMARK VINA RESULT: -7.711997868      0.000      0.000
REMARK  2 active torsions:
REMARK  status: ('A' for Active; 'I' for Inactive)
REMARK    1  A    between atoms: N4_10  and  N5_12 
REMARK    2  A    between atoms: N5_12  and  C4_14 
ROOT
HETATM    1  C1  UNL     1      18.758  -4.945 -25.882  1.00  0.00     0.197 C 
HETATM    2  N1  UNL     1      17.994  -5.700 -24.918  1.00  0.00    -0.123 N 
HETATM    3  N2  UNL     1      16.950  -5.199 -24.260  1.00  0.00    -0.235 N 
ATOM      4  H2  UNL     1      16.586  -4.252 -24.363  1.00  0.00     0.192 HD
HETATM    5  C2  UNL     1      16.456  -6.136 -23.444  1.00  0.00     0.353 A 
HETATM    6  O1  UNL     1      15.475  -6.081 -22.648  1.00  0.00    -0.245 OA
HETATM    7  N3  UNL     1      17.232  -7.223 -23.625  1.00  0.00    -0.137 N 
ATOM      8  H3  UNL     1      17.111  -8.112 -23.140  1.00  0.00     0.189 HD
HETATM    9  C3  UNL     1      18.184  -6.970 -24.531  1.00  0.00     0.717 A 
HETATM   10  N4  UNL     1      19.122  -7.727 -24.989  1.00  0.00    -0.116 N 
ATOM     11  H4  UNL     1      19.770  -7.364 -25.687  1.00  0.00     0.206 HD
ENDROOT
BRANCH  10  12
HETATM   12  N5  UNL     1      19.255  -9.039 -24.534  1.00  0.00    -0.116 N 
ATOM     13  H5  UNL     1      19.618  -9.195 -23.594  1.00  0.00     0.206 HD
BRANCH  12  14
HETATM   14  C4  UNL     1      18.938 -10.062 -25.251  1.00  0.00     0.722 A 
HETATM   15  N6  UNL     1      19.140 -10.147 -26.572  1.00  0.00    -0.115 N 
HETATM   16  N7  UNL     1      18.688 -11.348 -26.964  1.00  0.00     0.006 NA
ATOM     17  H6  UNL     1      19.558  -9.433 -27.169  1.00  0.00     0.202 HD
HETATM   18  N8  UNL     1      18.212 -12.013 -25.926  1.00  0.00     0.006 NA
HETATM   19  N9  UNL     1      18.368 -11.213 -24.858  1.00  0.00    -0.115 N 
ATOM     20  H9  UNL     1      18.096 -11.442 -23.901  1.00  0.00     0.202 HD
ENDBRANCH  12  14
ENDBRANCH  10  12
TORSDOF 2
ENDMDL
MODEL 2
REMARK VINA RESULT: -7.370676989      2.808      5.213
REMARK  2 active torsions:
REMARK  status: ('A' for Active; 'I' for Inactive)
REMARK    1  A    between atoms: N4_10  and  N5_12 
REMARK    2  A    between atoms: N5_12  and  C4_14 
ROOT
HETATM    1  C1  UNL     1      21.450  -9.498 -24.710  1.00  0.00     0.197 C 
HETATM    2  N1  UNL     1      20.142 -10.092 -24.850  1.00  0.00    -0.123 N 
HETATM    3  N2  UNL     1      19.868 -11.056 -25.727  1.00  0.00    -0.235 N 
ATOM      4  H2  UNL     1      20.535 -11.471 -26.377  1.00  0.00     0.192 HD
HETATM    5  C2  UNL     1      18.578 -11.394 -25.617  1.00  0.00     0.353 A 
HETATM    6  O1  UNL     1      17.911 -12.258 -26.254  1.00  0.00    -0.245 OA
HETATM    7  N3  UNL     1      18.076 -10.604 -24.647  1.00  0.00    -0.137 N 
ATOM      8  H3  UNL     1      17.108 -10.620 -24.327  1.00  0.00     0.189 HD
HETATM    9  C3  UNL     1      19.027  -9.796 -24.165  1.00  0.00     0.717 A 
HETATM   10  N4  UNL     1      18.970  -8.898 -23.242  1.00  0.00    -0.116 N 
ATOM     11  H4  UNL     1      19.806  -8.368 -22.998  1.00  0.00     0.206 HD
ENDROOT
BRANCH  10  12
HETATM   12  N5  UNL     1      17.771  -8.649 -22.574  1.00  0.00    -0.116 N 
ATOM     13  H5  UNL     1      17.585  -9.146 -21.703  1.00  0.00     0.206 HD
BRANCH  12  14
HETATM   14  C4  UNL     1      16.889  -7.817 -23.009  1.00  0.00     0.722 A 
HETATM   15  N6  UNL     1      15.715  -8.176 -23.545  1.00  0.00    -0.115 N 
HETATM   16  N7  UNL     1      15.071  -7.047 -23.877  1.00  0.00     0.006 NA
ATOM     17  H6  UNL     1      15.375  -9.129 -23.675  1.00  0.00     0.202 HD
HETATM   18  N8  UNL     1      15.809  -5.997 -23.564  1.00  0.00     0.006 NA
HETATM   19  N9  UNL     1      16.942  -6.475 -23.023  1.00  0.00    -0.115 N 
ATOM     20  H9  UNL     1      17.718  -5.909 -22.677  1.00  0.00     0.202 HD
ENDBRANCH  12  14
ENDBRANCH  10  12
TORSDOF 2
ENDMDL
MODEL 3
REMARK VINA RESULT: -7.342995820      1.635      2.230
REMARK  2 active torsions:
REMARK  status: ('A' for Active; 'I' for Inactive)
REMARK    1  A    between atoms: N4_10  and  N5_12 
REMARK    2  A    between atoms: N5_12  and  C4_14 
ROOT
HETATM    1  C1  UNL     1      16.150  -6.002 -23.385  1.00  0.00     0.197 C 
HETATM    2  N1  UNL     1      17.248  -5.815 -24.303  1.00  0.00    -0.123 N 
HETATM    3  N2  UNL     1      17.504  -4.657 -24.908  1.00  0.00    -0.235 N 
ATOM      4  H2  UNL     1      16.967  -3.798 -24.792  1.00  0.00     0.192 HD
HETATM    5  C2  UNL     1      18.579  -4.801 -25.692  1.00  0.00     0.353 A 
HETATM    6  O1  UNL     1      19.157  -3.958 -26.436  1.00  0.00    -0.245 OA
HETATM    7  N3  UNL     1      18.967  -6.083 -25.545  1.00  0.00    -0.137 N 
ATOM      8  H3  UNL     1      19.766  -6.507 -26.018  1.00  0.00     0.189 HD
HETATM    9  C3  UNL     1      18.157  -6.721 -24.692  1.00  0.00     0.717 A 
HETATM   10  N4  UNL     1      18.175  -7.942 -24.279  1.00  0.00    -0.116 N 
ATOM     11  H4  UNL     1      17.469  -8.264 -23.618  1.00  0.00     0.206 HD
ENDROOT
BRANCH  10  12
HETATM   12  N5  UNL     1      19.156  -8.825 -24.732  1.00  0.00    -0.116 N 
ATOM     13  H5  UNL     1      20.135  -8.593 -24.568  1.00  0.00     0.206 HD
BRANCH  12  14
HETATM   14  C4  UNL     1      18.877  -9.922 -25.349  1.00  0.00     0.722 A 
HETATM   15  N6  UNL     1      19.027 -10.103 -26.667  1.00  0.00    -0.115 N 
HETATM   16  N7  UNL     1      18.640 -11.358 -26.939  1.00  0.00     0.006 NA
ATOM     17  H6  UNL     1      19.372  -9.416 -27.338  1.00  0.00     0.202 HD
HETATM   18  N8  UNL     1      18.253 -11.963 -25.830  1.00  0.00     0.006 NA
HETATM   19  N9  UNL     1      18.401 -11.069 -24.838  1.00  0.00    -0.115 N 
ATOM     20  H9  UNL     1      18.185 -11.235 -23.854  1.00  0.00     0.202 HD
ENDBRANCH  12  14
ENDBRANCH  10  12
TORSDOF 2
ENDMDL
MODEL 4
REMARK VINA RESULT: -7.130056726      1.235      1.372
REMARK  2 active torsions:
REMARK  status: ('A' for Active; 'I' for Inactive)
REMARK    1  A    between atoms: N4_10  and  N5_12 
REMARK    2  A    between atoms: N5_12  and  C4_14 
ROOT
HETATM    1  C1  UNL     1      20.319  -5.263 -27.105  1.00  0.00     0.197 C 
HETATM    2  N1  UNL     1      19.326  -5.569 -26.102  1.00  0.00    -0.123 N 
HETATM    3  N2  UNL     1      18.424  -4.687 -25.675  1.00  0.00    -0.235 N 
ATOM      4  H2  UNL     1      18.337  -3.725 -26.001  1.00  0.00     0.192 HD
HETATM    5  C2  UNL     1      17.650  -5.266 -24.749  1.00  0.00     0.353 A 
HETATM    6  O1  UNL     1      16.680  -4.791 -24.093  1.00  0.00    -0.245 OA
HETATM    7  N3  UNL     1      18.111  -6.527 -24.627  1.00  0.00    -0.137 N 
ATOM      8  H3  UNL     1      17.727  -7.228 -23.993  1.00  0.00     0.189 HD
HETATM    9  C3  UNL     1      19.143  -6.729 -25.454  1.00  0.00     0.717 A 
HETATM   10  N4  UNL     1      19.864  -7.780 -25.648  1.00  0.00    -0.116 N 
ATOM     11  H4  UNL     1      20.623  -7.756 -26.328  1.00  0.00     0.206 HD
ENDROOT
BRANCH  10  12
HETATM   12  N5  UNL     1      19.610  -8.951 -24.933  1.00  0.00    -0.116 N 
ATOM     13  H5  UNL     1      19.804  -8.962 -23.932  1.00  0.00     0.206 HD
BRANCH  12  14
HETATM   14  C4  UNL     1      19.140 -10.018 -25.482  1.00  0.00     0.722 A 
HETATM   15  N6  UNL     1      19.181 -10.267 -26.797  1.00  0.00    -0.115 N 
HETATM   16  N7  UNL     1      18.602 -11.462 -26.990  1.00  0.00     0.006 NA
ATOM     17  H6  UNL     1      19.578  -9.663 -27.517  1.00  0.00     0.202 HD
HETATM   18  N8  UNL     1      18.202 -11.962 -25.835  1.00  0.00     0.006 NA
HETATM   19  N9  UNL     1      18.537 -11.063 -24.894  1.00  0.00    -0.115 N 
ATOM     20  H9  UNL     1      18.362 -11.160 -23.893  1.00  0.00     0.202 HD
ENDBRANCH  12  14
ENDBRANCH  10  12
TORSDOF 2
ENDMDL
MODEL 5
REMARK VINA RESULT: -6.939827072      2.301      2.859
REMARK  2 active torsions:
REMARK  status: ('A' for Active; 'I' for Inactive)
REMARK    1  A    between atoms: N4_10  and  N5_12 
REMARK    2  A    between atoms: N5_12  and  C4_14 
ROOT
HETATM    1  C1  UNL     1      17.390  -5.192 -24.587  1.00  0.00     0.197 C 
HETATM    2  N1  UNL     1      18.524  -5.556 -25.404  1.00  0.00    -0.123 N 
HETATM    3  N2  UNL     1      19.093  -4.724 -26.274  1.00  0.00    -0.235 N 
ATOM      4  H2  UNL     1      18.799  -3.764 -26.454  1.00  0.00     0.192 HD
HETATM    5  C2  UNL     1      20.113  -5.349 -26.874  1.00  0.00     0.353 A 
HETATM    6  O1  UNL     1      20.914  -4.928 -27.757  1.00  0.00    -0.245 OA
HETATM    7  N3  UNL     1      20.145  -6.587 -26.341  1.00  0.00    -0.137 N 
ATOM      8  H3  UNL     1      20.816  -7.312 -26.594  1.00  0.00     0.189 HD
HETATM    9  C3  UNL     1      19.172  -6.730 -25.434  1.00  0.00     0.717 A 
HETATM   10  N4  UNL     1      18.856  -7.742 -24.702  1.00  0.00    -0.116 N 
ATOM     11  H4  UNL     1      18.072  -7.674 -24.054  1.00  0.00     0.206 HD
ENDROOT
BRANCH  10  12
HETATM   12  N5  UNL     1      19.580  -8.931 -24.792  1.00  0.00    -0.116 N 
ATOM     13  H5  UNL     1      20.502  -8.975 -24.356  1.00  0.00     0.206 HD
BRANCH  12  14
HETATM   14  C4  UNL     1      19.136  -9.976 -25.400  1.00  0.00     0.722 A 
HETATM   15  N6  UNL     1      19.186 -10.153 -26.727  1.00  0.00    -0.115 N 
HETATM   16  N7  UNL     1      18.634 -11.348 -26.987  1.00  0.00     0.006 NA
ATOM     17  H6  UNL     1      19.572  -9.502 -27.411  1.00  0.00     0.202 HD
HETATM   18  N8  UNL     1      18.241 -11.919 -25.862  1.00  0.00     0.006 NA
HETATM   19  N9  UNL     1      18.554 -11.065 -24.872  1.00  0.00    -0.115 N 
ATOM     20  H9  UNL     1      18.377 -11.220 -23.879  1.00  0.00     0.202 HD
ENDBRANCH  12  14
ENDBRANCH  10  12
TORSDOF 2
ENDMDL
