MODEL 1
REMARK VINA RESULT: -7.528430277      0.000      0.000
REMARK  7 active torsions:
REMARK  status: ('A' for Active; 'I' for Inactive)
REMARK    1  A    between atoms: N1_1  and  C1_5 
REMARK    2  A    between atoms: C1_5  and  C2_6 
REMARK    3  A    between atoms: C4_8  and  C5_9 
REMARK       I    between atoms: C5_9  and  N2_11 
REMARK    4  A    between atoms: N2_11  and  C6_13 
REMARK    5  A    between atoms: N4_20  and  C11_21 
REMARK    6  A    between atoms: C11_21  and  C12_22 
REMARK    7  A    between atoms: C13_24  and  C14_25 
ROOT
HETATM    1  C2  UNL     1      35.371  28.162  22.774  1.00  0.00     0.042 C 
HETATM    2  C3  UNL     1      36.236  29.165  23.450  1.00  0.00     0.053 C 
HETATM    3  C4  UNL     1      35.247  30.081  24.123  1.00  0.00     0.315 C 
HETATM    4  N4  UNL     1      34.127  30.172  23.170  1.00  0.00     0.105 N 
HETATM    5  C18 UNL     1      34.073  28.860  22.552  1.00  0.00     0.280 C 
ENDROOT
BRANCH   3   6
HETATM    6  C5  UNL     1      34.796  29.637  25.443  1.00  0.00     0.257 C 
HETATM    7  O1  UNL     1      33.595  29.294  25.590  1.00  0.00    -0.271 OA
HETATM    8  N2  UNL     1      35.670  29.585  26.553  1.00  0.00    -0.311 N 
ATOM      9  H2  UNL     1      36.049  30.461  26.915  1.00  0.00     0.170 HD
BRANCH   8  10
HETATM   10  C6  UNL     1      36.009  28.495  27.124  1.00  0.00     0.107 A 
HETATM   11  C7  UNL     1      37.155  28.453  27.876  1.00  0.00     0.048 A 
HETATM   12  C8  UNL     1      37.530  27.258  28.502  1.00  0.00     0.005 A 
HETATM   13  C9  UNL     1      36.695  26.165  28.316  1.00  0.00     0.017 A 
HETATM   14  C10 UNL     1      35.548  26.272  27.542  1.00  0.00     0.089 A 
HETATM   15  N3  UNL     1      35.202  27.417  26.951  1.00  0.00    -0.352 N 
ATOM     16  H3  UNL     1      34.355  27.480  26.385  1.00  0.00     0.166 HD
ENDBRANCH   8  10
ENDBRANCH   3   6
BRANCH   4  17
HETATM   17  C11 UNL     1      34.510  31.200  22.246  1.00  0.00     0.306 C 
BRANCH  17  18
HETATM   18  C12 UNL     1      33.381  32.061  21.740  1.00  0.00     0.168 C 
HETATM   19  O2  UNL     1      32.553  31.204  21.018  1.00  0.00    -0.373 OA
HETATM   20  C13 UNL     1      32.659  31.357  19.637  1.00  0.00     0.154 C 
HETATM   21  C15 UNL     1      32.101  32.738  19.383  1.00  0.00     0.003 C 
HETATM   22  C16 UNL     1      32.730  33.684  20.063  1.00  0.00    -0.010 C 
HETATM   23  C17 UNL     1      33.847  33.226  20.934  1.00  0.00     0.111 C 
HETATM   24 BR2  UNL     1      34.442  34.719  21.973  1.00  0.00    -0.084 Br
BRANCH  20  25
HETATM   25  C14 UNL     1      31.787  30.334  18.992  1.00  0.00     0.121 C 
HETATM   26 BR1  UNL     1      30.199  31.092  18.212  1.00  0.00    -0.093 Br
ENDBRANCH  20  25
ENDBRANCH  17  18
ENDBRANCH   4  17
BRANCH   1  27
HETATM   27  C1  UNL     1      35.976  27.636  21.485  1.00  0.00     0.236 C 
BRANCH  27  28
HETATM   28  N1  UNL     1      34.915  27.250  20.601  1.00  0.00    -0.079 N 
ATOM     29  H13 UNL     1      35.043  26.310  20.227  1.00  0.00     0.274 HD
ATOM     30  H12 UNL     1      34.036  27.088  21.094  1.00  0.00     0.274 HD
ATOM     31  H11 UNL     1      34.827  27.953  19.868  1.00  0.00     0.274 HD
ENDBRANCH  27  28
ENDBRANCH   1  27
TORSDOF 7
ENDMDL
MODEL 2
REMARK VINA RESULT: -7.357337960      3.810      8.203
REMARK  7 active torsions:
REMARK  status: ('A' for Active; 'I' for Inactive)
REMARK    1  A    between atoms: N1_1  and  C1_5 
REMARK    2  A    between atoms: C1_5  and  C2_6 
REMARK    3  A    between atoms: C4_8  and  C5_9 
REMARK       I    between atoms: C5_9  and  N2_11 
REMARK    4  A    between atoms: N2_11  and  C6_13 
REMARK    5  A    between atoms: N4_20  and  C11_21 
REMARK    6  A    between atoms: C11_21  and  C12_22 
REMARK    7  A    between atoms: C13_24  and  C14_25 
ROOT
HETATM    1  C2  UNL     1      35.612  31.028  25.612  1.00  0.00     0.042 C 
HETATM    2  C3  UNL     1      35.948  29.910  24.691  1.00  0.00     0.053 C 
HETATM    3  C4  UNL     1      34.927  28.856  25.035  1.00  0.00     0.315 C 
HETATM    4  N4  UNL     1      34.766  28.968  26.495  1.00  0.00     0.105 N 
HETATM    5  C18 UNL     1      34.930  30.384  26.769  1.00  0.00     0.280 C 
ENDROOT
BRANCH   3   6
HETATM    6  C5  UNL     1      33.645  28.991  24.341  1.00  0.00     0.257 C 
HETATM    7  O1  UNL     1      32.635  29.356  24.996  1.00  0.00    -0.271 OA
HETATM    8  N2  UNL     1      33.512  28.723  22.959  1.00  0.00    -0.311 N 
ATOM      9  H2  UNL     1      33.651  27.766  22.634  1.00  0.00     0.170 HD
BRANCH   8  10
HETATM   10  C6  UNL     1      33.227  29.621  22.098  1.00  0.00     0.107 A 
HETATM   11  C7  UNL     1      32.558  29.272  20.953  1.00  0.00     0.048 A 
HETATM   12  C8  UNL     1      32.245  30.256  20.006  1.00  0.00     0.005 A 
HETATM   13  C9  UNL     1      32.644  31.553  20.296  1.00  0.00     0.017 A 
HETATM   14  C10 UNL     1      33.319  31.842  21.474  1.00  0.00     0.089 A 
HETATM   15  N3  UNL     1      33.610  30.896  22.367  1.00  0.00    -0.352 N 
ATOM     16  H3  UNL     1      34.107  31.123  23.229  1.00  0.00     0.166 HD
ENDBRANCH   8  10
ENDBRANCH   3   6
BRANCH   4  17
HETATM   17  C11 UNL     1      35.827  28.175  27.046  1.00  0.00     0.306 C 
BRANCH  17  18
HETATM   18  C12 UNL     1      35.915  26.765  26.518  1.00  0.00     0.168 C 
HETATM   19  O2  UNL     1      35.200  25.983  27.423  1.00  0.00    -0.373 OA
HETATM   20  C13 UNL     1      36.011  25.216  28.259  1.00  0.00     0.154 C 
HETATM   21  C15 UNL     1      36.661  24.225  27.322  1.00  0.00     0.003 C 
HETATM   22  C16 UNL     1      37.329  24.806  26.336  1.00  0.00    -0.010 C 
HETATM   23  C17 UNL     1      37.318  26.295  26.331  1.00  0.00     0.111 C 
HETATM   24 BR2  UNL     1      38.143  26.891  24.711  1.00  0.00    -0.084 Br
BRANCH  20  25
HETATM   25  C14 UNL     1      35.128  24.495  29.221  1.00  0.00     0.121 C 
HETATM   26 BR1  UNL     1      35.952  22.916  29.950  1.00  0.00    -0.093 Br
ENDBRANCH  20  25
ENDBRANCH  17  18
ENDBRANCH   4  17
BRANCH   1  27
HETATM   27  C1  UNL     1      36.828  31.834  26.028  1.00  0.00     0.236 C 
BRANCH  27  28
HETATM   28  N1  UNL     1      36.970  32.950  25.140  1.00  0.00    -0.079 N 
ATOM     29  H13 UNL     1      36.233  33.643  25.265  1.00  0.00     0.274 HD
ATOM     30  H12 UNL     1      37.764  33.543  25.381  1.00  0.00     0.274 HD
ATOM     31  H11 UNL     1      37.019  32.603  24.182  1.00  0.00     0.274 HD
ENDBRANCH  27  28
ENDBRANCH   1  27
TORSDOF 7
ENDMDL
MODEL 3
REMARK VINA RESULT: -7.222140513      3.678      5.518
REMARK  7 active torsions:
REMARK  status: ('A' for Active; 'I' for Inactive)
REMARK    1  A    between atoms: N1_1  and  C1_5 
REMARK    2  A    between atoms: C1_5  and  C2_6 
REMARK    3  A    between atoms: C4_8  and  C5_9 
REMARK       I    between atoms: C5_9  and  N2_11 
REMARK    4  A    between atoms: N2_11  and  C6_13 
REMARK    5  A    between atoms: N4_20  and  C11_21 
REMARK    6  A    between atoms: C11_21  and  C12_22 
REMARK    7  A    between atoms: C13_24  and  C14_25 
ROOT
HETATM    1  C2  UNL     1      36.372  29.687  26.904  1.00  0.00     0.042 C 
HETATM    2  C3  UNL     1      37.191  29.487  25.679  1.00  0.00     0.053 C 
HETATM    3  C4  UNL     1      36.580  30.447  24.692  1.00  0.00     0.315 C 
HETATM    4  N4  UNL     1      35.136  30.395  24.978  1.00  0.00     0.105 N 
HETATM    5  C18 UNL     1      35.059  30.194  26.413  1.00  0.00     0.280 C 
ENDROOT
BRANCH   3   6
HETATM    6  C5  UNL     1      37.094  31.816  24.765  1.00  0.00     0.257 C 
HETATM    7  O1  UNL     1      36.900  32.482  25.814  1.00  0.00    -0.271 OA
HETATM    8  N2  UNL     1      37.801  32.407  23.692  1.00  0.00    -0.311 N 
ATOM      9  H2  UNL     1      37.302  32.582  22.820  1.00  0.00     0.170 HD
BRANCH   8  10
HETATM   10  C6  UNL     1      39.033  32.733  23.763  1.00  0.00     0.107 A 
HETATM   11  C7  UNL     1      39.875  32.423  22.726  1.00  0.00     0.048 A 
HETATM   12  C8  UNL     1      41.228  32.778  22.802  1.00  0.00     0.005 A 
HETATM   13  C9  UNL     1      41.638  33.438  23.952  1.00  0.00     0.017 A 
HETATM   14  C10 UNL     1      40.736  33.724  24.967  1.00  0.00     0.089 A 
HETATM   15  N3  UNL     1      39.450  33.380  24.882  1.00  0.00    -0.352 N 
ATOM     16  H3  UNL     1      38.797  33.597  25.636  1.00  0.00     0.166 HD
ENDBRANCH   8  10
ENDBRANCH   3   6
BRANCH   4  17
HETATM   17  C11 UNL     1      34.653  29.266  24.237  1.00  0.00     0.306 C 
BRANCH  17  18
HETATM   18  C12 UNL     1      34.903  29.317  22.751  1.00  0.00     0.168 C 
HETATM   19  O2  UNL     1      33.739  29.843  22.195  1.00  0.00    -0.373 OA
HETATM   20  C13 UNL     1      32.950  28.891  21.550  1.00  0.00     0.154 C 
HETATM   21  C15 UNL     1      33.788  28.470  20.366  1.00  0.00     0.003 C 
HETATM   22  C16 UNL     1      34.982  28.011  20.713  1.00  0.00    -0.010 C 
HETATM   23  C17 UNL     1      35.273  27.994  22.172  1.00  0.00     0.111 C 
HETATM   24 BR2  UNL     1      37.110  27.513  22.406  1.00  0.00    -0.084 Br
BRANCH  20  25
HETATM   25  C14 UNL     1      31.710  29.568  21.075  1.00  0.00     0.121 C 
HETATM   26 BR1  UNL     1      31.919  30.381  19.343  1.00  0.00    -0.093 Br
ENDBRANCH  20  25
ENDBRANCH  17  18
ENDBRANCH   4  17
BRANCH   1  27
HETATM   27  C1  UNL     1      36.233  28.423  27.733  1.00  0.00     0.236 C 
BRANCH  27  28
HETATM   28  N1  UNL     1      34.927  27.872  27.520  1.00  0.00    -0.079 N 
ATOM     29  H13 UNL     1      34.286  28.542  27.094  1.00  0.00     0.274 HD
ATOM     30  H12 UNL     1      34.915  27.172  26.778  1.00  0.00     0.274 HD
ATOM     31  H11 UNL     1      34.576  27.508  28.406  1.00  0.00     0.274 HD
ENDBRANCH  27  28
ENDBRANCH   1  27
TORSDOF 7
ENDMDL
MODEL 4
REMARK VINA RESULT: -7.202797857      3.222      6.801
REMARK  7 active torsions:
REMARK  status: ('A' for Active; 'I' for Inactive)
REMARK    1  A    between atoms: N1_1  and  C1_5 
REMARK    2  A    between atoms: C1_5  and  C2_6 
REMARK    3  A    between atoms: C4_8  and  C5_9 
REMARK       I    between atoms: C5_9  and  N2_11 
REMARK    4  A    between atoms: N2_11  and  C6_13 
REMARK    5  A    between atoms: N4_20  and  C11_21 
REMARK    6  A    between atoms: C11_21  and  C12_22 
REMARK    7  A    between atoms: C13_24  and  C14_25 
ROOT
HETATM    1  C2  UNL     1      35.432  27.855  26.693  1.00  0.00     0.042 C 
HETATM    2  C3  UNL     1      35.125  29.310  26.700  1.00  0.00     0.053 C 
HETATM    3  C4  UNL     1      35.140  29.676  25.239  1.00  0.00     0.315 C 
HETATM    4  N4  UNL     1      36.227  28.862  24.669  1.00  0.00     0.105 N 
HETATM    5  C18 UNL     1      36.188  27.626  25.429  1.00  0.00     0.280 C 
ENDROOT
BRANCH   3   6
HETATM    6  C5  UNL     1      33.875  29.453  24.535  1.00  0.00     0.257 C 
HETATM    7  O1  UNL     1      32.797  29.719  25.125  1.00  0.00    -0.271 OA
HETATM    8  N2  UNL     1      33.834  28.947  23.215  1.00  0.00    -0.311 N 
ATOM      9  H2  UNL     1      34.159  27.994  23.050  1.00  0.00     0.170 HD
BRANCH   8  10
HETATM   10  C6  UNL     1      33.409  29.625  22.221  1.00  0.00     0.107 A 
HETATM   11  C7  UNL     1      32.809  28.981  21.169  1.00  0.00     0.048 A 
HETATM   12  C8  UNL     1      32.344  29.723  20.076  1.00  0.00     0.005 A 
HETATM   13  C9  UNL     1      32.525  31.098  20.131  1.00  0.00     0.017 A 
HETATM   14  C10 UNL     1      33.139  31.691  21.225  1.00  0.00     0.089 A 
HETATM   15  N3  UNL     1      33.578  30.972  22.259  1.00  0.00    -0.352 N 
ATOM     16  H3  UNL     1      34.029  31.422  23.057  1.00  0.00     0.166 HD
ENDBRANCH   8  10
ENDBRANCH   3   6
BRANCH   4  17
HETATM   17  C11 UNL     1      37.421  29.619  24.911  1.00  0.00     0.306 C 
BRANCH  17  18
HETATM   18  C12 UNL     1      37.976  30.343  23.710  1.00  0.00     0.168 C 
HETATM   19  O2  UNL     1      39.171  29.695  23.403  1.00  0.00    -0.373 OA
HETATM   20  C13 UNL     1      40.306  30.415  23.769  1.00  0.00     0.154 C 
HETATM   21  C15 UNL     1      40.277  31.622  22.861  1.00  0.00     0.003 C 
HETATM   22  C16 UNL     1      39.158  32.323  22.967  1.00  0.00    -0.010 C 
HETATM   23  C17 UNL     1      38.156  31.806  23.938  1.00  0.00     0.111 C 
HETATM   24 BR2  UNL     1      36.556  32.839  23.749  1.00  0.00    -0.084 Br
BRANCH  20  25
HETATM   25  C14 UNL     1      41.501  29.579  23.459  1.00  0.00     0.121 C 
HETATM   26 BR1  UNL     1      41.528  28.963  21.637  1.00  0.00    -0.093 Br
ENDBRANCH  20  25
ENDBRANCH  17  18
ENDBRANCH   4  17
BRANCH   1  27
HETATM   27  C1  UNL     1      36.203  27.410  27.921  1.00  0.00     0.236 C 
BRANCH  27  28
HETATM   28  N1  UNL     1      37.201  28.395  28.222  1.00  0.00    -0.079 N 
ATOM     29  H13 UNL     1      37.631  28.783  27.383  1.00  0.00     0.274 HD
ATOM     30  H12 UNL     1      36.798  29.258  28.588  1.00  0.00     0.274 HD
ATOM     31  H11 UNL     1      37.886  27.985  28.857  1.00  0.00     0.274 HD
ENDBRANCH  27  28
ENDBRANCH   1  27
TORSDOF 7
ENDMDL
MODEL 5
REMARK VINA RESULT: -7.167500423      3.127      4.730
REMARK  7 active torsions:
REMARK  status: ('A' for Active; 'I' for Inactive)
REMARK    1  A    between atoms: N1_1  and  C1_5 
REMARK    2  A    between atoms: C1_5  and  C2_6 
REMARK    3  A    between atoms: C4_8  and  C5_9 
REMARK       I    between atoms: C5_9  and  N2_11 
REMARK    4  A    between atoms: N2_11  and  C6_13 
REMARK    5  A    between atoms: N4_20  and  C11_21 
REMARK    6  A    between atoms: C11_21  and  C12_22 
REMARK    7  A    between atoms: C13_24  and  C14_25 
ROOT
HETATM    1  C2  UNL     1      35.093  28.752  27.454  1.00  0.00     0.042 C 
HETATM    2  C3  UNL     1      35.382  27.599  26.561  1.00  0.00     0.053 C 
HETATM    3  C4  UNL     1      36.886  27.602  26.463  1.00  0.00     0.315 C 
HETATM    4  N4  UNL     1      37.247  29.029  26.441  1.00  0.00     0.105 N 
HETATM    5  C18 UNL     1      36.261  29.664  27.296  1.00  0.00     0.280 C 
ENDROOT
BRANCH   3   6
HETATM    6  C5  UNL     1      37.574  26.889  27.541  1.00  0.00     0.257 C 
HETATM    7  O1  UNL     1      38.263  27.547  28.361  1.00  0.00    -0.271 OA
HETATM    8  N2  UNL     1      37.485  25.484  27.684  1.00  0.00    -0.311 N 
ATOM      9  H2  UNL     1      37.894  24.896  26.957  1.00  0.00     0.170 HD
BRANCH   8  10
HETATM   10  C6  UNL     1      36.918  24.918  28.677  1.00  0.00     0.107 A 
HETATM   11  C7  UNL     1      35.592  24.580  28.596  1.00  0.00     0.048 A 
HETATM   12  C8  UNL     1      34.968  23.959  29.686  1.00  0.00     0.005 A 
HETATM   13  C9  UNL     1      35.753  23.722  30.805  1.00  0.00     0.017 A 
HETATM   14  C10 UNL     1      37.091  24.089  30.825  1.00  0.00     0.089 A 
HETATM   15  N3  UNL     1      37.674  24.679  29.780  1.00  0.00    -0.352 N 
ATOM     16  H3  UNL     1      38.659  24.943  29.809  1.00  0.00     0.166 HD
ENDBRANCH   8  10
ENDBRANCH   3   6
BRANCH   4  17
HETATM   17  C11 UNL     1      37.119  29.422  25.067  1.00  0.00     0.306 C 
BRANCH  17  18
HETATM   18  C12 UNL     1      36.580  30.813  24.845  1.00  0.00     0.168 C 
HETATM   19  O2  UNL     1      35.297  30.638  24.331  1.00  0.00    -0.373 OA
HETATM   20  C13 UNL     1      35.204  30.896  22.964  1.00  0.00     0.154 C 
HETATM   21  C15 UNL     1      35.464  32.380  22.857  1.00  0.00     0.003 C 
HETATM   22  C16 UNL     1      36.627  32.741  23.379  1.00  0.00    -0.010 C 
HETATM   23  C17 UNL     1      37.448  31.644  23.961  1.00  0.00     0.111 C 
HETATM   24 BR2  UNL     1      38.953  32.430  24.842  1.00  0.00    -0.084 Br
BRANCH  20  25
HETATM   25  C14 UNL     1      33.808  30.596  22.534  1.00  0.00     0.121 C 
HETATM   26 BR1  UNL     1      33.633  28.857  21.728  1.00  0.00    -0.093 Br
ENDBRANCH  20  25
ENDBRANCH  17  18
ENDBRANCH   4  17
BRANCH   1  27
HETATM   27  C1  UNL     1      33.776  29.433  27.130  1.00  0.00     0.236 C 
BRANCH  27  28
HETATM   28  N1  UNL     1      33.370  29.048  25.810  1.00  0.00    -0.079 N 
ATOM     29  H13 UNL     1      32.753  29.735  25.377  1.00  0.00     0.274 HD
ATOM     30  H12 UNL     1      34.134  29.098  25.137  1.00  0.00     0.274 HD
ATOM     31  H11 UNL     1      32.949  28.120  25.853  1.00  0.00     0.274 HD
ENDBRANCH  27  28
ENDBRANCH   1  27
TORSDOF 7
ENDMDL
