MODEL 1
REMARK VINA RESULT: -6.906268026      0.000      0.000
REMARK  4 active torsions:
REMARK  status: ('A' for Active; 'I' for Inactive)
REMARK    1  A    between atoms: C6_7  and  C7_8 
REMARK       I    between atoms: C7_8  and  N1_10 
REMARK    2  A    between atoms: N1_10  and  C8_12 
REMARK    3  A    between atoms: C10_16  and  C11_17 
REMARK    4  A    between atoms: C14_22  and  C15_23 
ROOT
HETATM    1  C7  UNL     1      34.225  29.994  24.181  1.00  0.00     0.223 C 
HETATM    2  O1  UNL     1      33.092  29.932  24.718  1.00  0.00    -0.273 OA
HETATM    3  N1  UNL     1      34.320  30.507  22.861  1.00  0.00    -0.345 N 
ATOM      4  H1  UNL     1      35.235  30.564  22.412  1.00  0.00     0.163 HD
ENDROOT
BRANCH   1   5
HETATM    5  C6  UNL     1      35.387  29.529  24.955  1.00  0.00     0.092 C 
HETATM    6  C5  UNL     1      35.853  30.605  25.900  1.00  0.00     0.031 C 
HETATM    7  C4  UNL     1      37.074  31.235  25.291  1.00  0.00     0.067 C 
HETATM    8  C2  UNL     1      37.721  30.038  24.598  1.00  0.00    -0.022 C 
HETATM    9 BR1  UNL     1      36.677  32.551  23.962  1.00  0.00    -0.090 Br
HETATM   10  C1  UNL     1      38.609  30.538  23.478  1.00  0.00     0.017 C 
HETATM   11  C3  UNL     1      38.556  29.321  25.610  1.00  0.00     0.017 C 
HETATM   12  C14 UNL     1      36.577  29.215  24.092  1.00  0.00     0.097 C 
BRANCH  12  13
HETATM   13  C15 UNL     1      36.865  27.764  24.224  1.00  0.00     0.236 C 
HETATM   14  N3  UNL     1      37.522  27.065  23.177  1.00  0.00    -0.062 NA
HETATM   15  O3  UNL     1      36.543  27.110  25.255  1.00  0.00    -0.276 OA
ENDBRANCH  12  13
ENDBRANCH   1   5
BRANCH   3  16
HETATM   16  C8  UNL     1      33.150  30.952  22.139  1.00  0.00     0.209 C 
HETATM   17  C9  UNL     1      32.498  29.903  21.298  1.00  0.00     0.247 C 
HETATM   18  O2  UNL     1      32.120  28.736  21.574  1.00  0.00    -0.271 OA
HETATM   19  N2  UNL     1      32.491  30.743  20.127  1.00  0.00    -0.328 N 
HETATM   20  C10 UNL     1      32.202  31.315  18.844  1.00  0.00     0.108 C 
HETATM   21  C13 UNL     1      33.526  31.532  20.813  1.00  0.00     0.181 C 
HETATM   22  C12 UNL     1      31.772  32.748  19.066  1.00  0.00     0.102 C 
HETATM   23  S1  UNL     1      32.833  33.203  20.496  1.00  0.00    -0.139 SA
BRANCH  20  24
HETATM   24  C11 UNL     1      31.044  30.579  18.242  1.00  0.00     0.111 C 
HETATM   25 BR2  UNL     1      29.409  31.635  18.408  1.00  0.00    -0.094 Br
ENDBRANCH  20  24
ENDBRANCH   3  16
TORSDOF 4
ENDMDL
MODEL 2
REMARK VINA RESULT: -6.741541716      1.746      2.260
REMARK  4 active torsions:
REMARK  status: ('A' for Active; 'I' for Inactive)
REMARK    1  A    between atoms: C6_7  and  C7_8 
REMARK       I    between atoms: C7_8  and  N1_10 
REMARK    2  A    between atoms: N1_10  and  C8_12 
REMARK    3  A    between atoms: C10_16  and  C11_17 
REMARK    4  A    between atoms: C14_22  and  C15_23 
ROOT
HETATM    1  C7  UNL     1      34.107  29.849  23.664  1.00  0.00     0.223 C 
HETATM    2  O1  UNL     1      32.972  29.583  24.131  1.00  0.00    -0.273 OA
HETATM    3  N1  UNL     1      34.185  30.614  22.471  1.00  0.00    -0.345 N 
ATOM      4  H1  UNL     1      35.100  30.837  22.081  1.00  0.00     0.163 HD
ENDROOT
BRANCH   1   5
HETATM    5  C6  UNL     1      35.289  29.348  24.384  1.00  0.00     0.092 C 
HETATM    6  C5  UNL     1      34.882  28.330  25.417  1.00  0.00     0.031 C 
HETATM    7  C4  UNL     1      34.912  29.016  26.754  1.00  0.00     0.067 C 
HETATM    8  C2  UNL     1      36.082  29.981  26.576  1.00  0.00    -0.022 C 
HETATM    9 BR1  UNL     1      33.343  30.044  27.124  1.00  0.00    -0.090 Br
HETATM   10  C1  UNL     1      35.922  31.134  27.545  1.00  0.00     0.017 C 
HETATM   11  C3  UNL     1      37.340  29.237  26.894  1.00  0.00     0.017 C 
HETATM   12  C14 UNL     1      36.008  30.425  25.147  1.00  0.00     0.097 C 
BRANCH  12  13
HETATM   13  C15 UNL     1      37.366  30.570  24.563  1.00  0.00     0.236 C 
HETATM   14  N3  UNL     1      37.862  29.597  23.655  1.00  0.00    -0.062 NA
HETATM   15  O3  UNL     1      38.114  31.546  24.847  1.00  0.00    -0.276 OA
ENDBRANCH  12  13
ENDBRANCH   1   5
BRANCH   3  16
HETATM   16  C8  UNL     1      32.995  31.084  21.798  1.00  0.00     0.209 C 
HETATM   17  C9  UNL     1      32.291  30.052  20.979  1.00  0.00     0.247 C 
HETATM   18  O2  UNL     1      31.903  28.890  21.264  1.00  0.00    -0.271 OA
HETATM   19  N2  UNL     1      32.254  30.898  19.813  1.00  0.00    -0.328 N 
HETATM   20  C10 UNL     1      31.925  31.482  18.546  1.00  0.00     0.108 C 
HETATM   21  C13 UNL     1      33.329  31.664  20.462  1.00  0.00     0.181 C 
HETATM   22  C12 UNL     1      31.531  32.922  18.791  1.00  0.00     0.102 C 
HETATM   23  S1  UNL     1      32.655  33.350  20.180  1.00  0.00    -0.139 SA
BRANCH  20  24
HETATM   24  C11 UNL     1      30.730  30.771  17.986  1.00  0.00     0.111 C 
HETATM   25 BR2  UNL     1      29.086  31.667  18.541  1.00  0.00    -0.094 Br
ENDBRANCH  20  24
ENDBRANCH   3  16
TORSDOF 4
ENDMDL
MODEL 3
REMARK VINA RESULT: -6.257988976      1.846      2.248
REMARK  4 active torsions:
REMARK  status: ('A' for Active; 'I' for Inactive)
REMARK    1  A    between atoms: C6_7  and  C7_8 
REMARK       I    between atoms: C7_8  and  N1_10 
REMARK    2  A    between atoms: N1_10  and  C8_12 
REMARK    3  A    between atoms: C10_16  and  C11_17 
REMARK    4  A    between atoms: C14_22  and  C15_23 
ROOT
HETATM    1  C7  UNL     1      34.818  30.417  24.271  1.00  0.00     0.223 C 
HETATM    2  O1  UNL     1      33.751  30.032  24.810  1.00  0.00    -0.273 OA
HETATM    3  N1  UNL     1      34.748  31.032  22.994  1.00  0.00    -0.345 N 
ATOM      4  H1  UNL     1      35.606  31.350  22.544  1.00  0.00     0.163 HD
ENDROOT
BRANCH   1   5
HETATM    5  C6  UNL     1      36.080  30.205  24.999  1.00  0.00     0.092 C 
HETATM    6  C5  UNL     1      37.248  30.242  24.048  1.00  0.00     0.031 C 
HETATM    7  C4  UNL     1      37.669  28.820  23.804  1.00  0.00     0.067 C 
HETATM    8  C2  UNL     1      37.389  28.181  25.162  1.00  0.00    -0.022 C 
HETATM    9 BR1  UNL     1      36.608  27.921  22.492  1.00  0.00    -0.090 Br
HETATM   10  C1  UNL     1      37.192  26.691  24.975  1.00  0.00     0.017 C 
HETATM   11  C3  UNL     1      38.582  28.418  26.033  1.00  0.00     0.017 C 
HETATM   12  C14 UNL     1      36.151  28.859  25.665  1.00  0.00     0.097 C 
BRANCH  12  13
HETATM   13  C15 UNL     1      36.223  29.079  27.132  1.00  0.00     0.236 C 
HETATM   14  N3  UNL     1      36.050  27.992  28.029  1.00  0.00    -0.062 NA
HETATM   15  O3  UNL     1      36.437  30.221  27.626  1.00  0.00    -0.276 OA
ENDBRANCH  12  13
ENDBRANCH   1   5
BRANCH   3  16
HETATM   16  C8  UNL     1      33.484  31.219  22.317  1.00  0.00     0.209 C 
HETATM   17  C9  UNL     1      33.027  30.047  21.511  1.00  0.00     0.247 C 
HETATM   18  O2  UNL     1      32.906  28.832  21.810  1.00  0.00    -0.271 OA
HETATM   19  N2  UNL     1      32.805  30.850  20.335  1.00  0.00    -0.328 N 
HETATM   20  C10 UNL     1      32.358  31.331  19.061  1.00  0.00     0.108 C 
HETATM   21  C13 UNL     1      33.683  31.843  20.973  1.00  0.00     0.181 C 
HETATM   22  C12 UNL     1      31.654  32.651  19.290  1.00  0.00     0.102 C 
HETATM   23  S1  UNL     1      32.654  33.334  20.671  1.00  0.00    -0.139 SA
BRANCH  20  24
HETATM   24  C11 UNL     1      31.350  30.367  18.511  1.00  0.00     0.111 C 
HETATM   25 BR2  UNL     1      29.646  31.269  18.202  1.00  0.00    -0.094 Br
ENDBRANCH  20  24
ENDBRANCH   3  16
TORSDOF 4
ENDMDL
MODEL 4
REMARK VINA RESULT: -6.244907500      5.660      9.194
REMARK  4 active torsions:
REMARK  status: ('A' for Active; 'I' for Inactive)
REMARK    1  A    between atoms: C6_7  and  C7_8 
REMARK       I    between atoms: C7_8  and  N1_10 
REMARK    2  A    between atoms: N1_10  and  C8_12 
REMARK    3  A    between atoms: C10_16  and  C11_17 
REMARK    4  A    between atoms: C14_22  and  C15_23 
ROOT
HETATM    1  C7  UNL     1      37.029  28.384  27.514  1.00  0.00     0.223 C 
HETATM    2  O1  UNL     1      37.154  28.949  28.628  1.00  0.00    -0.273 OA
HETATM    3  N1  UNL     1      36.898  26.971  27.482  1.00  0.00    -0.345 N 
ATOM      4  H1  UNL     1      36.796  26.499  26.584  1.00  0.00     0.163 HD
ENDROOT
BRANCH   1   5
HETATM    5  C6  UNL     1      37.025  29.225  26.305  1.00  0.00     0.092 C 
HETATM    6  C5  UNL     1      36.386  30.558  26.595  1.00  0.00     0.031 C 
HETATM    7  C4  UNL     1      34.994  30.518  26.029  1.00  0.00     0.067 C 
HETATM    8  C2  UNL     1      35.195  29.651  24.787  1.00  0.00    -0.022 C 
HETATM    9 BR1  UNL     1      33.729  29.645  27.167  1.00  0.00    -0.090 Br
HETATM   10  C1  UNL     1      33.872  29.019  24.408  1.00  0.00     0.017 C 
HETATM   11  C3  UNL     1      35.654  30.543  23.678  1.00  0.00     0.017 C 
HETATM   12  C14 UNL     1      36.219  28.632  25.183  1.00  0.00     0.097 C 
BRANCH  12  13
HETATM   13  C15 UNL     1      37.145  28.343  24.059  1.00  0.00     0.236 C 
HETATM   14  N3  UNL     1      36.790  27.396  23.063  1.00  0.00    -0.062 NA
HETATM   15  O3  UNL     1      38.263  28.921  23.950  1.00  0.00    -0.276 OA
ENDBRANCH  12  13
ENDBRANCH   1   5
BRANCH   3  16
HETATM   16  C8  UNL     1      36.908  26.187  28.697  1.00  0.00     0.209 C 
HETATM   17  C9  UNL     1      38.251  25.667  29.094  1.00  0.00     0.247 C 
HETATM   18  O2  UNL     1      39.357  26.248  29.233  1.00  0.00    -0.271 OA
HETATM   19  N2  UNL     1      37.766  24.317  29.237  1.00  0.00    -0.328 N 
HETATM   20  C10 UNL     1      37.621  22.937  29.597  1.00  0.00     0.108 C 
HETATM   21  C13 UNL     1      36.630  24.747  28.407  1.00  0.00     0.181 C 
HETATM   22  C12 UNL     1      36.300  22.786  30.318  1.00  0.00     0.102 C 
HETATM   23  S1  UNL     1      35.279  24.020  29.417  1.00  0.00    -0.139 SA
BRANCH  20  24
HETATM   24  C11 UNL     1      38.711  22.577  30.562  1.00  0.00     0.111 C 
HETATM   25 BR2  UNL     1      37.947  21.863  32.211  1.00  0.00    -0.094 Br
ENDBRANCH  20  24
ENDBRANCH   3  16
TORSDOF 4
ENDMDL
MODEL 5
REMARK VINA RESULT: -6.216946358      1.436      1.543
REMARK  4 active torsions:
REMARK  status: ('A' for Active; 'I' for Inactive)
REMARK    1  A    between atoms: C6_7  and  C7_8 
REMARK       I    between atoms: C7_8  and  N1_10 
REMARK    2  A    between atoms: N1_10  and  C8_12 
REMARK    3  A    between atoms: C10_16  and  C11_17 
REMARK    4  A    between atoms: C14_22  and  C15_23 
ROOT
HETATM    1  C7  UNL     1      34.527  29.488  23.887  1.00  0.00     0.223 C 
HETATM    2  O1  UNL     1      33.464  29.529  24.554  1.00  0.00    -0.273 OA
HETATM    3  N1  UNL     1      34.633  30.306  22.732  1.00  0.00    -0.345 N 
ATOM      4  H1  UNL     1      35.490  30.283  22.181  1.00  0.00     0.163 HD
ENDROOT
BRANCH   1   5
HETATM    5  C6  UNL     1      35.600  28.590  24.345  1.00  0.00     0.092 C 
HETATM    6  C5  UNL     1      35.595  28.489  25.847  1.00  0.00     0.031 C 
HETATM    7  C4  UNL     1      36.712  29.355  26.356  1.00  0.00     0.067 C 
HETATM    8  C2  UNL     1      37.757  29.183  25.256  1.00  0.00    -0.022 C 
HETATM    9 BR1  UNL     1      36.258  31.209  26.463  1.00  0.00    -0.090 Br
HETATM   10  C1  UNL     1      38.688  30.378  25.268  1.00  0.00     0.017 C 
HETATM   11  C3  UNL     1      38.538  27.943  25.557  1.00  0.00     0.017 C 
HETATM   12  C14 UNL     1      36.972  29.088  23.984  1.00  0.00     0.097 C 
BRANCH  12  13
HETATM   13  C15 UNL     1      37.583  28.105  23.053  1.00  0.00     0.236 C 
HETATM   14  N3  UNL     1      38.750  28.444  22.317  1.00  0.00    -0.062 NA
HETATM   15  O3  UNL     1      37.097  26.952  22.885  1.00  0.00    -0.276 OA
ENDBRANCH  12  13
ENDBRANCH   1   5
BRANCH   3  16
HETATM   16  C8  UNL     1      33.551  31.173  22.321  1.00  0.00     0.209 C 
HETATM   17  C9  UNL     1      32.636  30.587  21.296  1.00  0.00     0.247 C 
HETATM   18  O2  UNL     1      32.024  29.488  21.261  1.00  0.00    -0.271 OA
HETATM   19  N2  UNL     1      32.749  31.735  20.433  1.00  0.00    -0.328 N 
HETATM   20  C10 UNL     1      32.522  32.724  19.420  1.00  0.00     0.108 C 
HETATM   21  C13 UNL     1      33.970  32.054  21.189  1.00  0.00     0.181 C 
HETATM   22  C12 UNL     1      32.434  34.070  20.103  1.00  0.00     0.102 C 
HETATM   23  S1  UNL     1      33.649  33.841  21.463  1.00  0.00    -0.139 SA
BRANCH  20  24
HETATM   24  C11 UNL     1      31.197  32.453  18.774  1.00  0.00     0.111 C 
HETATM   25 BR2  UNL     1      31.142  30.629  18.077  1.00  0.00    -0.094 Br
ENDBRANCH  20  24
ENDBRANCH   3  16
TORSDOF 4
ENDMDL
