MODEL 1
REMARK VINA RESULT: -6.449582953      0.000      0.000
REMARK  7 active torsions:
REMARK  status: ('A' for Active; 'I' for Inactive)
REMARK    1  A    between atoms: O1_2  and  C2_3 
REMARK    2  A    between atoms: C2_3  and  C3_4 
REMARK    3  A    between atoms: C5_8  and  C6_9 
REMARK    4  A    between atoms: C7_11  and  N2_12 
REMARK    5  A    between atoms: C9_17  and  C10_18 
REMARK    6  A    between atoms: C17_27  and  O3_28 
REMARK    7  A    between atoms: C17_27  and  O4_30 
ROOT
HETATM    1  C3  UNL     1      37.111  28.189  24.960  1.00  0.00     0.131 C 
HETATM    2  C4  UNL     1      36.752  27.886  23.537  1.00  0.00     0.238 C 
HETATM    3  O2  UNL     1      37.301  27.020  22.805  1.00  0.00    -0.272 OA
HETATM    4  N1  UNL     1      35.693  28.740  23.173  1.00  0.00    -0.333 N 
HETATM    5  C5  UNL     1      34.515  29.222  22.500  1.00  0.00     0.129 C 
HETATM    6  C7  UNL     1      33.536  29.269  23.767  1.00  0.00     0.214 C 
HETATM    7  C8  UNL     1      34.556  29.000  24.748  1.00  0.00     0.062 C 
HETATM    8  C9  UNL     1      34.996  29.236  26.028  1.00  0.00     0.034 C 
HETATM    9  C11 UNL     1      35.342  30.723  25.984  1.00  0.00     0.019 C 
HETATM   10  C12 UNL     1      35.432  31.042  24.451  1.00  0.00     0.033 C 
HETATM   11  C13 UNL     1      35.778  29.731  24.107  1.00  0.00     0.054 C 
HETATM   12  C14 UNL     1      37.154  29.625  24.579  1.00  0.00     0.043 A 
HETATM   13  C15 UNL     1      38.187  30.539  24.907  1.00  0.00     0.054 A 
HETATM   14  C16 UNL     1      38.096  30.143  23.487  1.00  0.00     0.183 A 
HETATM   15  F1  UNL     1      38.976  29.357  22.855  1.00  0.00    -0.248 F 
HETATM   16  C17 UNL     1      36.199  28.281  26.089  1.00  0.00     0.188 C 
ENDROOT
BRANCH   6  17
HETATM   17  N2  UNL     1      32.654  30.332  23.766  1.00  0.00    -0.073 N 
ATOM     18  H23 UNL     1      33.012  31.091  24.347  1.00  0.00     0.274 HD
ATOM     19  H22 UNL     1      32.654  30.793  22.856  1.00  0.00     0.274 HD
ATOM     20  H21 UNL     1      31.703  30.089  24.043  1.00  0.00     0.274 HD
ENDBRANCH   6  17
BRANCH   5  21
HETATM   21  C6  UNL     1      34.002  28.321  21.456  1.00  0.00     0.112 C 
HETATM   22 BR1  UNL     1      32.673  29.271  20.417  1.00  0.00    -0.094 Br
ENDBRANCH   5  21
BRANCH   8  23
HETATM   23  C10 UNL     1      34.150  28.896  27.221  1.00  0.00     0.100 C 
HETATM   24 BR2  UNL     1      32.595  30.024  27.345  1.00  0.00    -0.096 Br
ENDBRANCH   8  23
BRANCH  16  25
HETATM   25  O3  UNL     1      35.581  27.012  26.238  1.00  0.00    -0.364 OA
ATOM     26  H3  UNL     1      36.086  26.525  26.879  1.00  0.00     0.213 HD
ENDBRANCH  16  25
BRANCH  16  27
HETATM   27  O4  UNL     1      36.816  28.545  27.268  1.00  0.00    -0.364 OA
ATOM     28  H4  UNL     1      37.441  27.879  27.530  1.00  0.00     0.213 HD
ENDBRANCH  16  27
BRANCH   1  29
HETATM   29  C2  UNL     1      38.342  27.483  25.287  1.00  0.00     0.193 C 
BRANCH  29  30
HETATM   30  O1  UNL     1      38.263  26.436  26.184  1.00  0.00    -0.394 OA
HETATM   31  C1  UNL     1      38.654  25.230  25.667  1.00  0.00     0.201 C 
ENDBRANCH  29  30
ENDBRANCH   1  29
TORSDOF 7
ENDMDL
MODEL 2
REMARK VINA RESULT: -6.003300260      3.199      4.981
REMARK  7 active torsions:
REMARK  status: ('A' for Active; 'I' for Inactive)
REMARK    1  A    between atoms: O1_2  and  C2_3 
REMARK    2  A    between atoms: C2_3  and  C3_4 
REMARK    3  A    between atoms: C5_8  and  C6_9 
REMARK    4  A    between atoms: C7_11  and  N2_12 
REMARK    5  A    between atoms: C9_17  and  C10_18 
REMARK    6  A    between atoms: C17_27  and  O3_28 
REMARK    7  A    between atoms: C17_27  and  O4_30 
ROOT
HETATM    1  C3  UNL     1      35.886  29.778  26.695  1.00  0.00     0.131 C 
HETATM    2  C4  UNL     1      36.678  30.840  25.995  1.00  0.00     0.238 C 
HETATM    3  O2  UNL     1      36.459  32.080  26.048  1.00  0.00    -0.272 OA
HETATM    4  N1  UNL     1      37.706  30.202  25.274  1.00  0.00    -0.333 N 
HETATM    5  C5  UNL     1      38.975  29.993  24.629  1.00  0.00     0.129 C 
HETATM    6  C7  UNL     1      39.527  28.835  25.587  1.00  0.00     0.214 C 
HETATM    7  C8  UNL     1      38.296  28.646  26.310  1.00  0.00     0.062 C 
HETATM    8  C9  UNL     1      37.477  27.749  26.950  1.00  0.00     0.034 C 
HETATM    9  C11 UNL     1      37.011  26.856  25.801  1.00  0.00     0.019 C 
HETATM   10  C12 UNL     1      37.346  27.693  24.518  1.00  0.00     0.033 C 
HETATM   11  C13 UNL     1      37.250  28.919  25.183  1.00  0.00     0.054 C 
HETATM   12  C14 UNL     1      35.814  29.062  25.395  1.00  0.00     0.043 A 
HETATM   13  C15 UNL     1      34.644  28.505  24.820  1.00  0.00     0.054 A 
HETATM   14  C16 UNL     1      35.188  29.705  24.153  1.00  0.00     0.183 A 
HETATM   15  F1  UNL     1      34.618  30.915  24.172  1.00  0.00    -0.248 F 
HETATM   16  C17 UNL     1      36.411  28.700  27.519  1.00  0.00     0.188 C 
ENDROOT
BRANCH   6  17
HETATM   17  N2  UNL     1      40.258  27.859  24.938  1.00  0.00    -0.073 N 
ATOM     18  H23 UNL     1      39.950  26.931  25.228  1.00  0.00     0.274 HD
ATOM     19  H22 UNL     1      40.008  27.825  23.950  1.00  0.00     0.274 HD
ATOM     20  H21 UNL     1      41.269  27.949  25.047  1.00  0.00     0.274 HD
ENDBRANCH   6  17
BRANCH   5  21
HETATM   21  C6  UNL     1      39.861  31.168  24.638  1.00  0.00     0.112 C 
HETATM   22 BR1  UNL     1      39.460  32.258  23.089  1.00  0.00    -0.094 Br
ENDBRANCH   5  21
BRANCH   8  23
HETATM   23  C10 UNL     1      37.963  26.943  28.120  1.00  0.00     0.100 C 
HETATM   24 BR2  UNL     1      37.778  25.051  27.815  1.00  0.00    -0.096 Br
ENDBRANCH   8  23
BRANCH  16  25
HETATM   25  O3  UNL     1      37.082  29.296  28.619  1.00  0.00    -0.364 OA
ATOM     26  H3  UNL     1      37.681  28.647  28.971  1.00  0.00     0.213 HD
ENDBRANCH  16  25
BRANCH  16  27
HETATM   27  O4  UNL     1      35.451  27.900  28.046  1.00  0.00    -0.364 OA
ATOM     28  H4  UNL     1      35.787  27.088  28.408  1.00  0.00     0.213 HD
ENDBRANCH  16  27
BRANCH   1  29
HETATM   29  C2  UNL     1      34.691  30.387  27.261  1.00  0.00     0.193 C 
BRANCH  29  30
HETATM   30  O1  UNL     1      33.546  29.619  27.322  1.00  0.00    -0.394 OA
HETATM   31  C1  UNL     1      32.429  30.314  27.703  1.00  0.00     0.201 C 
ENDBRANCH  29  30
ENDBRANCH   1  29
TORSDOF 7
ENDMDL
MODEL 3
REMARK VINA RESULT: -5.993670691      2.650      4.797
REMARK  7 active torsions:
REMARK  status: ('A' for Active; 'I' for Inactive)
REMARK    1  A    between atoms: O1_2  and  C2_3 
REMARK    2  A    between atoms: C2_3  and  C3_4 
REMARK    3  A    between atoms: C5_8  and  C6_9 
REMARK    4  A    between atoms: C7_11  and  N2_12 
REMARK    5  A    between atoms: C9_17  and  C10_18 
REMARK    6  A    between atoms: C17_27  and  O3_28 
REMARK    7  A    between atoms: C17_27  and  O4_30 
ROOT
HETATM    1  C3  UNL     1      34.695  29.448  26.086  1.00  0.00     0.131 C 
HETATM    2  C4  UNL     1      35.611  28.378  26.598  1.00  0.00     0.238 C 
HETATM    3  O2  UNL     1      35.471  27.739  27.675  1.00  0.00    -0.272 OA
HETATM    4  N1  UNL     1      36.648  28.218  25.658  1.00  0.00    -0.333 N 
HETATM    5  C5  UNL     1      37.692  27.590  24.891  1.00  0.00     0.129 C 
HETATM    6  C7  UNL     1      36.994  27.674  23.452  1.00  0.00     0.214 C 
HETATM    7  C8  UNL     1      35.895  28.505  23.871  1.00  0.00     0.062 C 
HETATM    8  C9  UNL     1      35.024  29.506  23.517  1.00  0.00     0.034 C 
HETATM    9  C11 UNL     1      35.955  30.707  23.360  1.00  0.00     0.019 C 
HETATM   10  C12 UNL     1      37.265  30.264  24.100  1.00  0.00     0.033 C 
HETATM   11  C13 UNL     1      36.593  29.387  24.956  1.00  0.00     0.054 C 
HETATM   12  C14 UNL     1      35.900  30.290  25.868  1.00  0.00     0.043 A 
HETATM   13  C15 UNL     1      36.047  31.644  26.259  1.00  0.00     0.054 A 
HETATM   14  C16 UNL     1      36.845  30.660  27.016  1.00  0.00     0.183 A 
HETATM   15  F1  UNL     1      36.617  30.305  28.286  1.00  0.00    -0.248 F 
HETATM   16  C17 UNL     1      34.114  29.535  24.755  1.00  0.00     0.188 C 
ENDROOT
BRANCH   6  17
HETATM   17  N2  UNL     1      37.865  27.925  22.410  1.00  0.00    -0.073 N 
ATOM     18  H23 UNL     1      38.724  28.352  22.760  1.00  0.00     0.274 HD
ATOM     19  H22 UNL     1      38.242  27.051  22.043  1.00  0.00     0.274 HD
ATOM     20  H21 UNL     1      37.469  28.488  21.658  1.00  0.00     0.274 HD
ENDBRANCH   6  17
BRANCH   5  21
HETATM   21  C6  UNL     1      37.972  26.198  25.274  1.00  0.00     0.112 C 
HETATM   22 BR1  UNL     1      38.768  26.190  27.039  1.00  0.00    -0.094 Br
ENDBRANCH   5  21
BRANCH   8  23
HETATM   23  C10 UNL     1      34.101  29.360  22.342  1.00  0.00     0.100 C 
HETATM   24 BR2  UNL     1      34.662  27.949  21.159  1.00  0.00    -0.096 Br
ENDBRANCH   8  23
BRANCH  16  25
HETATM   25  O3  UNL     1      33.303  28.384  24.572  1.00  0.00    -0.364 OA
ATOM     26  H3  UNL     1      33.827  27.628  24.807  1.00  0.00     0.213 HD
ENDBRANCH  16  25
BRANCH  16  27
HETATM   27  O4  UNL     1      33.299  30.606  24.585  1.00  0.00    -0.364 OA
ATOM     28  H4  UNL     1      32.824  30.598  23.762  1.00  0.00     0.213 HD
ENDBRANCH  16  27
BRANCH   1  29
HETATM   29  C2  UNL     1      33.747  29.788  27.138  1.00  0.00     0.193 C 
BRANCH  29  30
HETATM   30  O1  UNL     1      32.406  29.572  26.888  1.00  0.00    -0.394 OA
HETATM   31  C1  UNL     1      31.567  30.349  27.641  1.00  0.00     0.201 C 
ENDBRANCH  29  30
ENDBRANCH   1  29
TORSDOF 7
ENDMDL
MODEL 4
REMARK VINA RESULT: -5.845386590      2.745      4.460
REMARK  7 active torsions:
REMARK  status: ('A' for Active; 'I' for Inactive)
REMARK    1  A    between atoms: O1_2  and  C2_3 
REMARK    2  A    between atoms: C2_3  and  C3_4 
REMARK    3  A    between atoms: C5_8  and  C6_9 
REMARK    4  A    between atoms: C7_11  and  N2_12 
REMARK    5  A    between atoms: C9_17  and  C10_18 
REMARK    6  A    between atoms: C17_27  and  O3_28 
REMARK    7  A    between atoms: C17_27  and  O4_30 
ROOT
HETATM    1  C3  UNL     1      37.633  30.139  24.964  1.00  0.00     0.131 C 
HETATM    2  C4  UNL     1      38.597  29.097  25.444  1.00  0.00     0.238 C 
HETATM    3  O2  UNL     1      39.853  29.166  25.377  1.00  0.00    -0.272 OA
HETATM    4  N1  UNL     1      37.845  28.035  25.983  1.00  0.00    -0.333 N 
HETATM    5  C5  UNL     1      37.496  26.906  26.806  1.00  0.00     0.129 C 
HETATM    6  C7  UNL     1      36.305  27.589  27.630  1.00  0.00     0.214 C 
HETATM    7  C8  UNL     1      36.255  28.794  26.842  1.00  0.00     0.062 C 
HETATM    8  C9  UNL     1      35.457  29.784  26.325  1.00  0.00     0.034 C 
HETATM    9  C11 UNL     1      34.596  29.018  25.321  1.00  0.00     0.019 C 
HETATM   10  C12 UNL     1      35.373  27.671  25.114  1.00  0.00     0.033 C 
HETATM   11  C13 UNL     1      36.614  28.234  25.429  1.00  0.00     0.054 C 
HETATM   12  C14 UNL     1      36.905  29.053  24.258  1.00  0.00     0.043 A 
HETATM   13  C15 UNL     1      36.461  29.092  22.912  1.00  0.00     0.054 A 
HETATM   14  C16 UNL     1      37.587  28.181  23.198  1.00  0.00     0.183 A 
HETATM   15  F1  UNL     1      38.850  28.378  22.800  1.00  0.00    -0.248 F 
HETATM   16  C17 UNL     1      36.521  30.708  25.710  1.00  0.00     0.188 C 
ENDROOT
BRANCH   6  17
HETATM   17  N2  UNL     1      35.248  26.744  27.909  1.00  0.00    -0.073 N 
ATOM     18  H23 UNL     1      34.371  27.150  27.582  1.00  0.00     0.274 HD
ATOM     19  H22 UNL     1      35.289  25.915  27.315  1.00  0.00     0.274 HD
ATOM     20  H21 UNL     1      35.172  26.476  28.890  1.00  0.00     0.274 HD
ENDBRANCH   6  17
BRANCH   5  21
HETATM   21  C6  UNL     1      38.575  26.450  27.697  1.00  0.00     0.112 C 
HETATM   22 BR1  UNL     1      38.874  27.801  29.050  1.00  0.00    -0.094 Br
ENDBRANCH   5  21
BRANCH   8  23
HETATM   23  C10 UNL     1      34.625  30.664  27.214  1.00  0.00     0.100 C 
HETATM   24 BR2  UNL     1      32.800  30.061  27.316  1.00  0.00    -0.096 Br
ENDBRANCH   8  23
BRANCH  16  25
HETATM   25  O3  UNL     1      37.064  31.357  26.850  1.00  0.00    -0.364 OA
ATOM     26  H3  UNL     1      37.875  31.773  26.580  1.00  0.00     0.213 HD
ENDBRANCH  16  25
BRANCH  16  27
HETATM   27  O4  UNL     1      35.832  31.655  25.025  1.00  0.00    -0.364 OA
ATOM     28  H4  UNL     1      34.909  31.691  25.248  1.00  0.00     0.213 HD
ENDBRANCH  16  27
BRANCH   1  29
HETATM   29  C2  UNL     1      38.371  31.138  24.205  1.00  0.00     0.193 C 
BRANCH  29  30
HETATM   30  O1  UNL     1      38.529  32.387  24.772  1.00  0.00    -0.394 OA
HETATM   31  C1  UNL     1      39.836  32.767  24.925  1.00  0.00     0.201 C 
ENDBRANCH  29  30
ENDBRANCH   1  29
TORSDOF 7
ENDMDL
MODEL 5
REMARK VINA RESULT: -5.638917833      2.114      2.714
REMARK  7 active torsions:
REMARK  status: ('A' for Active; 'I' for Inactive)
REMARK    1  A    between atoms: O1_2  and  C2_3 
REMARK    2  A    between atoms: C2_3  and  C3_4 
REMARK    3  A    between atoms: C5_8  and  C6_9 
REMARK    4  A    between atoms: C7_11  and  N2_12 
REMARK    5  A    between atoms: C9_17  and  C10_18 
REMARK    6  A    between atoms: C17_27  and  O3_28 
REMARK    7  A    between atoms: C17_27  and  O4_30 
ROOT
HETATM    1  C3  UNL     1      37.567  29.769  24.669  1.00  0.00     0.131 C 
HETATM    2  C4  UNL     1      36.380  29.744  23.755  1.00  0.00     0.238 C 
HETATM    3  O2  UNL     1      36.412  29.576  22.507  1.00  0.00    -0.272 OA
HETATM    4  N1  UNL     1      35.229  29.938  24.544  1.00  0.00    -0.333 N 
HETATM    5  C5  UNL     1      33.858  29.863  24.976  1.00  0.00     0.129 C 
HETATM    6  C7  UNL     1      34.088  28.998  26.304  1.00  0.00     0.214 C 
HETATM    7  C8  UNL     1      35.527  29.065  26.273  1.00  0.00     0.062 C 
HETATM    8  C9  UNL     1      36.680  29.123  27.016  1.00  0.00     0.034 C 
HETATM    9  C11 UNL     1      36.569  30.493  27.683  1.00  0.00     0.019 C 
HETATM   10  C12 UNL     1      35.475  31.233  26.837  1.00  0.00     0.033 C 
HETATM   11  C13 UNL     1      35.741  30.494  25.680  1.00  0.00     0.054 C 
HETATM   12  C14 UNL     1      37.024  31.029  25.239  1.00  0.00     0.043 A 
HETATM   13  C15 UNL     1      37.759  32.219  25.471  1.00  0.00     0.054 A 
HETATM   14  C16 UNL     1      36.774  32.267  24.371  1.00  0.00     0.183 A 
HETATM   15  F1  UNL     1      37.084  32.314  23.070  1.00  0.00    -0.248 F 
HETATM   16  C17 UNL     1      37.734  29.016  25.902  1.00  0.00     0.188 C 
ENDROOT
BRANCH   6  17
HETATM   17  N2  UNL     1      33.270  29.350  27.360  1.00  0.00    -0.073 N 
ATOM     18  H23 UNL     1      32.543  29.994  27.049  1.00  0.00     0.274 HD
ATOM     19  H22 UNL     1      32.693  28.557  27.642  1.00  0.00     0.274 HD
ATOM     20  H21 UNL     1      33.765  29.734  28.165  1.00  0.00     0.274 HD
ENDBRANCH   6  17
BRANCH   5  21
HETATM   21  C6  UNL     1      32.962  29.175  24.033  1.00  0.00     0.112 C 
HETATM   22 BR1  UNL     1      32.817  30.243  22.425  1.00  0.00    -0.094 Br
ENDBRANCH   5  21
BRANCH   8  23
HETATM   23  C10 UNL     1      37.029  28.049  28.005  1.00  0.00     0.100 C 
HETATM   24 BR2  UNL     1      35.823  26.552  27.895  1.00  0.00    -0.096 Br
ENDBRANCH   8  23
BRANCH  16  25
HETATM   25  O3  UNL     1      37.692  27.638  25.565  1.00  0.00    -0.364 OA
ATOM     26  H3  UNL     1      36.803  27.336  25.717  1.00  0.00     0.213 HD
ENDBRANCH  16  25
BRANCH  16  27
HETATM   27  O4  UNL     1      38.930  29.222  26.509  1.00  0.00    -0.364 OA
ATOM     28  H4  UNL     1      39.254  30.111  26.422  1.00  0.00     0.213 HD
ENDBRANCH  16  27
BRANCH   1  29
HETATM   29  C2  UNL     1      38.776  29.796  23.858  1.00  0.00     0.193 C 
BRANCH  29  30
HETATM   30  O1  UNL     1      39.472  28.614  23.703  1.00  0.00    -0.394 OA
HETATM   31  C1  UNL     1      39.712  28.276  22.397  1.00  0.00     0.201 C 
ENDBRANCH  29  30
ENDBRANCH   1  29
TORSDOF 7
ENDMDL
