MODEL 1
REMARK VINA RESULT: -6.530712185      0.000      0.000
REMARK  4 active torsions:
REMARK  status: ('A' for Active; 'I' for Inactive)
REMARK    1  A    between atoms: C2_2  and  C3_3 
REMARK    2  A    between atoms: C3_3  and  N1_6 
REMARK       I    between atoms: N1_6  and  C6_8 
REMARK       I    between atoms: C6_8  and  N2_10 
REMARK       I    between atoms: N3_12  and  C8_13 
REMARK    3  A    between atoms: C10_16  and  C11_17 
REMARK    4  A    between atoms: C13_21  and  C14_22 
ROOT
HETATM    1  N1  UNL     1      37.441  25.159  25.798  1.00  0.00    -0.334 N 
ATOM      2  H1  UNL     1      37.818  25.500  24.914  1.00  0.00     0.165 HD
HETATM    3  C6  UNL     1      36.480  25.946  26.478  1.00  0.00     0.322 C 
HETATM    4  O1  UNL     1      35.963  25.616  27.564  1.00  0.00    -0.247 OA
HETATM    5  N2  UNL     1      36.056  27.208  25.906  1.00  0.00    -0.287 N 
HETATM    6  C7  UNL     1      36.606  27.650  24.649  1.00  0.00     0.260 C 
HETATM    7  N3  UNL     1      35.844  28.745  24.134  1.00  0.00    -0.325 N 
HETATM    8  C8  UNL     1      35.506  28.722  22.755  1.00  0.00     0.217 C 
HETATM    9  C9  UNL     1      35.909  27.624  21.846  1.00  0.00     0.117 C 
HETATM   10  O2  UNL     1      34.839  29.670  22.286  1.00  0.00    -0.274 OA
HETATM   11  C10 UNL     1      35.420  29.846  24.956  1.00  0.00     0.167 C 
HETATM   12  C13 UNL     1      34.872  29.351  26.292  1.00  0.00     0.207 A 
HETATM   13  O4  UNL     1      35.727  29.056  27.327  1.00  0.00    -0.336 OA
HETATM   14  C15 UNL     1      35.100  28.002  26.600  1.00  0.00     0.277 A 
ENDROOT
BRANCH   1  15
HETATM   15  C3  UNL     1      37.907  23.887  26.311  1.00  0.00     0.027 C 
HETATM   16  C4  UNL     1      38.530  24.009  27.689  1.00  0.00     0.038 C 
HETATM   17  C5  UNL     1      39.015  23.377  25.400  1.00  0.00     0.038 C 
BRANCH  15  18
HETATM   18  C2  UNL     1      36.790  22.895  26.412  1.00  0.00     0.026 C 
HETATM   19  C1  UNL     1      36.889  22.184  27.762  1.00  0.00     0.007 C 
ENDBRANCH  15  18
ENDBRANCH   1  15
BRANCH  12  20
HETATM   20  C14 UNL     1      33.597  29.978  26.743  1.00  0.00     0.272 C 
HETATM   21  N4  UNL     1      32.439  29.840  25.929  1.00  0.00    -0.059 NA
HETATM   22  O3  UNL     1      33.479  30.630  27.810  1.00  0.00    -0.273 OA
ENDBRANCH  12  20
BRANCH  11  23
HETATM   23  C11 UNL     1      36.441  30.927  25.143  1.00  0.00     0.096 C 
HETATM   24  C12 UNL     1      36.302  31.611  26.495  1.00  0.00     0.042 C 
HETATM   25 BR1  UNL     1      36.349  32.312  23.804  1.00  0.00    -0.071 Br
HETATM   26 BR2  UNL     1      38.244  30.208  25.114  1.00  0.00    -0.071 Br
ENDBRANCH  11  23
TORSDOF 4
ENDMDL
MODEL 2
REMARK VINA RESULT: -6.421086284      3.950      6.728
REMARK  4 active torsions:
REMARK  status: ('A' for Active; 'I' for Inactive)
REMARK    1  A    between atoms: C2_2  and  C3_3 
REMARK    2  A    between atoms: C3_3  and  N1_6 
REMARK       I    between atoms: N1_6  and  C6_8 
REMARK       I    between atoms: C6_8  and  N2_10 
REMARK       I    between atoms: N3_12  and  C8_13 
REMARK    3  A    between atoms: C10_16  and  C11_17 
REMARK    4  A    between atoms: C13_21  and  C14_22 
ROOT
HETATM    1  N1  UNL     1      40.284  32.827  25.051  1.00  0.00    -0.334 N 
ATOM      2  H1  UNL     1      39.440  33.401  25.062  1.00  0.00     0.165 HD
HETATM    3  C6  UNL     1      40.157  31.431  24.861  1.00  0.00     0.322 C 
HETATM    4  O1  UNL     1      41.127  30.647  24.835  1.00  0.00    -0.247 OA
HETATM    5  N2  UNL     1      38.841  30.850  24.686  1.00  0.00    -0.287 N 
HETATM    6  C7  UNL     1      37.673  31.695  24.698  1.00  0.00     0.260 C 
HETATM    7  N3  UNL     1      36.535  30.974  24.217  1.00  0.00    -0.325 N 
HETATM    8  C8  UNL     1      35.685  31.629  23.288  1.00  0.00     0.217 C 
HETATM    9  C9  UNL     1      35.927  33.010  22.809  1.00  0.00     0.117 C 
HETATM   10  O2  UNL     1      34.685  31.014  22.855  1.00  0.00    -0.274 OA
HETATM   11  C10 UNL     1      36.236  29.632  24.639  1.00  0.00     0.167 C 
HETATM   12  C13 UNL     1      37.495  28.768  24.648  1.00  0.00     0.207 A 
HETATM   13  O4  UNL     1      38.348  28.795  25.726  1.00  0.00    -0.336 OA
HETATM   14  C15 UNL     1      38.717  29.442  24.510  1.00  0.00     0.277 A 
ENDROOT
BRANCH   1  15
HETATM   15  C3  UNL     1      41.568  33.474  25.229  1.00  0.00     0.027 C 
HETATM   16  C4  UNL     1      42.368  32.873  26.368  1.00  0.00     0.038 C 
HETATM   17  C5  UNL     1      41.326  34.926  25.614  1.00  0.00     0.038 C 
BRANCH  15  18
HETATM   18  C2  UNL     1      42.407  33.374  23.993  1.00  0.00     0.026 C 
HETATM   19  C1  UNL     1      41.722  34.159  22.874  1.00  0.00     0.007 C 
ENDBRANCH  15  18
ENDBRANCH   1  15
BRANCH  12  20
HETATM   20  C14 UNL     1      37.357  27.414  24.040  1.00  0.00     0.272 C 
HETATM   21  N4  UNL     1      36.892  27.307  22.701  1.00  0.00    -0.059 NA
HETATM   22  O3  UNL     1      37.629  26.347  24.646  1.00  0.00    -0.273 OA
ENDBRANCH  12  20
BRANCH  11  23
HETATM   23  C11 UNL     1      35.484  29.528  25.932  1.00  0.00     0.096 C 
HETATM   24  C12 UNL     1      35.822  28.249  26.683  1.00  0.00     0.042 C 
HETATM   25 BR1  UNL     1      33.568  29.557  25.710  1.00  0.00    -0.071 Br
HETATM   26 BR2  UNL     1      35.953  30.973  27.140  1.00  0.00    -0.071 Br
ENDBRANCH  11  23
TORSDOF 4
ENDMDL
MODEL 3
REMARK VINA RESULT: -6.380311830      3.980      6.756
REMARK  4 active torsions:
REMARK  status: ('A' for Active; 'I' for Inactive)
REMARK    1  A    between atoms: C2_2  and  C3_3 
REMARK    2  A    between atoms: C3_3  and  N1_6 
REMARK       I    between atoms: N1_6  and  C6_8 
REMARK       I    between atoms: C6_8  and  N2_10 
REMARK       I    between atoms: N3_12  and  C8_13 
REMARK    3  A    between atoms: C10_16  and  C11_17 
REMARK    4  A    between atoms: C13_21  and  C14_22 
ROOT
HETATM    1  N1  UNL     1      40.344  32.850  25.092  1.00  0.00    -0.334 N 
ATOM      2  H1  UNL     1      39.506  33.431  25.081  1.00  0.00     0.165 HD
HETATM    3  C6  UNL     1      40.203  31.447  24.968  1.00  0.00     0.322 C 
HETATM    4  O1  UNL     1      41.167  30.654  24.973  1.00  0.00    -0.247 OA
HETATM    5  N2  UNL     1      38.882  30.871  24.827  1.00  0.00    -0.287 N 
HETATM    6  C7  UNL     1      37.722  31.727  24.806  1.00  0.00     0.260 C 
HETATM    7  N3  UNL     1      36.575  30.994  24.365  1.00  0.00    -0.325 N 
HETATM    8  C8  UNL     1      35.724  31.613  23.411  1.00  0.00     0.217 C 
HETATM    9  C9  UNL     1      35.976  32.968  22.867  1.00  0.00     0.117 C 
HETATM   10  O2  UNL     1      34.717  30.988  23.012  1.00  0.00    -0.274 OA
HETATM   11  C10 UNL     1      36.266  29.676  24.851  1.00  0.00     0.167 C 
HETATM   12  C13 UNL     1      37.517  28.802  24.893  1.00  0.00     0.207 A 
HETATM   13  O4  UNL     1      38.377  28.871  25.963  1.00  0.00    -0.336 OA
HETATM   14  C15 UNL     1      38.744  29.458  24.717  1.00  0.00     0.277 A 
ENDROOT
BRANCH   1  15
HETATM   15  C3  UNL     1      41.635  33.492  25.233  1.00  0.00     0.027 C 
HETATM   16  C4  UNL     1      42.447  32.920  26.379  1.00  0.00     0.038 C 
HETATM   17  C5  UNL     1      41.408  34.957  25.578  1.00  0.00     0.038 C 
BRANCH  15  18
HETATM   18  C2  UNL     1      42.456  33.350  23.989  1.00  0.00     0.026 C 
HETATM   19  C1  UNL     1      41.774  34.128  22.863  1.00  0.00     0.007 C 
ENDBRANCH  15  18
ENDBRANCH   1  15
BRANCH  12  20
HETATM   20  C14 UNL     1      37.363  27.423  24.349  1.00  0.00     0.272 C 
HETATM   21  N4  UNL     1      36.920  27.259  23.008  1.00  0.00    -0.059 NA
HETATM   22  O3  UNL     1      37.604  26.382  25.010  1.00  0.00    -0.273 OA
ENDBRANCH  12  20
BRANCH  11  23
HETATM   23  C11 UNL     1      35.520  29.638  26.151  1.00  0.00     0.096 C 
HETATM   24  C12 UNL     1      35.794  30.872  26.997  1.00  0.00     0.042 C 
HETATM   25 BR1  UNL     1      35.951  28.105  27.239  1.00  0.00    -0.071 Br
HETATM   26 BR2  UNL     1      33.600  29.628  25.863  1.00  0.00    -0.071 Br
ENDBRANCH  11  23
TORSDOF 4
ENDMDL
MODEL 4
REMARK VINA RESULT: -6.147222586      1.743      2.049
REMARK  4 active torsions:
REMARK  status: ('A' for Active; 'I' for Inactive)
REMARK    1  A    between atoms: C2_2  and  C3_3 
REMARK    2  A    between atoms: C3_3  and  N1_6 
REMARK       I    between atoms: N1_6  and  C6_8 
REMARK       I    between atoms: C6_8  and  N2_10 
REMARK       I    between atoms: N3_12  and  C8_13 
REMARK    3  A    between atoms: C10_16  and  C11_17 
REMARK    4  A    between atoms: C13_21  and  C14_22 
ROOT
HETATM    1  N1  UNL     1      37.364  25.312  27.750  1.00  0.00    -0.334 N 
ATOM      2  H1  UNL     1      38.153  25.530  27.143  1.00  0.00     0.165 HD
HETATM    3  C6  UNL     1      36.156  26.031  27.583  1.00  0.00     0.322 C 
HETATM    4  O1  UNL     1      35.137  25.838  28.277  1.00  0.00    -0.247 OA
HETATM    5  N2  UNL     1      36.068  27.052  26.560  1.00  0.00    -0.287 N 
HETATM    6  C7  UNL     1      37.204  27.325  25.715  1.00  0.00     0.260 C 
HETATM    7  N3  UNL     1      36.811  28.136  24.604  1.00  0.00    -0.325 N 
HETATM    8  C8  UNL     1      37.295  27.774  23.319  1.00  0.00     0.217 C 
HETATM    9  C9  UNL     1      38.180  26.607  23.092  1.00  0.00     0.117 C 
HETATM   10  O2  UNL     1      36.961  28.470  22.335  1.00  0.00    -0.274 OA
HETATM   11  C10 UNL     1      35.957  29.284  24.749  1.00  0.00     0.167 C 
HETATM   12  C13 UNL     1      34.781  28.977  25.673  1.00  0.00     0.207 A 
HETATM   13  O4  UNL     1      34.930  29.058  27.038  1.00  0.00    -0.336 OA
HETATM   14  C15 UNL     1      34.855  27.783  26.405  1.00  0.00     0.277 A 
ENDROOT
BRANCH   1  15
HETATM   15  C3  UNL     1      37.520  24.276  28.752  1.00  0.00     0.027 C 
HETATM   16  C4  UNL     1      37.453  24.820  30.165  1.00  0.00     0.038 C 
HETATM   17  C5  UNL     1      38.908  23.671  28.606  1.00  0.00     0.038 C 
BRANCH  15  18
HETATM   18  C2  UNL     1      36.457  23.229  28.625  1.00  0.00     0.026 C 
HETATM   19  C1  UNL     1      35.958  22.869  30.024  1.00  0.00     0.007 C 
ENDBRANCH  15  18
ENDBRANCH   1  15
BRANCH  12  20
HETATM   20  C14 UNL     1      33.445  29.439  25.199  1.00  0.00     0.272 C 
HETATM   21  N4  UNL     1      33.241  29.632  23.805  1.00  0.00    -0.059 NA
HETATM   22  O3  UNL     1      32.476  29.671  25.964  1.00  0.00    -0.273 OA
ENDBRANCH  12  20
BRANCH  11  23
HETATM   23  C11 UNL     1      36.657  30.548  25.146  1.00  0.00     0.096 C 
HETATM   24  C12 UNL     1      38.163  30.358  25.238  1.00  0.00     0.042 C 
HETATM   25 BR1  UNL     1      36.077  31.246  26.849  1.00  0.00    -0.071 Br
HETATM   26 BR2  UNL     1      36.395  31.946  23.824  1.00  0.00    -0.071 Br
ENDBRANCH  11  23
TORSDOF 4
ENDMDL
MODEL 5
REMARK VINA RESULT: -6.141666046      3.304      6.630
REMARK  4 active torsions:
REMARK  status: ('A' for Active; 'I' for Inactive)
REMARK    1  A    between atoms: C2_2  and  C3_3 
REMARK    2  A    between atoms: C3_3  and  N1_6 
REMARK       I    between atoms: N1_6  and  C6_8 
REMARK       I    between atoms: C6_8  and  N2_10 
REMARK       I    between atoms: N3_12  and  C8_13 
REMARK    3  A    between atoms: C10_16  and  C11_17 
REMARK    4  A    between atoms: C13_21  and  C14_22 
ROOT
HETATM    1  N1  UNL     1      33.272  30.636  21.075  1.00  0.00    -0.334 N 
ATOM      2  H1  UNL     1      34.143  31.151  20.947  1.00  0.00     0.165 HD
HETATM    3  C6  UNL     1      33.042  29.981  22.308  1.00  0.00     0.322 C 
HETATM    4  O1  UNL     1      32.011  29.326  22.559  1.00  0.00    -0.247 OA
HETATM    5  N2  UNL     1      34.041  30.058  23.355  1.00  0.00    -0.287 N 
HETATM    6  C7  UNL     1      35.255  30.804  23.139  1.00  0.00     0.260 C 
HETATM    7  N3  UNL     1      35.945  30.996  24.378  1.00  0.00    -0.325 N 
HETATM    8  C8  UNL     1      36.463  32.289  24.649  1.00  0.00     0.217 C 
HETATM    9  C9  UNL     1      36.321  33.428  23.712  1.00  0.00     0.117 C 
HETATM   10  O2  UNL     1      37.069  32.478  25.728  1.00  0.00    -0.274 OA
HETATM   11  C10 UNL     1      36.124  29.938  25.334  1.00  0.00     0.167 C 
HETATM   12  C13 UNL     1      34.832  29.145  25.520  1.00  0.00     0.207 A 
HETATM   13  O4  UNL     1      34.502  28.140  24.641  1.00  0.00    -0.336 OA
HETATM   14  C15 UNL     1      33.811  29.386  24.590  1.00  0.00     0.277 A 
ENDROOT
BRANCH   1  15
HETATM   15  C3  UNL     1      32.316  30.602  19.986  1.00  0.00     0.027 C 
HETATM   16  C4  UNL     1      30.904  30.320  20.462  1.00  0.00     0.038 C 
HETATM   17  C5  UNL     1      32.680  29.450  19.061  1.00  0.00     0.038 C 
BRANCH  15  18
HETATM   18  C2  UNL     1      32.286  31.903  19.245  1.00  0.00     0.026 C 
HETATM   19  C1  UNL     1      33.060  32.944  20.054  1.00  0.00     0.007 C 
ENDBRANCH  15  18
ENDBRANCH   1  15
BRANCH  12  20
HETATM   20  C14 UNL     1      34.453  28.842  26.929  1.00  0.00     0.272 C 
HETATM   21  N4  UNL     1      33.424  29.607  27.543  1.00  0.00    -0.059 NA
HETATM   22  O3  UNL     1      34.994  27.941  27.619  1.00  0.00    -0.273 OA
ENDBRANCH  12  20
BRANCH  11  23
HETATM   23  C11 UNL     1      37.293  29.037  25.072  1.00  0.00     0.096 C 
HETATM   24  C12 UNL     1      36.874  27.754  24.372  1.00  0.00     0.042 C 
HETATM   25 BR1  UNL     1      38.237  28.519  26.672  1.00  0.00    -0.071 Br
HETATM   26 BR2  UNL     1      38.578  29.877  23.883  1.00  0.00    -0.071 Br
ENDBRANCH  11  23
TORSDOF 4
ENDMDL
