MODEL 1
REMARK VINA RESULT: -6.999651802      0.000      0.000
REMARK  5 active torsions:
REMARK  status: ('A' for Active; 'I' for Inactive)
REMARK    1  A    between atoms: C1_2  and  C2_3 
REMARK    2  A    between atoms: C3_4  and  N1_5 
REMARK    3  A    between atoms: C4_7  and  C5_8 
REMARK    4  A    between atoms: C6_9  and  C7_10 
REMARK    5  A    between atoms: C15_23  and  O4_24 
ROOT
HETATM    1  N1  UNL     1      36.195  28.836  24.137  1.00  0.00    -0.364 N 
ATOM      2  H1  UNL     1      35.657  28.398  24.885  1.00  0.00     0.165 HD
HETATM    3  C4  UNL     1      37.249  29.539  24.434  1.00  0.00     0.103 C 
ENDROOT
BRANCH   1   4
HETATM    4  C3  UNL     1      35.781  28.668  22.788  1.00  0.00     0.048 A 
HETATM    5  C2  UNL     1      34.550  29.143  22.389  1.00  0.00     0.048 A 
HETATM    6  C16 UNL     1      34.151  28.981  21.086  1.00  0.00     0.060 A 
HETATM    7  C15 UNL     1      34.940  28.358  20.162  1.00  0.00     0.101 A 
HETATM    8 BR2  UNL     1      32.416  29.673  20.615  1.00  0.00    -0.047 Br
HETATM    9  C14 UNL     1      36.188  27.874  20.558  1.00  0.00     0.047 A 
HETATM   10  C13 UNL     1      36.595  28.034  21.862  1.00  0.00     0.052 A 
HETATM   11 BR1  UNL     1      37.280  27.006  19.253  1.00  0.00    -0.048 Br
BRANCH   5  12
HETATM   12  C1  UNL     1      33.688  29.814  23.366  1.00  0.00     0.273 C 
HETATM   13  O1  UNL     1      33.303  29.175  24.376  1.00  0.00    -0.301 OA
ENDBRANCH   5  12
BRANCH   7  14
HETATM   14  O4  UNL     1      34.492  28.218  18.858  1.00  0.00    -0.358 OA
ATOM     15  H4  UNL     1      33.763  28.729  18.528  1.00  0.00     0.217 HD
ENDBRANCH   7  14
ENDBRANCH   1   4
BRANCH   3  16
HETATM   16  C5  UNL     1      37.618  29.671  25.823  1.00  0.00     0.031 A 
HETATM   17  C6  UNL     1      37.050  30.590  26.657  1.00  0.00     0.056 A 
HETATM   18  C8  UNL     1      37.515  30.590  27.971  1.00  0.00     0.037 A 
HETATM   19  C9  UNL     1      38.464  29.735  28.379  1.00  0.00     0.098 A 
HETATM   20  N2  UNL     1      39.052  28.804  27.568  1.00  0.00    -0.326 N 
HETATM   21  C10 UNL     1      39.981  27.944  27.904  1.00  0.00     0.104 A 
HETATM   22  C12 UNL     1      38.612  28.801  26.318  1.00  0.00     0.092 A 
HETATM   23  C11 UNL     1      40.442  27.088  26.937  1.00  0.00     0.069 A 
HETATM   24  S1  UNL     1      39.518  27.559  25.580  1.00  0.00    -0.082 SA
BRANCH  17  25
HETATM   25  C7  UNL     1      36.033  31.535  26.297  1.00  0.00     0.210 C 
HETATM   26  O2  UNL     1      34.830  31.390  26.569  1.00  0.00    -0.644 OA
HETATM   27  O3  UNL     1      36.385  32.718  25.587  1.00  0.00    -0.644 OA
ENDBRANCH  17  25
ENDBRANCH   3  16
TORSDOF 5
ENDMDL
MODEL 2
REMARK VINA RESULT: -6.819592181      0.992      1.063
REMARK  5 active torsions:
REMARK  status: ('A' for Active; 'I' for Inactive)
REMARK    1  A    between atoms: C1_2  and  C2_3 
REMARK    2  A    between atoms: C3_4  and  N1_5 
REMARK    3  A    between atoms: C4_7  and  C5_8 
REMARK    4  A    between atoms: C6_9  and  C7_10 
REMARK    5  A    between atoms: C15_23  and  O4_24 
ROOT
HETATM    1  N1  UNL     1      36.001  28.960  24.033  1.00  0.00    -0.364 N 
ATOM      2  H1  UNL     1      35.283  28.980  24.758  1.00  0.00     0.165 HD
HETATM    3  C4  UNL     1      37.248  29.126  24.363  1.00  0.00     0.103 C 
ENDROOT
BRANCH   1   4
HETATM    4  C3  UNL     1      35.622  28.750  22.680  1.00  0.00     0.048 A 
HETATM    5  C2  UNL     1      34.409  29.226  22.230  1.00  0.00     0.048 A 
HETATM    6  C16 UNL     1      34.044  29.024  20.923  1.00  0.00     0.060 A 
HETATM    7  C15 UNL     1      34.850  28.359  20.043  1.00  0.00     0.101 A 
HETATM    8 BR2  UNL     1      32.333  29.721  20.379  1.00  0.00    -0.047 Br
HETATM    9  C14 UNL     1      36.079  27.874  20.490  1.00  0.00     0.047 A 
HETATM   10  C13 UNL     1      36.452  28.074  21.800  1.00  0.00     0.052 A 
HETATM   11 BR1  UNL     1      37.196  26.948  19.247  1.00  0.00    -0.048 Br
BRANCH   5  12
HETATM   12  C1  UNL     1      33.529  29.941  23.159  1.00  0.00     0.273 C 
HETATM   13  O1  UNL     1      33.107  29.343  24.178  1.00  0.00    -0.301 OA
ENDBRANCH   5  12
BRANCH   7  14
HETATM   14  O4  UNL     1      34.437  28.180  18.733  1.00  0.00    -0.358 OA
ATOM     15  H4  UNL     1      33.668  27.662  18.523  1.00  0.00     0.217 HD
ENDBRANCH   7  14
ENDBRANCH   1   4
BRANCH   3  16
HETATM   16  C5  UNL     1      37.568  29.334  25.755  1.00  0.00     0.031 A 
HETATM   17  C6  UNL     1      37.606  30.571  26.332  1.00  0.00     0.056 A 
HETATM   18  C8  UNL     1      37.930  30.604  27.687  1.00  0.00     0.037 A 
HETATM   19  C9  UNL     1      38.188  29.480  28.373  1.00  0.00     0.098 A 
HETATM   20  N2  UNL     1      38.158  28.228  27.824  1.00  0.00    -0.326 N 
HETATM   21  C10 UNL     1      38.400  27.096  28.437  1.00  0.00     0.104 A 
HETATM   22  C12 UNL     1      37.850  28.194  26.536  1.00  0.00     0.092 A 
HETATM   23  C11 UNL     1      38.318  25.940  27.705  1.00  0.00     0.069 A 
HETATM   24  S1  UNL     1      37.896  26.531  26.159  1.00  0.00    -0.082 SA
BRANCH  17  25
HETATM   25  C7  UNL     1      37.342  31.815  25.667  1.00  0.00     0.210 C 
HETATM   26  O2  UNL     1      36.258  32.417  25.735  1.00  0.00    -0.644 OA
HETATM   27  O3  UNL     1      38.357  32.424  24.876  1.00  0.00    -0.644 OA
ENDBRANCH  17  25
ENDBRANCH   3  16
TORSDOF 5
ENDMDL
MODEL 3
REMARK VINA RESULT: -6.711574666      2.962      3.922
REMARK  5 active torsions:
REMARK  status: ('A' for Active; 'I' for Inactive)
REMARK    1  A    between atoms: C1_2  and  C2_3 
REMARK    2  A    between atoms: C3_4  and  N1_5 
REMARK    3  A    between atoms: C4_7  and  C5_8 
REMARK    4  A    between atoms: C6_9  and  C7_10 
REMARK    5  A    between atoms: C15_23  and  O4_24 
ROOT
HETATM    1  N1  UNL     1      34.103  30.239  23.123  1.00  0.00    -0.364 N 
ATOM      2  H1  UNL     1      33.531  29.416  23.312  1.00  0.00     0.165 HD
HETATM    3  C4  UNL     1      35.177  30.447  23.827  1.00  0.00     0.103 C 
ENDROOT
BRANCH   1   4
HETATM    4  C3  UNL     1      33.713  31.139  22.096  1.00  0.00     0.048 A 
HETATM    5  C2  UNL     1      32.936  30.687  21.052  1.00  0.00     0.048 A 
HETATM    6  C16 UNL     1      32.559  31.557  20.060  1.00  0.00     0.060 A 
HETATM    7  C15 UNL     1      32.933  32.871  20.072  1.00  0.00     0.101 A 
HETATM    8 BR2  UNL     1      31.474  30.841  18.639  1.00  0.00    -0.047 Br
HETATM    9  C14 UNL     1      33.720  33.337  21.126  1.00  0.00     0.047 A 
HETATM   10  C13 UNL     1      34.101  32.470  22.124  1.00  0.00     0.052 A 
HETATM   11 BR1  UNL     1      34.234  35.177  21.129  1.00  0.00    -0.048 Br
BRANCH   5  12
HETATM   12  C1  UNL     1      32.525  29.280  21.019  1.00  0.00     0.273 C 
HETATM   13  O1  UNL     1      33.400  28.389  21.139  1.00  0.00    -0.301 OA
ENDBRANCH   5  12
BRANCH   7  14
HETATM   14  O4  UNL     1      32.528  33.711  19.048  1.00  0.00    -0.358 OA
ATOM     15  H4  UNL     1      32.631  34.653  19.111  1.00  0.00     0.217 HD
ENDBRANCH   7  14
ENDBRANCH   1   4
BRANCH   3  16
HETATM   16  C5  UNL     1      35.519  29.495  24.856  1.00  0.00     0.031 A 
HETATM   17  C6  UNL     1      34.936  29.493  26.091  1.00  0.00     0.056 A 
HETATM   18  C8  UNL     1      35.375  28.508  26.973  1.00  0.00     0.037 A 
HETATM   19  C9  UNL     1      36.316  27.620  26.619  1.00  0.00     0.098 A 
HETATM   20  N2  UNL     1      36.919  27.595  25.392  1.00  0.00    -0.326 N 
HETATM   21  C10 UNL     1      37.841  26.758  24.986  1.00  0.00     0.104 A 
HETATM   22  C12 UNL     1      36.503  28.531  24.551  1.00  0.00     0.092 A 
HETATM   23  C11 UNL     1      38.321  26.901  23.710  1.00  0.00     0.069 A 
HETATM   24  S1  UNL     1      37.423  28.240  23.144  1.00  0.00    -0.082 SA
BRANCH  17  25
HETATM   25  C7  UNL     1      33.926  30.406  26.542  1.00  0.00     0.210 C 
HETATM   26  O2  UNL     1      34.120  31.277  27.405  1.00  0.00    -0.644 OA
HETATM   27  O3  UNL     1      32.614  30.339  25.993  1.00  0.00    -0.644 OA
ENDBRANCH  17  25
ENDBRANCH   3  16
TORSDOF 5
ENDMDL
MODEL 4
REMARK VINA RESULT: -6.596809110      4.079      6.963
REMARK  5 active torsions:
REMARK  status: ('A' for Active; 'I' for Inactive)
REMARK    1  A    between atoms: C1_2  and  C2_3 
REMARK    2  A    between atoms: C3_4  and  N1_5 
REMARK    3  A    between atoms: C4_7  and  C5_8 
REMARK    4  A    between atoms: C6_9  and  C7_10 
REMARK    5  A    between atoms: C15_23  and  O4_24 
ROOT
HETATM    1  N1  UNL     1      35.861  28.181  26.347  1.00  0.00    -0.364 N 
ATOM      2  H1  UNL     1      34.967  27.694  26.401  1.00  0.00     0.165 HD
HETATM    3  C4  UNL     1      36.039  29.095  25.438  1.00  0.00     0.103 C 
ENDROOT
BRANCH   1   4
HETATM    4  C3  UNL     1      36.892  27.851  27.267  1.00  0.00     0.048 A 
HETATM    5  C2  UNL     1      36.959  26.578  27.789  1.00  0.00     0.048 A 
HETATM    6  C16 UNL     1      37.956  26.259  28.677  1.00  0.00     0.060 A 
HETATM    7  C15 UNL     1      38.894  27.173  29.066  1.00  0.00     0.101 A 
HETATM    8 BR2  UNL     1      37.973  24.457  29.357  1.00  0.00    -0.047 Br
HETATM    9  C14 UNL     1      38.833  28.465  28.543  1.00  0.00     0.047 A 
HETATM   10  C13 UNL     1      37.837  28.790  27.651  1.00  0.00     0.052 A 
HETATM   11 BR1  UNL     1      40.153  29.730  29.096  1.00  0.00    -0.048 Br
BRANCH   5  12
HETATM   12  C1  UNL     1      35.961  25.583  27.385  1.00  0.00     0.273 C 
HETATM   13  O1  UNL     1      34.832  25.599  27.932  1.00  0.00    -0.301 OA
ENDBRANCH   5  12
BRANCH   7  14
HETATM   14  O4  UNL     1      39.880  26.804  29.966  1.00  0.00    -0.358 OA
ATOM     15  H4  UNL     1      40.294  27.442  30.536  1.00  0.00     0.217 HD
ENDBRANCH   7  14
ENDBRANCH   1   4
BRANCH   3  16
HETATM   16  C5  UNL     1      34.952  29.383  24.534  1.00  0.00     0.031 A 
HETATM   17  C6  UNL     1      33.818  30.039  24.920  1.00  0.00     0.056 A 
HETATM   18  C8  UNL     1      32.862  30.242  23.927  1.00  0.00     0.037 A 
HETATM   19  C9  UNL     1      33.054  29.813  22.671  1.00  0.00     0.098 A 
HETATM   20  N2  UNL     1      34.177  29.154  22.253  1.00  0.00    -0.326 N 
HETATM   21  C10 UNL     1      34.425  28.710  21.046  1.00  0.00     0.104 A 
HETATM   22  C12 UNL     1      35.089  28.960  23.195  1.00  0.00     0.092 A 
HETATM   23  C11 UNL     1      35.617  28.071  20.829  1.00  0.00     0.069 A 
HETATM   24  S1  UNL     1      36.336  28.133  22.378  1.00  0.00    -0.082 SA
BRANCH  17  25
HETATM   25  C7  UNL     1      33.540  30.528  26.240  1.00  0.00     0.210 C 
HETATM   26  O2  UNL     1      34.394  31.043  26.979  1.00  0.00    -0.644 OA
HETATM   27  O3  UNL     1      32.221  30.431  26.767  1.00  0.00    -0.644 OA
ENDBRANCH  17  25
ENDBRANCH   3  16
TORSDOF 5
ENDMDL
MODEL 5
REMARK VINA RESULT: -6.529288465      1.395      2.632
REMARK  5 active torsions:
REMARK  status: ('A' for Active; 'I' for Inactive)
REMARK    1  A    between atoms: C1_2  and  C2_3 
REMARK    2  A    between atoms: C3_4  and  N1_5 
REMARK    3  A    between atoms: C4_7  and  C5_8 
REMARK    4  A    between atoms: C6_9  and  C7_10 
REMARK    5  A    between atoms: C15_23  and  O4_24 
ROOT
HETATM    1  N1  UNL     1      36.862  29.133  23.926  1.00  0.00    -0.364 N 
ATOM      2  H1  UNL     1      37.774  29.592  23.933  1.00  0.00     0.165 HD
HETATM    3  C4  UNL     1      36.293  28.824  25.054  1.00  0.00     0.103 C 
ENDROOT
BRANCH   1   4
HETATM    4  C3  UNL     1      36.236  28.843  22.684  1.00  0.00     0.048 A 
HETATM    5  C2  UNL     1      36.895  28.071  21.752  1.00  0.00     0.048 A 
HETATM    6  C16 UNL     1      36.289  27.790  20.553  1.00  0.00     0.060 A 
HETATM    7  C15 UNL     1      35.042  28.255  20.249  1.00  0.00     0.101 A 
HETATM    8 BR2  UNL     1      37.283  26.706  19.309  1.00  0.00    -0.047 Br
HETATM    9  C14 UNL     1      34.367  29.037  21.188  1.00  0.00     0.047 A 
HETATM   10  C13 UNL     1      34.968  29.322  22.392  1.00  0.00     0.052 A 
HETATM   11 BR1  UNL     1      32.622  29.679  20.747  1.00  0.00    -0.048 Br
BRANCH   5  12
HETATM   12  C1  UNL     1      38.236  27.563  22.059  1.00  0.00     0.273 C 
HETATM   13  O1  UNL     1      38.346  26.520  22.748  1.00  0.00    -0.301 OA
ENDBRANCH   5  12
BRANCH   7  14
HETATM   14  O4  UNL     1      34.472  27.945  19.025  1.00  0.00    -0.358 OA
ATOM     15  H4  UNL     1      34.987  27.566  18.321  1.00  0.00     0.217 HD
ENDBRANCH   7  14
ENDBRANCH   1   4
BRANCH   3  16
HETATM   16  C5  UNL     1      36.981  29.146  26.281  1.00  0.00     0.031 A 
HETATM   17  C6  UNL     1      36.820  30.335  26.933  1.00  0.00     0.056 A 
HETATM   18  C8  UNL     1      37.556  30.493  28.107  1.00  0.00     0.037 A 
HETATM   19  C9  UNL     1      38.370  29.527  28.558  1.00  0.00     0.098 A 
HETATM   20  N2  UNL     1      38.552  28.327  27.929  1.00  0.00    -0.326 N 
HETATM   21  C10 UNL     1      39.330  27.347  28.317  1.00  0.00     0.104 A 
HETATM   22  C12 UNL     1      37.854  28.174  26.813  1.00  0.00     0.092 A 
HETATM   23  C11 UNL     1      39.374  26.217  27.541  1.00  0.00     0.069 A 
HETATM   24  S1  UNL     1      38.291  26.614  26.281  1.00  0.00    -0.082 SA
BRANCH  17  25
HETATM   25  C7  UNL     1      35.971  31.413  26.515  1.00  0.00     0.210 C 
HETATM   26  O2  UNL     1      36.359  32.368  25.822  1.00  0.00    -0.644 OA
HETATM   27  O3  UNL     1      34.600  31.423  26.898  1.00  0.00    -0.644 OA
ENDBRANCH  17  25
ENDBRANCH   3  16
TORSDOF 5
ENDMDL
