MODEL 1
REMARK VINA RESULT: -8.949594041      0.000      0.000
REMARK  4 active torsions:
REMARK  status: ('A' for Active; 'I' for Inactive)
REMARK    1  A    between atoms: C1_2  and  C2_4 
REMARK    2  A    between atoms: C7_9  and  C8_10 
REMARK       I    between atoms: C8_10  and  N2_12 
REMARK    3  A    between atoms: C14_18  and  C15_19 
REMARK       I    between atoms: C15_19  and  N3_21 
REMARK    4  A    between atoms: N3_21  and  C16_23 
ROOT
HETATM    1  C2  UNL     1      37.760  29.670  27.448  1.00  0.00     0.140 C 
HETATM    2  C3  UNL     1      37.233  28.267  27.668  1.00  0.00     0.052 C 
HETATM    3  C4  UNL     1      36.588  27.734  26.405  1.00  0.00    -0.010 C 
HETATM    4  C5  UNL     1      37.679  27.174  25.564  1.00  0.00     0.006 C 
HETATM    5  C6  UNL     1      37.974  28.138  24.463  1.00  0.00     0.021 C 
HETATM    6  C7  UNL     1      37.818  29.607  24.898  1.00  0.00     0.062 C 
HETATM    7  C13 UNL     1      38.582  29.796  26.215  1.00  0.00     0.068 C 
HETATM    8  C14 UNL     1      36.394  29.941  25.167  1.00  0.00     0.079 C 
HETATM    9  C22 UNL     1      36.289  30.996  26.295  1.00  0.00     0.190 C 
HETATM   10  O4  UNL     1      36.672  30.514  27.512  1.00  0.00    -0.369 OA
HETATM   11  C23 UNL     1      35.690  28.717  25.754  1.00  0.00     0.027 C 
ENDROOT
BRANCH   8  12
HETATM   12  C15 UNL     1      35.563  30.500  24.079  1.00  0.00     0.234 C 
HETATM   13  O3  UNL     1      35.517  31.787  24.031  1.00  0.00    -0.272 OA
HETATM   14  N3  UNL     1      34.840  29.780  23.120  1.00  0.00    -0.326 N 
ATOM     15  H3  UNL     1      34.892  28.765  23.199  1.00  0.00     0.169 HD
BRANCH  14  16
HETATM   16  C16 UNL     1      34.051  30.268  22.064  1.00  0.00     0.036 A 
HETATM   17  C17 UNL     1      33.399  29.340  21.238  1.00  0.00     0.031 A 
HETATM   18  C18 UNL     1      32.621  29.746  20.173  1.00  0.00     0.028 A 
HETATM   19  C19 UNL     1      32.453  31.069  19.879  1.00  0.00     0.055 A 
HETATM   20 CL1  UNL     1      31.449  31.534  18.510  1.00  0.00    -0.083 Cl
HETATM   21  C20 UNL     1      33.070  31.992  20.659  1.00  0.00     0.058 A 
HETATM   22 CL2  UNL     1      32.862  33.699  20.292  1.00  0.00    -0.082 Cl
HETATM   23  C21 UNL     1      33.855  31.579  21.732  1.00  0.00     0.055 A 
ENDBRANCH  14  16
ENDBRANCH   8  12
BRANCH   6  24
HETATM   24  C8  UNL     1      38.472  30.388  23.826  1.00  0.00     0.230 C 
HETATM   25  O2  UNL     1      38.697  29.770  22.715  1.00  0.00    -0.272 OA
HETATM   26  N2  UNL     1      38.893  31.713  23.828  1.00  0.00    -0.351 N 
HETATM   27  C9  UNL     1      38.856  32.750  24.787  1.00  0.00     0.126 C 
HETATM   28  C12 UNL     1      39.539  32.365  22.660  1.00  0.00     0.126 C 
HETATM   29  C10 UNL     1      40.350  33.171  24.787  1.00  0.00     0.021 C 
HETATM   30  C11 UNL     1      40.588  33.258  23.289  1.00  0.00     0.021 C 
ENDBRANCH   6  24
BRANCH   1  31
HETATM   31  C1  UNL     1      38.626  29.971  28.610  1.00  0.00     0.266 C 
HETATM   32  N1  UNL     1      40.014  29.692  28.613  1.00  0.00    -0.059 NA
HETATM   33  O1  UNL     1      38.118  30.491  29.628  1.00  0.00    -0.273 OA
ENDBRANCH   1  31
TORSDOF 4
ENDMDL
MODEL 2
REMARK VINA RESULT: -8.872453728      1.806      2.451
REMARK  4 active torsions:
REMARK  status: ('A' for Active; 'I' for Inactive)
REMARK    1  A    between atoms: C1_2  and  C2_4 
REMARK    2  A    between atoms: C7_9  and  C8_10 
REMARK       I    between atoms: C8_10  and  N2_12 
REMARK    3  A    between atoms: C14_18  and  C15_19 
REMARK       I    between atoms: C15_19  and  N3_21 
REMARK    4  A    between atoms: N3_21  and  C16_23 
ROOT
HETATM    1  C2  UNL     1      38.231  30.394  26.488  1.00  0.00     0.140 C 
HETATM    2  C3  UNL     1      37.235  30.239  27.619  1.00  0.00     0.052 C 
HETATM    3  C4  UNL     1      35.857  29.919  27.078  1.00  0.00    -0.010 C 
HETATM    4  C5  UNL     1      35.808  28.449  26.856  1.00  0.00     0.006 C 
HETATM    5  C6  UNL     1      35.947  28.184  25.394  1.00  0.00     0.021 C 
HETATM    6  C7  UNL     1      36.884  29.184  24.691  1.00  0.00     0.062 C 
HETATM    7  C13 UNL     1      38.179  29.276  25.510  1.00  0.00     0.068 C 
HETATM    8  C14 UNL     1      36.290  30.547  24.658  1.00  0.00     0.079 C 
HETATM    9  C22 UNL     1      37.400  31.623  24.742  1.00  0.00     0.190 C 
HETATM   10  O4  UNL     1      38.027  31.648  25.953  1.00  0.00    -0.369 OA
HETATM   11  C23 UNL     1      35.473  30.774  25.930  1.00  0.00     0.027 C 
ENDROOT
BRANCH   8  12
HETATM   12  C15 UNL     1      35.485  30.957  23.487  1.00  0.00     0.234 C 
HETATM   13  O3  UNL     1      35.811  32.092  22.968  1.00  0.00    -0.272 OA
HETATM   14  N3  UNL     1      34.427  30.249  22.906  1.00  0.00    -0.326 N 
ATOM     15  H3  UNL     1      34.192  29.363  23.352  1.00  0.00     0.169 HD
BRANCH  14  16
HETATM   16  C16 UNL     1      33.646  30.593  21.789  1.00  0.00     0.036 A 
HETATM   17  C17 UNL     1      33.010  29.563  21.080  1.00  0.00     0.031 A 
HETATM   18  C18 UNL     1      32.241  29.825  19.965  1.00  0.00     0.028 A 
HETATM   19  C19 UNL     1      32.065  31.099  19.506  1.00  0.00     0.055 A 
HETATM   20 CL1  UNL     1      31.071  31.380  18.080  1.00  0.00    -0.083 Cl
HETATM   21  C20 UNL     1      32.665  32.119  20.170  1.00  0.00     0.058 A 
HETATM   22 CL2  UNL     1      32.448  33.764  19.591  1.00  0.00    -0.082 Cl
HETATM   23  C21 UNL     1      33.442  31.850  21.294  1.00  0.00     0.055 A 
ENDBRANCH  14  16
ENDBRANCH   8  12
BRANCH   6  24
HETATM   24  C8  UNL     1      37.169  28.572  23.376  1.00  0.00     0.230 C 
HETATM   25  O2  UNL     1      36.278  27.762  22.909  1.00  0.00    -0.272 OA
HETATM   26  N2  UNL     1      38.271  28.736  22.544  1.00  0.00    -0.351 N 
HETATM   27  C9  UNL     1      39.456  29.499  22.630  1.00  0.00     0.126 C 
HETATM   28  C12 UNL     1      38.414  28.048  21.235  1.00  0.00     0.126 C 
HETATM   29  C10 UNL     1      40.511  28.388  22.382  1.00  0.00     0.021 C 
HETATM   30  C11 UNL     1      39.889  27.714  21.170  1.00  0.00     0.021 C 
ENDBRANCH   6  24
BRANCH   1  31
HETATM   31  C1  UNL     1      39.572  30.392  27.117  1.00  0.00     0.266 C 
HETATM   32  N1  UNL     1      39.792  29.912  28.430  1.00  0.00    -0.059 NA
HETATM   33  O1  UNL     1      40.548  30.828  26.468  1.00  0.00    -0.273 OA
ENDBRANCH   1  31
TORSDOF 4
ENDMDL
MODEL 3
REMARK VINA RESULT: -8.623642105      1.820      2.749
REMARK  4 active torsions:
REMARK  status: ('A' for Active; 'I' for Inactive)
REMARK    1  A    between atoms: C1_2  and  C2_4 
REMARK    2  A    between atoms: C7_9  and  C8_10 
REMARK       I    between atoms: C8_10  and  N2_12 
REMARK    3  A    between atoms: C14_18  and  C15_19 
REMARK       I    between atoms: C15_19  and  N3_21 
REMARK    4  A    between atoms: N3_21  and  C16_23 
ROOT
HETATM    1  C2  UNL     1      37.922  29.952  26.763  1.00  0.00     0.140 C 
HETATM    2  C3  UNL     1      36.925  29.171  27.594  1.00  0.00     0.052 C 
HETATM    3  C4  UNL     1      35.800  28.646  26.726  1.00  0.00    -0.010 C 
HETATM    4  C5  UNL     1      36.274  27.370  26.127  1.00  0.00     0.006 C 
HETATM    5  C6  UNL     1      36.645  27.622  24.703  1.00  0.00     0.021 C 
HETATM    6  C7  UNL     1      37.258  29.018  24.484  1.00  0.00     0.062 C 
HETATM    7  C13 UNL     1      38.353  29.227  25.538  1.00  0.00     0.068 C 
HETATM    8  C14 UNL     1      36.245  30.089  24.687  1.00  0.00     0.079 C 
HETATM    9  C22 UNL     1      36.911  31.361  25.265  1.00  0.00     0.190 C 
HETATM   10  O4  UNL     1      37.363  31.192  26.540  1.00  0.00    -0.369 OA
HETATM   11  C23 UNL     1      35.271  29.661  25.786  1.00  0.00     0.027 C 
ENDROOT
BRANCH   8  12
HETATM   12  C15 UNL     1      35.475  30.586  23.526  1.00  0.00     0.234 C 
HETATM   13  O3  UNL     1      35.876  31.712  23.044  1.00  0.00    -0.272 OA
HETATM   14  N3  UNL     1      34.377  29.965  22.919  1.00  0.00    -0.326 N 
ATOM     15  H3  UNL     1      34.083  29.082  23.336  1.00  0.00     0.169 HD
BRANCH  14  16
HETATM   16  C16 UNL     1      33.627  30.393  21.810  1.00  0.00     0.036 A 
HETATM   17  C17 UNL     1      32.951  29.425  21.051  1.00  0.00     0.031 A 
HETATM   18  C18 UNL     1      32.208  29.771  19.942  1.00  0.00     0.028 A 
HETATM   19  C19 UNL     1      32.098  31.070  19.535  1.00  0.00     0.055 A 
HETATM   20 CL1  UNL     1      31.136  31.458  18.113  1.00  0.00    -0.083 Cl
HETATM   21  C20 UNL     1      32.739  32.031  20.247  1.00  0.00     0.058 A 
HETATM   22 CL2  UNL     1      32.608  33.707  19.736  1.00  0.00    -0.082 Cl
HETATM   23  C21 UNL     1      33.489  31.678  21.366  1.00  0.00     0.055 A 
ENDBRANCH  14  16
ENDBRANCH   8  12
BRANCH   6  24
HETATM   24  C8  UNL     1      37.868  28.954  23.138  1.00  0.00     0.230 C 
HETATM   25  O2  UNL     1      38.816  29.795  22.892  1.00  0.00    -0.272 OA
HETATM   26  N2  UNL     1      37.573  28.111  22.073  1.00  0.00    -0.351 N 
HETATM   27  C9  UNL     1      36.645  27.063  21.881  1.00  0.00     0.126 C 
HETATM   28  C12 UNL     1      38.284  28.166  20.770  1.00  0.00     0.126 C 
HETATM   29  C10 UNL     1      35.958  27.546  20.576  1.00  0.00     0.021 C 
HETATM   30  C11 UNL     1      37.189  27.899  19.757  1.00  0.00     0.021 C 
ENDBRANCH   6  24
BRANCH   1  31
HETATM   31  C1  UNL     1      39.111  30.148  27.622  1.00  0.00     0.266 C 
HETATM   32  N1  UNL     1      39.051  30.053  29.033  1.00  0.00    -0.059 NA
HETATM   33  O1  UNL     1      40.212  30.406  27.087  1.00  0.00    -0.273 OA
ENDBRANCH   1  31
TORSDOF 4
ENDMDL
MODEL 4
REMARK VINA RESULT: -8.579991337      0.755      1.339
REMARK  4 active torsions:
REMARK  status: ('A' for Active; 'I' for Inactive)
REMARK    1  A    between atoms: C1_2  and  C2_4 
REMARK    2  A    between atoms: C7_9  and  C8_10 
REMARK       I    between atoms: C8_10  and  N2_12 
REMARK    3  A    between atoms: C14_18  and  C15_19 
REMARK       I    between atoms: C15_19  and  N3_21 
REMARK    4  A    between atoms: N3_21  and  C16_23 
ROOT
HETATM    1  C2  UNL     1      37.363  29.752  27.260  1.00  0.00     0.140 C 
HETATM    2  C3  UNL     1      36.584  28.463  27.426  1.00  0.00     0.052 C 
HETATM    3  C4  UNL     1      35.921  28.068  26.122  1.00  0.00    -0.010 C 
HETATM    4  C5  UNL     1      36.937  27.331  25.325  1.00  0.00     0.006 C 
HETATM    5  C6  UNL     1      37.456  28.239  24.260  1.00  0.00     0.021 C 
HETATM    6  C7  UNL     1      37.541  29.707  24.715  1.00  0.00     0.062 C 
HETATM    7  C13 UNL     1      38.257  29.742  26.072  1.00  0.00     0.068 C 
HETATM    8  C14 UNL     1      36.187  30.287  24.921  1.00  0.00     0.079 C 
HETATM    9  C22 UNL     1      36.213  31.332  26.063  1.00  0.00     0.190 C 
HETATM   10  O4  UNL     1      36.441  30.776  27.287  1.00  0.00    -0.369 OA
HETATM   11  C23 UNL     1      35.247  29.202  25.448  1.00  0.00     0.027 C 
ENDROOT
BRANCH   8  12
HETATM   12  C15 UNL     1      35.526  30.997  23.804  1.00  0.00     0.234 C 
HETATM   13  O3  UNL     1      35.924  32.208  23.613  1.00  0.00    -0.272 OA
HETATM   14  N3  UNL     1      34.533  30.491  22.958  1.00  0.00    -0.326 N 
ATOM     15  H3  UNL     1      34.236  29.534  23.149  1.00  0.00     0.169 HD
BRANCH  14  16
HETATM   16  C16 UNL     1      33.890  31.123  21.880  1.00  0.00     0.036 A 
HETATM   17  C17 UNL     1      33.962  32.521  21.790  1.00  0.00     0.031 A 
HETATM   18  C18 UNL     1      33.342  33.210  20.768  1.00  0.00     0.028 A 
HETATM   19  C19 UNL     1      32.632  32.559  19.800  1.00  0.00     0.055 A 
HETATM   20 CL1  UNL     1      31.861  33.485  18.516  1.00  0.00    -0.083 Cl
HETATM   21  C20 UNL     1      32.543  31.206  19.857  1.00  0.00     0.058 A 
HETATM   22 CL2  UNL     1      31.633  30.355  18.617  1.00  0.00    -0.082 Cl
HETATM   23  C21 UNL     1      33.169  30.515  20.890  1.00  0.00     0.055 A 
ENDBRANCH  14  16
ENDBRANCH   8  12
BRANCH   6  24
HETATM   24  C8  UNL     1      38.378  30.371  23.693  1.00  0.00     0.230 C 
HETATM   25  O2  UNL     1      38.534  29.742  22.575  1.00  0.00    -0.272 OA
HETATM   26  N2  UNL     1      39.039  31.593  23.748  1.00  0.00    -0.351 N 
HETATM   27  C9  UNL     1      39.153  32.600  24.731  1.00  0.00     0.126 C 
HETATM   28  C12 UNL     1      39.848  32.133  22.625  1.00  0.00     0.126 C 
HETATM   29  C10 UNL     1      40.698  32.732  24.804  1.00  0.00     0.021 C 
HETATM   30  C11 UNL     1      41.017  32.800  23.320  1.00  0.00     0.021 C 
ENDBRANCH   6  24
BRANCH   1  31
HETATM   31  C1  UNL     1      38.207  29.881  28.469  1.00  0.00     0.266 C 
HETATM   32  N1  UNL     1      39.372  29.101  28.667  1.00  0.00    -0.059 NA
HETATM   33  O1  UNL     1      37.884  30.708  29.351  1.00  0.00    -0.273 OA
ENDBRANCH   1  31
TORSDOF 4
ENDMDL
MODEL 5
REMARK VINA RESULT: -8.263087146      3.657      5.928
REMARK  4 active torsions:
REMARK  status: ('A' for Active; 'I' for Inactive)
REMARK    1  A    between atoms: C1_2  and  C2_4 
REMARK    2  A    between atoms: C7_9  and  C8_10 
REMARK       I    between atoms: C8_10  and  N2_12 
REMARK    3  A    between atoms: C14_18  and  C15_19 
REMARK       I    between atoms: C15_19  and  N3_21 
REMARK    4  A    between atoms: N3_21  and  C16_23 
ROOT
HETATM    1  C2  UNL     1      36.295  28.986  26.507  1.00  0.00     0.140 C 
HETATM    2  C3  UNL     1      34.938  29.642  26.651  1.00  0.00     0.052 C 
HETATM    3  C4  UNL     1      34.737  30.696  25.582  1.00  0.00    -0.010 C 
HETATM    4  C5  UNL     1      34.248  29.994  24.366  1.00  0.00     0.006 C 
HETATM    5  C6  UNL     1      35.379  29.877  23.398  1.00  0.00     0.021 C 
HETATM    6  C7  UNL     1      36.739  29.669  24.089  1.00  0.00     0.062 C 
HETATM    7  C13 UNL     1      36.581  28.540  25.117  1.00  0.00     0.068 C 
HETATM    8  C14 UNL     1      37.155  30.885  24.836  1.00  0.00     0.079 C 
HETATM    9  C22 UNL     1      37.968  30.496  26.095  1.00  0.00     0.190 C 
HETATM   10  O4  UNL     1      37.215  29.862  27.039  1.00  0.00    -0.369 OA
HETATM   11  C23 UNL     1      35.916  31.576  25.408  1.00  0.00     0.027 C 
ENDROOT
BRANCH   8  12
HETATM   12  C15 UNL     1      38.002  31.894  24.163  1.00  0.00     0.234 C 
HETATM   13  O3  UNL     1      37.389  32.642  23.310  1.00  0.00    -0.272 OA
HETATM   14  N3  UNL     1      39.371  32.107  24.359  1.00  0.00    -0.326 N 
ATOM     15  H3  UNL     1      39.822  31.488  25.032  1.00  0.00     0.169 HD
BRANCH  14  16
HETATM   16  C16 UNL     1      40.209  33.059  23.753  1.00  0.00     0.036 A 
HETATM   17  C17 UNL     1      40.637  32.827  22.437  1.00  0.00     0.031 A 
HETATM   18  C18 UNL     1      41.472  33.710  21.785  1.00  0.00     0.028 A 
HETATM   19  C19 UNL     1      41.917  34.849  22.394  1.00  0.00     0.055 A 
HETATM   20 CL1  UNL     1      42.981  35.944  21.517  1.00  0.00    -0.083 Cl
HETATM   21  C20 UNL     1      41.522  35.104  23.666  1.00  0.00     0.058 A 
HETATM   22 CL2  UNL     1      42.087  36.565  24.462  1.00  0.00    -0.082 Cl
HETATM   23  C21 UNL     1      40.680  34.209  24.321  1.00  0.00     0.055 A 
ENDBRANCH  14  16
ENDBRANCH   8  12
BRANCH   6  24
HETATM   24  C8  UNL     1      37.648  29.234  23.007  1.00  0.00     0.230 C 
HETATM   25  O2  UNL     1      38.822  29.771  22.987  1.00  0.00    -0.272 OA
HETATM   26  N2  UNL     1      37.432  28.316  21.986  1.00  0.00    -0.351 N 
HETATM   27  C9  UNL     1      36.338  27.502  21.617  1.00  0.00     0.126 C 
HETATM   28  C12 UNL     1      38.455  27.978  20.964  1.00  0.00     0.126 C 
HETATM   29  C10 UNL     1      36.193  27.904  20.125  1.00  0.00     0.021 C 
HETATM   30  C11 UNL     1      37.647  27.810  19.694  1.00  0.00     0.021 C 
ENDBRANCH   6  24
BRANCH   1  31
HETATM   31  C1  UNL     1      36.268  27.787  27.375  1.00  0.00     0.266 C 
HETATM   32  N1  UNL     1      35.181  26.880  27.382  1.00  0.00    -0.059 NA
HETATM   33  O1  UNL     1      37.238  27.563  28.133  1.00  0.00    -0.273 OA
ENDBRANCH   1  31
TORSDOF 4
ENDMDL
