MODEL 1
REMARK VINA RESULT: -8.569841516      0.000      0.000
REMARK  5 active torsions:
REMARK  status: ('A' for Active; 'I' for Inactive)
REMARK       I    between atoms: C2_2  and  N1_4 
REMARK    1  A    between atoms: N1_4  and  C3_6 
REMARK    2  A    between atoms: C6_9  and  O2_10 
REMARK    3  A    between atoms: C6_9  and  C13_21 
REMARK    4  A    between atoms: O2_10  and  C7_11 
REMARK       I    between atoms: C7_11  and  N2_13 
REMARK       I    between atoms: C13_21  and  N3_23 
REMARK    5  A    between atoms: N3_23  and  C14_25 
ROOT
HETATM    1  C3  UNL     1      32.519  30.312  20.335  1.00  0.00     0.087 C 
HETATM    2  C4  UNL     1      33.070  31.429  21.144  1.00  0.00     0.029 C 
HETATM    3  C5  UNL     1      34.180  30.766  21.931  1.00  0.00     0.051 C 
HETATM    4  C6  UNL     1      33.904  29.312  21.957  1.00  0.00     0.154 C 
HETATM    5  C24 UNL     1      32.613  29.122  21.247  1.00  0.00     0.074 C 
ENDROOT
BRANCH   4   6
HETATM    6  O2  UNL     1      33.921  28.757  23.258  1.00  0.00    -0.282 OA
BRANCH   6   7
HETATM    7  C7  UNL     1      33.830  29.504  24.415  1.00  0.00     0.367 C 
HETATM    8  O3  UNL     1      32.719  30.015  24.688  1.00  0.00    -0.238 OA
HETATM    9  N2  UNL     1      34.977  29.658  25.228  1.00  0.00    -0.279 N 
HETATM   10  C8  UNL     1      36.265  29.069  24.911  1.00  0.00     0.133 C 
HETATM   11  C12 UNL     1      34.963  30.437  26.476  1.00  0.00     0.260 C 
HETATM   12  C9  UNL     1      37.244  30.216  24.763  1.00  0.00     0.020 C 
HETATM   13  C10 UNL     1      37.199  31.192  25.889  1.00  0.00     0.008 C 
HETATM   14  C11 UNL     1      35.785  31.676  26.182  1.00  0.00     0.085 C 
HETATM   15  F1  UNL     1      35.690  29.732  27.447  1.00  0.00    -0.201 F 
HETATM   16 CL1  UNL     1      33.338  30.779  27.035  1.00  0.00    -0.059 Cl
ENDBRANCH   6   7
ENDBRANCH   4   6
BRANCH   4  17
HETATM   17  C13 UNL     1      34.948  28.583  21.160  1.00  0.00     0.253 C 
HETATM   18  O4  UNL     1      34.837  28.433  19.917  1.00  0.00    -0.270 OA
HETATM   19  N3  UNL     1      36.088  28.044  21.798  1.00  0.00    -0.353 N 
ATOM     20  H3  UNL     1      36.203  28.151  22.806  1.00  0.00     0.163 HD
BRANCH  19  21
HETATM   21  C14 UNL     1      37.084  27.350  21.039  1.00  0.00     0.092 C 
HETATM   22  C15 UNL     1      38.199  28.313  20.645  1.00  0.00     0.009 C 
HETATM   23  C16 UNL     1      39.037  28.663  21.844  1.00  0.00     0.011 C 
HETATM   24  C20 UNL     1      39.026  27.576  19.593  1.00  0.00     0.011 C 
HETATM   25  C17 UNL     1      39.677  27.422  22.389  1.00  0.00    -0.013 C 
HETATM   26  C18 UNL     1      40.484  26.696  21.341  1.00  0.00     0.009 C 
HETATM   27  C23 UNL     1      38.566  26.492  22.866  1.00  0.00     0.011 C 
HETATM   28  C19 UNL     1      39.573  26.317  20.196  1.00  0.00    -0.013 C 
HETATM   29  C21 UNL     1      38.493  25.392  20.692  1.00  0.00     0.011 C 
HETATM   30  C22 UNL     1      37.650  26.146  21.720  1.00  0.00     0.009 C 
ENDBRANCH  19  21
ENDBRANCH   4  17
BRANCH   1  31
HETATM   31  N1  UNL     1      31.167  30.544  19.870  1.00  0.00    -0.357 N 
HETATM   32  C2  UNL     1      30.876  31.262  18.703  1.00  0.00     0.213 C 
HETATM   33  C1  UNL     1      29.489  31.492  18.238  1.00  0.00     0.117 C 
HETATM   34  O1  UNL     1      31.810  31.735  18.013  1.00  0.00    -0.274 OA
ATOM     35  H1  UNL     1      30.392  30.168  20.417  1.00  0.00     0.162 HD
ENDBRANCH   1  31
TORSDOF 5
ENDMDL
MODEL 2
REMARK VINA RESULT: -8.112434348      3.514      4.721
REMARK  5 active torsions:
REMARK  status: ('A' for Active; 'I' for Inactive)
REMARK       I    between atoms: C2_2  and  N1_4 
REMARK    1  A    between atoms: N1_4  and  C3_6 
REMARK    2  A    between atoms: C6_9  and  O2_10 
REMARK    3  A    between atoms: C6_9  and  C13_21 
REMARK    4  A    between atoms: O2_10  and  C7_11 
REMARK       I    between atoms: C7_11  and  N2_13 
REMARK       I    between atoms: C13_21  and  N3_23 
REMARK    5  A    between atoms: N3_23  and  C14_25 
ROOT
HETATM    1  C3  UNL     1      34.386  29.430  24.567  1.00  0.00     0.087 C 
HETATM    2  C4  UNL     1      34.741  30.656  23.808  1.00  0.00     0.029 C 
HETATM    3  C5  UNL     1      36.164  30.385  23.366  1.00  0.00     0.051 C 
HETATM    4  C6  UNL     1      36.720  29.347  24.263  1.00  0.00     0.154 C 
HETATM    5  C24 UNL     1      35.663  29.051  25.262  1.00  0.00     0.074 C 
ENDROOT
BRANCH   4   6
HETATM    6  O2  UNL     1      37.960  29.707  24.841  1.00  0.00    -0.282 OA
BRANCH   6   7
HETATM    7  C7  UNL     1      38.133  29.992  26.180  1.00  0.00     0.367 C 
HETATM    8  O3  UNL     1      37.709  31.095  26.596  1.00  0.00    -0.238 OA
HETATM    9  N2  UNL     1      38.773  29.042  27.010  1.00  0.00    -0.279 N 
HETATM   10  C8  UNL     1      39.268  27.766  26.528  1.00  0.00     0.133 C 
HETATM   11  C12 UNL     1      38.995  29.270  28.447  1.00  0.00     0.260 C 
HETATM   12  C9  UNL     1      40.761  27.753  26.783  1.00  0.00     0.020 C 
HETATM   13  C10 UNL     1      41.136  28.151  28.171  1.00  0.00     0.008 C 
HETATM   14  C11 UNL     1      40.492  29.464  28.593  1.00  0.00     0.085 C 
HETATM   15  F1  UNL     1      38.706  28.081  29.133  1.00  0.00    -0.201 F 
HETATM   16 CL1  UNL     1      38.042  30.602  29.069  1.00  0.00    -0.059 Cl
ENDBRANCH   6   7
ENDBRANCH   4   6
BRANCH   4  17
HETATM   17  C13 UNL     1      36.952  28.080  23.489  1.00  0.00     0.253 C 
HETATM   18  O4  UNL     1      37.134  26.981  24.070  1.00  0.00    -0.270 OA
HETATM   19  N3  UNL     1      36.973  28.100  22.076  1.00  0.00    -0.353 N 
ATOM     20  H3  UNL     1      36.829  28.978  21.578  1.00  0.00     0.163 HD
BRANCH  19  21
HETATM   21  C14 UNL     1      37.193  26.893  21.337  1.00  0.00     0.092 C 
HETATM   22  C15 UNL     1      36.221  26.819  20.164  1.00  0.00     0.009 C 
HETATM   23  C16 UNL     1      36.608  27.807  19.098  1.00  0.00     0.011 C 
HETATM   24  C20 UNL     1      36.311  25.385  19.644  1.00  0.00     0.011 C 
HETATM   25  C17 UNL     1      37.975  27.474  18.580  1.00  0.00    -0.013 C 
HETATM   26  C18 UNL     1      38.058  26.054  18.077  1.00  0.00     0.009 C 
HETATM   27  C23 UNL     1      38.965  27.633  19.729  1.00  0.00     0.011 C 
HETATM   28  C19 UNL     1      37.720  25.112  19.210  1.00  0.00    -0.013 C 
HETATM   29  C21 UNL     1      38.717  25.283  20.326  1.00  0.00     0.011 C 
HETATM   30  C22 UNL     1      38.598  26.709  20.862  1.00  0.00     0.009 C 
ENDBRANCH  19  21
ENDBRANCH   4  17
BRANCH   1  31
HETATM   31  N1  UNL     1      33.289  29.619  25.494  1.00  0.00    -0.357 N 
HETATM   32  C2  UNL     1      33.368  30.474  26.601  1.00  0.00     0.213 C 
HETATM   33  C1  UNL     1      32.239  30.659  27.541  1.00  0.00     0.117 C 
HETATM   34  O1  UNL     1      34.422  31.115  26.820  1.00  0.00    -0.274 OA
ATOM     35  H1  UNL     1      32.421  29.107  25.334  1.00  0.00     0.162 HD
ENDBRANCH   1  31
TORSDOF 5
ENDMDL
MODEL 3
REMARK VINA RESULT: -8.078932771      3.805      5.056
REMARK  5 active torsions:
REMARK  status: ('A' for Active; 'I' for Inactive)
REMARK       I    between atoms: C2_2  and  N1_4 
REMARK    1  A    between atoms: N1_4  and  C3_6 
REMARK    2  A    between atoms: C6_9  and  O2_10 
REMARK    3  A    between atoms: C6_9  and  C13_21 
REMARK    4  A    between atoms: O2_10  and  C7_11 
REMARK       I    between atoms: C7_11  and  N2_13 
REMARK       I    between atoms: C13_21  and  N3_23 
REMARK    5  A    between atoms: N3_23  and  C14_25 
ROOT
HETATM    1  C3  UNL     1      34.365  29.490  24.486  1.00  0.00     0.087 C 
HETATM    2  C4  UNL     1      34.807  30.718  23.777  1.00  0.00     0.029 C 
HETATM    3  C5  UNL     1      36.253  30.419  23.443  1.00  0.00     0.051 C 
HETATM    4  C6  UNL     1      36.714  29.354  24.363  1.00  0.00     0.154 C 
HETATM    5  C24 UNL     1      35.575  29.069  25.272  1.00  0.00     0.074 C 
ENDROOT
BRANCH   4   6
HETATM    6  O2  UNL     1      37.913  29.675  25.042  1.00  0.00    -0.282 OA
BRANCH   6   7
HETATM    7  C7  UNL     1      38.628  30.837  24.835  1.00  0.00     0.367 C 
HETATM    8  O3  UNL     1      38.118  31.910  25.235  1.00  0.00    -0.238 OA
HETATM    9  N2  UNL     1      39.885  30.767  24.190  1.00  0.00    -0.279 N 
HETATM   10  C8  UNL     1      40.474  29.526  23.724  1.00  0.00     0.133 C 
HETATM   11  C12 UNL     1      40.709  31.958  23.932  1.00  0.00     0.260 C 
HETATM   12  C9  UNL     1      40.651  29.662  22.226  1.00  0.00     0.020 C 
HETATM   13  C10 UNL     1      41.318  30.932  21.814  1.00  0.00     0.008 C 
HETATM   14  C11 UNL     1      40.661  32.159  22.431  1.00  0.00     0.085 C 
HETATM   15  F1  UNL     1      42.045  31.644  24.223  1.00  0.00    -0.201 F 
HETATM   16 CL1  UNL     1      40.179  33.352  24.853  1.00  0.00    -0.059 Cl
ENDBRANCH   6   7
ENDBRANCH   4   6
BRANCH   4  17
HETATM   17  C13 UNL     1      36.976  28.094  23.589  1.00  0.00     0.253 C 
HETATM   18  O4  UNL     1      37.139  26.991  24.168  1.00  0.00    -0.270 OA
HETATM   19  N3  UNL     1      37.047  28.124  22.178  1.00  0.00    -0.353 N 
ATOM     20  H3  UNL     1      36.920  29.006  21.682  1.00  0.00     0.163 HD
BRANCH  19  21
HETATM   21  C14 UNL     1      37.297  26.923  21.439  1.00  0.00     0.092 C 
HETATM   22  C15 UNL     1      36.283  26.791  20.308  1.00  0.00     0.009 C 
HETATM   23  C16 UNL     1      36.576  27.787  19.220  1.00  0.00     0.011 C 
HETATM   24  C20 UNL     1      36.423  25.359  19.794  1.00  0.00     0.011 C 
HETATM   25  C17 UNL     1      37.936  27.518  18.647  1.00  0.00    -0.013 C 
HETATM   26  C18 UNL     1      38.068  26.099  18.152  1.00  0.00     0.009 C 
HETATM   27  C23 UNL     1      38.962  27.736  19.754  1.00  0.00     0.011 C 
HETATM   28  C19 UNL     1      37.825  25.152  19.303  1.00  0.00    -0.013 C 
HETATM   29  C21 UNL     1      38.857  25.382  20.376  1.00  0.00     0.011 C 
HETATM   30  C22 UNL     1      38.689  26.804  20.907  1.00  0.00     0.009 C 
ENDBRANCH  19  21
ENDBRANCH   4  17
BRANCH   1  31
HETATM   31  N1  UNL     1      33.204  29.691  25.328  1.00  0.00    -0.357 N 
HETATM   32  C2  UNL     1      33.238  30.457  26.500  1.00  0.00     0.213 C 
HETATM   33  C1  UNL     1      32.044  30.656  27.352  1.00  0.00     0.117 C 
HETATM   34  O1  UNL     1      34.309  31.002  26.858  1.00  0.00    -0.274 OA
ATOM     35  H1  UNL     1      32.322  29.257  25.054  1.00  0.00     0.162 HD
ENDBRANCH   1  31
TORSDOF 5
ENDMDL
MODEL 4
REMARK VINA RESULT: -7.874625538      3.463      5.654
REMARK  5 active torsions:
REMARK  status: ('A' for Active; 'I' for Inactive)
REMARK       I    between atoms: C2_2  and  N1_4 
REMARK    1  A    between atoms: N1_4  and  C3_6 
REMARK    2  A    between atoms: C6_9  and  O2_10 
REMARK    3  A    between atoms: C6_9  and  C13_21 
REMARK    4  A    between atoms: O2_10  and  C7_11 
REMARK       I    between atoms: C7_11  and  N2_13 
REMARK       I    between atoms: C13_21  and  N3_23 
REMARK    5  A    between atoms: N3_23  and  C14_25 
ROOT
HETATM    1  C3  UNL     1      34.047  31.012  22.762  1.00  0.00     0.087 C 
HETATM    2  C4  UNL     1      33.161  30.232  23.664  1.00  0.00     0.029 C 
HETATM    3  C5  UNL     1      34.133  29.366  24.435  1.00  0.00     0.051 C 
HETATM    4  C6  UNL     1      35.383  29.284  23.645  1.00  0.00     0.154 C 
HETATM    5  C24 UNL     1      35.132  30.041  22.392  1.00  0.00     0.074 C 
ENDROOT
BRANCH   4   6
HETATM    6  O2  UNL     1      35.826  27.958  23.426  1.00  0.00    -0.282 OA
BRANCH   6   7
HETATM    7  C7  UNL     1      37.019  27.635  22.813  1.00  0.00     0.367 C 
HETATM    8  O3  UNL     1      38.072  27.806  23.470  1.00  0.00    -0.238 OA
HETATM    9  N2  UNL     1      37.001  27.135  21.490  1.00  0.00    -0.279 N 
HETATM   10  C8  UNL     1      35.783  26.940  20.728  1.00  0.00     0.133 C 
HETATM   11  C12 UNL     1      38.229  26.767  20.767  1.00  0.00     0.260 C 
HETATM   12  C9  UNL     1      35.890  27.822  19.501  1.00  0.00     0.020 C 
HETATM   13  C10 UNL     1      37.183  27.679  18.771  1.00  0.00     0.008 C 
HETATM   14  C11 UNL     1      38.388  27.822  19.690  1.00  0.00     0.085 C 
HETATM   15  F1  UNL     1      37.996  25.567  20.080  1.00  0.00    -0.201 F 
HETATM   16 CL1  UNL     1      39.615  26.623  21.830  1.00  0.00    -0.059 Cl
ENDBRANCH   6   7
ENDBRANCH   4   6
BRANCH   4  17
HETATM   17  C13 UNL     1      36.488  29.998  24.369  1.00  0.00     0.253 C 
HETATM   18  O4  UNL     1      36.582  29.960  25.622  1.00  0.00    -0.270 OA
HETATM   19  N3  UNL     1      37.454  30.737  23.650  1.00  0.00    -0.353 N 
ATOM     20  H3  UNL     1      37.401  30.785  22.632  1.00  0.00     0.163 HD
BRANCH  19  21
HETATM   21  C14 UNL     1      38.508  31.418  24.340  1.00  0.00     0.092 C 
HETATM   22  C15 UNL     1      39.753  30.538  24.380  1.00  0.00     0.009 C 
HETATM   23  C16 UNL     1      40.389  30.465  23.019  1.00  0.00     0.011 C 
HETATM   24  C20 UNL     1      40.691  31.198  25.390  1.00  0.00     0.011 C 
HETATM   25  C17 UNL     1      40.814  31.837  22.589  1.00  0.00    -0.013 C 
HETATM   26  C18 UNL     1      41.731  32.484  23.597  1.00  0.00     0.009 C 
HETATM   27  C23 UNL     1      39.561  32.697  22.462  1.00  0.00     0.011 C 
HETATM   28  C19 UNL     1      41.012  32.585  24.922  1.00  0.00    -0.013 C 
HETATM   29  C21 UNL     1      39.786  33.447  24.770  1.00  0.00     0.011 C 
HETATM   30  C22 UNL     1      38.839  32.765  23.784  1.00  0.00     0.009 C 
ENDBRANCH  19  21
ENDBRANCH   4  17
BRANCH   1  31
HETATM   31  N1  UNL     1      33.368  31.547  21.600  1.00  0.00    -0.357 N 
HETATM   32  C2  UNL     1      33.633  32.822  21.085  1.00  0.00     0.213 C 
HETATM   33  C1  UNL     1      32.931  33.358  19.895  1.00  0.00     0.117 C 
HETATM   34  O1  UNL     1      34.492  33.551  21.634  1.00  0.00    -0.274 OA
ATOM     35  H1  UNL     1      32.665  30.970  21.138  1.00  0.00     0.162 HD
ENDBRANCH   1  31
TORSDOF 5
ENDMDL
MODEL 5
REMARK VINA RESULT: -7.870904802      5.313      8.682
REMARK  5 active torsions:
REMARK  status: ('A' for Active; 'I' for Inactive)
REMARK       I    between atoms: C2_2  and  N1_4 
REMARK    1  A    between atoms: N1_4  and  C3_6 
REMARK    2  A    between atoms: C6_9  and  O2_10 
REMARK    3  A    between atoms: C6_9  and  C13_21 
REMARK    4  A    between atoms: O2_10  and  C7_11 
REMARK       I    between atoms: C7_11  and  N2_13 
REMARK       I    between atoms: C13_21  and  N3_23 
REMARK    5  A    between atoms: N3_23  and  C14_25 
ROOT
HETATM    1  C3  UNL     1      39.302  27.450  28.296  1.00  0.00     0.087 C 
HETATM    2  C4  UNL     1      39.872  26.649  27.183  1.00  0.00     0.029 C 
HETATM    3  C5  UNL     1      38.702  26.502  26.233  1.00  0.00     0.051 C 
HETATM    4  C6  UNL     1      37.463  26.733  27.010  1.00  0.00     0.154 C 
HETATM    5  C24 UNL     1      37.889  26.952  28.415  1.00  0.00     0.074 C 
ENDROOT
BRANCH   4   6
HETATM    6  O2  UNL     1      36.505  25.703  26.863  1.00  0.00    -0.282 OA
BRANCH   6   7
HETATM    7  C7  UNL     1      35.836  25.115  27.918  1.00  0.00     0.367 C 
HETATM    8  O3  UNL     1      34.753  25.632  28.277  1.00  0.00    -0.238 OA
HETATM    9  N2  UNL     1      36.397  23.975  28.540  1.00  0.00    -0.279 N 
HETATM   10  C8  UNL     1      37.653  23.378  28.128  1.00  0.00     0.133 C 
HETATM   11  C12 UNL     1      35.747  23.291  29.669  1.00  0.00     0.260 C 
HETATM   12  C9  UNL     1      38.583  23.451  29.322  1.00  0.00     0.020 C 
HETATM   13  C10 UNL     1      37.973  22.952  30.588  1.00  0.00     0.008 C 
HETATM   14  C11 UNL     1      36.620  23.591  30.872  1.00  0.00     0.085 C 
HETATM   15  F1  UNL     1      35.853  21.906  29.469  1.00  0.00    -0.201 F 
HETATM   16 CL1  UNL     1      34.073  23.769  29.869  1.00  0.00    -0.059 Cl
ENDBRANCH   6   7
ENDBRANCH   4   6
BRANCH   4  17
HETATM   17  C13 UNL     1      36.808  28.005  26.552  1.00  0.00     0.253 C 
HETATM   18  O4  UNL     1      35.722  28.398  27.048  1.00  0.00    -0.270 OA
HETATM   19  N3  UNL     1      37.404  28.793  25.541  1.00  0.00    -0.353 N 
ATOM     20  H3  UNL     1      38.285  28.496  25.121  1.00  0.00     0.163 HD
BRANCH  19  21
HETATM   21  C14 UNL     1      36.780  30.005  25.104  1.00  0.00     0.092 C 
HETATM   22  C15 UNL     1      37.341  31.187  25.889  1.00  0.00     0.009 C 
HETATM   23  C16 UNL     1      38.747  31.489  25.450  1.00  0.00     0.011 C 
HETATM   24  C20 UNL     1      36.407  32.359  25.589  1.00  0.00     0.011 C 
HETATM   25  C17 UNL     1      38.750  31.863  23.998  1.00  0.00    -0.013 C 
HETATM   26  C18 UNL     1      37.819  33.014  23.710  1.00  0.00     0.009 C 
HETATM   27  C23 UNL     1      38.274  30.652  23.201  1.00  0.00     0.011 C 
HETATM   28  C19 UNL     1      36.416  32.624  24.114  1.00  0.00    -0.013 C 
HETATM   29  C21 UNL     1      35.968  31.434  23.306  1.00  0.00     0.011 C 
HETATM   30  C22 UNL     1      36.885  30.258  23.635  1.00  0.00     0.009 C 
ENDBRANCH  19  21
ENDBRANCH   4  17
BRANCH   1  31
HETATM   31  N1  UNL     1      40.037  27.324  29.538  1.00  0.00    -0.357 N 
HETATM   32  C2  UNL     1      41.167  28.096  29.834  1.00  0.00     0.213 C 
HETATM   33  C1  UNL     1      41.910  27.958  31.108  1.00  0.00     0.117 C 
HETATM   34  O1  UNL     1      41.581  28.941  29.005  1.00  0.00    -0.274 OA
ATOM     35  H1  UNL     1      39.717  26.643  30.227  1.00  0.00     0.162 HD
ENDBRANCH   1  31
TORSDOF 5
ENDMDL
