MODEL 1
REMARK VINA RESULT: -9.126978417      0.000      0.000
REMARK  5 active torsions:
REMARK  status: ('A' for Active; 'I' for Inactive)
REMARK    1  A    between atoms: N1_9  and  C8_10 
REMARK    2  A    between atoms: C11_13  and  N2_14 
REMARK    3  A    between atoms: N2_14  and  S1_16 
REMARK    4  A    between atoms: S1_16  and  C12_19 
REMARK    5  A    between atoms: C20_28  and  O3_29 
ROOT
HETATM    1  C8  UNL     1      35.644  29.044  24.198  1.00  0.00     0.033 A 
HETATM    2  C9  UNL     1      36.240  28.800  22.979  1.00  0.00     0.031 A 
HETATM    3  C10 UNL     1      35.495  28.754  21.794  1.00  0.00     0.032 A 
HETATM    4  C11 UNL     1      34.135  28.951  21.781  1.00  0.00     0.042 A 
HETATM    5  C18 UNL     1      33.522  29.199  23.003  1.00  0.00     0.032 A 
HETATM    6  C19 UNL     1      34.263  29.241  24.164  1.00  0.00     0.031 A 
ENDROOT
BRANCH   1   7
HETATM    7  N1  UNL     1      36.366  29.079  25.401  1.00  0.00    -0.345 N 
HETATM    8  C6  UNL     1      37.259  30.169  25.766  1.00  0.00     0.125 C 
HETATM    9  C5  UNL     1      37.190  30.512  27.202  1.00  0.00    -0.004 C 
HETATM   10  C7  UNL     1      38.663  29.532  25.719  1.00  0.00     0.092 C 
HETATM   11  C4  UNL     1      37.939  29.688  27.920  1.00  0.00    -0.022 C 
HETATM   12  C3  UNL     1      38.587  28.700  26.992  1.00  0.00     0.032 C 
HETATM   13  C2  UNL     1      37.670  27.543  26.681  1.00  0.00     0.039 C 
HETATM   14  C1  UNL     1      37.646  26.521  27.793  1.00  0.00     0.015 C 
HETATM   15  C20 UNL     1      36.262  28.026  26.386  1.00  0.00     0.225 C 
HETATM   16 BR1  UNL     1      40.007  30.892  25.822  1.00  0.00    -0.088 Br
BRANCH  15  17
HETATM   17  O3  UNL     1      35.718  28.489  27.595  1.00  0.00    -0.376 OA
ATOM     18  H3  UNL     1      34.787  28.303  27.575  1.00  0.00     0.212 HD
ENDBRANCH  15  17
ENDBRANCH   1   7
BRANCH   4  19
HETATM   19  N2  UNL     1      33.424  28.882  20.570  1.00  0.00    -0.281 N 
ATOM     20  H2  UNL     1      33.563  28.078  19.958  1.00  0.00     0.179 HD
BRANCH  19  21
HETATM   21  S1  UNL     1      32.341  30.098  20.101  1.00  0.00     0.264 S 
HETATM   22  O1  UNL     1      31.066  29.911  20.898  1.00  0.00    -0.200 OA
HETATM   23  O2  UNL     1      31.981  29.936  18.628  1.00  0.00    -0.200 OA
BRANCH  21  24
HETATM   24  C12 UNL     1      32.892  31.720  20.352  1.00  0.00     0.101 A 
HETATM   25  C13 UNL     1      33.827  31.945  21.341  1.00  0.00     0.027 A 
HETATM   26  C14 UNL     1      34.351  33.197  21.622  1.00  0.00     0.002 A 
HETATM   27  C15 UNL     1      33.950  34.295  20.908  1.00  0.00     0.002 A 
HETATM   28  C16 UNL     1      33.018  34.086  19.919  1.00  0.00     0.025 A 
HETATM   29  C17 UNL     1      32.491  32.821  19.637  1.00  0.00     0.057 A 
HETATM   30 CL1  UNL     1      31.311  32.632  18.393  1.00  0.00    -0.083 Cl
ENDBRANCH  21  24
ENDBRANCH  19  21
ENDBRANCH   4  19
TORSDOF 5
ENDMDL
MODEL 2
REMARK VINA RESULT: -9.029177835      0.848      1.251
REMARK  5 active torsions:
REMARK  status: ('A' for Active; 'I' for Inactive)
REMARK    1  A    between atoms: N1_9  and  C8_10 
REMARK    2  A    between atoms: C11_13  and  N2_14 
REMARK    3  A    between atoms: N2_14  and  S1_16 
REMARK    4  A    between atoms: S1_16  and  C12_19 
REMARK    5  A    between atoms: C20_28  and  O3_29 
ROOT
HETATM    1  C8  UNL     1      35.404  29.418  24.677  1.00  0.00     0.033 A 
HETATM    2  C9  UNL     1      34.142  29.866  25.003  1.00  0.00     0.031 A 
HETATM    3  C10 UNL     1      33.100  29.871  24.066  1.00  0.00     0.032 A 
HETATM    4  C11 UNL     1      33.279  29.431  22.777  1.00  0.00     0.042 A 
HETATM    5  C18 UNL     1      34.547  28.976  22.435  1.00  0.00     0.032 A 
HETATM    6  C19 UNL     1      35.565  28.976  23.363  1.00  0.00     0.031 A 
ENDROOT
BRANCH   1   7
HETATM    7  N1  UNL     1      36.467  29.418  25.593  1.00  0.00    -0.345 N 
HETATM    8  C6  UNL     1      37.292  30.586  25.862  1.00  0.00     0.125 C 
HETATM    9  C5  UNL     1      37.652  30.720  27.288  1.00  0.00    -0.004 C 
HETATM   10  C7  UNL     1      38.671  30.211  25.281  1.00  0.00     0.092 C 
HETATM   11  C4  UNL     1      38.687  29.949  27.588  1.00  0.00    -0.022 C 
HETATM   12  C3  UNL     1      39.113  29.217  26.346  1.00  0.00     0.032 C 
HETATM   13  C2  UNL     1      38.292  27.972  26.123  1.00  0.00     0.039 C 
HETATM   14  C1  UNL     1      38.753  26.824  26.989  1.00  0.00     0.015 C 
HETATM   15  C20 UNL     1      36.817  28.242  26.358  1.00  0.00     0.225 C 
HETATM   16 BR1  UNL     1      39.801  31.755  25.215  1.00  0.00    -0.088 Br
BRANCH  15  17
HETATM   17  O3  UNL     1      36.643  28.441  27.737  1.00  0.00    -0.376 OA
ATOM     18  H3  UNL     1      35.778  28.812  27.862  1.00  0.00     0.212 HD
ENDBRANCH  15  17
ENDBRANCH   1   7
BRANCH   4  19
HETATM   19  N2  UNL     1      32.209  29.466  21.864  1.00  0.00    -0.281 N 
ATOM     20  H2  UNL     1      31.350  28.966  22.087  1.00  0.00     0.179 HD
BRANCH  19  21
HETATM   21  S1  UNL     1      32.312  30.320  20.403  1.00  0.00     0.264 S 
HETATM   22  O1  UNL     1      30.912  30.420  19.831  1.00  0.00    -0.200 OA
HETATM   23  O2  UNL     1      33.155  29.538  19.401  1.00  0.00    -0.200 OA
BRANCH  21  24
HETATM   24  C12 UNL     1      32.954  31.923  20.522  1.00  0.00     0.101 A 
HETATM   25  C13 UNL     1      33.890  32.179  21.503  1.00  0.00     0.027 A 
HETATM   26  C14 UNL     1      34.483  33.418  21.684  1.00  0.00     0.002 A 
HETATM   27  C15 UNL     1      34.154  34.471  20.872  1.00  0.00     0.002 A 
HETATM   28  C16 UNL     1      33.222  34.231  19.890  1.00  0.00     0.025 A 
HETATM   29  C17 UNL     1      32.625  32.978  19.710  1.00  0.00     0.057 A 
HETATM   30 CL1  UNL     1      31.448  32.750  18.468  1.00  0.00    -0.083 Cl
ENDBRANCH  21  24
ENDBRANCH  19  21
ENDBRANCH   4  19
TORSDOF 5
ENDMDL
MODEL 3
REMARK VINA RESULT: -8.870516681      1.622      2.194
REMARK  5 active torsions:
REMARK  status: ('A' for Active; 'I' for Inactive)
REMARK    1  A    between atoms: N1_9  and  C8_10 
REMARK    2  A    between atoms: C11_13  and  N2_14 
REMARK    3  A    between atoms: N2_14  and  S1_16 
REMARK    4  A    between atoms: S1_16  and  C12_19 
REMARK    5  A    between atoms: C20_28  and  O3_29 
ROOT
HETATM    1  C8  UNL     1      35.731  28.670  23.727  1.00  0.00     0.033 A 
HETATM    2  C9  UNL     1      36.221  28.406  22.466  1.00  0.00     0.031 A 
HETATM    3  C10 UNL     1      35.420  28.538  21.325  1.00  0.00     0.032 A 
HETATM    4  C11 UNL     1      34.108  28.938  21.399  1.00  0.00     0.042 A 
HETATM    5  C18 UNL     1      33.602  29.208  22.665  1.00  0.00     0.032 A 
HETATM    6  C19 UNL     1      34.397  29.075  23.782  1.00  0.00     0.031 A 
ENDROOT
BRANCH   1   7
HETATM    7  N1  UNL     1      36.509  28.530  24.887  1.00  0.00    -0.345 N 
HETATM    8  C6  UNL     1      36.812  27.244  25.497  1.00  0.00     0.125 C 
HETATM    9  C5  UNL     1      38.192  27.166  26.019  1.00  0.00    -0.004 C 
HETATM   10  C7  UNL     1      36.033  27.270  26.828  1.00  0.00     0.092 C 
HETATM   11  C4  UNL     1      38.276  27.727  27.216  1.00  0.00    -0.022 C 
HETATM   12  C3  UNL     1      36.917  28.240  27.599  1.00  0.00     0.032 C 
HETATM   13  C2  UNL     1      36.650  29.605  27.014  1.00  0.00     0.039 C 
HETATM   14  C1  UNL     1      37.317  30.703  27.807  1.00  0.00     0.015 C 
HETATM   15  C20 UNL     1      37.086  29.671  25.562  1.00  0.00     0.225 C 
HETATM   16 BR1  UNL     1      36.013  25.524  27.614  1.00  0.00    -0.088 Br
BRANCH  15  17
HETATM   17  O3  UNL     1      38.490  29.635  25.547  1.00  0.00    -0.376 OA
ATOM     18  H3  UNL     1      38.769  29.872  24.670  1.00  0.00     0.212 HD
ENDBRANCH  15  17
ENDBRANCH   1   7
BRANCH   4  19
HETATM   19  N2  UNL     1      33.335  29.044  20.229  1.00  0.00    -0.281 N 
ATOM     20  H2  UNL     1      33.420  28.325  19.511  1.00  0.00     0.179 HD
BRANCH  19  21
HETATM   21  S1  UNL     1      32.265  30.335  19.980  1.00  0.00     0.264 S 
HETATM   22  O1  UNL     1      31.062  30.113  20.874  1.00  0.00    -0.200 OA
HETATM   23  O2  UNL     1      31.766  30.328  18.539  1.00  0.00    -0.200 OA
BRANCH  21  24
HETATM   24  C12 UNL     1      32.903  31.906  20.328  1.00  0.00     0.101 A 
HETATM   25  C13 UNL     1      33.838  32.021  21.336  1.00  0.00     0.027 A 
HETATM   26  C14 UNL     1      34.429  33.223  21.693  1.00  0.00     0.002 A 
HETATM   27  C15 UNL     1      34.098  34.381  21.040  1.00  0.00     0.002 A 
HETATM   28  C16 UNL     1      33.166  34.282  20.033  1.00  0.00     0.025 A 
HETATM   29  C17 UNL     1      32.573  33.066  19.674  1.00  0.00     0.057 A 
HETATM   30 CL1  UNL     1      31.397  33.015  18.412  1.00  0.00    -0.083 Cl
ENDBRANCH  21  24
ENDBRANCH  19  21
ENDBRANCH   4  19
TORSDOF 5
ENDMDL
MODEL 4
REMARK VINA RESULT: -8.724002502      4.607      6.496
REMARK  5 active torsions:
REMARK  status: ('A' for Active; 'I' for Inactive)
REMARK    1  A    between atoms: N1_9  and  C8_10 
REMARK    2  A    between atoms: C11_13  and  N2_14 
REMARK    3  A    between atoms: N2_14  and  S1_16 
REMARK    4  A    between atoms: S1_16  and  C12_19 
REMARK    5  A    between atoms: C20_28  and  O3_29 
ROOT
HETATM    1  C8  UNL     1      39.113  32.327  24.617  1.00  0.00     0.033 A 
HETATM    2  C9  UNL     1      39.004  31.439  25.665  1.00  0.00     0.031 A 
HETATM    3  C10 UNL     1      37.772  31.167  26.273  1.00  0.00     0.032 A 
HETATM    4  C11 UNL     1      36.607  31.766  25.857  1.00  0.00     0.042 A 
HETATM    5  C18 UNL     1      36.703  32.664  24.799  1.00  0.00     0.032 A 
HETATM    6  C19 UNL     1      37.920  32.925  24.209  1.00  0.00     0.031 A 
ENDROOT
BRANCH   1   7
HETATM    7  N1  UNL     1      40.338  32.628  24.002  1.00  0.00    -0.345 N 
HETATM    8  C6  UNL     1      41.305  33.560  24.561  1.00  0.00     0.125 C 
HETATM    9  C5  UNL     1      42.703  33.115  24.380  1.00  0.00    -0.004 C 
HETATM   10  C7  UNL     1      41.284  34.751  23.582  1.00  0.00     0.092 C 
HETATM   11  C4  UNL     1      43.143  33.422  23.169  1.00  0.00    -0.022 C 
HETATM   12  C3  UNL     1      42.039  34.116  22.422  1.00  0.00     0.032 C 
HETATM   13  C2  UNL     1      41.086  33.132  21.791  1.00  0.00     0.039 C 
HETATM   14  C1  UNL     1      41.630  32.558  20.505  1.00  0.00     0.015 C 
HETATM   15  C20 UNL     1      40.740  32.013  22.757  1.00  0.00     0.225 C 
HETATM   16 BR1  UNL     1      42.227  36.239  24.333  1.00  0.00    -0.088 Br
BRANCH  15  17
HETATM   17  O3  UNL     1      41.891  31.222  22.908  1.00  0.00    -0.376 OA
ATOM     18  H3  UNL     1      42.342  31.527  23.687  1.00  0.00     0.212 HD
ENDBRANCH  15  17
ENDBRANCH   1   7
BRANCH   4  19
HETATM   19  N2  UNL     1      35.393  31.475  26.504  1.00  0.00    -0.281 N 
ATOM     20  H2  UNL     1      35.049  32.112  27.223  1.00  0.00     0.179 HD
BRANCH  19  21
HETATM   21  S1  UNL     1      34.487  30.096  26.121  1.00  0.00     0.264 S 
HETATM   22  O1  UNL     1      33.094  30.289  26.687  1.00  0.00    -0.200 OA
HETATM   23  O2  UNL     1      35.086  28.872  26.806  1.00  0.00    -0.200 OA
BRANCH  21  24
HETATM   24  C12 UNL     1      34.331  29.754  24.431  1.00  0.00     0.101 A 
HETATM   25  C13 UNL     1      33.191  30.180  23.782  1.00  0.00     0.027 A 
HETATM   26  C14 UNL     1      32.963  29.977  22.430  1.00  0.00     0.002 A 
HETATM   27  C15 UNL     1      33.890  29.325  21.660  1.00  0.00     0.002 A 
HETATM   28  C16 UNL     1      35.032  28.894  22.294  1.00  0.00     0.025 A 
HETATM   29  C17 UNL     1      35.259  29.101  23.659  1.00  0.00     0.057 A 
HETATM   30 CL1  UNL     1      36.707  28.519  24.394  1.00  0.00    -0.083 Cl
ENDBRANCH  21  24
ENDBRANCH  19  21
ENDBRANCH   4  19
TORSDOF 5
ENDMDL
MODEL 5
REMARK VINA RESULT: -8.659240262      2.274      3.088
REMARK  5 active torsions:
REMARK  status: ('A' for Active; 'I' for Inactive)
REMARK    1  A    between atoms: N1_9  and  C8_10 
REMARK    2  A    between atoms: C11_13  and  N2_14 
REMARK    3  A    between atoms: N2_14  and  S1_16 
REMARK    4  A    between atoms: S1_16  and  C12_19 
REMARK    5  A    between atoms: C20_28  and  O3_29 
ROOT
HETATM    1  C8  UNL     1      36.557  29.581  25.388  1.00  0.00     0.033 A 
HETATM    2  C9  UNL     1      35.417  28.813  25.287  1.00  0.00     0.031 A 
HETATM    3  C10 UNL     1      34.346  29.192  24.468  1.00  0.00     0.032 A 
HETATM    4  C11 UNL     1      34.373  30.346  23.722  1.00  0.00     0.042 A 
HETATM    5  C18 UNL     1      35.517  31.130  23.815  1.00  0.00     0.032 A 
HETATM    6  C19 UNL     1      36.565  30.749  24.623  1.00  0.00     0.031 A 
ENDROOT
BRANCH   1   7
HETATM    7  N1  UNL     1      37.636  29.231  26.213  1.00  0.00    -0.345 N 
HETATM    8  C6  UNL     1      38.238  27.906  26.223  1.00  0.00     0.125 C 
HETATM    9  C5  UNL     1      39.709  27.944  26.362  1.00  0.00    -0.004 C 
HETATM   10  C7  UNL     1      37.862  27.336  27.606  1.00  0.00     0.092 C 
HETATM   11  C4  UNL     1      40.059  28.087  27.632  1.00  0.00    -0.022 C 
HETATM   12  C3  UNL     1      38.811  28.158  28.466  1.00  0.00     0.032 C 
HETATM   13  C2  UNL     1      38.241  29.555  28.500  1.00  0.00     0.039 C 
HETATM   14  C1  UNL     1      38.975  30.445  29.474  1.00  0.00     0.015 C 
HETATM   15  C20 UNL     1      38.247  30.180  27.117  1.00  0.00     0.225 C 
HETATM   16 BR1  UNL     1      38.257  25.463  27.677  1.00  0.00    -0.088 Br
BRANCH  15  17
HETATM   17  O3  UNL     1      39.587  30.438  26.781  1.00  0.00    -0.376 OA
ATOM     18  H3  UNL     1      39.623  30.559  25.840  1.00  0.00     0.212 HD
ENDBRANCH  15  17
ENDBRANCH   1   7
BRANCH   4  19
HETATM   19  N2  UNL     1      33.270  30.697  22.924  1.00  0.00    -0.281 N 
ATOM     20  H2  UNL     1      32.570  31.338  23.298  1.00  0.00     0.179 HD
BRANCH  19  21
HETATM   21  S1  UNL     1      33.071  30.082  21.357  1.00  0.00     0.264 S 
HETATM   22  O1  UNL     1      32.108  28.915  21.440  1.00  0.00    -0.200 OA
HETATM   23  O2  UNL     1      34.397  29.537  20.839  1.00  0.00    -0.200 OA
BRANCH  21  24
HETATM   24  C12 UNL     1      32.449  31.203  20.193  1.00  0.00     0.101 A 
HETATM   25  C13 UNL     1      31.501  30.753  19.297  1.00  0.00     0.027 A 
HETATM   26  C14 UNL     1      30.922  31.561  18.332  1.00  0.00     0.002 A 
HETATM   27  C15 UNL     1      31.278  32.880  18.225  1.00  0.00     0.002 A 
HETATM   28  C16 UNL     1      32.222  33.342  19.111  1.00  0.00     0.025 A 
HETATM   29  C17 UNL     1      32.805  32.523  20.085  1.00  0.00     0.057 A 
HETATM   30 CL1  UNL     1      33.997  33.164  21.155  1.00  0.00    -0.083 Cl
ENDBRANCH  21  24
ENDBRANCH  19  21
ENDBRANCH   4  19
TORSDOF 5
ENDMDL
