MODEL 1
REMARK VINA RESULT: -8.157038005      0.000      0.000
REMARK  6 active torsions:
REMARK  status: ('A' for Active; 'I' for Inactive)
REMARK    1  A    between atoms: C1_2  and  C2_3 
REMARK       I    between atoms: C1_2  and  N2_16 
REMARK    2  A    between atoms: C2_3  and  N1_4 
REMARK    3  A    between atoms: N1_4  and  S1_6 
REMARK    4  A    between atoms: S1_6  and  C3_9 
REMARK    5  A    between atoms: N2_16  and  C9_18 
REMARK    6  A    between atoms: N3_23  and  O4_24 
ROOT
HETATM    1  O1  UNL     1      33.313  29.014  24.262  1.00  0.00    -0.271 OA
HETATM    2  C1  UNL     1      34.503  29.120  23.886  1.00  0.00     0.240 C 
HETATM    3  N2  UNL     1      34.796  29.597  22.599  1.00  0.00    -0.324 N 
ATOM      4  H2  UNL     1      35.788  29.653  22.368  1.00  0.00     0.169 HD
ENDROOT
BRANCH   2   5
HETATM    5  C2  UNL     1      35.602  28.734  24.820  1.00  0.00     0.235 C 
BRANCH   5   6
HETATM    6  N1  UNL     1      35.239  28.900  26.211  1.00  0.00    -0.307 N 
ATOM      7  H1  UNL     1      34.593  28.292  26.714  1.00  0.00     0.172 HD
BRANCH   6   8
HETATM    8  S1  UNL     1      36.042  30.261  26.911  1.00  0.00     0.259 S 
HETATM    9  O2  UNL     1      34.957  31.272  27.245  1.00  0.00    -0.201 OA
HETATM   10  O3  UNL     1      36.819  29.875  28.119  1.00  0.00    -0.201 OA
BRANCH   8  11
HETATM   11  C3  UNL     1      37.133  31.024  25.780  1.00  0.00     0.079 A 
HETATM   12  C4  UNL     1      38.446  30.599  25.767  1.00  0.00     0.026 A 
HETATM   13  C5  UNL     1      39.369  31.159  24.896  1.00  0.00     0.020 A 
HETATM   14  C6  UNL     1      38.943  32.143  24.050  1.00  0.00     0.011 A 
HETATM   15 BR1  UNL     1      40.228  32.913  22.848  1.00  0.00    -0.051 Br
HETATM   16  C7  UNL     1      37.635  32.586  24.044  1.00  0.00     0.020 A 
HETATM   17  C8  UNL     1      36.726  32.019  24.917  1.00  0.00     0.026 A 
ENDBRANCH   8  11
ENDBRANCH   6   8
ENDBRANCH   5   6
ENDBRANCH   2   5
BRANCH   3  18
HETATM   18  C9  UNL     1      33.921  30.005  21.585  1.00  0.00     0.052 A 
HETATM   19  C10 UNL     1      33.492  31.339  21.618  1.00  0.00     0.034 A 
HETATM   20  C11 UNL     1      32.636  31.810  20.659  1.00  0.00     0.042 A 
HETATM   21  C12 UNL     1      32.164  31.032  19.645  1.00  0.00     0.108 A 
HETATM   22 BR2  UNL     1      30.972  31.740  18.335  1.00  0.00    -0.029 Br
HETATM   23  N3  UNL     1      32.573  29.756  19.613  1.00  0.00    -0.227 N 
HETATM   24  C13 UNL     1      33.428  29.256  20.556  1.00  0.00     0.153 A 
BRANCH  23  25
HETATM   25  O4  UNL     1      32.125  28.923  18.608  1.00  0.00    -0.282 OA
ATOM     26  H4  UNL     1      31.431  28.300  18.789  1.00  0.00     0.245 HD
ENDBRANCH  23  25
ENDBRANCH   3  18
TORSDOF 6
ENDMDL
MODEL 2
REMARK VINA RESULT: -8.039728652      0.192      1.017
REMARK  6 active torsions:
REMARK  status: ('A' for Active; 'I' for Inactive)
REMARK    1  A    between atoms: C1_2  and  C2_3 
REMARK       I    between atoms: C1_2  and  N2_16 
REMARK    2  A    between atoms: C2_3  and  N1_4 
REMARK    3  A    between atoms: N1_4  and  S1_6 
REMARK    4  A    between atoms: S1_6  and  C3_9 
REMARK    5  A    between atoms: N2_16  and  C9_18 
REMARK    6  A    between atoms: N3_23  and  O4_24 
ROOT
HETATM    1  O1  UNL     1      33.441  29.092  24.405  1.00  0.00    -0.271 OA
HETATM    2  C1  UNL     1      34.628  29.134  24.007  1.00  0.00     0.240 C 
HETATM    3  N2  UNL     1      34.921  29.581  22.709  1.00  0.00    -0.324 N 
ATOM      4  H2  UNL     1      35.910  29.585  22.461  1.00  0.00     0.169 HD
ENDROOT
BRANCH   2   5
HETATM    5  C2  UNL     1      35.723  28.703  24.926  1.00  0.00     0.235 C 
BRANCH   5   6
HETATM    6  N1  UNL     1      35.398  28.913  26.321  1.00  0.00    -0.307 N 
ATOM      7  H1  UNL     1      34.778  28.313  26.865  1.00  0.00     0.172 HD
BRANCH   6   8
HETATM    8  S1  UNL     1      36.195  30.314  26.946  1.00  0.00     0.259 S 
HETATM    9  O2  UNL     1      35.115  31.364  27.153  1.00  0.00    -0.201 OA
HETATM   10  O3  UNL     1      36.915  30.013  28.213  1.00  0.00    -0.201 OA
BRANCH   8  11
HETATM   11  C3  UNL     1      37.346  30.970  25.806  1.00  0.00     0.079 A 
HETATM   12  C4  UNL     1      36.916  31.979  24.968  1.00  0.00     0.026 A 
HETATM   13  C5  UNL     1      37.774  32.548  24.038  1.00  0.00     0.020 A 
HETATM   14  C6  UNL     1      39.057  32.082  23.974  1.00  0.00     0.011 A 
HETATM   15 BR1  UNL     1      40.237  32.875  22.683  1.00  0.00    -0.051 Br
HETATM   16  C7  UNL     1      39.510  31.073  24.801  1.00  0.00     0.020 A 
HETATM   17  C8  UNL     1      38.644  30.516  25.724  1.00  0.00     0.026 A 
ENDBRANCH   8  11
ENDBRANCH   6   8
ENDBRANCH   5   6
ENDBRANCH   2   5
BRANCH   3  18
HETATM   18  C9  UNL     1      34.050  30.022  21.706  1.00  0.00     0.052 A 
HETATM   19  C10 UNL     1      33.632  31.358  21.772  1.00  0.00     0.034 A 
HETATM   20  C11 UNL     1      32.780  31.860  20.826  1.00  0.00     0.042 A 
HETATM   21  C12 UNL     1      32.303  31.111  19.792  1.00  0.00     0.108 A 
HETATM   22 BR2  UNL     1      31.117  31.862  18.500  1.00  0.00    -0.029 Br
HETATM   23  N3  UNL     1      32.701  29.834  19.727  1.00  0.00    -0.227 N 
HETATM   24  C13 UNL     1      33.552  29.303  20.658  1.00  0.00     0.153 A 
BRANCH  23  25
HETATM   25  O4  UNL     1      32.247  29.029  18.702  1.00  0.00    -0.282 OA
ATOM     26  H4  UNL     1      32.871  28.541  18.177  1.00  0.00     0.245 HD
ENDBRANCH  23  25
ENDBRANCH   3  18
TORSDOF 6
ENDMDL
MODEL 3
REMARK VINA RESULT: -7.553824816      3.112      3.662
REMARK  6 active torsions:
REMARK  status: ('A' for Active; 'I' for Inactive)
REMARK    1  A    between atoms: C1_2  and  C2_3 
REMARK       I    between atoms: C1_2  and  N2_16 
REMARK    2  A    between atoms: C2_3  and  N1_4 
REMARK    3  A    between atoms: N1_4  and  S1_6 
REMARK    4  A    between atoms: S1_6  and  C3_9 
REMARK    5  A    between atoms: N2_16  and  C9_18 
REMARK    6  A    between atoms: N3_23  and  O4_24 
ROOT
HETATM    1  O1  UNL     1      36.768  28.610  21.084  1.00  0.00    -0.271 OA
HETATM    2  C1  UNL     1      36.275  28.630  22.235  1.00  0.00     0.240 C 
HETATM    3  N2  UNL     1      34.987  29.148  22.441  1.00  0.00    -0.324 N 
ATOM      4  H2  UNL     1      34.657  29.130  23.406  1.00  0.00     0.169 HD
ENDROOT
BRANCH   2   5
HETATM    5  C2  UNL     1      37.071  28.099  23.381  1.00  0.00     0.235 C 
BRANCH   5   6
HETATM    6  N1  UNL     1      38.196  28.945  23.721  1.00  0.00    -0.307 N 
ATOM      7  H1  UNL     1      38.902  29.258  23.056  1.00  0.00     0.172 HD
BRANCH   6   8
HETATM    8  S1  UNL     1      38.187  29.355  25.400  1.00  0.00     0.259 S 
HETATM    9  O2  UNL     1      38.831  28.186  26.129  1.00  0.00    -0.201 OA
HETATM   10  O3  UNL     1      38.916  30.626  25.655  1.00  0.00    -0.201 OA
BRANCH   8  11
HETATM   11  C3  UNL     1      36.562  29.523  26.019  1.00  0.00     0.079 A 
HETATM   12  C4  UNL     1      35.899  30.708  25.771  1.00  0.00     0.026 A 
HETATM   13  C5  UNL     1      34.607  30.913  26.231  1.00  0.00     0.020 A 
HETATM   14  C6  UNL     1      34.007  29.909  26.938  1.00  0.00     0.011 A 
HETATM   15 BR1  UNL     1      32.217  30.201  27.572  1.00  0.00    -0.051 Br
HETATM   16  C7  UNL     1      34.649  28.715  27.200  1.00  0.00     0.020 A 
HETATM   17  C8  UNL     1      35.937  28.524  26.734  1.00  0.00     0.026 A 
ENDBRANCH   8  11
ENDBRANCH   6   8
ENDBRANCH   5   6
ENDBRANCH   2   5
BRANCH   3  18
HETATM   18  C9  UNL     1      34.090  29.687  21.512  1.00  0.00     0.052 A 
HETATM   19  C10 UNL     1      33.716  31.025  21.694  1.00  0.00     0.034 A 
HETATM   20  C11 UNL     1      32.842  31.620  20.824  1.00  0.00     0.042 A 
HETATM   21  C12 UNL     1      32.300  30.964  19.759  1.00  0.00     0.108 A 
HETATM   22 BR2  UNL     1      31.087  31.841  18.578  1.00  0.00    -0.029 Br
HETATM   23  N3  UNL     1      32.657  29.685  19.583  1.00  0.00    -0.227 N 
HETATM   24  C13 UNL     1      33.528  29.062  20.435  1.00  0.00     0.153 A 
BRANCH  23  25
HETATM   25  O4  UNL     1      32.138  28.972  18.522  1.00  0.00    -0.282 OA
ATOM     26  H4  UNL     1      32.272  29.285  17.635  1.00  0.00     0.245 HD
ENDBRANCH  23  25
ENDBRANCH   3  18
TORSDOF 6
ENDMDL
MODEL 4
REMARK VINA RESULT: -7.539639816      1.364      1.543
REMARK  6 active torsions:
REMARK  status: ('A' for Active; 'I' for Inactive)
REMARK    1  A    between atoms: C1_2  and  C2_3 
REMARK       I    between atoms: C1_2  and  N2_16 
REMARK    2  A    between atoms: C2_3  and  N1_4 
REMARK    3  A    between atoms: N1_4  and  S1_6 
REMARK    4  A    between atoms: S1_6  and  C3_9 
REMARK    5  A    between atoms: N2_16  and  C9_18 
REMARK    6  A    between atoms: N3_23  and  O4_24 
ROOT
HETATM    1  O1  UNL     1      35.830  28.616  22.432  1.00  0.00    -0.271 OA
HETATM    2  C1  UNL     1      35.192  28.934  23.462  1.00  0.00     0.240 C 
HETATM    3  N2  UNL     1      34.008  29.681  23.355  1.00  0.00    -0.324 N 
ATOM      4  H2  UNL     1      33.548  29.900  24.239  1.00  0.00     0.169 HD
ENDROOT
BRANCH   2   5
HETATM    5  C2  UNL     1      35.704  28.512  24.799  1.00  0.00     0.235 C 
BRANCH   5   6
HETATM    6  N1  UNL     1      34.944  29.079  25.893  1.00  0.00    -0.307 N 
ATOM      7  H1  UNL     1      33.976  28.841  26.106  1.00  0.00     0.172 HD
BRANCH   6   8
HETATM    8  S1  UNL     1      35.891  30.212  26.793  1.00  0.00     0.259 S 
HETATM    9  O2  UNL     1      34.922  31.263  27.309  1.00  0.00    -0.201 OA
HETATM   10  O3  UNL     1      36.623  29.549  27.906  1.00  0.00    -0.201 OA
BRANCH   8  11
HETATM   11  C3  UNL     1      37.058  31.030  25.783  1.00  0.00     0.079 A 
HETATM   12  C4  UNL     1      38.372  30.613  25.851  1.00  0.00     0.026 A 
HETATM   13  C5  UNL     1      39.353  31.215  25.079  1.00  0.00     0.020 A 
HETATM   14  C6  UNL     1      38.984  32.235  24.247  1.00  0.00     0.011 A 
HETATM   15 BR1  UNL     1      40.350  33.065  23.181  1.00  0.00    -0.051 Br
HETATM   16  C7  UNL     1      37.677  32.671  24.161  1.00  0.00     0.020 A 
HETATM   17  C8  UNL     1      36.709  32.061  24.936  1.00  0.00     0.026 A 
ENDBRANCH   8  11
ENDBRANCH   6   8
ENDBRANCH   5   6
ENDBRANCH   2   5
BRANCH   3  18
HETATM   18  C9  UNL     1      33.368  30.168  22.210  1.00  0.00     0.052 A 
HETATM   19  C10 UNL     1      32.521  29.282  21.532  1.00  0.00     0.034 A 
HETATM   20  C11 UNL     1      31.861  29.688  20.403  1.00  0.00     0.042 A 
HETATM   21  C12 UNL     1      31.985  30.944  19.888  1.00  0.00     0.108 A 
HETATM   22 BR2  UNL     1      31.042  31.458  18.311  1.00  0.00    -0.029 Br
HETATM   23  N3  UNL     1      32.795  31.793  20.535  1.00  0.00    -0.227 N 
HETATM   24  C13 UNL     1      33.468  31.416  21.665  1.00  0.00     0.153 A 
BRANCH  23  25
HETATM   25  O4  UNL     1      32.959  33.076  20.057  1.00  0.00    -0.282 OA
ATOM     26  H4  UNL     1      33.671  33.267  19.457  1.00  0.00     0.245 HD
ENDBRANCH  23  25
ENDBRANCH   3  18
TORSDOF 6
ENDMDL
MODEL 5
REMARK VINA RESULT: -7.345522917      0.917      1.012
REMARK  6 active torsions:
REMARK  status: ('A' for Active; 'I' for Inactive)
REMARK    1  A    between atoms: C1_2  and  C2_3 
REMARK       I    between atoms: C1_2  and  N2_16 
REMARK    2  A    between atoms: C2_3  and  N1_4 
REMARK    3  A    between atoms: N1_4  and  S1_6 
REMARK    4  A    between atoms: S1_6  and  C3_9 
REMARK    5  A    between atoms: N2_16  and  C9_18 
REMARK    6  A    between atoms: N3_23  and  O4_24 
ROOT
HETATM    1  O1  UNL     1      32.857  29.472  24.787  1.00  0.00    -0.271 OA
HETATM    2  C1  UNL     1      34.055  29.281  24.475  1.00  0.00     0.240 C 
HETATM    3  N2  UNL     1      34.496  29.549  23.170  1.00  0.00    -0.324 N 
ATOM      4  H2  UNL     1      35.485  29.367  22.996  1.00  0.00     0.169 HD
ENDROOT
BRANCH   2   5
HETATM    5  C2  UNL     1      35.006  28.768  25.505  1.00  0.00     0.235 C 
BRANCH   5   6
HETATM    6  N1  UNL     1      36.391  29.014  25.161  1.00  0.00    -0.307 N 
ATOM      7  H1  UNL     1      36.931  28.447  24.508  1.00  0.00     0.172 HD
BRANCH   6   8
HETATM    8  S1  UNL     1      37.009  30.393  26.000  1.00  0.00     0.259 S 
HETATM    9  O2  UNL     1      35.822  31.308  26.251  1.00  0.00    -0.201 OA
HETATM   10  O3  UNL     1      37.678  30.004  27.272  1.00  0.00    -0.201 OA
BRANCH   8  11
HETATM   11  C3  UNL     1      38.157  31.283  25.030  1.00  0.00     0.079 A 
HETATM   12  C4  UNL     1      39.482  30.898  25.087  1.00  0.00     0.026 A 
HETATM   13  C5  UNL     1      40.450  31.558  24.344  1.00  0.00     0.020 A 
HETATM   14  C6  UNL     1      40.056  32.601  23.553  1.00  0.00     0.011 A 
HETATM   15 BR1  UNL     1      41.403  33.509  22.528  1.00  0.00    -0.051 Br
HETATM   16  C7  UNL     1      38.737  33.005  23.480  1.00  0.00     0.020 A 
HETATM   17  C8  UNL     1      37.784  32.338  24.225  1.00  0.00     0.026 A 
ENDBRANCH   8  11
ENDBRANCH   6   8
ENDBRANCH   5   6
ENDBRANCH   2   5
BRANCH   3  18
HETATM   18  C9  UNL     1      33.772  30.028  22.072  1.00  0.00     0.052 A 
HETATM   19  C10 UNL     1      33.594  31.416  21.987  1.00  0.00     0.034 A 
HETATM   20  C11 UNL     1      32.896  31.957  20.941  1.00  0.00     0.042 A 
HETATM   21  C12 UNL     1      32.351  31.200  19.948  1.00  0.00     0.108 A 
HETATM   22 BR2  UNL     1      31.389  32.008  18.512  1.00  0.00    -0.029 Br
HETATM   23  N3  UNL     1      32.521  29.874  20.026  1.00  0.00    -0.227 N 
HETATM   24  C13 UNL     1      33.213  29.303  21.059  1.00  0.00     0.153 A 
BRANCH  23  25
HETATM   25  O4  UNL     1      31.990  29.059  19.048  1.00  0.00    -0.282 OA
ATOM     26  H4  UNL     1      31.349  28.398  19.284  1.00  0.00     0.245 HD
ENDBRANCH  23  25
ENDBRANCH   3  18
TORSDOF 6
ENDMDL
