MODEL 1
REMARK VINA RESULT: -7.075642871      0.000      0.000
REMARK  8 active torsions:
REMARK  status: ('A' for Active; 'I' for Inactive)
REMARK    1  A    between atoms: C3_3  and  C4_5 
REMARK    2  A    between atoms: C4_5  and  C5_6 
REMARK    3  A    between atoms: C5_6  and  C6_7 
REMARK    4  A    between atoms: C9_11  and  O2_12 
REMARK    5  A    between atoms: C13_17  and  O3_18 
REMARK    6  A    between atoms: C13_17  and  N1_20 
REMARK    7  A    between atoms: N1_20  and  C14_22 
REMARK    8  A    between atoms: C14_22  and  C17_25 
ROOT
HETATM    1  C1  UNL     1      33.263  33.641  20.485  1.00  0.00     0.021 C 
HETATM    2  C2  UNL     1      33.018  32.462  20.485  1.00  0.00    -0.034 C 
HETATM    3  C3  UNL     1      32.731  31.056  20.508  1.00  0.00     0.238 C 
HETATM    4  O1  UNL     1      31.809  30.672  19.756  1.00  0.00    -0.277 OA
ENDROOT
BRANCH   3   5
HETATM    5  C4  UNL     1      33.495  30.117  21.387  1.00  0.00     0.074 C 
HETATM    6  C13 UNL     1      33.939  28.911  20.782  1.00  0.00     0.152 C 
BRANCH   5   7
HETATM    7  C5  UNL     1      33.601  30.452  22.622  1.00  0.00     0.033 C 
BRANCH   7   8
HETATM    8  C6  UNL     1      34.690  30.619  23.529  1.00  0.00    -0.016 A 
HETATM    9  C7  UNL     1      35.934  31.063  23.136  1.00  0.00     0.034 A 
HETATM   10  C8  UNL     1      37.004  31.155  24.004  1.00  0.00     0.045 A 
HETATM   11 BR1  UNL     1      38.716  31.769  23.444  1.00  0.00    -0.048 Br
HETATM   12  C9  UNL     1      36.829  30.787  25.321  1.00  0.00     0.086 A 
HETATM   13  C11 UNL     1      35.610  30.338  25.763  1.00  0.00     0.058 A 
HETATM   14  C12 UNL     1      34.566  30.259  24.875  1.00  0.00     0.024 A 
HETATM   15 BR2  UNL     1      32.886  29.622  25.462  1.00  0.00    -0.050 Br
BRANCH  12  16
HETATM   16  O2  UNL     1      37.912  30.886  26.175  1.00  0.00    -0.355 OA
HETATM   17  C10 UNL     1      38.232  29.774  26.982  1.00  0.00     0.210 C 
ENDBRANCH  12  16
ENDBRANCH   7   8
ENDBRANCH   5   7
BRANCH   6  18
HETATM   18  O3  UNL     1      33.756  28.845  19.490  1.00  0.00    -0.346 OA
ATOM     19  H3  UNL     1      34.542  28.679  18.984  1.00  0.00     0.219 HD
ENDBRANCH   6  18
BRANCH   6  20
HETATM   20  N1  UNL     1      34.539  27.766  21.342  1.00  0.00    -0.352 N 
ATOM     21  H1  UNL     1      33.942  27.074  21.795  1.00  0.00     0.163 HD
BRANCH  20  22
HETATM   22  C14 UNL     1      35.972  27.531  21.302  1.00  0.00     0.113 C 
HETATM   23  C15 UNL     1      36.467  27.452  22.732  1.00  0.00     0.050 C 
HETATM   24  C16 UNL     1      36.742  28.573  20.562  1.00  0.00     0.050 C 
BRANCH  22  25
HETATM   25  C17 UNL     1      36.253  26.191  20.675  1.00  0.00     0.201 C 
HETATM   26  O4  UNL     1      35.579  25.702  19.746  1.00  0.00    -0.646 OA
HETATM   27  O5  UNL     1      37.335  25.499  21.194  1.00  0.00    -0.646 OA
ENDBRANCH  22  25
ENDBRANCH  20  22
ENDBRANCH   6  20
ENDBRANCH   3   5
TORSDOF 8
ENDMDL
MODEL 2
REMARK VINA RESULT: -7.030000072      1.591      2.324
REMARK  8 active torsions:
REMARK  status: ('A' for Active; 'I' for Inactive)
REMARK    1  A    between atoms: C3_3  and  C4_5 
REMARK    2  A    between atoms: C4_5  and  C5_6 
REMARK    3  A    between atoms: C5_6  and  C6_7 
REMARK    4  A    between atoms: C9_11  and  O2_12 
REMARK    5  A    between atoms: C13_17  and  O3_18 
REMARK    6  A    between atoms: C13_17  and  N1_20 
REMARK    7  A    between atoms: N1_20  and  C14_22 
REMARK    8  A    between atoms: C14_22  and  C17_25 
ROOT
HETATM    1  C1  UNL     1      33.249  33.117  20.565  1.00  0.00     0.021 C 
HETATM    2  C2  UNL     1      33.196  32.114  21.228  1.00  0.00    -0.034 C 
HETATM    3  C3  UNL     1      33.156  30.921  22.024  1.00  0.00     0.238 C 
HETATM    4  O1  UNL     1      32.136  30.767  22.732  1.00  0.00    -0.277 OA
ENDROOT
BRANCH   3   5
HETATM    5  C4  UNL     1      34.274  29.928  22.000  1.00  0.00     0.074 C 
HETATM    6  C13 UNL     1      34.015  28.705  21.324  1.00  0.00     0.152 C 
BRANCH   5   7
HETATM    7  C5  UNL     1      35.327  30.240  22.666  1.00  0.00     0.033 C 
BRANCH   7   8
HETATM    8  C6  UNL     1      35.725  30.119  24.031  1.00  0.00    -0.016 A 
HETATM    9  C7  UNL     1      35.565  28.961  24.761  1.00  0.00     0.034 A 
HETATM   10  C8  UNL     1      35.886  28.872  26.101  1.00  0.00     0.045 A 
HETATM   11 BR1  UNL     1      35.657  27.264  27.095  1.00  0.00    -0.048 Br
HETATM   12  C9  UNL     1      36.389  29.983  26.743  1.00  0.00     0.086 A 
HETATM   13  C11 UNL     1      36.567  31.160  26.061  1.00  0.00     0.058 A 
HETATM   14  C12 UNL     1      36.238  31.216  24.730  1.00  0.00     0.024 A 
HETATM   15 BR2  UNL     1      36.458  32.836  23.781  1.00  0.00    -0.050 Br
BRANCH  12  16
HETATM   16  O2  UNL     1      36.705  29.873  28.085  1.00  0.00    -0.355 OA
HETATM   17  C10 UNL     1      38.064  29.767  28.446  1.00  0.00     0.210 C 
ENDBRANCH  12  16
ENDBRANCH   7   8
ENDBRANCH   5   7
BRANCH   6  18
HETATM   18  O3  UNL     1      32.883  28.667  20.674  1.00  0.00    -0.346 OA
ATOM     19  H3  UNL     1      32.693  29.440  20.157  1.00  0.00     0.219 HD
ENDBRANCH   6  18
BRANCH   6  20
HETATM   20  N1  UNL     1      34.773  27.521  21.240  1.00  0.00    -0.352 N 
ATOM     21  H1  UNL     1      34.555  26.756  21.879  1.00  0.00     0.163 HD
BRANCH  20  22
HETATM   22  C14 UNL     1      35.851  27.344  20.283  1.00  0.00     0.113 C 
HETATM   23  C15 UNL     1      37.092  27.993  20.861  1.00  0.00     0.050 C 
HETATM   24  C16 UNL     1      35.570  27.912  18.934  1.00  0.00     0.050 C 
BRANCH  22  25
HETATM   25  C17 UNL     1      36.164  25.878  20.131  1.00  0.00     0.201 C 
HETATM   26  O4  UNL     1      35.547  25.111  19.364  1.00  0.00    -0.646 OA
HETATM   27  O5  UNL     1      37.206  25.402  20.909  1.00  0.00    -0.646 OA
ENDBRANCH  22  25
ENDBRANCH  20  22
ENDBRANCH   6  20
ENDBRANCH   3   5
TORSDOF 8
ENDMDL
MODEL 3
REMARK VINA RESULT: -6.787793028      2.648      5.509
REMARK  8 active torsions:
REMARK  status: ('A' for Active; 'I' for Inactive)
REMARK    1  A    between atoms: C3_3  and  C4_5 
REMARK    2  A    between atoms: C4_5  and  C5_6 
REMARK    3  A    between atoms: C5_6  and  C6_7 
REMARK    4  A    between atoms: C9_11  and  O2_12 
REMARK    5  A    between atoms: C13_17  and  O3_18 
REMARK    6  A    between atoms: C13_17  and  N1_20 
REMARK    7  A    between atoms: N1_20  and  C14_22 
REMARK    8  A    between atoms: C14_22  and  C17_25 
ROOT
HETATM    1  C1  UNL     1      34.504  34.322  21.618  1.00  0.00     0.021 C 
HETATM    2  C2  UNL     1      35.185  33.631  22.331  1.00  0.00    -0.034 C 
HETATM    3  C3  UNL     1      35.986  32.787  23.171  1.00  0.00     0.238 C 
HETATM    4  O1  UNL     1      37.165  33.160  23.359  1.00  0.00    -0.277 OA
ENDROOT
BRANCH   3   5
HETATM    5  C4  UNL     1      35.432  31.537  23.778  1.00  0.00     0.074 C 
HETATM    6  C13 UNL     1      35.661  31.358  25.168  1.00  0.00     0.152 C 
BRANCH   5   7
HETATM    7  C5  UNL     1      34.880  30.708  22.968  1.00  0.00     0.033 C 
BRANCH   7   8
HETATM    8  C6  UNL     1      35.359  29.681  22.099  1.00  0.00    -0.016 A 
HETATM    9  C7  UNL     1      36.679  29.288  22.056  1.00  0.00     0.034 A 
HETATM   10  C8  UNL     1      37.150  28.346  21.165  1.00  0.00     0.045 A 
HETATM   11 BR1  UNL     1      38.978  27.816  21.117  1.00  0.00    -0.048 Br
HETATM   12  C9  UNL     1      36.269  27.768  20.276  1.00  0.00     0.086 A 
HETATM   13  C11 UNL     1      34.944  28.125  20.278  1.00  0.00     0.058 A 
HETATM   14  C12 UNL     1      34.507  29.065  21.177  1.00  0.00     0.024 A 
HETATM   15 BR2  UNL     1      32.689  29.582  21.179  1.00  0.00    -0.050 Br
BRANCH  12  16
HETATM   16  O2  UNL     1      36.759  26.825  19.390  1.00  0.00    -0.355 OA
HETATM   17  C10 UNL     1      36.438  25.470  19.610  1.00  0.00     0.210 C 
ENDBRANCH  12  16
ENDBRANCH   7   8
ENDBRANCH   5   7
BRANCH   6  18
HETATM   18  O3  UNL     1      36.195  32.386  25.773  1.00  0.00    -0.346 OA
ATOM     19  H3  UNL     1      35.578  32.939  26.239  1.00  0.00     0.219 HD
ENDBRANCH   6  18
BRANCH   6  20
HETATM   20  N1  UNL     1      35.417  30.255  26.007  1.00  0.00    -0.352 N 
ATOM     21  H1  UNL     1      34.563  30.245  26.566  1.00  0.00     0.163 HD
BRANCH  20  22
HETATM   22  C14 UNL     1      36.329  29.128  26.111  1.00  0.00     0.113 C 
HETATM   23  C15 UNL     1      37.702  29.607  25.687  1.00  0.00     0.050 C 
HETATM   24  C16 UNL     1      35.935  27.946  25.292  1.00  0.00     0.050 C 
BRANCH  22  25
HETATM   25  C17 UNL     1      36.448  28.698  27.549  1.00  0.00     0.201 C 
HETATM   26  O4  UNL     1      37.207  29.240  28.378  1.00  0.00    -0.646 OA
HETATM   27  O5  UNL     1      35.647  27.632  27.926  1.00  0.00    -0.646 OA
ENDBRANCH  22  25
ENDBRANCH  20  22
ENDBRANCH   6  20
ENDBRANCH   3   5
TORSDOF 8
ENDMDL
MODEL 4
REMARK VINA RESULT: -6.757880762      0.746      1.242
REMARK  8 active torsions:
REMARK  status: ('A' for Active; 'I' for Inactive)
REMARK    1  A    between atoms: C3_3  and  C4_5 
REMARK    2  A    between atoms: C4_5  and  C5_6 
REMARK    3  A    between atoms: C5_6  and  C6_7 
REMARK    4  A    between atoms: C9_11  and  O2_12 
REMARK    5  A    between atoms: C13_17  and  O3_18 
REMARK    6  A    between atoms: C13_17  and  N1_20 
REMARK    7  A    between atoms: N1_20  and  C14_22 
REMARK    8  A    between atoms: C14_22  and  C17_25 
ROOT
HETATM    1  C1  UNL     1      33.114  33.519  20.109  1.00  0.00     0.021 C 
HETATM    2  C2  UNL     1      32.898  32.347  20.277  1.00  0.00    -0.034 C 
HETATM    3  C3  UNL     1      32.645  30.952  20.502  1.00  0.00     0.238 C 
HETATM    4  O1  UNL     1      31.680  30.461  19.876  1.00  0.00    -0.277 OA
ENDROOT
BRANCH   3   5
HETATM    5  C4  UNL     1      33.493  30.145  21.433  1.00  0.00     0.074 C 
HETATM    6  C13 UNL     1      33.964  28.900  20.935  1.00  0.00     0.152 C 
BRANCH   5   7
HETATM    7  C5  UNL     1      33.641  30.613  22.619  1.00  0.00     0.033 C 
BRANCH   7   8
HETATM    8  C6  UNL     1      34.739  30.733  23.523  1.00  0.00    -0.016 A 
HETATM    9  C7  UNL     1      35.983  31.184  23.140  1.00  0.00     0.034 A 
HETATM   10  C8  UNL     1      37.059  31.231  24.002  1.00  0.00     0.045 A 
HETATM   11 BR1  UNL     1      38.772  31.856  23.455  1.00  0.00    -0.048 Br
HETATM   12  C9  UNL     1      36.892  30.809  25.304  1.00  0.00     0.086 A 
HETATM   13  C11 UNL     1      35.673  30.350  25.736  1.00  0.00     0.058 A 
HETATM   14  C12 UNL     1      34.622  30.317  24.854  1.00  0.00     0.024 A 
HETATM   15 BR2  UNL     1      32.942  29.668  25.427  1.00  0.00    -0.050 Br
BRANCH  12  16
HETATM   16  O2  UNL     1      37.983  30.863  26.153  1.00  0.00    -0.355 OA
HETATM   17  C10 UNL     1      38.300  29.715  26.909  1.00  0.00     0.210 C 
ENDBRANCH  12  16
ENDBRANCH   7   8
ENDBRANCH   5   7
BRANCH   6  18
HETATM   18  O3  UNL     1      33.724  28.690  19.668  1.00  0.00    -0.346 OA
ATOM     19  H3  UNL     1      33.474  27.799  19.452  1.00  0.00     0.219 HD
ENDBRANCH   6  18
BRANCH   6  20
HETATM   20  N1  UNL     1      34.643  27.848  21.579  1.00  0.00    -0.352 N 
ATOM     21  H1  UNL     1      34.195  27.392  22.374  1.00  0.00     0.163 HD
BRANCH  20  22
HETATM   22  C14 UNL     1      35.955  27.385  21.160  1.00  0.00     0.113 C 
HETATM   23  C15 UNL     1      36.622  28.515  20.402  1.00  0.00     0.050 C 
HETATM   24  C16 UNL     1      35.927  26.159  20.311  1.00  0.00     0.050 C 
BRANCH  22  25
HETATM   25  C17 UNL     1      36.811  27.113  22.368  1.00  0.00     0.201 C 
HETATM   26  O4  UNL     1      36.716  27.737  23.444  1.00  0.00    -0.646 OA
HETATM   27  O5  UNL     1      37.745  26.099  22.227  1.00  0.00    -0.646 OA
ENDBRANCH  22  25
ENDBRANCH  20  22
ENDBRANCH   6  20
ENDBRANCH   3   5
TORSDOF 8
ENDMDL
MODEL 5
REMARK VINA RESULT: -6.660222973      1.368      2.248
REMARK  8 active torsions:
REMARK  status: ('A' for Active; 'I' for Inactive)
REMARK    1  A    between atoms: C3_3  and  C4_5 
REMARK    2  A    between atoms: C4_5  and  C5_6 
REMARK    3  A    between atoms: C5_6  and  C6_7 
REMARK    4  A    between atoms: C9_11  and  O2_12 
REMARK    5  A    between atoms: C13_17  and  O3_18 
REMARK    6  A    between atoms: C13_17  and  N1_20 
REMARK    7  A    between atoms: N1_20  and  C14_22 
REMARK    8  A    between atoms: C14_22  and  C17_25 
ROOT
HETATM    1  C1  UNL     1      32.835  33.009  20.084  1.00  0.00     0.021 C 
HETATM    2  C2  UNL     1      32.836  31.933  20.625  1.00  0.00    -0.034 C 
HETATM    3  C3  UNL     1      32.853  30.659  21.285  1.00  0.00     0.238 C 
HETATM    4  O1  UNL     1      31.759  30.056  21.343  1.00  0.00    -0.277 OA
ENDROOT
BRANCH   3   5
HETATM    5  C4  UNL     1      34.112  30.098  21.867  1.00  0.00     0.074 C 
HETATM    6  C13 UNL     1      34.425  28.758  21.514  1.00  0.00     0.152 C 
BRANCH   5   7
HETATM    7  C5  UNL     1      34.740  30.850  22.697  1.00  0.00     0.033 C 
BRANCH   7   8
HETATM    8  C6  UNL     1      35.306  30.663  23.994  1.00  0.00    -0.016 A 
HETATM    9  C7  UNL     1      34.994  29.592  24.803  1.00  0.00     0.034 A 
HETATM   10  C8  UNL     1      35.490  29.454  26.084  1.00  0.00     0.045 A 
HETATM   11 BR1  UNL     1      35.047  27.968  27.189  1.00  0.00    -0.048 Br
HETATM   12  C9  UNL     1      36.332  30.424  26.583  1.00  0.00     0.086 A 
HETATM   13  C11 UNL     1      36.674  31.510  25.817  1.00  0.00     0.058 A 
HETATM   14  C12 UNL     1      36.164  31.618  24.547  1.00  0.00     0.024 A 
HETATM   15 BR2  UNL     1      36.609  33.119  23.488  1.00  0.00    -0.050 Br
BRANCH  12  16
HETATM   16  O2  UNL     1      36.819  30.267  27.868  1.00  0.00    -0.355 OA
HETATM   17  C10 UNL     1      38.118  29.742  28.033  1.00  0.00     0.210 C 
ENDBRANCH  12  16
ENDBRANCH   7   8
ENDBRANCH   5   7
BRANCH   6  18
HETATM   18  O3  UNL     1      33.651  28.237  20.600  1.00  0.00    -0.346 OA
ATOM     19  H3  UNL     1      33.303  28.857  19.971  1.00  0.00     0.219 HD
ENDBRANCH   6  18
BRANCH   6  20
HETATM   20  N1  UNL     1      35.427  27.891  21.990  1.00  0.00    -0.352 N 
ATOM     21  H1  UNL     1      35.234  27.330  22.820  1.00  0.00     0.163 HD
BRANCH  20  22
HETATM   22  C14 UNL     1      36.724  27.762  21.348  1.00  0.00     0.113 C 
HETATM   23  C15 UNL     1      37.678  28.715  22.039  1.00  0.00     0.050 C 
HETATM   24  C16 UNL     1      36.711  28.040  19.883  1.00  0.00     0.050 C 
BRANCH  22  25
HETATM   25  C17 UNL     1      37.268  26.374  21.568  1.00  0.00     0.201 C 
HETATM   26  O4  UNL     1      37.121  25.433  20.762  1.00  0.00    -0.646 OA
HETATM   27  O5  UNL     1      37.965  26.183  22.749  1.00  0.00    -0.646 OA
ENDBRANCH  22  25
ENDBRANCH  20  22
ENDBRANCH   6  20
ENDBRANCH   3   5
TORSDOF 8
ENDMDL
