MODEL 1
REMARK VINA RESULT: -6.748000278      0.000      0.000
REMARK  8 active torsions:
REMARK  status: ('A' for Active; 'I' for Inactive)
REMARK    1  A    between atoms: N1_6  and  C5_7 
REMARK    2  A    between atoms: C5_7  and  C6_9 
REMARK    3  A    between atoms: C10_16  and  O2_17 
REMARK    4  A    between atoms: C10_16  and  C11_19 
REMARK    5  A    between atoms: C11_19  and  C12_20 
REMARK    6  A    between atoms: C12_20  and  N3_21 
REMARK       I    between atoms: N3_21  and  C13_23 
REMARK    7  A    between atoms: C13_23  and  C14_25 
REMARK    8  A    between atoms: C14_25  and  C15_26 
ROOT
HETATM    1  C1  UNL     1      39.278  28.647  21.839  1.00  0.00     0.104 C 
HETATM    2  C2  UNL     1      38.129  28.747  22.257  1.00  0.00    -0.135 C 
HETATM    3  C3  UNL     1      36.765  28.802  22.749  1.00  0.00     0.102 C 
HETATM    4 CL1  UNL     1      35.598  27.961  21.736  1.00  0.00    -0.073 Cl
HETATM    5  C4  UNL     1      36.408  29.355  23.880  1.00  0.00     0.109 C 
HETATM    6  N1  UNL     1      37.432  29.997  24.770  1.00  0.00    -0.238 N 
HETATM    7  N2  UNL     1      37.081  29.607  26.094  1.00  0.00    -0.255 N 
HETATM    8  C8  UNL     1      37.660  29.911  27.365  1.00  0.00     0.181 C 
HETATM    9  C9  UNL     1      35.878  28.776  25.944  1.00  0.00     0.279 C 
HETATM   10  O1  UNL     1      35.506  27.853  26.629  1.00  0.00    -0.268 OA
HETATM   11  C10 UNL     1      35.214  29.352  24.728  1.00  0.00     0.188 C 
ENDROOT
BRANCH   6  12
HETATM   12  C5  UNL     1      38.368  30.956  24.342  1.00  0.00     0.140 C 
HETATM   13  S1  UNL     1      37.648  32.489  23.887  1.00  0.00    -0.057 SA
BRANCH  12  14
HETATM   14  C6  UNL     1      39.765  31.139  24.441  1.00  0.00     0.041 C 
HETATM   15  C7  UNL     1      40.635  30.434  25.094  1.00  0.00     0.035 C 
HETATM   16 BR1  UNL     1      40.562  32.661  23.503  1.00  0.00    -0.049 Br
ENDBRANCH  12  14
ENDBRANCH   6  12
BRANCH  11  17
HETATM   17  O2  UNL     1      35.004  30.767  25.154  1.00  0.00    -0.374 OA
ATOM     18  H2  UNL     1      34.266  31.089  24.647  1.00  0.00     0.211 HD
ENDBRANCH  11  17
BRANCH  11  19
HETATM   19  C11 UNL     1      33.887  28.954  24.388  1.00  0.00     0.074 C 
BRANCH  19  20
HETATM   20  C12 UNL     1      32.871  30.069  24.284  1.00  0.00     0.126 C 
BRANCH  20  21
HETATM   21  N3  UNL     1      32.553  30.452  22.941  1.00  0.00    -0.361 N 
HETATM   22  C13 UNL     1      33.324  31.229  22.052  1.00  0.00     0.218 C 
HETATM   23  O3  UNL     1      34.434  31.675  22.396  1.00  0.00    -0.274 OA
ATOM     24  H3  UNL     1      31.657  30.121  22.583  1.00  0.00     0.162 HD
BRANCH  22  25
HETATM   25  C14 UNL     1      32.859  31.553  20.671  1.00  0.00     0.111 C 
BRANCH  25  26
HETATM   26  C15 UNL     1      32.286  30.359  19.976  1.00  0.00    -0.043 C 
HETATM   27  C16 UNL     1      31.567  30.877  18.725  1.00  0.00     0.015 C 
HETATM   28  C17 UNL     1      33.320  29.378  19.523  1.00  0.00     0.015 C 
HETATM   29  C18 UNL     1      31.239  29.715  20.862  1.00  0.00     0.015 C 
ENDBRANCH  25  26
ENDBRANCH  22  25
ENDBRANCH  20  21
ENDBRANCH  19  20
ENDBRANCH  11  19
TORSDOF 8
ENDMDL
MODEL 2
REMARK VINA RESULT: -6.719017666      3.105      6.332
REMARK  8 active torsions:
REMARK  status: ('A' for Active; 'I' for Inactive)
REMARK    1  A    between atoms: N1_6  and  C5_7 
REMARK    2  A    between atoms: C5_7  and  C6_9 
REMARK    3  A    between atoms: C10_16  and  O2_17 
REMARK    4  A    between atoms: C10_16  and  C11_19 
REMARK    5  A    between atoms: C11_19  and  C12_20 
REMARK    6  A    between atoms: C12_20  and  N3_21 
REMARK       I    between atoms: N3_21  and  C13_23 
REMARK    7  A    between atoms: C13_23  and  C14_25 
REMARK    8  A    between atoms: C14_25  and  C15_26 
ROOT
HETATM    1  C1  UNL     1      35.586  28.332  20.447  1.00  0.00     0.104 C 
HETATM    2  C2  UNL     1      35.998  28.645  21.560  1.00  0.00    -0.135 C 
HETATM    3  C3  UNL     1      36.543  29.009  22.854  1.00  0.00     0.102 C 
HETATM    4 CL1  UNL     1      37.728  27.872  23.483  1.00  0.00    -0.073 Cl
HETATM    5  C4  UNL     1      36.258  30.116  23.492  1.00  0.00     0.109 C 
HETATM    6  N1  UNL     1      35.305  31.112  22.899  1.00  0.00    -0.238 N 
HETATM    7  N2  UNL     1      35.885  32.387  23.152  1.00  0.00    -0.255 N 
HETATM    8  C8  UNL     1      35.447  33.714  22.849  1.00  0.00     0.181 C 
HETATM    9  C9  UNL     1      37.129  32.106  23.883  1.00  0.00     0.279 C 
HETATM   10  O1  UNL     1      38.164  32.731  23.884  1.00  0.00    -0.268 OA
HETATM   11  C10 UNL     1      36.807  30.849  24.634  1.00  0.00     0.188 C 
ENDROOT
BRANCH   6  12
HETATM   12  C5  UNL     1      34.021  30.797  22.422  1.00  0.00     0.140 C 
HETATM   13  S1  UNL     1      32.999  30.013  23.612  1.00  0.00    -0.057 SA
BRANCH  12  14
HETATM   14  C6  UNL     1      33.208  31.186  21.334  1.00  0.00     0.041 C 
HETATM   15  C7  UNL     1      33.067  32.360  20.801  1.00  0.00     0.035 C 
HETATM   16 BR1  UNL     1      32.100  29.818  20.478  1.00  0.00    -0.049 Br
ENDBRANCH  12  14
ENDBRANCH   6  12
BRANCH  11  17
HETATM   17  O2  UNL     1      35.635  31.288  25.448  1.00  0.00    -0.374 OA
ATOM     18  H2  UNL     1      35.825  31.032  26.344  1.00  0.00     0.211 HD
ENDBRANCH  11  17
BRANCH  11  19
HETATM   19  C11 UNL     1      37.698  30.377  25.644  1.00  0.00     0.074 C 
BRANCH  19  20
HETATM   20  C12 UNL     1      37.145  30.353  27.051  1.00  0.00     0.126 C 
BRANCH  20  21
HETATM   21  N3  UNL     1      36.835  29.043  27.539  1.00  0.00    -0.361 N 
HETATM   22  C13 UNL     1      35.758  28.211  27.172  1.00  0.00     0.218 C 
HETATM   23  O3  UNL     1      34.928  28.582  26.322  1.00  0.00    -0.274 OA
ATOM     24  H3  UNL     1      37.472  28.665  28.240  1.00  0.00     0.162 HD
BRANCH  22  25
HETATM   25  C14 UNL     1      35.558  26.859  27.772  1.00  0.00     0.111 C 
BRANCH  25  26
HETATM   26  C15 UNL     1      36.709  25.946  27.498  1.00  0.00    -0.043 C 
HETATM   27  C16 UNL     1      36.226  24.521  27.794  1.00  0.00     0.015 C 
HETATM   28  C17 UNL     1      37.170  25.974  26.076  1.00  0.00     0.015 C 
HETATM   29  C18 UNL     1      37.835  26.249  28.467  1.00  0.00     0.015 C 
ENDBRANCH  25  26
ENDBRANCH  22  25
ENDBRANCH  20  21
ENDBRANCH  19  20
ENDBRANCH  11  19
TORSDOF 8
ENDMDL
MODEL 3
REMARK VINA RESULT: -6.671142976      4.408      7.664
REMARK  8 active torsions:
REMARK  status: ('A' for Active; 'I' for Inactive)
REMARK    1  A    between atoms: N1_6  and  C5_7 
REMARK    2  A    between atoms: C5_7  and  C6_9 
REMARK    3  A    between atoms: C10_16  and  O2_17 
REMARK    4  A    between atoms: C10_16  and  C11_19 
REMARK    5  A    between atoms: C11_19  and  C12_20 
REMARK    6  A    between atoms: C12_20  and  N3_21 
REMARK       I    between atoms: N3_21  and  C13_23 
REMARK    7  A    between atoms: C13_23  and  C14_25 
REMARK    8  A    between atoms: C14_25  and  C15_26 
ROOT
HETATM    1  C1  UNL     1      37.786  29.012  22.305  1.00  0.00     0.104 C 
HETATM    2  C2  UNL     1      37.505  28.447  23.357  1.00  0.00    -0.135 C 
HETATM    3  C3  UNL     1      37.234  27.776  24.615  1.00  0.00     0.102 C 
HETATM    4 CL1  UNL     1      38.141  26.288  24.849  1.00  0.00    -0.073 Cl
HETATM    5  C4  UNL     1      36.447  28.246  25.549  1.00  0.00     0.109 C 
HETATM    6  N1  UNL     1      35.744  29.559  25.363  1.00  0.00    -0.238 N 
HETATM    7  N2  UNL     1      35.843  30.222  26.619  1.00  0.00    -0.255 N 
HETATM    8  C8  UNL     1      35.358  31.489  27.073  1.00  0.00     0.181 C 
HETATM    9  C9  UNL     1      36.574  29.291  27.490  1.00  0.00     0.279 C 
HETATM   10  O1  UNL     1      37.314  29.540  28.413  1.00  0.00    -0.268 OA
HETATM   11  C10 UNL     1      36.181  27.945  26.957  1.00  0.00     0.188 C 
ENDROOT
BRANCH   6  12
HETATM   12  C5  UNL     1      34.973  29.895  24.236  1.00  0.00     0.140 C 
HETATM   13  S1  UNL     1      33.443  29.042  24.149  1.00  0.00    -0.057 SA
BRANCH  12  14
HETATM   14  C6  UNL     1      34.945  30.943  23.289  1.00  0.00     0.041 C 
HETATM   15  C7  UNL     1      34.179  31.084  22.252  1.00  0.00     0.035 C 
HETATM   16 BR1  UNL     1      36.227  32.408  23.499  1.00  0.00    -0.049 Br
ENDBRANCH  12  14
ENDBRANCH   6  12
BRANCH  11  17
HETATM   17  O2  UNL     1      34.697  27.990  27.118  1.00  0.00    -0.374 OA
ATOM     18  H2  UNL     1      34.343  27.390  26.471  1.00  0.00     0.211 HD
ENDBRANCH  11  17
BRANCH  11  19
HETATM   19  C11 UNL     1      36.513  26.766  27.689  1.00  0.00     0.074 C 
BRANCH  19  20
HETATM   20  C12 UNL     1      35.606  25.576  27.469  1.00  0.00     0.126 C 
BRANCH  20  21
HETATM   21  N3  UNL     1      35.969  24.413  28.222  1.00  0.00    -0.361 N 
HETATM   22  C13 UNL     1      35.352  23.900  29.380  1.00  0.00     0.218 C 
HETATM   23  O3  UNL     1      34.359  24.464  29.876  1.00  0.00    -0.274 OA
ATOM     24  H3  UNL     1      36.774  23.891  27.876  1.00  0.00     0.162 HD
BRANCH  22  25
HETATM   25  C14 UNL     1      35.847  22.669  30.064  1.00  0.00     0.111 C 
BRANCH  25  26
HETATM   26  C15 UNL     1      37.077  22.930  30.873  1.00  0.00    -0.043 C 
HETATM   27  C16 UNL     1      37.614  21.565  31.318  1.00  0.00     0.015 C 
HETATM   28  C17 UNL     1      38.165  23.610  30.104  1.00  0.00     0.015 C 
HETATM   29  C18 UNL     1      36.702  23.695  32.127  1.00  0.00     0.015 C 
ENDBRANCH  25  26
ENDBRANCH  22  25
ENDBRANCH  20  21
ENDBRANCH  19  20
ENDBRANCH  11  19
TORSDOF 8
ENDMDL
MODEL 4
REMARK VINA RESULT: -6.627943416      3.396      6.561
REMARK  8 active torsions:
REMARK  status: ('A' for Active; 'I' for Inactive)
REMARK    1  A    between atoms: N1_6  and  C5_7 
REMARK    2  A    between atoms: C5_7  and  C6_9 
REMARK    3  A    between atoms: C10_16  and  O2_17 
REMARK    4  A    between atoms: C10_16  and  C11_19 
REMARK    5  A    between atoms: C11_19  and  C12_20 
REMARK    6  A    between atoms: C12_20  and  N3_21 
REMARK       I    between atoms: N3_21  and  C13_23 
REMARK    7  A    between atoms: C13_23  and  C14_25 
REMARK    8  A    between atoms: C14_25  and  C15_26 
ROOT
HETATM    1  C1  UNL     1      35.477  28.196  20.410  1.00  0.00     0.104 C 
HETATM    2  C2  UNL     1      35.995  28.376  21.508  1.00  0.00    -0.135 C 
HETATM    3  C3  UNL     1      36.664  28.582  22.779  1.00  0.00     0.102 C 
HETATM    4 CL1  UNL     1      37.827  27.329  23.193  1.00  0.00    -0.073 Cl
HETATM    5  C4  UNL     1      36.498  29.633  23.541  1.00  0.00     0.109 C 
HETATM    6  N1  UNL     1      35.560  30.731  23.129  1.00  0.00    -0.238 N 
HETATM    7  N2  UNL     1      36.234  31.944  23.450  1.00  0.00    -0.255 N 
HETATM    8  C8  UNL     1      35.852  33.315  23.313  1.00  0.00     0.181 C 
HETATM    9  C9  UNL     1      37.514  31.528  24.040  1.00  0.00     0.279 C 
HETATM   10  O1  UNL     1      38.581  32.096  24.011  1.00  0.00    -0.268 OA
HETATM   11  C10 UNL     1      37.180  30.221  24.695  1.00  0.00     0.188 C 
ENDROOT
BRANCH   6  12
HETATM   12  C5  UNL     1      34.225  30.530  22.737  1.00  0.00     0.140 C 
HETATM   13  S1  UNL     1      33.234  29.775  23.970  1.00  0.00    -0.057 SA
BRANCH  12  14
HETATM   14  C6  UNL     1      33.369  31.023  21.727  1.00  0.00     0.041 C 
HETATM   15  C7  UNL     1      33.276  32.227  21.253  1.00  0.00     0.035 C 
HETATM   16 BR1  UNL     1      32.109  29.775  20.899  1.00  0.00    -0.049 Br
ENDBRANCH  12  14
ENDBRANCH   6  12
BRANCH  11  17
HETATM   17  O2  UNL     1      36.106  30.636  25.645  1.00  0.00    -0.374 OA
ATOM     18  H2  UNL     1      35.576  29.863  25.799  1.00  0.00     0.211 HD
ENDBRANCH  11  17
BRANCH  11  19
HETATM   19  C11 UNL     1      38.120  29.607  25.575  1.00  0.00     0.074 C 
BRANCH  19  20
HETATM   20  C12 UNL     1      37.545  29.003  26.837  1.00  0.00     0.126 C 
BRANCH  20  21
HETATM   21  N3  UNL     1      37.111  27.646  26.695  1.00  0.00    -0.361 N 
HETATM   22  C13 UNL     1      35.966  27.037  27.247  1.00  0.00     0.218 C 
HETATM   23  O3  UNL     1      35.178  27.688  27.956  1.00  0.00    -0.274 OA
ATOM     24  H3  UNL     1      37.704  27.045  26.122  1.00  0.00     0.162 HD
BRANCH  22  25
HETATM   25  C14 UNL     1      35.640  25.599  27.013  1.00  0.00     0.111 C 
BRANCH  25  26
HETATM   26  C15 UNL     1      36.199  24.715  28.082  1.00  0.00    -0.043 C 
HETATM   27  C16 UNL     1      36.609  23.402  27.402  1.00  0.00     0.015 C 
HETATM   28  C17 UNL     1      37.418  25.274  28.744  1.00  0.00     0.015 C 
HETATM   29  C18 UNL     1      35.110  24.382  29.081  1.00  0.00     0.015 C 
ENDBRANCH  25  26
ENDBRANCH  22  25
ENDBRANCH  20  21
ENDBRANCH  19  20
ENDBRANCH  11  19
TORSDOF 8
ENDMDL
MODEL 5
REMARK VINA RESULT: -6.533019241      1.262      1.927
REMARK  8 active torsions:
REMARK  status: ('A' for Active; 'I' for Inactive)
REMARK    1  A    between atoms: N1_6  and  C5_7 
REMARK    2  A    between atoms: C5_7  and  C6_9 
REMARK    3  A    between atoms: C10_16  and  O2_17 
REMARK    4  A    between atoms: C10_16  and  C11_19 
REMARK    5  A    between atoms: C11_19  and  C12_20 
REMARK    6  A    between atoms: C12_20  and  N3_21 
REMARK       I    between atoms: N3_21  and  C13_23 
REMARK    7  A    between atoms: C13_23  and  C14_25 
REMARK    8  A    between atoms: C14_25  and  C15_26 
ROOT
HETATM    1  C1  UNL     1      39.385  28.935  22.101  1.00  0.00     0.104 C 
HETATM    2  C2  UNL     1      38.204  28.992  22.429  1.00  0.00    -0.135 C 
HETATM    3  C3  UNL     1      36.803  28.998  22.807  1.00  0.00     0.102 C 
HETATM    4 CL1  UNL     1      35.732  28.275  21.613  1.00  0.00    -0.073 Cl
HETATM    5  C4  UNL     1      36.348  29.427  23.957  1.00  0.00     0.109 C 
HETATM    6  N1  UNL     1      37.290  29.966  24.994  1.00  0.00    -0.238 N 
HETATM    7  N2  UNL     1      36.830  29.437  26.233  1.00  0.00    -0.255 N 
HETATM    8  C8  UNL     1      37.297  29.600  27.575  1.00  0.00     0.181 C 
HETATM    9  C9  UNL     1      35.649  28.631  25.893  1.00  0.00     0.279 C 
HETATM   10  O1  UNL     1      35.226  27.640  26.441  1.00  0.00    -0.268 OA
HETATM   11  C10 UNL     1      35.087  29.336  24.695  1.00  0.00     0.188 C 
ENDROOT
BRANCH   6  12
HETATM   12  C5  UNL     1      38.252  30.963  24.753  1.00  0.00     0.140 C 
HETATM   13  S1  UNL     1      39.878  30.499  25.219  1.00  0.00    -0.057 SA
BRANCH  12  14
HETATM   14  C6  UNL     1      38.337  32.138  23.974  1.00  0.00     0.041 C 
HETATM   15  C7  UNL     1      37.385  32.929  23.586  1.00  0.00     0.035 C 
HETATM   16 BR1  UNL     1      40.103  32.699  23.344  1.00  0.00    -0.049 Br
ENDBRANCH  12  14
ENDBRANCH   6  12
BRANCH  11  17
HETATM   17  O2  UNL     1      34.833  30.698  25.251  1.00  0.00    -0.374 OA
ATOM     18  H2  UNL     1      34.648  30.576  26.175  1.00  0.00     0.211 HD
ENDBRANCH  11  17
BRANCH  11  19
HETATM   19  C11 UNL     1      33.796  28.981  24.202  1.00  0.00     0.074 C 
BRANCH  19  20
HETATM   20  C12 UNL     1      32.811  30.119  24.057  1.00  0.00     0.126 C 
BRANCH  20  21
HETATM   21  N3  UNL     1      32.580  30.528  22.704  1.00  0.00    -0.361 N 
HETATM   22  C13 UNL     1      33.403  31.326  21.884  1.00  0.00     0.218 C 
HETATM   23  O3  UNL     1      34.486  31.769  22.308  1.00  0.00    -0.274 OA
ATOM     24  H3  UNL     1      31.710  30.201  22.281  1.00  0.00     0.162 HD
BRANCH  22  25
HETATM   25  C14 UNL     1      33.027  31.676  20.482  1.00  0.00     0.111 C 
BRANCH  25  26
HETATM   26  C15 UNL     1      32.854  33.149  20.297  1.00  0.00    -0.043 C 
HETATM   27  C16 UNL     1      31.967  33.341  19.062  1.00  0.00     0.015 C 
HETATM   28  C17 UNL     1      32.170  33.820  21.446  1.00  0.00     0.015 C 
HETATM   29  C18 UNL     1      34.197  33.780  19.988  1.00  0.00     0.015 C 
ENDBRANCH  25  26
ENDBRANCH  22  25
ENDBRANCH  20  21
ENDBRANCH  19  20
ENDBRANCH  11  19
TORSDOF 8
ENDMDL
