MODEL 1
REMARK VINA RESULT: -7.970352892      0.000      0.000
REMARK  7 active torsions:
REMARK  status: ('A' for Active; 'I' for Inactive)
REMARK    1  A    between atoms: C1_2  and  C2_4 
REMARK    2  A    between atoms: C2_4  and  C3_5 
REMARK    3  A    between atoms: C2_4  and  N3_21 
REMARK    4  A    between atoms: C3_5  and  C4_6 
REMARK    5  A    between atoms: C7_9  and  C8_10 
REMARK    6  A    between atoms: N1_14  and  O3_15 
REMARK       I    between atoms: N3_21  and  C14_23 
REMARK    7  A    between atoms: C14_23  and  C15_25 
ROOT
HETATM    1  C4  UNL     1      34.304  29.399  23.740  1.00  0.00     0.011 A 
HETATM    2  C5  UNL     1      34.942  29.500  22.525  1.00  0.00     0.026 A 
HETATM    3  C6  UNL     1      34.347  30.122  21.448  1.00  0.00     0.015 A 
HETATM    4  C7  UNL     1      33.072  30.669  21.562  1.00  0.00    -0.009 A 
HETATM    5  C13 UNL     1      32.467  30.552  22.778  1.00  0.00     0.100 A 
HETATM    6  N2  UNL     1      33.066  29.944  23.807  1.00  0.00    -0.368 N 
ATOM      7  H2  UNL     1      32.562  29.887  24.692  1.00  0.00     0.165 HD
ENDROOT
BRANCH   1   8
HETATM    8  C3  UNL     1      34.848  28.761  24.944  1.00  0.00     0.093 C 
BRANCH   8   9
HETATM    9  C2  UNL     1      35.420  29.661  25.983  1.00  0.00     0.191 C 
BRANCH   9  10
HETATM   10  C1  UNL     1      34.465  30.232  26.934  1.00  0.00     0.197 C 
HETATM   11  O1  UNL     1      34.785  31.256  27.585  1.00  0.00    -0.646 OA
HETATM   12  O2  UNL     1      33.230  29.679  27.136  1.00  0.00    -0.646 OA
ENDBRANCH   9  10
BRANCH   9  13
HETATM   13  N3  UNL     1      36.218  30.728  25.349  1.00  0.00    -0.346 N 
HETATM   14  C14 UNL     1      37.579  30.928  25.612  1.00  0.00     0.225 C 
HETATM   15  O4  UNL     1      38.160  30.160  26.434  1.00  0.00    -0.273 OA
ATOM     16  H3  UNL     1      35.756  31.350  24.686  1.00  0.00     0.163 HD
BRANCH  14  17
HETATM   17  C15 UNL     1      38.389  31.995  24.982  1.00  0.00     0.110 A 
HETATM   18  C16 UNL     1      37.813  32.506  23.682  1.00  0.00     0.050 A 
HETATM   19  C17 UNL     1      39.118  31.771  23.728  1.00  0.00     0.088 A 
HETATM   20 BR1  UNL     1      40.659  32.874  23.320  1.00  0.00    -0.072 Br
HETATM   21 BR2  UNL     1      39.208  30.002  22.934  1.00  0.00    -0.072 Br
ENDBRANCH  14  17
ENDBRANCH   9  13
ENDBRANCH   8   9
ENDBRANCH   1   8
BRANCH   4  22
HETATM   22  C8  UNL     1      32.453  31.315  20.436  1.00  0.00    -0.007 A 
HETATM   23  C9  UNL     1      32.713  32.629  20.125  1.00  0.00     0.015 A 
HETATM   24  C10 UNL     1      32.071  33.163  19.025  1.00  0.00     0.021 A 
HETATM   25  C11 UNL     1      31.204  32.411  18.265  1.00  0.00     0.122 A 
HETATM   26  N1  UNL     1      30.958  31.135  18.574  1.00  0.00    -0.246 N 
HETATM   27  C12 UNL     1      31.577  30.582  19.655  1.00  0.00     0.134 A 
BRANCH  26  28
HETATM   28  O3  UNL     1      30.084  30.440  17.778  1.00  0.00    -0.284 OA
ATOM     29  H3  UNL     1      29.536  29.782  18.189  1.00  0.00     0.245 HD
ENDBRANCH  26  28
ENDBRANCH   4  22
TORSDOF 7
ENDMDL
MODEL 2
REMARK VINA RESULT: -7.920206009      1.976      2.174
REMARK  7 active torsions:
REMARK  status: ('A' for Active; 'I' for Inactive)
REMARK    1  A    between atoms: C1_2  and  C2_4 
REMARK    2  A    between atoms: C2_4  and  C3_5 
REMARK    3  A    between atoms: C2_4  and  N3_21 
REMARK    4  A    between atoms: C3_5  and  C4_6 
REMARK    5  A    between atoms: C7_9  and  C8_10 
REMARK    6  A    between atoms: N1_14  and  O3_15 
REMARK       I    between atoms: N3_21  and  C14_23 
REMARK    7  A    between atoms: C14_23  and  C15_25 
ROOT
HETATM    1  C4  UNL     1      34.329  29.325  24.299  1.00  0.00     0.011 A 
HETATM    2  C5  UNL     1      35.207  29.945  23.439  1.00  0.00     0.026 A 
HETATM    3  C6  UNL     1      34.762  30.702  22.378  1.00  0.00     0.015 A 
HETATM    4  C7  UNL     1      33.398  30.862  22.144  1.00  0.00    -0.009 A 
HETATM    5  C13 UNL     1      32.555  30.235  23.013  1.00  0.00     0.100 A 
HETATM    6  N2  UNL     1      33.013  29.506  24.035  1.00  0.00    -0.368 N 
ATOM      7  H2  UNL     1      32.333  29.060  24.651  1.00  0.00     0.165 HD
ENDROOT
BRANCH   1   8
HETATM    8  C3  UNL     1      34.699  28.501  25.456  1.00  0.00     0.093 C 
BRANCH   8   9
HETATM    9  C2  UNL     1      35.142  29.221  26.682  1.00  0.00     0.191 C 
BRANCH   9  10
HETATM   10  C1  UNL     1      34.373  30.415  27.037  1.00  0.00     0.197 C 
HETATM   11  O1  UNL     1      34.975  31.503  27.206  1.00  0.00    -0.646 OA
HETATM   12  O2  UNL     1      33.015  30.378  27.193  1.00  0.00    -0.646 OA
ENDBRANCH   9  10
BRANCH   9  13
HETATM   13  N3  UNL     1      36.580  29.540  26.593  1.00  0.00    -0.346 N 
HETATM   14  C14 UNL     1      37.546  28.966  27.428  1.00  0.00     0.225 C 
HETATM   15  O4  UNL     1      37.175  28.132  28.305  1.00  0.00    -0.273 OA
ATOM     16  H3  UNL     1      36.885  30.211  25.888  1.00  0.00     0.163 HD
BRANCH  14  17
HETATM   17  C15 UNL     1      38.991  29.278  27.349  1.00  0.00     0.110 A 
HETATM   18  C16 UNL     1      39.381  30.029  26.096  1.00  0.00     0.050 A 
HETATM   19  C17 UNL     1      39.866  28.636  26.361  1.00  0.00     0.088 A 
HETATM   20 BR1  UNL     1      41.768  28.517  26.716  1.00  0.00    -0.072 Br
HETATM   21 BR2  UNL     1      39.205  27.201  25.234  1.00  0.00    -0.072 Br
ENDBRANCH  14  17
ENDBRANCH   9  13
ENDBRANCH   8   9
ENDBRANCH   1   8
BRANCH   4  22
HETATM   22  C8  UNL     1      32.937  31.651  21.034  1.00  0.00    -0.007 A 
HETATM   23  C9  UNL     1      33.076  33.019  21.013  1.00  0.00     0.015 A 
HETATM   24  C10 UNL     1      32.602  33.692  19.904  1.00  0.00     0.021 A 
HETATM   25  C11 UNL     1      32.013  33.021  18.856  1.00  0.00     0.122 A 
HETATM   26  N1  UNL     1      31.883  31.692  18.884  1.00  0.00    -0.246 N 
HETATM   27  C12 UNL     1      32.341  31.003  19.966  1.00  0.00     0.134 A 
BRANCH  26  28
HETATM   28  O3  UNL     1      31.287  31.084  17.809  1.00  0.00    -0.284 OA
ATOM     29  H3  UNL     1      31.396  30.145  17.714  1.00  0.00     0.245 HD
ENDBRANCH  26  28
ENDBRANCH   4  22
TORSDOF 7
ENDMDL
MODEL 3
REMARK VINA RESULT: -7.915436669      2.399      2.962
REMARK  7 active torsions:
REMARK  status: ('A' for Active; 'I' for Inactive)
REMARK    1  A    between atoms: C1_2  and  C2_4 
REMARK    2  A    between atoms: C2_4  and  C3_5 
REMARK    3  A    between atoms: C2_4  and  N3_21 
REMARK    4  A    between atoms: C3_5  and  C4_6 
REMARK    5  A    between atoms: C7_9  and  C8_10 
REMARK    6  A    between atoms: N1_14  and  O3_15 
REMARK       I    between atoms: N3_21  and  C14_23 
REMARK    7  A    between atoms: C14_23  and  C15_25 
ROOT
HETATM    1  C4  UNL     1      34.937  30.070  25.137  1.00  0.00     0.011 A 
HETATM    2  C5  UNL     1      35.473  31.005  24.281  1.00  0.00     0.026 A 
HETATM    3  C6  UNL     1      34.903  31.268  23.055  1.00  0.00     0.015 A 
HETATM    4  C7  UNL     1      33.760  30.588  22.644  1.00  0.00    -0.009 A 
HETATM    5  C13 UNL     1      33.254  29.669  23.514  1.00  0.00     0.100 A 
HETATM    6  N2  UNL     1      33.826  29.432  24.699  1.00  0.00    -0.368 N 
ATOM      7  H2  UNL     1      33.402  28.731  25.307  1.00  0.00     0.165 HD
ENDROOT
BRANCH   1   8
HETATM    8  C3  UNL     1      35.464  29.717  26.461  1.00  0.00     0.093 C 
BRANCH   8   9
HETATM    9  C2  UNL     1      36.524  28.673  26.508  1.00  0.00     0.191 C 
BRANCH   9  10
HETATM   10  C1  UNL     1      37.257  28.558  27.770  1.00  0.00     0.197 C 
HETATM   11  O1  UNL     1      37.681  27.433  28.132  1.00  0.00    -0.646 OA
HETATM   12  O2  UNL     1      37.491  29.642  28.569  1.00  0.00    -0.646 OA
ENDBRANCH   9  10
BRANCH   9  13
HETATM   13  N3  UNL     1      37.460  28.847  25.381  1.00  0.00    -0.346 N 
HETATM   14  C14 UNL     1      37.682  27.864  24.409  1.00  0.00     0.225 C 
HETATM   15  O4  UNL     1      37.053  26.769  24.494  1.00  0.00    -0.273 OA
ATOM     16  H3  UNL     1      37.971  29.727  25.307  1.00  0.00     0.163 HD
BRANCH  14  17
HETATM   17  C15 UNL     1      38.620  28.028  23.274  1.00  0.00     0.110 A 
HETATM   18  C16 UNL     1      38.598  29.411  22.664  1.00  0.00     0.050 A 
HETATM   19  C17 UNL     1      38.142  28.206  21.898  1.00  0.00     0.088 A 
HETATM   20 BR1  UNL     1      39.302  27.724  20.423  1.00  0.00    -0.072 Br
HETATM   21 BR2  UNL     1      36.254  28.045  21.475  1.00  0.00    -0.072 Br
ENDBRANCH  14  17
ENDBRANCH   9  13
ENDBRANCH   8   9
ENDBRANCH   1   8
BRANCH   4  22
HETATM   22  C8  UNL     1      33.169  30.864  21.362  1.00  0.00    -0.007 A 
HETATM   23  C9  UNL     1      32.963  32.150  20.924  1.00  0.00     0.015 A 
HETATM   24  C10 UNL     1      32.390  32.317  19.678  1.00  0.00     0.021 A 
HETATM   25  C11 UNL     1      32.037  31.236  18.901  1.00  0.00     0.122 A 
HETATM   26  N1  UNL     1      32.241  29.989  19.335  1.00  0.00    -0.246 N 
HETATM   27  C12 UNL     1      32.806  29.796  20.560  1.00  0.00     0.134 A 
BRANCH  26  28
HETATM   28  O3  UNL     1      31.868  28.956  18.514  1.00  0.00    -0.284 OA
ATOM     29  H3  UNL     1      32.517  28.292  18.314  1.00  0.00     0.245 HD
ENDBRANCH  26  28
ENDBRANCH   4  22
TORSDOF 7
ENDMDL
MODEL 4
REMARK VINA RESULT: -7.815938968      2.455      2.957
REMARK  7 active torsions:
REMARK  status: ('A' for Active; 'I' for Inactive)
REMARK    1  A    between atoms: C1_2  and  C2_4 
REMARK    2  A    between atoms: C2_4  and  C3_5 
REMARK    3  A    between atoms: C2_4  and  N3_21 
REMARK    4  A    between atoms: C3_5  and  C4_6 
REMARK    5  A    between atoms: C7_9  and  C8_10 
REMARK    6  A    between atoms: N1_14  and  O3_15 
REMARK       I    between atoms: N3_21  and  C14_23 
REMARK    7  A    between atoms: C14_23  and  C15_25 
ROOT
HETATM    1  C4  UNL     1      34.324  29.480  24.364  1.00  0.00     0.011 A 
HETATM    2  C5  UNL     1      35.043  30.540  23.861  1.00  0.00     0.026 A 
HETATM    3  C6  UNL     1      34.600  31.259  22.772  1.00  0.00     0.015 A 
HETATM    4  C7  UNL     1      33.402  30.929  22.146  1.00  0.00    -0.009 A 
HETATM    5  C13 UNL     1      32.713  29.874  22.667  1.00  0.00     0.100 A 
HETATM    6  N2  UNL     1      33.165  29.193  23.725  1.00  0.00    -0.368 N 
ATOM      7  H2  UNL     1      32.605  28.413  24.070  1.00  0.00     0.165 HD
ENDROOT
BRANCH   1   8
HETATM    8  C3  UNL     1      34.706  28.654  25.516  1.00  0.00     0.093 C 
BRANCH   8   9
HETATM    9  C2  UNL     1      36.163  28.477  25.764  1.00  0.00     0.191 C 
BRANCH   9  10
HETATM   10  C1  UNL     1      36.749  29.342  26.789  1.00  0.00     0.197 C 
HETATM   11  O1  UNL     1      36.587  29.055  27.999  1.00  0.00    -0.646 OA
HETATM   12  O2  UNL     1      37.470  30.459  26.464  1.00  0.00    -0.646 OA
ENDBRANCH   9  10
BRANCH   9  13
HETATM   13  N3  UNL     1      36.912  28.593  24.499  1.00  0.00    -0.346 N 
HETATM   14  C14 UNL     1      37.475  27.495  23.836  1.00  0.00     0.225 C 
HETATM   15  O4  UNL     1      37.338  26.342  24.342  1.00  0.00    -0.273 OA
ATOM     16  H3  UNL     1      37.026  29.519  24.086  1.00  0.00     0.163 HD
BRANCH  14  17
HETATM   17  C15 UNL     1      38.229  27.600  22.566  1.00  0.00     0.110 A 
HETATM   18  C16 UNL     1      38.212  28.985  21.964  1.00  0.00     0.050 A 
HETATM   19  C17 UNL     1      37.552  27.825  21.284  1.00  0.00     0.088 A 
HETATM   20 BR1  UNL     1      38.424  27.272  19.643  1.00  0.00    -0.072 Br
HETATM   21 BR2  UNL     1      35.615  27.806  21.167  1.00  0.00    -0.072 Br
ENDBRANCH  14  17
ENDBRANCH   9  13
ENDBRANCH   8   9
ENDBRANCH   1   8
BRANCH   4  22
HETATM   22  C8  UNL     1      32.944  31.680  21.008  1.00  0.00    -0.007 A 
HETATM   23  C9  UNL     1      33.096  33.044  20.934  1.00  0.00     0.015 A 
HETATM   24  C10 UNL     1      32.625  33.679  19.802  1.00  0.00     0.021 A 
HETATM   25  C11 UNL     1      32.024  32.976  18.783  1.00  0.00     0.122 A 
HETATM   26  N1  UNL     1      31.880  31.650  18.863  1.00  0.00    -0.246 N 
HETATM   27  C12 UNL     1      32.336  30.997  19.969  1.00  0.00     0.134 A 
BRANCH  26  28
HETATM   28  O3  UNL     1      31.273  31.007  17.814  1.00  0.00    -0.284 OA
ATOM     29  H3  UNL     1      30.803  30.203  17.999  1.00  0.00     0.245 HD
ENDBRANCH  26  28
ENDBRANCH   4  22
TORSDOF 7
ENDMDL
MODEL 5
REMARK VINA RESULT: -7.735496200      1.924      2.258
REMARK  7 active torsions:
REMARK  status: ('A' for Active; 'I' for Inactive)
REMARK    1  A    between atoms: C1_2  and  C2_4 
REMARK    2  A    between atoms: C2_4  and  C3_5 
REMARK    3  A    between atoms: C2_4  and  N3_21 
REMARK    4  A    between atoms: C3_5  and  C4_6 
REMARK    5  A    between atoms: C7_9  and  C8_10 
REMARK    6  A    between atoms: N1_14  and  O3_15 
REMARK       I    between atoms: N3_21  and  C14_23 
REMARK    7  A    between atoms: C14_23  and  C15_25 
ROOT
HETATM    1  C4  UNL     1      34.835  30.390  24.902  1.00  0.00     0.011 A 
HETATM    2  C5  UNL     1      33.628  29.813  24.577  1.00  0.00     0.026 A 
HETATM    3  C6  UNL     1      33.035  30.024  23.352  1.00  0.00     0.015 A 
HETATM    4  C7  UNL     1      33.645  30.836  22.400  1.00  0.00    -0.009 A 
HETATM    5  C13 UNL     1      34.839  31.393  22.752  1.00  0.00     0.100 A 
HETATM    6  N2  UNL     1      35.394  31.172  23.948  1.00  0.00    -0.368 N 
ATOM      7  H2  UNL     1      36.288  31.617  24.153  1.00  0.00     0.165 HD
ENDROOT
BRANCH   1   8
HETATM    8  C3  UNL     1      35.549  30.228  26.174  1.00  0.00     0.093 C 
BRANCH   8   9
HETATM    9  C2  UNL     1      36.449  29.048  26.295  1.00  0.00     0.191 C 
BRANCH   9  10
HETATM   10  C1  UNL     1      36.429  28.355  27.584  1.00  0.00     0.197 C 
HETATM   11  O1  UNL     1      37.327  28.601  28.426  1.00  0.00    -0.646 OA
HETATM   12  O2  UNL     1      35.459  27.443  27.899  1.00  0.00    -0.646 OA
ENDBRANCH   9  10
BRANCH   9  13
HETATM   13  N3  UNL     1      37.829  29.421  25.930  1.00  0.00    -0.346 N 
HETATM   14  C14 UNL     1      38.349  29.268  24.639  1.00  0.00     0.225 C 
HETATM   15  O4  UNL     1      37.605  28.786  23.735  1.00  0.00    -0.273 OA
ATOM     16  H3  UNL     1      38.434  29.809  26.654  1.00  0.00     0.163 HD
BRANCH  14  17
HETATM   17  C15 UNL     1      39.732  29.638  24.261  1.00  0.00     0.110 A 
HETATM   18  C16 UNL     1      40.459  30.431  25.323  1.00  0.00     0.050 A 
HETATM   19  C17 UNL     1      40.112  31.030  23.994  1.00  0.00     0.088 A 
HETATM   20 BR1  UNL     1      41.648  31.393  22.868  1.00  0.00    -0.072 Br
HETATM   21 BR2  UNL     1      38.771  32.432  23.938  1.00  0.00    -0.072 Br
ENDBRANCH  14  17
ENDBRANCH   9  13
ENDBRANCH   8   9
ENDBRANCH   1   8
BRANCH   4  22
HETATM   22  C8  UNL     1      33.022  31.056  21.123  1.00  0.00    -0.007 A 
HETATM   23  C9  UNL     1      32.753  32.323  20.660  1.00  0.00     0.015 A 
HETATM   24  C10 UNL     1      32.152  32.436  19.421  1.00  0.00     0.021 A 
HETATM   25  C11 UNL     1      31.834  31.324  18.675  1.00  0.00     0.122 A 
HETATM   26  N1  UNL     1      32.098  30.097  19.133  1.00  0.00    -0.246 N 
HETATM   27  C12 UNL     1      32.691  29.956  20.352  1.00  0.00     0.134 A 
BRANCH  26  28
HETATM   28  O3  UNL     1      31.756  29.030  18.342  1.00  0.00    -0.284 OA
ATOM     29  H3  UNL     1      31.392  28.262  18.765  1.00  0.00     0.245 HD
ENDBRANCH  26  28
ENDBRANCH   4  22
TORSDOF 7
ENDMDL
