MODEL 1
REMARK VINA RESULT: -7.918809329      0.000      0.000
REMARK  6 active torsions:
REMARK  status: ('A' for Active; 'I' for Inactive)
REMARK    1  A    between atoms: C2_2  and  C3_3 
REMARK    2  A    between atoms: C3_3  and  N1_4 
REMARK    3  A    between atoms: C3_3  and  C10_16 
REMARK    4  A    between atoms: N1_4  and  S1_6 
REMARK    5  A    between atoms: S1_6  and  C4_9 
REMARK       I    between atoms: C10_16  and  N2_18 
REMARK    6  A    between atoms: N2_18  and  C11_20 
ROOT
HETATM    1  C3  UNL     1      34.157  30.113  24.852  1.00  0.00     0.185 C 
ENDROOT
BRANCH   1   2
HETATM    2  C2  UNL     1      32.752  29.654  25.176  1.00  0.00     0.031 C 
HETATM    3  C1  UNL     1      32.352  30.029  26.584  1.00  0.00     0.007 C 
ENDBRANCH   1   2
BRANCH   1   4
HETATM    4  N1  UNL     1      35.134  29.489  25.693  1.00  0.00    -0.302 N 
ATOM      5  H1  UNL     1      35.199  28.477  25.803  1.00  0.00     0.173 HD
BRANCH   4   6
HETATM    6  S1  UNL     1      36.179  30.569  26.496  1.00  0.00     0.259 S 
HETATM    7  O1  UNL     1      36.867  29.801  27.604  1.00  0.00    -0.201 OA
HETATM    8  O2  UNL     1      35.438  31.697  27.147  1.00  0.00    -0.201 OA
BRANCH   6   9
HETATM    9  C4  UNL     1      37.412  31.241  25.460  1.00  0.00     0.079 A 
HETATM   10  C5  UNL     1      38.730  30.840  25.483  1.00  0.00     0.026 A 
HETATM   11  C6  UNL     1      39.715  31.359  24.674  1.00  0.00     0.020 A 
HETATM   12  C7  UNL     1      39.379  32.342  23.780  1.00  0.00     0.011 A 
HETATM   13 BR1  UNL     1      40.714  33.094  22.636  1.00  0.00    -0.051 Br
HETATM   14  C8  UNL     1      38.075  32.771  23.726  1.00  0.00     0.020 A 
HETATM   15  C9  UNL     1      37.115  32.233  24.546  1.00  0.00     0.026 A 
ENDBRANCH   6   9
ENDBRANCH   4   6
ENDBRANCH   1   4
BRANCH   1  16
HETATM   16  C10 UNL     1      34.403  29.801  23.428  1.00  0.00     0.246 C 
HETATM   17  O3  UNL     1      34.575  28.612  23.091  1.00  0.00    -0.271 OA
HETATM   18  N2  UNL     1      34.451  30.805  22.442  1.00  0.00    -0.310 N 
ATOM     19  H2  UNL     1      35.232  31.460  22.451  1.00  0.00     0.170 HD
BRANCH  18  20
HETATM   20  C11 UNL     1      33.563  30.929  21.540  1.00  0.00     0.122 A 
HETATM   21  C12 UNL     1      33.369  32.119  20.917  1.00  0.00     0.053 A 
HETATM   22  C13 UNL     1      32.404  32.233  19.947  1.00  0.00     0.042 A 
HETATM   23  C14 UNL     1      31.631  31.125  19.612  1.00  0.00     0.094 A 
HETATM   24 BR2  UNL     1      30.277  31.251  18.262  1.00  0.00    -0.030 Br
HETATM   25  N3  UNL     1      31.869  29.976  20.263  1.00  0.00    -0.292 N 
HETATM   26  N4  UNL     1      32.813  29.870  21.209  1.00  0.00    -0.285 N 
ATOM     27  H3  UNL     1      31.311  29.155  20.030  1.00  0.00     0.187 HD
ATOM     28  H4  UNL     1      32.962  28.977  21.679  1.00  0.00     0.188 HD
ENDBRANCH  18  20
ENDBRANCH   1  16
TORSDOF 6
ENDMDL
MODEL 2
REMARK VINA RESULT: -7.891344634      3.241      3.743
REMARK  6 active torsions:
REMARK  status: ('A' for Active; 'I' for Inactive)
REMARK    1  A    between atoms: C2_2  and  C3_3 
REMARK    2  A    between atoms: C3_3  and  N1_4 
REMARK    3  A    between atoms: C3_3  and  C10_16 
REMARK    4  A    between atoms: N1_4  and  S1_6 
REMARK    5  A    between atoms: S1_6  and  C4_9 
REMARK       I    between atoms: C10_16  and  N2_18 
REMARK    6  A    between atoms: N2_18  and  C11_20 
ROOT
HETATM    1  C3  UNL     1      34.812  29.968  24.989  1.00  0.00     0.185 C 
ENDROOT
BRANCH   1   2
HETATM    2  C2  UNL     1      34.679  30.052  26.495  1.00  0.00     0.031 C 
HETATM    3  C1  UNL     1      35.517  31.170  27.070  1.00  0.00     0.007 C 
ENDBRANCH   1   2
BRANCH   1   4
HETATM    4  N1  UNL     1      35.721  28.937  24.587  1.00  0.00    -0.302 N 
ATOM      5  H1  UNL     1      35.538  27.947  24.754  1.00  0.00     0.173 HD
BRANCH   4   6
HETATM    6  S1  UNL     1      37.132  29.492  23.809  1.00  0.00     0.259 S 
HETATM    7  O1  UNL     1      38.314  29.093  24.667  1.00  0.00    -0.201 OA
HETATM    8  O2  UNL     1      37.166  30.985  23.694  1.00  0.00    -0.201 OA
BRANCH   6   9
HETATM    9  C4  UNL     1      37.363  28.808  22.221  1.00  0.00     0.079 A 
HETATM   10  C5  UNL     1      36.338  28.594  21.325  1.00  0.00     0.026 A 
HETATM   11  C6  UNL     1      36.502  28.056  20.070  1.00  0.00     0.020 A 
HETATM   12  C7  UNL     1      37.764  27.703  19.667  1.00  0.00     0.011 A 
HETATM   13 BR1  UNL     1      38.040  26.950  17.932  1.00  0.00    -0.051 Br
HETATM   14  C8  UNL     1      38.814  27.899  20.531  1.00  0.00     0.020 A 
HETATM   15  C9  UNL     1      38.617  28.438  21.777  1.00  0.00     0.026 A 
ENDBRANCH   6   9
ENDBRANCH   4   6
ENDBRANCH   1   4
BRANCH   1  16
HETATM   16  C10 UNL     1      33.461  29.731  24.442  1.00  0.00     0.246 C 
HETATM   17  O3  UNL     1      32.468  30.113  25.094  1.00  0.00    -0.271 OA
HETATM   18  N2  UNL     1      33.259  29.084  23.207  1.00  0.00    -0.310 N 
ATOM     19  H2  UNL     1      33.482  28.091  23.135  1.00  0.00     0.170 HD
BRANCH  18  20
HETATM   20  C11 UNL     1      32.812  29.683  22.179  1.00  0.00     0.122 A 
HETATM   21  C12 UNL     1      33.384  30.834  21.742  1.00  0.00     0.053 A 
HETATM   22  C13 UNL     1      32.885  31.465  20.630  1.00  0.00     0.042 A 
HETATM   23  C14 UNL     1      31.793  30.920  19.961  1.00  0.00     0.094 A 
HETATM   24 BR2  UNL     1      31.073  31.778  18.406  1.00  0.00    -0.030 Br
HETATM   25  N3  UNL     1      31.270  29.781  20.441  1.00  0.00    -0.292 N 
HETATM   26  N4  UNL     1      31.762  29.167  21.527  1.00  0.00    -0.285 N 
ATOM     27  H3  UNL     1      30.469  29.368  19.962  1.00  0.00     0.187 HD
ATOM     28  H4  UNL     1      31.334  28.303  21.857  1.00  0.00     0.188 HD
ENDBRANCH  18  20
ENDBRANCH   1  16
TORSDOF 6
ENDMDL
MODEL 3
REMARK VINA RESULT: -7.848203127      3.356      7.113
REMARK  6 active torsions:
REMARK  status: ('A' for Active; 'I' for Inactive)
REMARK    1  A    between atoms: C2_2  and  C3_3 
REMARK    2  A    between atoms: C3_3  and  N1_4 
REMARK    3  A    between atoms: C3_3  and  C10_16 
REMARK    4  A    between atoms: N1_4  and  S1_6 
REMARK    5  A    between atoms: S1_6  and  C4_9 
REMARK       I    between atoms: C10_16  and  N2_18 
REMARK    6  A    between atoms: N2_18  and  C11_20 
ROOT
HETATM    1  C3  UNL     1      35.673  31.321  24.949  1.00  0.00     0.185 C 
ENDROOT
BRANCH   1   2
HETATM    2  C2  UNL     1      36.369  32.660  24.839  1.00  0.00     0.031 C 
HETATM    3  C1  UNL     1      36.417  33.150  23.411  1.00  0.00     0.007 C 
ENDBRANCH   1   2
BRANCH   1   4
HETATM    4  N1  UNL     1      36.237  30.348  24.062  1.00  0.00    -0.302 N 
ATOM      5  H1  UNL     1      37.228  30.332  23.823  1.00  0.00     0.173 HD
BRANCH   4   6
HETATM    6  S1  UNL     1      35.122  29.220  23.438  1.00  0.00     0.259 S 
HETATM    7  O1  UNL     1      34.210  28.803  24.572  1.00  0.00    -0.201 OA
HETATM    8  O2  UNL     1      35.792  27.975  22.943  1.00  0.00    -0.201 OA
BRANCH   6   9
HETATM    9  C4  UNL     1      34.129  29.863  22.155  1.00  0.00     0.079 A 
HETATM   10  C5  UNL     1      33.747  31.185  22.076  1.00  0.00     0.026 A 
HETATM   11  C6  UNL     1      32.964  31.708  21.072  1.00  0.00     0.020 A 
HETATM   12  C7  UNL     1      32.527  30.872  20.078  1.00  0.00     0.011 A 
HETATM   13 BR1  UNL     1      31.437  31.555  18.663  1.00  0.00    -0.051 Br
HETATM   14  C8  UNL     1      32.886  29.547  20.121  1.00  0.00     0.020 A 
HETATM   15  C9  UNL     1      33.668  29.055  21.135  1.00  0.00     0.026 A 
ENDBRANCH   6   9
ENDBRANCH   4   6
ENDBRANCH   1   4
BRANCH   1  16
HETATM   16  C10 UNL     1      35.782  30.885  26.357  1.00  0.00     0.246 C 
HETATM   17  O3  UNL     1      34.926  31.274  27.178  1.00  0.00    -0.271 OA
HETATM   18  N2  UNL     1      36.822  30.046  26.800  1.00  0.00    -0.310 N 
ATOM     19  H2  UNL     1      37.772  30.417  26.823  1.00  0.00     0.170 HD
BRANCH  18  20
HETATM   20  C11 UNL     1      36.630  28.845  27.171  1.00  0.00     0.122 A 
HETATM   21  C12 UNL     1      37.666  28.073  27.589  1.00  0.00     0.053 A 
HETATM   22  C13 UNL     1      37.436  26.779  27.985  1.00  0.00     0.042 A 
HETATM   23  C14 UNL     1      36.142  26.268  27.954  1.00  0.00     0.094 A 
HETATM   24 BR2  UNL     1      35.790  24.466  28.500  1.00  0.00    -0.030 Br
HETATM   25  N3  UNL     1      35.160  27.079  27.530  1.00  0.00    -0.292 N 
HETATM   26  N4  UNL     1      35.389  28.343  27.145  1.00  0.00    -0.285 N 
ATOM     27  H3  UNL     1      34.206  26.720  27.500  1.00  0.00     0.187 HD
ATOM     28  H4  UNL     1      34.613  28.925  26.831  1.00  0.00     0.188 HD
ENDBRANCH  18  20
ENDBRANCH   1  16
TORSDOF 6
ENDMDL
MODEL 4
REMARK VINA RESULT: -7.776514352      3.260      4.402
REMARK  6 active torsions:
REMARK  status: ('A' for Active; 'I' for Inactive)
REMARK    1  A    between atoms: C2_2  and  C3_3 
REMARK    2  A    between atoms: C3_3  and  N1_4 
REMARK    3  A    between atoms: C3_3  and  C10_16 
REMARK    4  A    between atoms: N1_4  and  S1_6 
REMARK    5  A    between atoms: S1_6  and  C4_9 
REMARK       I    between atoms: C10_16  and  N2_18 
REMARK    6  A    between atoms: N2_18  and  C11_20 
ROOT
HETATM    1  C3  UNL     1      33.590  30.872  21.671  1.00  0.00     0.185 C 
ENDROOT
BRANCH   1   2
HETATM    2  C2  UNL     1      32.839  32.020  21.031  1.00  0.00     0.031 C 
HETATM    3  C1  UNL     1      33.556  33.336  21.226  1.00  0.00     0.007 C 
ENDBRANCH   1   2
BRANCH   1   4
HETATM    4  N1  UNL     1      33.027  30.499  22.934  1.00  0.00    -0.302 N 
ATOM      5  H1  UNL     1      32.022  30.496  23.108  1.00  0.00     0.173 HD
BRANCH   4   6
HETATM    6  S1  UNL     1      34.167  30.063  24.122  1.00  0.00     0.259 S 
HETATM    7  O1  UNL     1      34.383  28.568  24.022  1.00  0.00    -0.201 OA
HETATM    8  O2  UNL     1      33.673  30.336  25.511  1.00  0.00    -0.201 OA
BRANCH   6   9
HETATM    9  C4  UNL     1      35.714  30.846  23.921  1.00  0.00     0.079 A 
HETATM   10  C5  UNL     1      35.893  32.210  23.984  1.00  0.00     0.026 A 
HETATM   11  C6  UNL     1      37.104  32.843  23.827  1.00  0.00     0.020 A 
HETATM   12  C7  UNL     1      38.217  32.080  23.590  1.00  0.00     0.011 A 
HETATM   13 BR1  UNL     1      39.922  32.917  23.365  1.00  0.00    -0.051 Br
HETATM   14  C8  UNL     1      38.082  30.715  23.519  1.00  0.00     0.020 A 
HETATM   15  C9  UNL     1      36.860  30.113  23.681  1.00  0.00     0.026 A 
ENDBRANCH   6   9
ENDBRANCH   4   6
ENDBRANCH   1   4
BRANCH   1  16
HETATM   16  C10 UNL     1      33.557  29.742  20.719  1.00  0.00     0.246 C 
HETATM   17  O3  UNL     1      32.877  29.849  19.678  1.00  0.00    -0.271 OA
HETATM   18  N2  UNL     1      34.268  28.550  20.952  1.00  0.00    -0.310 N 
ATOM     19  H2  UNL     1      33.963  27.941  21.711  1.00  0.00     0.170 HD
BRANCH  18  20
HETATM   20  C11 UNL     1      35.273  28.198  20.257  1.00  0.00     0.122 A 
HETATM   21  C12 UNL     1      36.513  28.144  20.806  1.00  0.00     0.053 A 
HETATM   22  C13 UNL     1      37.584  27.763  20.038  1.00  0.00     0.042 A 
HETATM   23  C14 UNL     1      37.390  27.435  18.700  1.00  0.00     0.094 A 
HETATM   24 BR2  UNL     1      38.866  26.899  17.601  1.00  0.00    -0.030 Br
HETATM   25  N3  UNL     1      36.142  27.508  18.213  1.00  0.00    -0.292 N 
HETATM   26  N4  UNL     1      35.098  27.881  18.967  1.00  0.00    -0.285 N 
ATOM     27  H3  UNL     1      35.982  27.272  17.234  1.00  0.00     0.187 HD
ATOM     28  H4  UNL     1      34.165  27.922  18.557  1.00  0.00     0.188 HD
ENDBRANCH  18  20
ENDBRANCH   1  16
TORSDOF 6
ENDMDL
MODEL 5
REMARK VINA RESULT: -7.713417540      2.397      3.139
REMARK  6 active torsions:
REMARK  status: ('A' for Active; 'I' for Inactive)
REMARK    1  A    between atoms: C2_2  and  C3_3 
REMARK    2  A    between atoms: C3_3  and  N1_4 
REMARK    3  A    between atoms: C3_3  and  C10_16 
REMARK    4  A    between atoms: N1_4  and  S1_6 
REMARK    5  A    between atoms: S1_6  and  C4_9 
REMARK       I    between atoms: C10_16  and  N2_18 
REMARK    6  A    between atoms: N2_18  and  C11_20 
ROOT
HETATM    1  C3  UNL     1      35.142  29.296  24.317  1.00  0.00     0.185 C 
ENDROOT
BRANCH   1   2
HETATM    2  C2  UNL     1      35.951  28.352  23.454  1.00  0.00     0.031 C 
HETATM    3  C1  UNL     1      36.986  29.090  22.636  1.00  0.00     0.007 C 
ENDBRANCH   1   2
BRANCH   1   4
HETATM    4  N1  UNL     1      35.616  30.645  24.228  1.00  0.00    -0.302 N 
ATOM      5  H1  UNL     1      35.680  31.147  23.343  1.00  0.00     0.173 HD
BRANCH   4   6
HETATM    6  S1  UNL     1      36.062  31.344  25.716  1.00  0.00     0.259 S 
HETATM    7  O1  UNL     1      34.859  31.277  26.633  1.00  0.00    -0.201 OA
HETATM    8  O2  UNL     1      36.418  32.793  25.578  1.00  0.00    -0.201 OA
BRANCH   6   9
HETATM    9  C4  UNL     1      37.385  30.521  26.501  1.00  0.00     0.079 A 
HETATM   10  C5  UNL     1      38.599  30.277  25.896  1.00  0.00     0.026 A 
HETATM   11  C6  UNL     1      39.651  29.628  26.499  1.00  0.00     0.020 A 
HETATM   12  C7  UNL     1      39.500  29.189  27.789  1.00  0.00     0.011 A 
HETATM   13 BR1  UNL     1      40.936  28.283  28.668  1.00  0.00    -0.051 Br
HETATM   14  C8  UNL     1      38.305  29.412  28.428  1.00  0.00     0.020 A 
HETATM   15  C9  UNL     1      37.273  30.062  27.799  1.00  0.00     0.026 A 
ENDBRANCH   6   9
ENDBRANCH   4   6
ENDBRANCH   1   4
BRANCH   1  16
HETATM   16  C10 UNL     1      33.735  29.195  23.878  1.00  0.00     0.246 C 
HETATM   17  O3  UNL     1      32.830  29.534  24.667  1.00  0.00    -0.271 OA
HETATM   18  N2  UNL     1      33.385  28.726  22.597  1.00  0.00    -0.310 N 
ATOM     19  H2  UNL     1      33.542  27.742  22.379  1.00  0.00     0.170 HD
BRANCH  18  20
HETATM   20  C11 UNL     1      32.882  29.475  21.701  1.00  0.00     0.122 A 
HETATM   21  C12 UNL     1      33.424  30.689  21.427  1.00  0.00     0.053 A 
HETATM   22  C13 UNL     1      32.866  31.482  20.457  1.00  0.00     0.042 A 
HETATM   23  C14 UNL     1      31.745  31.036  19.762  1.00  0.00     0.094 A 
HETATM   24 BR2  UNL     1      30.942  32.120  18.402  1.00  0.00    -0.030 Br
HETATM   25  N3  UNL     1      31.254  29.828  20.079  1.00  0.00    -0.292 N 
HETATM   26  N4  UNL     1      31.804  29.055  21.027  1.00  0.00    -0.285 N 
ATOM     27  H3  UNL     1      30.433  29.485  19.580  1.00  0.00     0.187 HD
ATOM     28  H4  UNL     1      31.400  28.143  21.235  1.00  0.00     0.188 HD
ENDBRANCH  18  20
ENDBRANCH   1  16
TORSDOF 6
ENDMDL
