MODEL 1
REMARK VINA RESULT: -8.439919307      0.000      0.000
REMARK  5 active torsions:
REMARK  status: ('A' for Active; 'I' for Inactive)
REMARK       I    between atoms: C1_2  and  N1_3 
REMARK    1  A    between atoms: C1_2  and  C13_18 
REMARK    2  A    between atoms: N1_3  and  C2_5 
REMARK    3  A    between atoms: C2_5  and  C3_6 
REMARK       I    between atoms: C3_6  and  N2_8 
REMARK       I    between atoms: C13_18  and  N3_20 
REMARK    4  A    between atoms: N3_20  and  C14_21 
REMARK    5  A    between atoms: C14_21  and  C15_22 
ROOT
HETATM    1  O1  UNL     1      35.165  27.837  27.369  1.00  0.00    -0.261 OA
HETATM    2  C1  UNL     1      36.279  28.313  27.626  1.00  0.00     0.324 C 
HETATM    3  N1  UNL     1      36.500  29.699  27.547  1.00  0.00    -0.343 N 
ATOM      4  H1  UNL     1      37.419  30.084  27.762  1.00  0.00     0.163 HD
ENDROOT
BRANCH   2   5
HETATM    5  C13 UNL     1      37.366  27.375  28.016  1.00  0.00     0.383 C 
HETATM    6  O3  UNL     1      38.540  27.855  27.939  1.00  0.00    -0.246 OA
HETATM    7  N3  UNL     1      37.010  26.117  28.414  1.00  0.00    -0.379 NA
BRANCH   7   8
HETATM    8  C14 UNL     1      36.656  24.862  28.810  1.00  0.00     0.175 C 
BRANCH   8   9
HETATM    9  C15 UNL     1      37.234  24.229  30.042  1.00  0.00     0.071 C 
HETATM   10  C16 UNL     1      38.006  25.238  30.895  1.00  0.00     0.027 C 
HETATM   11  C17 UNL     1      38.747  24.485  31.964  1.00  0.00    -0.012 C 
HETATM   12  C18 UNL     1      39.716  23.454  31.415  1.00  0.00     0.009 C 
HETATM   13  C22 UNL     1      37.716  23.801  32.860  1.00  0.00     0.015 C 
HETATM   14  C19 UNL     1      38.947  22.462  30.602  1.00  0.00    -0.012 C 
HETATM   15  C20 UNL     1      37.942  21.745  31.479  1.00  0.00     0.015 C 
HETATM   16  C24 UNL     1      38.261  23.215  29.499  1.00  0.00     0.027 C 
HETATM   17  C21 UNL     1      37.002  22.769  32.010  1.00  0.00     0.060 C 
HETATM   18  C23 UNL     1      36.259  23.489  30.882  1.00  0.00     0.260 C 
HETATM   19  F1  UNL     1      35.561  22.602  30.124  1.00  0.00    -0.205 F 
HETATM   20  F2  UNL     1      35.390  24.345  31.583  1.00  0.00    -0.205 F 
ENDBRANCH   8   9
ENDBRANCH   7   8
ENDBRANCH   2   5
BRANCH   3  21
HETATM   21  C2  UNL     1      35.431  30.567  27.164  1.00  0.00     0.226 C 
BRANCH  21  22
HETATM   22  C3  UNL     1      35.635  31.217  25.858  1.00  0.00     0.237 C 
HETATM   23  O2  UNL     1      36.468  32.150  25.748  1.00  0.00    -0.272 OA
HETATM   24  N2  UNL     1      34.903  30.800  24.743  1.00  0.00    -0.350 N 
HETATM   25  C4  UNL     1      35.084  31.457  23.473  1.00  0.00     0.131 C 
HETATM   26  C9  UNL     1      33.972  29.709  24.861  1.00  0.00     0.131 C 
HETATM   27  C5  UNL     1      35.005  30.486  22.315  1.00  0.00     0.012 C 
HETATM   28  C6  UNL     1      36.067  29.405  22.511  1.00  0.00     0.007 C 
HETATM   29  C10 UNL     1      33.752  29.691  22.413  1.00  0.00    -0.030 A 
HETATM   30  C7  UNL     1      35.405  28.365  23.415  1.00  0.00     0.007 C 
HETATM   31  C8  UNL     1      33.980  28.827  23.626  1.00  0.00     0.012 C 
HETATM   32  C11 UNL     1      32.416  30.203  22.063  1.00  0.00     0.011 A 
HETATM   33  C12 UNL     1      33.085  29.086  21.255  1.00  0.00     0.011 A 
ENDBRANCH  21  22
ENDBRANCH   3  21
TORSDOF 5
ENDMDL
MODEL 2
REMARK VINA RESULT: -8.403536434      1.526      2.206
REMARK  5 active torsions:
REMARK  status: ('A' for Active; 'I' for Inactive)
REMARK       I    between atoms: C1_2  and  N1_3 
REMARK    1  A    between atoms: C1_2  and  C13_18 
REMARK    2  A    between atoms: N1_3  and  C2_5 
REMARK    3  A    between atoms: C2_5  and  C3_6 
REMARK       I    between atoms: C3_6  and  N2_8 
REMARK       I    between atoms: C13_18  and  N3_20 
REMARK    4  A    between atoms: N3_20  and  C14_21 
REMARK    5  A    between atoms: C14_21  and  C15_22 
ROOT
HETATM    1  O1  UNL     1      37.182  26.959  27.195  1.00  0.00    -0.261 OA
HETATM    2  C1  UNL     1      36.063  26.675  27.644  1.00  0.00     0.324 C 
HETATM    3  N1  UNL     1      34.986  27.565  27.496  1.00  0.00    -0.343 N 
ATOM      4  H1  UNL     1      34.068  27.322  27.866  1.00  0.00     0.163 HD
ENDROOT
BRANCH   2   5
HETATM    5  C13 UNL     1      35.902  25.370  28.340  1.00  0.00     0.383 C 
HETATM    6  O3  UNL     1      34.716  24.914  28.353  1.00  0.00    -0.246 OA
HETATM    7  N3  UNL     1      37.017  24.796  28.885  1.00  0.00    -0.379 NA
BRANCH   7   8
HETATM    8  C14 UNL     1      38.127  24.224  29.430  1.00  0.00     0.175 C 
BRANCH   8   9
HETATM    9  C15 UNL     1      38.180  23.819  30.874  1.00  0.00     0.071 C 
HETATM   10  C16 UNL     1      38.758  24.925  31.758  1.00  0.00     0.027 C 
HETATM   11  C17 UNL     1      39.000  24.358  33.129  1.00  0.00    -0.012 C 
HETATM   12  C18 UNL     1      39.948  23.172  33.133  1.00  0.00     0.009 C 
HETATM   13  C22 UNL     1      37.651  23.943  33.713  1.00  0.00     0.015 C 
HETATM   14  C19 UNL     1      39.362  22.090  32.284  1.00  0.00    -0.012 C 
HETATM   15  C20 UNL     1      38.039  21.638  32.865  1.00  0.00     0.015 C 
HETATM   16  C24 UNL     1      39.182  22.647  30.900  1.00  0.00     0.027 C 
HETATM   17  C21 UNL     1      37.124  22.810  32.856  1.00  0.00     0.060 C 
HETATM   18  C23 UNL     1      36.893  23.335  31.436  1.00  0.00     0.260 C 
HETATM   19  F1  UNL     1      36.370  22.361  30.644  1.00  0.00    -0.205 F 
HETATM   20  F2  UNL     1      35.966  24.373  31.637  1.00  0.00    -0.205 F 
ENDBRANCH   8   9
ENDBRANCH   7   8
ENDBRANCH   2   5
BRANCH   3  21
HETATM   21  C2  UNL     1      35.182  28.811  26.824  1.00  0.00     0.226 C 
BRANCH  21  22
HETATM   22  C3  UNL     1      34.157  29.103  25.807  1.00  0.00     0.237 C 
HETATM   23  O2  UNL     1      33.050  29.582  26.155  1.00  0.00    -0.272 OA
HETATM   24  N2  UNL     1      34.413  28.849  24.457  1.00  0.00    -0.350 N 
HETATM   25  C4  UNL     1      33.399  29.110  23.467  1.00  0.00     0.131 C 
HETATM   26  C9  UNL     1      35.694  28.331  24.053  1.00  0.00     0.131 C 
HETATM   27  C5  UNL     1      33.987  29.643  22.179  1.00  0.00     0.012 C 
HETATM   28  C6  UNL     1      34.768  30.919  22.490  1.00  0.00     0.007 C 
HETATM   29  C10 UNL     1      35.071  28.739  21.712  1.00  0.00    -0.030 A 
HETATM   30  C7  UNL     1      36.155  30.437  22.911  1.00  0.00     0.007 C 
HETATM   31  C8  UNL     1      36.156  28.934  22.739  1.00  0.00     0.012 C 
HETATM   32  C11 UNL     1      34.843  27.440  21.058  1.00  0.00     0.011 A 
HETATM   33  C12 UNL     1      35.473  28.617  20.306  1.00  0.00     0.011 A 
ENDBRANCH  21  22
ENDBRANCH   3  21
TORSDOF 5
ENDMDL
MODEL 3
REMARK VINA RESULT: -8.365653763      4.405      7.884
REMARK  5 active torsions:
REMARK  status: ('A' for Active; 'I' for Inactive)
REMARK       I    between atoms: C1_2  and  N1_3 
REMARK    1  A    between atoms: C1_2  and  C13_18 
REMARK    2  A    between atoms: N1_3  and  C2_5 
REMARK    3  A    between atoms: C2_5  and  C3_6 
REMARK       I    between atoms: C3_6  and  N2_8 
REMARK       I    between atoms: C13_18  and  N3_20 
REMARK    4  A    between atoms: N3_20  and  C14_21 
REMARK    5  A    between atoms: C14_21  and  C15_22 
ROOT
HETATM    1  O1  UNL     1      39.231  27.074  27.253  1.00  0.00    -0.261 OA
HETATM    2  C1  UNL     1      38.585  28.094  26.977  1.00  0.00     0.324 C 
HETATM    3  N1  UNL     1      38.965  28.910  25.898  1.00  0.00    -0.343 N 
ATOM      4  H1  UNL     1      38.427  29.747  25.675  1.00  0.00     0.163 HD
ENDROOT
BRANCH   2   5
HETATM    5  C13 UNL     1      37.403  28.421  27.820  1.00  0.00     0.383 C 
HETATM    6  O3  UNL     1      37.617  28.397  29.072  1.00  0.00    -0.246 OA
HETATM    7  N3  UNL     1      36.228  28.711  27.185  1.00  0.00    -0.379 NA
BRANCH   7   8
HETATM    8  C14 UNL     1      35.056  28.999  26.553  1.00  0.00     0.175 C 
BRANCH   8   9
HETATM    9  C15 UNL     1      34.995  29.243  25.074  1.00  0.00     0.071 C 
HETATM   10  C16 UNL     1      35.650  28.111  24.280  1.00  0.00     0.027 C 
HETATM   11  C17 UNL     1      35.763  28.542  22.844  1.00  0.00    -0.012 C 
HETATM   12  C18 UNL     1      36.571  29.813  22.657  1.00  0.00     0.009 C 
HETATM   13  C22 UNL     1      34.350  28.743  22.300  1.00  0.00     0.015 C 
HETATM   14  C19 UNL     1      35.909  30.915  23.419  1.00  0.00    -0.012 C 
HETATM   15  C20 UNL     1      34.518  31.157  22.873  1.00  0.00     0.015 C 
HETATM   16  C24 UNL     1      35.858  30.503  24.862  1.00  0.00     0.027 C 
HETATM   17  C21 UNL     1      33.740  29.903  23.060  1.00  0.00     0.060 C 
HETATM   18  C23 UNL     1      33.637  29.522  24.540  1.00  0.00     0.260 C 
HETATM   19  F1  UNL     1      33.047  30.518  25.252  1.00  0.00    -0.205 F 
HETATM   20  F2  UNL     1      32.823  28.375  24.507  1.00  0.00    -0.205 F 
ENDBRANCH   8   9
ENDBRANCH   7   8
ENDBRANCH   2   5
BRANCH   3  21
HETATM   21  C2  UNL     1      40.109  28.565  25.115  1.00  0.00     0.226 C 
BRANCH  21  22
HETATM   22  C3  UNL     1      40.162  29.248  23.811  1.00  0.00     0.237 C 
HETATM   23  O2  UNL     1      39.811  28.638  22.771  1.00  0.00    -0.272 OA
HETATM   24  N2  UNL     1      40.604  30.572  23.728  1.00  0.00    -0.350 N 
HETATM   25  C4  UNL     1      40.682  31.228  22.447  1.00  0.00     0.131 C 
HETATM   26  C9  UNL     1      40.976  31.282  24.923  1.00  0.00     0.131 C 
HETATM   27  C5  UNL     1      40.295  32.688  22.533  1.00  0.00     0.012 C 
HETATM   28  C6  UNL     1      38.877  32.785  23.095  1.00  0.00     0.007 C 
HETATM   29  C10 UNL     1      41.084  33.353  23.604  1.00  0.00    -0.030 A 
HETATM   30  C7  UNL     1      39.054  32.753  24.613  1.00  0.00     0.007 C 
HETATM   31  C8  UNL     1      40.545  32.737  24.869  1.00  0.00     0.012 C 
HETATM   32  C11 UNL     1      42.497  33.745  23.471  1.00  0.00     0.011 A 
HETATM   33  C12 UNL     1      41.383  34.789  23.615  1.00  0.00     0.011 A 
ENDBRANCH  21  22
ENDBRANCH   3  21
TORSDOF 5
ENDMDL
MODEL 4
REMARK VINA RESULT: -8.298516978      2.916      9.864
REMARK  5 active torsions:
REMARK  status: ('A' for Active; 'I' for Inactive)
REMARK       I    between atoms: C1_2  and  N1_3 
REMARK    1  A    between atoms: C1_2  and  C13_18 
REMARK    2  A    between atoms: N1_3  and  C2_5 
REMARK    3  A    between atoms: C2_5  and  C3_6 
REMARK       I    between atoms: C3_6  and  N2_8 
REMARK       I    between atoms: C13_18  and  N3_20 
REMARK    4  A    between atoms: N3_20  and  C14_21 
REMARK    5  A    between atoms: C14_21  and  C15_22 
ROOT
HETATM    1  O1  UNL     1      34.671  25.589  28.364  1.00  0.00    -0.261 OA
HETATM    2  C1  UNL     1      35.865  25.560  28.036  1.00  0.00     0.324 C 
HETATM    3  N1  UNL     1      36.602  24.367  28.127  1.00  0.00    -0.343 N 
ATOM      4  H1  UNL     1      37.584  24.350  27.853  1.00  0.00     0.163 HD
ENDROOT
BRANCH   2   5
HETATM    5  C13 UNL     1      36.486  26.821  27.549  1.00  0.00     0.383 C 
HETATM    6  O3  UNL     1      37.754  26.855  27.620  1.00  0.00    -0.246 OA
HETATM    7  N3  UNL     1      35.655  27.800  27.079  1.00  0.00    -0.379 NA
BRANCH   7   8
HETATM    8  C14 UNL     1      34.828  28.777  26.612  1.00  0.00     0.175 C 
BRANCH   8   9
HETATM    9  C15 UNL     1      34.946  29.310  25.214  1.00  0.00     0.071 C 
HETATM   10  C16 UNL     1      33.584  29.691  24.630  1.00  0.00     0.027 C 
HETATM   11  C17 UNL     1      33.760  29.980  23.166  1.00  0.00    -0.012 C 
HETATM   12  C18 UNL     1      34.327  28.810  22.383  1.00  0.00     0.009 C 
HETATM   13  C22 UNL     1      34.686  31.188  23.031  1.00  0.00     0.015 C 
HETATM   14  C19 UNL     1      35.666  28.462  22.949  1.00  0.00    -0.012 C 
HETATM   15  C20 UNL     1      36.612  29.634  22.794  1.00  0.00     0.015 C 
HETATM   16  C24 UNL     1      35.471  28.113  24.396  1.00  0.00     0.027 C 
HETATM   17  C21 UNL     1      36.042  30.772  23.563  1.00  0.00     0.060 C 
HETATM   18  C23 UNL     1      35.904  30.433  25.050  1.00  0.00     0.260 C 
HETATM   19  F1  UNL     1      37.112  30.102  25.581  1.00  0.00    -0.205 F 
HETATM   20  F2  UNL     1      35.426  31.637  25.598  1.00  0.00    -0.205 F 
ENDBRANCH   8   9
ENDBRANCH   7   8
ENDBRANCH   2   5
BRANCH   3  21
HETATM   21  C2  UNL     1      35.972  23.177  28.604  1.00  0.00     0.226 C 
BRANCH  21  22
HETATM   22  C3  UNL     1      36.851  22.329  29.427  1.00  0.00     0.237 C 
HETATM   23  O2  UNL     1      37.419  21.335  28.913  1.00  0.00    -0.272 OA
HETATM   24  N2  UNL     1      37.054  22.627  30.777  1.00  0.00    -0.350 N 
HETATM   25  C4  UNL     1      37.894  21.780  31.586  1.00  0.00     0.131 C 
HETATM   26  C9  UNL     1      36.430  23.786  31.359  1.00  0.00     0.131 C 
HETATM   27  C5  UNL     1      38.703  22.573  32.588  1.00  0.00     0.012 C 
HETATM   28  C6  UNL     1      39.551  23.594  31.832  1.00  0.00     0.007 C 
HETATM   29  C10 UNL     1      37.802  23.459  33.372  1.00  0.00    -0.030 A 
HETATM   30  C7  UNL     1      38.632  24.799  31.637  1.00  0.00     0.007 C 
HETATM   31  C8  UNL     1      37.342  24.474  32.358  1.00  0.00     0.012 C 
HETATM   32  C11 UNL     1      36.925  22.996  34.461  1.00  0.00     0.011 A 
HETATM   33  C12 UNL     1      38.109  23.933  34.725  1.00  0.00     0.011 A 
ENDBRANCH  21  22
ENDBRANCH   3  21
TORSDOF 5
ENDMDL
MODEL 5
REMARK VINA RESULT: -8.285241110      2.768      9.444
REMARK  5 active torsions:
REMARK  status: ('A' for Active; 'I' for Inactive)
REMARK       I    between atoms: C1_2  and  N1_3 
REMARK    1  A    between atoms: C1_2  and  C13_18 
REMARK    2  A    between atoms: N1_3  and  C2_5 
REMARK    3  A    between atoms: C2_5  and  C3_6 
REMARK       I    between atoms: C3_6  and  N2_8 
REMARK       I    between atoms: C13_18  and  N3_20 
REMARK    4  A    between atoms: N3_20  and  C14_21 
REMARK    5  A    between atoms: C14_21  and  C15_22 
ROOT
HETATM    1  O1  UNL     1      36.760  25.484  28.349  1.00  0.00    -0.261 OA
HETATM    2  C1  UNL     1      36.779  24.715  27.378  1.00  0.00     0.324 C 
HETATM    3  N1  UNL     1      36.273  23.409  27.491  1.00  0.00    -0.343 N 
ATOM      4  H1  UNL     1      36.290  22.783  26.687  1.00  0.00     0.163 HD
ENDROOT
BRANCH   2   5
HETATM    5  C13 UNL     1      37.350  25.219  26.100  1.00  0.00     0.383 C 
HETATM    6  O3  UNL     1      37.662  24.317  25.261  1.00  0.00    -0.246 OA
HETATM    7  N3  UNL     1      37.480  26.571  25.949  1.00  0.00    -0.379 NA
BRANCH   7   8
HETATM    8  C14 UNL     1      37.611  27.919  25.798  1.00  0.00     0.175 C 
BRANCH   8   9
HETATM    9  C15 UNL     1      36.418  28.829  25.751  1.00  0.00     0.071 C 
HETATM   10  C16 UNL     1      35.431  28.422  24.655  1.00  0.00     0.027 C 
HETATM   11  C17 UNL     1      34.403  29.510  24.515  1.00  0.00    -0.012 C 
HETATM   12  C18 UNL     1      34.998  30.863  24.171  1.00  0.00     0.009 C 
HETATM   13  C22 UNL     1      33.633  29.603  25.831  1.00  0.00     0.015 C 
HETATM   14  C19 UNL     1      35.943  31.259  25.260  1.00  0.00    -0.012 C 
HETATM   15  C20 UNL     1      35.194  31.392  26.570  1.00  0.00     0.015 C 
HETATM   16  C24 UNL     1      37.002  30.198  25.350  1.00  0.00     0.027 C 
HETATM   17  C21 UNL     1      34.615  30.060  26.890  1.00  0.00     0.060 C 
HETATM   18  C23 UNL     1      35.705  28.995  27.043  1.00  0.00     0.260 C 
HETATM   19  F1  UNL     1      36.582  29.342  28.023  1.00  0.00    -0.205 F 
HETATM   20  F2  UNL     1      34.970  27.852  27.407  1.00  0.00    -0.205 F 
ENDBRANCH   8   9
ENDBRANCH   7   8
ENDBRANCH   2   5
BRANCH   3  21
HETATM   21  C2  UNL     1      35.737  22.961  28.737  1.00  0.00     0.226 C 
BRANCH  21  22
HETATM   22  C3  UNL     1      36.690  22.182  29.547  1.00  0.00     0.237 C 
HETATM   23  O2  UNL     1      37.279  21.195  29.042  1.00  0.00    -0.272 OA
HETATM   24  N2  UNL     1      36.939  22.537  30.876  1.00  0.00    -0.350 N 
HETATM   25  C4  UNL     1      37.851  21.757  31.674  1.00  0.00     0.131 C 
HETATM   26  C9  UNL     1      36.289  23.688  31.446  1.00  0.00     0.131 C 
HETATM   27  C5  UNL     1      38.667  22.620  32.611  1.00  0.00     0.012 C 
HETATM   28  C6  UNL     1      39.434  23.649  31.782  1.00  0.00     0.007 C 
HETATM   29  C10 UNL     1      37.762  23.493  33.404  1.00  0.00    -0.030 A 
HETATM   30  C7  UNL     1      38.453  24.805  31.588  1.00  0.00     0.007 C 
HETATM   31  C8  UNL     1      37.213  24.450  32.379  1.00  0.00     0.012 C 
HETATM   32  C11 UNL     1      36.957  23.031  34.547  1.00  0.00     0.011 A 
HETATM   33  C12 UNL     1      38.108  24.028  34.725  1.00  0.00     0.011 A 
ENDBRANCH  21  22
ENDBRANCH   3  21
TORSDOF 5
ENDMDL
