MODEL 1
REMARK VINA RESULT: -7.372783363      0.000      0.000
REMARK  5 active torsions:
REMARK  status: ('A' for Active; 'I' for Inactive)
REMARK    1  A    between atoms: C1_2  and  C2_4 
REMARK    2  A    between atoms: C2_4  and  N1_5 
REMARK       I    between atoms: N1_5  and  C3_7 
REMARK    3  A    between atoms: C3_7  and  C4_9 
REMARK    4  A    between atoms: C10_16  and  C11_17 
REMARK    5  A    between atoms: C11_17  and  C12_19 
ROOT
HETATM    1  C4  UNL     1      34.308  30.517  23.141  1.00  0.00     0.081 C 
HETATM    2  C5  UNL     1      35.118  31.412  24.075  1.00  0.00     0.026 C 
HETATM    3  C6  UNL     1      35.615  30.711  25.291  1.00  0.00    -0.007 C 
HETATM    4  C7  UNL     1      34.512  29.903  25.937  1.00  0.00     0.041 C 
HETATM    5  C8  UNL     1      33.990  28.970  24.836  1.00  0.00     0.228 C 
HETATM    6  C9  UNL     1      33.173  29.862  23.922  1.00  0.00     0.057 C 
HETATM    7  N2  UNL     1      35.044  28.479  24.015  1.00  0.00     0.137 N 
HETATM    8  C10 UNL     1      35.176  29.335  22.841  1.00  0.00     0.313 C 
HETATM    9  C15 UNL     1      36.329  28.409  24.648  1.00  0.00     0.274 C 
HETATM   10 BR1  UNL     1      36.420  27.163  26.093  1.00  0.00    -0.038 Br
HETATM   11 BR2  UNL     1      37.596  27.816  23.282  1.00  0.00    -0.038 Br
HETATM   12  C16 UNL     1      36.792  29.811  25.062  1.00  0.00     0.071 C 
ENDROOT
BRANCH   1  13
HETATM   13  C3  UNL     1      33.842  31.317  22.033  1.00  0.00     0.229 C 
HETATM   14  N1  UNL     1      32.873  30.977  21.055  1.00  0.00    -0.350 N 
ATOM     15  H1  UNL     1      32.444  30.055  21.126  1.00  0.00     0.163 HD
HETATM   16  O3  UNL     1      34.344  32.485  21.883  1.00  0.00    -0.273 OA
BRANCH  14  17
HETATM   17  C2  UNL     1      32.445  31.809  19.984  1.00  0.00     0.235 C 
BRANCH  17  18
HETATM   18  C1  UNL     1      31.873  31.126  18.816  1.00  0.00     0.191 C 
HETATM   19  O1  UNL     1      31.273  31.664  17.856  1.00  0.00    -0.647 OA
HETATM   20  O2  UNL     1      32.031  29.724  18.807  1.00  0.00    -0.647 OA
ENDBRANCH  17  18
ENDBRANCH  14  17
ENDBRANCH   1  13
BRANCH   8  21
HETATM   21  C11 UNL     1      34.823  28.542  21.663  1.00  0.00     0.165 C 
HETATM   22  O4  UNL     1      33.710  28.052  21.581  1.00  0.00    -0.295 OA
BRANCH  21  23
HETATM   23  C12 UNL     1      35.794  28.305  20.529  1.00  0.00     0.058 A 
HETATM   24  C13 UNL     1      35.799  26.905  19.986  1.00  0.00     0.013 A 
HETATM   25  C14 UNL     1      35.207  28.030  19.169  1.00  0.00     0.013 A 
ENDBRANCH  21  23
ENDBRANCH   8  21
TORSDOF 5
ENDMDL
MODEL 2
REMARK VINA RESULT: -7.153018964      1.750      3.691
REMARK  5 active torsions:
REMARK  status: ('A' for Active; 'I' for Inactive)
REMARK    1  A    between atoms: C1_2  and  C2_4 
REMARK    2  A    between atoms: C2_4  and  N1_5 
REMARK       I    between atoms: N1_5  and  C3_7 
REMARK    3  A    between atoms: C3_7  and  C4_9 
REMARK    4  A    between atoms: C10_16  and  C11_17 
REMARK    5  A    between atoms: C11_17  and  C12_19 
ROOT
HETATM    1  C4  UNL     1      35.243  29.730  22.945  1.00  0.00     0.081 C 
HETATM    2  C5  UNL     1      36.173  29.004  21.976  1.00  0.00     0.026 C 
HETATM    3  C6  UNL     1      37.502  28.672  22.561  1.00  0.00    -0.007 C 
HETATM    4  C7  UNL     1      38.090  29.867  23.278  1.00  0.00     0.041 C 
HETATM    5  C8  UNL     1      37.032  30.289  24.307  1.00  0.00     0.228 C 
HETATM    6  C9  UNL     1      35.946  30.967  23.495  1.00  0.00     0.057 C 
HETATM    7  N2  UNL     1      36.392  29.164  24.898  1.00  0.00     0.137 N 
HETATM    8  C10 UNL     1      35.164  28.871  24.168  1.00  0.00     0.313 C 
HETATM    9  C15 UNL     1      37.175  27.962  24.930  1.00  0.00     0.274 C 
HETATM   10 BR1  UNL     1      38.735  28.077  26.026  1.00  0.00    -0.038 Br
HETATM   11 BR2  UNL     1      36.032  26.567  25.683  1.00  0.00    -0.038 Br
HETATM   12  C16 UNL     1      37.502  27.506  23.503  1.00  0.00     0.071 C 
ENDROOT
BRANCH   1  13
HETATM   13  C3  UNL     1      34.015  30.040  22.252  1.00  0.00     0.229 C 
HETATM   14  N1  UNL     1      33.130  29.146  21.597  1.00  0.00    -0.350 N 
ATOM     15  H1  UNL     1      33.380  28.157  21.603  1.00  0.00     0.163 HD
HETATM   16  O3  UNL     1      33.646  31.265  22.202  1.00  0.00    -0.273 OA
BRANCH  14  17
HETATM   17  C2  UNL     1      31.926  29.505  20.931  1.00  0.00     0.235 C 
BRANCH  17  18
HETATM   18  C1  UNL     1      32.056  29.930  19.531  1.00  0.00     0.191 C 
HETATM   19  O1  UNL     1      32.443  29.225  18.569  1.00  0.00    -0.647 OA
HETATM   20  O2  UNL     1      31.705  31.274  19.279  1.00  0.00    -0.647 OA
ENDBRANCH  17  18
ENDBRANCH  14  17
ENDBRANCH   1  13
BRANCH   8  21
HETATM   21  C11 UNL     1      34.036  29.112  25.069  1.00  0.00     0.165 C 
HETATM   22  O4  UNL     1      32.898  29.015  24.644  1.00  0.00    -0.295 OA
BRANCH  21  23
HETATM   23  C12 UNL     1      34.228  29.479  26.522  1.00  0.00     0.058 A 
HETATM   24  C13 UNL     1      34.311  30.953  26.794  1.00  0.00     0.013 A 
HETATM   25  C14 UNL     1      33.083  30.177  27.210  1.00  0.00     0.013 A 
ENDBRANCH  21  23
ENDBRANCH   8  21
TORSDOF 5
ENDMDL
MODEL 3
REMARK VINA RESULT: -7.088878242      2.594      4.599
REMARK  5 active torsions:
REMARK  status: ('A' for Active; 'I' for Inactive)
REMARK    1  A    between atoms: C1_2  and  C2_4 
REMARK    2  A    between atoms: C2_4  and  N1_5 
REMARK       I    between atoms: N1_5  and  C3_7 
REMARK    3  A    between atoms: C3_7  and  C4_9 
REMARK    4  A    between atoms: C10_16  and  C11_17 
REMARK    5  A    between atoms: C11_17  and  C12_19 
ROOT
HETATM    1  C4  UNL     1      36.232  28.496  22.626  1.00  0.00     0.081 C 
HETATM    2  C5  UNL     1      36.658  27.492  23.694  1.00  0.00     0.026 C 
HETATM    3  C6  UNL     1      36.780  28.083  25.055  1.00  0.00    -0.007 C 
HETATM    4  C7  UNL     1      37.559  29.378  25.013  1.00  0.00     0.041 C 
HETATM    5  C8  UNL     1      36.824  30.266  23.999  1.00  0.00     0.228 C 
HETATM    6  C9  UNL     1      37.182  29.690  22.643  1.00  0.00     0.057 C 
HETATM    7  N2  UNL     1      35.412  30.118  24.093  1.00  0.00     0.137 N 
HETATM    8  C10 UNL     1      34.968  29.122  23.124  1.00  0.00     0.313 C 
HETATM    9  C15 UNL     1      34.924  29.718  25.382  1.00  0.00     0.274 C 
HETATM   10 BR1  UNL     1      35.221  31.006  26.761  1.00  0.00    -0.038 Br
HETATM   11 BR2  UNL     1      32.991  29.486  25.202  1.00  0.00    -0.038 Br
HETATM   12  C16 UNL     1      35.475  28.336  25.750  1.00  0.00     0.071 C 
ENDROOT
BRANCH   1  13
HETATM   13  C3  UNL     1      36.199  27.819  21.351  1.00  0.00     0.229 C 
HETATM   14  N1  UNL     1      35.780  26.492  21.076  1.00  0.00    -0.350 N 
ATOM     15  H1  UNL     1      35.464  25.931  21.867  1.00  0.00     0.163 HD
HETATM   16  O3  UNL     1      36.588  28.466  20.318  1.00  0.00    -0.273 OA
BRANCH  14  17
HETATM   17  C2  UNL     1      35.762  25.875  19.795  1.00  0.00     0.235 C 
BRANCH  17  18
HETATM   18  C1  UNL     1      36.889  24.985  19.484  1.00  0.00     0.191 C 
HETATM   19  O1  UNL     1      37.493  24.899  18.390  1.00  0.00    -0.647 OA
HETATM   20  O2  UNL     1      37.305  24.155  20.547  1.00  0.00    -0.647 OA
ENDBRANCH  17  18
ENDBRANCH  14  17
ENDBRANCH   1  13
BRANCH   8  21
HETATM   21  C11 UNL     1      34.134  29.800  22.131  1.00  0.00     0.165 C 
HETATM   22  O4  UNL     1      34.208  31.010  22.010  1.00  0.00    -0.295 OA
BRANCH  21  23
HETATM   23  C12 UNL     1      33.173  29.049  21.237  1.00  0.00     0.058 A 
HETATM   24  C13 UNL     1      31.879  29.762  20.964  1.00  0.00     0.013 A 
HETATM   25  C14 UNL     1      32.913  29.629  19.870  1.00  0.00     0.013 A 
ENDBRANCH  21  23
ENDBRANCH   8  21
TORSDOF 5
ENDMDL
MODEL 4
REMARK VINA RESULT: -6.989230776      1.951      3.989
REMARK  5 active torsions:
REMARK  status: ('A' for Active; 'I' for Inactive)
REMARK    1  A    between atoms: C1_2  and  C2_4 
REMARK    2  A    between atoms: C2_4  and  N1_5 
REMARK       I    between atoms: N1_5  and  C3_7 
REMARK    3  A    between atoms: C3_7  and  C4_9 
REMARK    4  A    between atoms: C10_16  and  C11_17 
REMARK    5  A    between atoms: C11_17  and  C12_19 
ROOT
HETATM    1  C4  UNL     1      35.997  29.982  23.409  1.00  0.00     0.081 C 
HETATM    2  C5  UNL     1      36.501  28.875  22.484  1.00  0.00     0.026 C 
HETATM    3  C6  UNL     1      37.766  28.241  22.947  1.00  0.00    -0.007 C 
HETATM    4  C7  UNL     1      38.782  29.289  23.343  1.00  0.00     0.041 C 
HETATM    5  C8  UNL     1      38.084  30.157  24.400  1.00  0.00     0.228 C 
HETATM    6  C9  UNL     1      37.103  31.011  23.619  1.00  0.00     0.057 C 
HETATM    7  N2  UNL     1      37.271  29.378  25.271  1.00  0.00     0.137 N 
HETATM    8  C10 UNL     1      35.901  29.373  24.772  1.00  0.00     0.313 C 
HETATM    9  C15 UNL     1      37.681  28.013  25.430  1.00  0.00     0.274 C 
HETATM   10 BR1  UNL     1      39.380  27.802  26.276  1.00  0.00    -0.038 Br
HETATM   11 BR2  UNL     1      36.347  27.156  26.574  1.00  0.00    -0.038 Br
HETATM   12  C16 UNL     1      37.608  27.278  24.086  1.00  0.00     0.071 C 
ENDROOT
BRANCH   1  13
HETATM   13  C3  UNL     1      34.801  30.549  22.831  1.00  0.00     0.229 C 
HETATM   14  N1  UNL     1      33.632  29.871  22.399  1.00  0.00    -0.350 N 
ATOM     15  H1  UNL     1      33.620  28.856  22.499  1.00  0.00     0.163 HD
HETATM   16  O3  UNL     1      34.754  31.818  22.674  1.00  0.00    -0.273 OA
BRANCH  14  17
HETATM   17  C2  UNL     1      32.476  30.482  21.841  1.00  0.00     0.235 C 
BRANCH  17  18
HETATM   18  C1  UNL     1      32.390  30.497  20.374  1.00  0.00     0.191 C 
HETATM   19  O1  UNL     1      32.203  29.508  19.627  1.00  0.00    -0.647 OA
HETATM   20  O2  UNL     1      32.540  31.768  19.780  1.00  0.00    -0.647 OA
ENDBRANCH  17  18
ENDBRANCH  14  17
ENDBRANCH   1  13
BRANCH   8  21
HETATM   21  C11 UNL     1      35.063  30.073  25.747  1.00  0.00     0.165 C 
HETATM   22  O4  UNL     1      35.386  31.185  26.127  1.00  0.00    -0.295 OA
BRANCH  21  23
HETATM   23  C12 UNL     1      33.797  29.465  26.306  1.00  0.00     0.058 A 
HETATM   24  C13 UNL     1      32.971  30.395  27.148  1.00  0.00     0.013 A 
HETATM   25  C14 UNL     1      32.490  29.993  25.773  1.00  0.00     0.013 A 
ENDBRANCH  21  23
ENDBRANCH   8  21
TORSDOF 5
ENDMDL
MODEL 5
REMARK VINA RESULT: -6.986419641      1.789      2.245
REMARK  5 active torsions:
REMARK  status: ('A' for Active; 'I' for Inactive)
REMARK    1  A    between atoms: C1_2  and  C2_4 
REMARK    2  A    between atoms: C2_4  and  N1_5 
REMARK       I    between atoms: N1_5  and  C3_7 
REMARK    3  A    between atoms: C3_7  and  C4_9 
REMARK    4  A    between atoms: C10_16  and  C11_17 
REMARK    5  A    between atoms: C11_17  and  C12_19 
ROOT
HETATM    1  C4  UNL     1      35.053  30.741  23.299  1.00  0.00     0.081 C 
HETATM    2  C5  UNL     1      35.634  32.141  23.110  1.00  0.00     0.026 C 
HETATM    3  C6  UNL     1      36.888  32.375  23.877  1.00  0.00    -0.007 C 
HETATM    4  C7  UNL     1      36.743  31.903  25.307  1.00  0.00     0.041 C 
HETATM    5  C8  UNL     1      36.324  30.430  25.212  1.00  0.00     0.228 C 
HETATM    6  C9  UNL     1      34.868  30.463  24.788  1.00  0.00     0.057 C 
HETATM    7  N2  UNL     1      36.993  29.757  24.150  1.00  0.00     0.137 N 
HETATM    8  C10 UNL     1      36.153  29.785  22.958  1.00  0.00     0.313 C 
HETATM    9  C15 UNL     1      38.272  30.301  23.794  1.00  0.00     0.274 C 
HETATM   10 BR1  UNL     1      39.591  30.158  25.168  1.00  0.00    -0.038 Br
HETATM   11 BR2  UNL     1      38.911  29.271  22.260  1.00  0.00    -0.038 Br
HETATM   12  C16 UNL     1      38.113  31.740  23.290  1.00  0.00     0.071 C 
ENDROOT
BRANCH   1  13
HETATM   13  C3  UNL     1      33.821  30.654  22.551  1.00  0.00     0.229 C 
HETATM   14  N1  UNL     1      33.586  31.036  21.206  1.00  0.00    -0.350 N 
ATOM     15  H1  UNL     1      34.373  31.426  20.689  1.00  0.00     0.163 HD
HETATM   16  O3  UNL     1      32.792  30.177  23.144  1.00  0.00    -0.273 OA
BRANCH  14  17
HETATM   17  C2  UNL     1      32.348  30.922  20.514  1.00  0.00     0.235 C 
BRANCH  17  18
HETATM   18  C1  UNL     1      32.150  31.833  19.378  1.00  0.00     0.191 C 
HETATM   19  O1  UNL     1      31.603  31.557  18.286  1.00  0.00    -0.647 OA
HETATM   20  O2  UNL     1      32.640  33.143  19.570  1.00  0.00    -0.647 OA
ENDBRANCH  17  18
ENDBRANCH  14  17
ENDBRANCH   1  13
BRANCH   8  21
HETATM   21  C11 UNL     1      35.758  28.410  22.653  1.00  0.00     0.165 C 
HETATM   22  O4  UNL     1      35.959  27.531  23.473  1.00  0.00    -0.295 OA
BRANCH  21  23
HETATM   23  C12 UNL     1      35.100  28.031  21.346  1.00  0.00     0.058 A 
HETATM   24  C13 UNL     1      35.965  28.209  20.131  1.00  0.00     0.013 A 
HETATM   25  C14 UNL     1      35.643  26.820  20.631  1.00  0.00     0.013 A 
ENDBRANCH  21  23
ENDBRANCH   8  21
TORSDOF 5
ENDMDL
