MODEL 1
REMARK VINA RESULT: -8.504920303      0.000      0.000
REMARK  6 active torsions:
REMARK  status: ('A' for Active; 'I' for Inactive)
REMARK    1  A    between atoms: N1_2  and  C2_3 
REMARK    2  A    between atoms: N1_2  and  S1_31 
REMARK    3  A    between atoms: C2_3  and  C3_4 
REMARK       I    between atoms: C3_4  and  N2_6 
REMARK    4  A    between atoms: N2_6  and  C4_8 
REMARK    5  A    between atoms: C4_8  and  C7_11 
REMARK    6  A    between atoms: C10_14  and  C11_15 
ROOT
HETATM    1  C2  UNL     1      37.238  30.096  24.243  1.00  0.00     0.127 C 
HETATM    2  C14 UNL     1      37.540  31.561  24.114  1.00  0.00     0.048 C 
HETATM    3  C15 UNL     1      38.855  31.275  24.821  1.00  0.00     0.004 C 
HETATM    4  C16 UNL     1      38.765  29.912  24.143  1.00  0.00     0.029 C 
HETATM    5  C17 UNL     1      39.373  30.224  22.804  1.00  0.00     0.017 C 
HETATM    6  C18 UNL     1      40.602  31.095  23.154  1.00  0.00    -0.040 C 
HETATM    7  C19 UNL     1      41.786  30.246  23.445  1.00  0.00     0.015 C 
HETATM    8  C20 UNL     1      40.935  32.050  22.030  1.00  0.00     0.015 C 
HETATM    9  C21 UNL     1      40.090  31.919  24.299  1.00  0.00    -0.037 C 
HETATM   10  C22 UNL     1      41.125  31.931  25.446  1.00  0.00     0.016 C 
HETATM   11  C23 UNL     1      39.879  33.380  23.972  1.00  0.00     0.016 C 
ENDROOT
BRANCH   1  12
HETATM   12  N1  UNL     1      36.756  29.692  25.515  1.00  0.00    -0.296 N 
HETATM   13  C1  UNL     1      37.378  28.578  26.103  1.00  0.00     0.164 C 
BRANCH  12  14
HETATM   14  S1  UNL     1      35.362  30.271  26.180  1.00  0.00     0.225 S 
HETATM   15  C24 UNL     1      33.953  30.367  25.117  1.00  0.00     0.186 C 
HETATM   16  O2  UNL     1      35.446  31.611  26.890  1.00  0.00    -0.206 OA
HETATM   17  O3  UNL     1      34.937  29.298  27.294  1.00  0.00    -0.206 OA
ENDBRANCH  12  14
ENDBRANCH   1  12
BRANCH   1  18
HETATM   18  C3  UNL     1      36.538  29.367  23.176  1.00  0.00     0.248 C 
HETATM   19  O1  UNL     1      36.679  28.119  23.136  1.00  0.00    -0.271 OA
HETATM   20  N2  UNL     1      35.706  29.898  22.168  1.00  0.00    -0.346 N 
ATOM     21  H2  UNL     1      35.590  30.912  22.154  1.00  0.00     0.163 HD
BRANCH  20  22
HETATM   22  C4  UNL     1      35.003  29.150  21.156  1.00  0.00     0.053 C 
HETATM   23  C5  UNL     1      34.276  27.959  21.792  1.00  0.00     0.043 C 
HETATM   24  C6  UNL     1      35.922  28.516  20.118  1.00  0.00     0.043 C 
BRANCH  22  25
HETATM   25  C7  UNL     1      33.987  29.984  20.501  1.00  0.00    -0.031 A 
HETATM   26  C8  UNL     1      33.706  31.293  20.841  1.00  0.00     0.010 A 
HETATM   27  C9  UNL     1      32.720  32.032  20.186  1.00  0.00     0.017 A 
HETATM   28  C10 UNL     1      31.975  31.495  19.170  1.00  0.00     0.047 A 
HETATM   29  C12 UNL     1      32.239  30.194  18.819  1.00  0.00     0.017 A 
HETATM   30  C13 UNL     1      33.229  29.458  19.477  1.00  0.00     0.010 A 
BRANCH  28  31
HETATM   31  C11 UNL     1      30.918  32.289  18.469  1.00  0.00     0.417 C 
HETATM   32  F1  UNL     1      29.796  32.390  19.245  1.00  0.00    -0.166 F 
HETATM   33  F2  UNL     1      30.540  31.592  17.322  1.00  0.00    -0.166 F 
HETATM   34  F3  UNL     1      31.342  33.542  18.139  1.00  0.00    -0.166 F 
ENDBRANCH  28  31
ENDBRANCH  22  25
ENDBRANCH  20  22
ENDBRANCH   1  18
TORSDOF 6
ENDMDL
MODEL 2
REMARK VINA RESULT: -8.353438583      1.253      1.478
REMARK  6 active torsions:
REMARK  status: ('A' for Active; 'I' for Inactive)
REMARK    1  A    between atoms: N1_2  and  C2_3 
REMARK    2  A    between atoms: N1_2  and  S1_31 
REMARK    3  A    between atoms: C2_3  and  C3_4 
REMARK       I    between atoms: C3_4  and  N2_6 
REMARK    4  A    between atoms: N2_6  and  C4_8 
REMARK    5  A    between atoms: C4_8  and  C7_11 
REMARK    6  A    between atoms: C10_14  and  C11_15 
ROOT
HETATM    1  C2  UNL     1      37.870  30.276  24.156  1.00  0.00     0.127 C 
HETATM    2  C14 UNL     1      38.544  31.400  23.424  1.00  0.00     0.048 C 
HETATM    3  C15 UNL     1      39.857  30.878  23.984  1.00  0.00     0.004 C 
HETATM    4  C16 UNL     1      39.185  29.510  23.912  1.00  0.00     0.029 C 
HETATM    5  C17 UNL     1      39.466  29.135  22.484  1.00  0.00     0.017 C 
HETATM    6  C18 UNL     1      40.944  29.543  22.281  1.00  0.00    -0.040 C 
HETATM    7  C19 UNL     1      41.856  28.448  22.702  1.00  0.00     0.015 C 
HETATM    8  C20 UNL     1      41.221  29.899  20.839  1.00  0.00     0.015 C 
HETATM    9  C21 UNL     1      41.034  30.812  23.076  1.00  0.00    -0.037 C 
HETATM   10  C22 UNL     1      42.300  30.793  23.962  1.00  0.00     0.016 C 
HETATM   11  C23 UNL     1      41.183  32.063  22.242  1.00  0.00     0.016 C 
ENDROOT
BRANCH   1  12
HETATM   12  N1  UNL     1      37.660  30.503  25.541  1.00  0.00    -0.296 N 
HETATM   13  C1  UNL     1      38.258  29.593  26.430  1.00  0.00     0.164 C 
BRANCH  12  14
HETATM   14  S1  UNL     1      36.551  31.576  26.125  1.00  0.00     0.225 S 
HETATM   15  C24 UNL     1      34.872  31.025  26.197  1.00  0.00     0.186 C 
HETATM   16  O2  UNL     1      36.516  32.948  25.473  1.00  0.00    -0.206 OA
HETATM   17  O3  UNL     1      36.919  31.879  27.587  1.00  0.00    -0.206 OA
ENDBRANCH  12  14
ENDBRANCH   1  12
BRANCH   1  18
HETATM   18  C3  UNL     1      36.721  29.570  23.573  1.00  0.00     0.248 C 
HETATM   19  O1  UNL     1      36.586  28.351  23.851  1.00  0.00    -0.271 OA
HETATM   20  N2  UNL     1      35.723  30.094  22.725  1.00  0.00    -0.346 N 
ATOM     21  H2  UNL     1      35.815  31.074  22.458  1.00  0.00     0.163 HD
BRANCH  20  22
HETATM   22  C4  UNL     1      34.586  29.382  22.199  1.00  0.00     0.053 C 
HETATM   23  C5  UNL     1      33.652  28.964  23.342  1.00  0.00     0.043 C 
HETATM   24  C6  UNL     1      34.951  28.069  21.516  1.00  0.00     0.043 C 
BRANCH  22  25
HETATM   25  C7  UNL     1      33.810  30.235  21.290  1.00  0.00    -0.031 A 
HETATM   26  C8  UNL     1      33.706  31.608  21.397  1.00  0.00     0.010 A 
HETATM   27  C9  UNL     1      32.945  32.364  20.506  1.00  0.00     0.017 A 
HETATM   28  C10 UNL     1      32.255  31.782  19.475  1.00  0.00     0.047 A 
HETATM   29  C12 UNL     1      32.345  30.417  19.353  1.00  0.00     0.017 A 
HETATM   30  C13 UNL     1      33.111  29.663  20.247  1.00  0.00     0.010 A 
BRANCH  28  31
HETATM   31  C11 UNL     1      31.439  32.594  18.520  1.00  0.00     0.417 C 
HETATM   32  F1  UNL     1      30.230  32.917  19.072  1.00  0.00    -0.166 F 
HETATM   33  F2  UNL     1      31.162  31.805  17.404  1.00  0.00    -0.166 F 
HETATM   34  F3  UNL     1      32.072  33.741  18.139  1.00  0.00    -0.166 F 
ENDBRANCH  28  31
ENDBRANCH  22  25
ENDBRANCH  20  22
ENDBRANCH   1  18
TORSDOF 6
ENDMDL
MODEL 3
REMARK VINA RESULT: -8.110478563      2.772      5.071
REMARK  6 active torsions:
REMARK  status: ('A' for Active; 'I' for Inactive)
REMARK    1  A    between atoms: N1_2  and  C2_3 
REMARK    2  A    between atoms: N1_2  and  S1_31 
REMARK    3  A    between atoms: C2_3  and  C3_4 
REMARK       I    between atoms: C3_4  and  N2_6 
REMARK    4  A    between atoms: N2_6  and  C4_8 
REMARK    5  A    between atoms: C4_8  and  C7_11 
REMARK    6  A    between atoms: C10_14  and  C11_15 
ROOT
HETATM    1  C2  UNL     1      38.825  28.720  23.400  1.00  0.00     0.127 C 
HETATM    2  C14 UNL     1      39.657  28.433  22.184  1.00  0.00     0.048 C 
HETATM    3  C15 UNL     1      38.874  27.137  22.046  1.00  0.00     0.004 C 
HETATM    4  C16 UNL     1      37.725  27.926  22.666  1.00  0.00     0.029 C 
HETATM    5  C17 UNL     1      37.148  28.587  21.446  1.00  0.00     0.017 C 
HETATM    6  C18 UNL     1      37.139  27.459  20.387  1.00  0.00    -0.040 C 
HETATM    7  C19 UNL     1      35.894  26.653  20.486  1.00  0.00     0.015 C 
HETATM    8  C20 UNL     1      37.264  28.018  18.990  1.00  0.00     0.015 C 
HETATM    9  C21 UNL     1      38.416  26.731  20.690  1.00  0.00    -0.037 C 
HETATM   10  C22 UNL     1      38.161  25.208  20.725  1.00  0.00     0.016 C 
HETATM   11  C23 UNL     1      39.496  26.904  19.646  1.00  0.00     0.016 C 
ENDROOT
BRANCH   1  12
HETATM   12  N1  UNL     1      39.236  28.050  24.582  1.00  0.00    -0.296 N 
HETATM   13  C1  UNL     1      40.619  27.989  24.825  1.00  0.00     0.164 C 
BRANCH  12  14
HETATM   14  S1  UNL     1      38.223  27.128  25.498  1.00  0.00     0.225 S 
HETATM   15  C24 UNL     1      38.459  27.185  27.250  1.00  0.00     0.186 C 
HETATM   16  O2  UNL     1      38.120  25.656  25.136  1.00  0.00    -0.206 OA
HETATM   17  O3  UNL     1      36.792  27.653  25.286  1.00  0.00    -0.206 OA
ENDBRANCH  12  14
ENDBRANCH   1  12
BRANCH   1  18
HETATM   18  C3  UNL     1      38.382  30.086  23.713  1.00  0.00     0.248 C 
HETATM   19  O1  UNL     1      38.981  31.035  23.148  1.00  0.00    -0.271 OA
HETATM   20  N2  UNL     1      37.345  30.480  24.586  1.00  0.00    -0.346 N 
ATOM     21  H2  UNL     1      36.855  29.735  25.082  1.00  0.00     0.163 HD
BRANCH  20  22
HETATM   22  C4  UNL     1      36.911  31.829  24.844  1.00  0.00     0.053 C 
HETATM   23  C5  UNL     1      38.125  32.758  24.969  1.00  0.00     0.043 C 
HETATM   24  C6  UNL     1      36.180  31.990  26.172  1.00  0.00     0.043 C 
BRANCH  22  25
HETATM   25  C7  UNL     1      36.086  32.333  23.739  1.00  0.00    -0.031 A 
HETATM   26  C8  UNL     1      35.127  31.595  23.073  1.00  0.00     0.010 A 
HETATM   27  C9  UNL     1      34.381  32.129  22.023  1.00  0.00     0.017 A 
HETATM   28  C10 UNL     1      34.563  33.417  21.593  1.00  0.00     0.047 A 
HETATM   29  C12 UNL     1      35.513  34.167  22.242  1.00  0.00     0.017 A 
HETATM   30  C13 UNL     1      36.257  33.628  23.296  1.00  0.00     0.010 A 
BRANCH  28  31
HETATM   31  C11 UNL     1      33.761  33.988  20.465  1.00  0.00     0.417 C 
HETATM   32  F1  UNL     1      32.933  33.039  19.932  1.00  0.00    -0.166 F 
HETATM   33  F2  UNL     1      34.642  34.356  19.449  1.00  0.00    -0.166 F 
HETATM   34  F3  UNL     1      33.013  35.061  20.850  1.00  0.00    -0.166 F 
ENDBRANCH  28  31
ENDBRANCH  22  25
ENDBRANCH  20  22
ENDBRANCH   1  18
TORSDOF 6
ENDMDL
MODEL 4
REMARK VINA RESULT: -8.053288802      3.072      5.241
REMARK  6 active torsions:
REMARK  status: ('A' for Active; 'I' for Inactive)
REMARK    1  A    between atoms: N1_2  and  C2_3 
REMARK    2  A    between atoms: N1_2  and  S1_31 
REMARK    3  A    between atoms: C2_3  and  C3_4 
REMARK       I    between atoms: C3_4  and  N2_6 
REMARK    4  A    between atoms: N2_6  and  C4_8 
REMARK    5  A    between atoms: C4_8  and  C7_11 
REMARK    6  A    between atoms: C10_14  and  C11_15 
ROOT
HETATM    1  C2  UNL     1      38.733  28.607  23.475  1.00  0.00     0.127 C 
HETATM    2  C14 UNL     1      39.589  28.298  22.281  1.00  0.00     0.048 C 
HETATM    3  C15 UNL     1      38.762  27.034  22.109  1.00  0.00     0.004 C 
HETATM    4  C16 UNL     1      37.626  27.860  22.704  1.00  0.00     0.029 C 
HETATM    5  C17 UNL     1      37.109  28.552  21.474  1.00  0.00     0.017 C 
HETATM    6  C18 UNL     1      37.088  27.434  20.405  1.00  0.00    -0.040 C 
HETATM    7  C19 UNL     1      35.812  26.674  20.462  1.00  0.00     0.015 C 
HETATM    8  C20 UNL     1      37.273  27.999  19.017  1.00  0.00     0.015 C 
HETATM    9  C21 UNL     1      38.328  26.656  20.737  1.00  0.00    -0.037 C 
HETATM   10  C22 UNL     1      38.015  25.143  20.751  1.00  0.00     0.016 C 
HETATM   11  C23 UNL     1      39.442  26.797  19.726  1.00  0.00     0.016 C 
ENDROOT
BRANCH   1  12
HETATM   12  N1  UNL     1      39.087  27.913  24.662  1.00  0.00    -0.296 N 
HETATM   13  C1  UNL     1      38.144  27.001  25.167  1.00  0.00     0.164 C 
BRANCH  12  14
HETATM   14  S1  UNL     1      40.381  28.323  25.598  1.00  0.00     0.225 S 
HETATM   15  C24 UNL     1      40.056  29.351  26.999  1.00  0.00     0.186 C 
HETATM   16  O2  UNL     1      41.571  28.945  24.888  1.00  0.00    -0.206 OA
HETATM   17  O3  UNL     1      40.953  27.026  26.197  1.00  0.00    -0.206 OA
ENDBRANCH  12  14
ENDBRANCH   1  12
BRANCH   1  18
HETATM   18  C3  UNL     1      38.333  29.985  23.788  1.00  0.00     0.248 C 
HETATM   19  O1  UNL     1      38.967  30.916  23.230  1.00  0.00    -0.271 OA
HETATM   20  N2  UNL     1      37.304  30.411  24.654  1.00  0.00    -0.346 N 
ATOM     21  H2  UNL     1      36.786  29.682  25.146  1.00  0.00     0.163 HD
BRANCH  20  22
HETATM   22  C4  UNL     1      36.911  31.774  24.913  1.00  0.00     0.053 C 
HETATM   23  C5  UNL     1      38.154  32.661  25.054  1.00  0.00     0.043 C 
HETATM   24  C6  UNL     1      36.172  31.955  26.233  1.00  0.00     0.043 C 
BRANCH  22  25
HETATM   25  C7  UNL     1      36.116  32.308  23.800  1.00  0.00    -0.031 A 
HETATM   26  C8  UNL     1      35.148  31.601  23.114  1.00  0.00     0.010 A 
HETATM   27  C9  UNL     1      34.431  32.162  22.058  1.00  0.00     0.017 A 
HETATM   28  C10 UNL     1      34.652  33.449  21.642  1.00  0.00     0.047 A 
HETATM   29  C12 UNL     1      35.611  34.168  22.312  1.00  0.00     0.017 A 
HETATM   30  C13 UNL     1      36.326  33.602  23.371  1.00  0.00     0.010 A 
BRANCH  28  31
HETATM   31  C11 UNL     1      33.882  34.050  20.508  1.00  0.00     0.417 C 
HETATM   32  F1  UNL     1      33.047  33.123  19.946  1.00  0.00    -0.166 F 
HETATM   33  F2  UNL     1      34.788  34.417  19.514  1.00  0.00    -0.166 F 
HETATM   34  F3  UNL     1      33.145  35.131  20.895  1.00  0.00    -0.166 F 
ENDBRANCH  28  31
ENDBRANCH  22  25
ENDBRANCH  20  22
ENDBRANCH   1  18
TORSDOF 6
ENDMDL
MODEL 5
REMARK VINA RESULT: -7.883038176      3.267      4.770
REMARK  6 active torsions:
REMARK  status: ('A' for Active; 'I' for Inactive)
REMARK    1  A    between atoms: N1_2  and  C2_3 
REMARK    2  A    between atoms: N1_2  and  S1_31 
REMARK    3  A    between atoms: C2_3  and  C3_4 
REMARK       I    between atoms: C3_4  and  N2_6 
REMARK    4  A    between atoms: N2_6  and  C4_8 
REMARK    5  A    between atoms: C4_8  and  C7_11 
REMARK    6  A    between atoms: C10_14  and  C11_15 
ROOT
HETATM    1  C2  UNL     1      40.435  30.503  24.014  1.00  0.00     0.127 C 
HETATM    2  C14 UNL     1      41.217  31.467  24.858  1.00  0.00     0.048 C 
HETATM    3  C15 UNL     1      42.207  31.554  23.707  1.00  0.00     0.004 C 
HETATM    4  C16 UNL     1      40.990  31.308  22.822  1.00  0.00     0.029 C 
HETATM    5  C17 UNL     1      40.460  32.707  22.676  1.00  0.00     0.017 C 
HETATM    6  C18 UNL     1      41.729  33.556  22.430  1.00  0.00    -0.040 C 
HETATM    7  C19 UNL     1      42.074  33.583  20.985  1.00  0.00     0.015 C 
HETATM    8  C20 UNL     1      41.548  34.971  22.928  1.00  0.00     0.015 C 
HETATM    9  C21 UNL     1      42.732  32.894  23.330  1.00  0.00    -0.037 C 
HETATM   10  C22 UNL     1      44.059  32.673  22.570  1.00  0.00     0.016 C 
HETATM   11  C23 UNL     1      43.126  33.715  24.536  1.00  0.00     0.016 C 
ENDROOT
BRANCH   1  12
HETATM   12  N1  UNL     1      40.930  29.173  24.008  1.00  0.00    -0.296 N 
HETATM   13  C1  UNL     1      41.219  28.610  22.753  1.00  0.00     0.164 C 
BRANCH  12  14
HETATM   14  S1  UNL     1      40.909  28.194  25.335  1.00  0.00     0.225 S 
HETATM   15  C24 UNL     1      40.621  26.473  25.050  1.00  0.00     0.186 C 
HETATM   16  O2  UNL     1      39.980  28.594  26.468  1.00  0.00    -0.206 OA
HETATM   17  O3  UNL     1      42.307  28.248  25.977  1.00  0.00    -0.206 OA
ENDBRANCH  12  14
ENDBRANCH   1  12
BRANCH   1  18
HETATM   18  C3  UNL     1      38.965  30.502  24.023  1.00  0.00     0.248 C 
HETATM   19  O1  UNL     1      38.378  30.102  22.986  1.00  0.00    -0.271 OA
HETATM   20  N2  UNL     1      38.107  30.897  25.071  1.00  0.00    -0.346 N 
ATOM     21  H2  UNL     1      38.550  31.252  25.919  1.00  0.00     0.163 HD
BRANCH  20  22
HETATM   22  C4  UNL     1      36.667  30.849  25.062  1.00  0.00     0.053 C 
HETATM   23  C5  UNL     1      36.118  31.256  26.435  1.00  0.00     0.043 C 
HETATM   24  C6  UNL     1      36.105  29.450  24.835  1.00  0.00     0.043 C 
BRANCH  22  25
HETATM   25  C7  UNL     1      36.119  31.790  24.076  1.00  0.00    -0.031 A 
HETATM   26  C8  UNL     1      35.119  31.487  23.172  1.00  0.00     0.010 A 
HETATM   27  C9  UNL     1      34.647  32.423  22.252  1.00  0.00     0.017 A 
HETATM   28  C10 UNL     1      35.153  33.695  22.195  1.00  0.00     0.047 A 
HETATM   29  C12 UNL     1      36.149  34.014  23.085  1.00  0.00     0.017 A 
HETATM   30  C13 UNL     1      36.618  33.073  24.007  1.00  0.00     0.010 A 
BRANCH  28  31
HETATM   31  C11 UNL     1      34.645  34.697  21.207  1.00  0.00     0.417 C 
HETATM   32  F1  UNL     1      35.443  34.729  20.096  1.00  0.00    -0.166 F 
HETATM   33  F2  UNL     1      34.730  35.962  21.788  1.00  0.00    -0.166 F 
HETATM   34  F3  UNL     1      33.361  34.443  20.821  1.00  0.00    -0.166 F 
ENDBRANCH  28  31
ENDBRANCH  22  25
ENDBRANCH  20  22
ENDBRANCH   1  18
TORSDOF 6
ENDMDL
