MODEL 1
REMARK VINA RESULT: -9.215471880      0.000      0.000
REMARK  5 active torsions:
REMARK  status: ('A' for Active; 'I' for Inactive)
REMARK       I    between atoms: C1_2  and  N1_3 
REMARK    1  A    between atoms: C1_2  and  C17_21 
REMARK    2  A    between atoms: N1_3  and  C2_5 
REMARK    3  A    between atoms: N2_8  and  C5_9 
REMARK    4  A    between atoms: N3_24  and  C20_25 
REMARK    5  A    between atoms: C24_31  and  C25_32 
ROOT
HETATM    1  O1  UNL     1      36.059  30.144  25.511  1.00  0.00    -0.268 OA
HETATM    2  C1  UNL     1      36.148  30.413  24.282  1.00  0.00     0.247 C 
HETATM    3  N1  UNL     1      37.397  30.899  23.832  1.00  0.00    -0.352 N 
ATOM      4  H1  UNL     1      37.495  31.124  22.842  1.00  0.00     0.163 HD
ENDROOT
BRANCH   2   5
HETATM    5  C17 UNL     1      34.977  30.199  23.465  1.00  0.00     0.009 C 
HETATM    6  C18 UNL     1      33.836  30.842  23.686  1.00  0.00     0.005 C 
HETATM    7  C19 UNL     1      32.694  30.506  22.735  1.00  0.00     0.152 C 
HETATM    8  N3  UNL     1      33.165  30.579  21.385  1.00  0.00    -0.363 N 
HETATM    9  C26 UNL     1      34.461  29.976  21.105  1.00  0.00     0.129 C 
HETATM   10  C27 UNL     1      34.979  29.246  22.333  1.00  0.00     0.064 C 
BRANCH   8  11
HETATM   11  C20 UNL     1      32.496  31.202  20.313  1.00  0.00     0.118 A 
HETATM   12  N4  UNL     1      31.646  30.407  19.568  1.00  0.00    -0.352 N 
HETATM   13  C21 UNL     1      30.946  30.872  18.532  1.00  0.00     0.089 A 
ATOM     14  H4  UNL     1      31.549  29.424  19.822  1.00  0.00     0.166 HD
HETATM   15  C22 UNL     1      31.016  32.186  18.120  1.00  0.00     0.018 A 
HETATM   16  C23 UNL     1      31.846  33.007  18.830  1.00  0.00     0.021 A 
HETATM   17  C24 UNL     1      32.585  32.511  19.925  1.00  0.00     0.091 A 
BRANCH  17  18
HETATM   18  C25 UNL     1      33.467  33.445  20.639  1.00  0.00     0.421 C 
HETATM   19  F1  UNL     1      34.294  32.922  21.569  1.00  0.00    -0.166 F 
HETATM   20  F2  UNL     1      34.274  34.133  19.725  1.00  0.00    -0.166 F 
HETATM   21  F3  UNL     1      32.645  34.377  21.288  1.00  0.00    -0.166 F 
ENDBRANCH  17  18
ENDBRANCH   8  11
ENDBRANCH   2   5
BRANCH   3  22
HETATM   22  C2  UNL     1      38.536  31.094  24.686  1.00  0.00     0.092 C 
HETATM   23  C3  UNL     1      38.750  32.485  25.164  1.00  0.00     0.053 C 
HETATM   24  C4  UNL     1      39.877  33.230  24.529  1.00  0.00     0.241 C 
HETATM   25  N2  UNL     1      41.081  32.517  24.311  1.00  0.00    -0.052 N 
HETATM   26  C13 UNL     1      41.119  32.215  22.863  1.00  0.00     0.239 C 
HETATM   27  C16 UNL     1      41.026  31.177  24.824  1.00  0.00     0.245 C 
HETATM   28  C14 UNL     1      40.018  31.186  22.681  1.00  0.00     0.036 C 
HETATM   29  C15 UNL     1      39.806  30.630  24.052  1.00  0.00     0.036 C 
BRANCH  25  30
HETATM   30  C5  UNL     1      42.293  33.236  24.570  1.00  0.00     0.259 C 
HETATM   31  C6  UNL     1      43.488  32.625  23.767  1.00  0.00     0.072 C 
HETATM   32  C7  UNL     1      44.569  33.540  23.416  1.00  0.00    -0.024 C 
HETATM   33  C8  UNL     1      44.602  34.566  22.392  1.00  0.00    -0.008 C 
HETATM   34  C9  UNL     1      43.632  35.611  22.143  1.00  0.00    -0.026 C 
HETATM   35  C10 UNL     1      43.000  36.524  23.086  1.00  0.00     0.038 C 
HETATM   36  C11 UNL     1      41.870  35.914  23.988  1.00  0.00     0.086 C 
HETATM   37  C12 UNL     1      42.278  34.580  24.159  1.00  0.00    -0.149 C 
ENDBRANCH  25  30
ENDBRANCH   3  22
TORSDOF 5
ENDMDL
MODEL 2
REMARK VINA RESULT: -8.929744037      4.107      5.586
REMARK  5 active torsions:
REMARK  status: ('A' for Active; 'I' for Inactive)
REMARK       I    between atoms: C1_2  and  N1_3 
REMARK    1  A    between atoms: C1_2  and  C17_21 
REMARK    2  A    between atoms: N1_3  and  C2_5 
REMARK    3  A    between atoms: N2_8  and  C5_9 
REMARK    4  A    between atoms: N3_24  and  C20_25 
REMARK    5  A    between atoms: C24_31  and  C25_32 
ROOT
HETATM    1  O1  UNL     1      34.972  29.260  26.913  1.00  0.00    -0.268 OA
HETATM    2  C1  UNL     1      35.570  29.492  25.827  1.00  0.00     0.247 C 
HETATM    3  N1  UNL     1      36.976  29.622  25.896  1.00  0.00    -0.352 N 
ATOM      4  H1  UNL     1      37.483  29.810  25.032  1.00  0.00     0.163 HD
ENDROOT
BRANCH   2   5
HETATM    5  C17 UNL     1      34.767  29.600  24.632  1.00  0.00     0.009 C 
HETATM    6  C18 UNL     1      33.551  30.136  24.645  1.00  0.00     0.005 C 
HETATM    7  C19 UNL     1      32.834  30.178  23.301  1.00  0.00     0.152 C 
HETATM    8  N3  UNL     1      33.713  30.724  22.312  1.00  0.00    -0.363 N 
HETATM    9  C26 UNL     1      35.088  30.244  22.315  1.00  0.00     0.129 C 
HETATM   10  C27 UNL     1      35.251  29.116  23.320  1.00  0.00     0.064 C 
BRANCH   8  11
HETATM   11  C20 UNL     1      33.369  31.698  21.354  1.00  0.00     0.118 A 
HETATM   12  N4  UNL     1      33.695  33.006  21.657  1.00  0.00    -0.352 N 
HETATM   13  C21 UNL     1      33.433  34.024  20.835  1.00  0.00     0.089 A 
ATOM     14  H4  UNL     1      34.155  33.202  22.546  1.00  0.00     0.166 HD
HETATM   15  C22 UNL     1      32.815  33.851  19.615  1.00  0.00     0.018 A 
HETATM   16  C23 UNL     1      32.476  32.571  19.276  1.00  0.00     0.021 A 
HETATM   17  C24 UNL     1      32.754  31.498  20.149  1.00  0.00     0.091 A 
BRANCH  17  18
HETATM   18  C25 UNL     1      32.353  30.147  19.728  1.00  0.00     0.421 C 
HETATM   19  F1  UNL     1      31.561  29.450  20.569  1.00  0.00    -0.166 F 
HETATM   20  F2  UNL     1      31.681  30.210  18.501  1.00  0.00    -0.166 F 
HETATM   21  F3  UNL     1      33.529  29.405  19.547  1.00  0.00    -0.166 F 
ENDBRANCH  17  18
ENDBRANCH   8  11
ENDBRANCH   2   5
BRANCH   3  22
HETATM   22  C2  UNL     1      37.732  29.505  27.112  1.00  0.00     0.092 C 
HETATM   23  C3  UNL     1      38.741  30.571  27.348  1.00  0.00     0.053 C 
HETATM   24  C4  UNL     1      40.167  30.178  27.151  1.00  0.00     0.241 C 
HETATM   25  N2  UNL     1      40.562  28.910  27.644  1.00  0.00    -0.052 N 
HETATM   26  C13 UNL     1      40.674  28.030  26.460  1.00  0.00     0.239 C 
HETATM   27  C16 UNL     1      39.499  28.235  28.333  1.00  0.00     0.245 C 
HETATM   28  C14 UNL     1      39.235  27.844  26.013  1.00  0.00     0.036 C 
HETATM   29  C15 UNL     1      38.428  28.188  27.222  1.00  0.00     0.036 C 
BRANCH  25  30
HETATM   30  C5  UNL     1      41.849  28.852  28.270  1.00  0.00     0.259 C 
HETATM   31  C6  UNL     1      41.945  29.878  29.447  1.00  0.00     0.072 C 
HETATM   32  C7  UNL     1      42.861  29.538  30.531  1.00  0.00    -0.024 C 
HETATM   33  C8  UNL     1      42.699  28.564  31.592  1.00  0.00    -0.008 C 
HETATM   34  C9  UNL     1      42.313  27.174  31.478  1.00  0.00    -0.026 C 
HETATM   35  C10 UNL     1      42.814  26.151  30.569  1.00  0.00     0.038 C 
HETATM   36  C11 UNL     1      42.318  26.243  29.084  1.00  0.00     0.086 C 
HETATM   37  C12 UNL     1      42.150  27.624  28.884  1.00  0.00    -0.149 C 
ENDBRANCH  25  30
ENDBRANCH   3  22
TORSDOF 5
ENDMDL
MODEL 3
REMARK VINA RESULT: -8.869297106      4.955      7.167
REMARK  5 active torsions:
REMARK  status: ('A' for Active; 'I' for Inactive)
REMARK       I    between atoms: C1_2  and  N1_3 
REMARK    1  A    between atoms: C1_2  and  C17_21 
REMARK    2  A    between atoms: N1_3  and  C2_5 
REMARK    3  A    between atoms: N2_8  and  C5_9 
REMARK    4  A    between atoms: N3_24  and  C20_25 
REMARK    5  A    between atoms: C24_31  and  C25_32 
ROOT
HETATM    1  O1  UNL     1      36.550  30.429  24.047  1.00  0.00    -0.268 OA
HETATM    2  C1  UNL     1      35.806  29.419  23.921  1.00  0.00     0.247 C 
HETATM    3  N1  UNL     1      36.232  28.237  24.568  1.00  0.00    -0.352 N 
ATOM      4  H1  UNL     1      35.648  27.406  24.482  1.00  0.00     0.163 HD
ENDROOT
BRANCH   2   5
HETATM    5  C17 UNL     1      34.603  29.569  23.136  1.00  0.00     0.009 C 
HETATM    6  C18 UNL     1      33.665  30.456  23.446  1.00  0.00     0.005 C 
HETATM    7  C19 UNL     1      32.457  30.491  22.516  1.00  0.00     0.152 C 
HETATM    8  N3  UNL     1      32.907  30.552  21.159  1.00  0.00    -0.363 N 
HETATM    9  C26 UNL     1      34.005  29.669  20.787  1.00  0.00     0.129 C 
HETATM   10  C27 UNL     1      34.345  28.738  21.938  1.00  0.00     0.064 C 
BRANCH   8  11
HETATM   11  C20 UNL     1      32.396  31.405  20.160  1.00  0.00     0.118 A 
HETATM   12  N4  UNL     1      31.504  30.846  19.265  1.00  0.00    -0.352 N 
HETATM   13  C21 UNL     1      30.940  31.542  18.277  1.00  0.00     0.089 A 
ATOM     14  H4  UNL     1      31.266  29.859  19.364  1.00  0.00     0.166 HD
HETATM   15  C22 UNL     1      31.204  32.880  18.070  1.00  0.00     0.018 A 
HETATM   16  C23 UNL     1      32.081  33.472  18.933  1.00  0.00     0.021 A 
HETATM   17  C24 UNL     1      32.675  32.731  19.976  1.00  0.00     0.091 A 
BRANCH  17  18
HETATM   18  C25 UNL     1      33.619  33.427  20.864  1.00  0.00     0.421 C 
HETATM   19  F1  UNL     1      34.502  32.664  21.543  1.00  0.00    -0.166 F 
HETATM   20  F2  UNL     1      34.369  34.354  20.130  1.00  0.00    -0.166 F 
HETATM   21  F3  UNL     1      32.857  34.128  21.810  1.00  0.00    -0.166 F 
ENDBRANCH  17  18
ENDBRANCH   8  11
ENDBRANCH   2   5
BRANCH   3  22
HETATM   22  C2  UNL     1      37.439  28.137  25.341  1.00  0.00     0.092 C 
HETATM   23  C3  UNL     1      38.365  27.042  24.949  1.00  0.00     0.053 C 
HETATM   24  C4  UNL     1      38.414  25.867  25.868  1.00  0.00     0.241 C 
HETATM   25  N2  UNL     1      38.413  26.133  27.259  1.00  0.00    -0.052 N 
HETATM   26  C13 UNL     1      37.047  25.817  27.732  1.00  0.00     0.239 C 
HETATM   27  C16 UNL     1      38.438  27.539  27.548  1.00  0.00     0.245 C 
HETATM   28  C14 UNL     1      36.193  26.916  27.124  1.00  0.00     0.036 C 
HETATM   29  C15 UNL     1      37.167  28.002  26.803  1.00  0.00     0.036 C 
BRANCH  25  30
HETATM   30  C5  UNL     1      39.277  25.315  28.056  1.00  0.00     0.259 C 
HETATM   31  C6  UNL     1      39.207  25.731  29.563  1.00  0.00     0.072 C 
HETATM   32  C7  UNL     1      39.487  24.682  30.539  1.00  0.00    -0.024 C 
HETATM   33  C8  UNL     1      38.647  23.579  30.960  1.00  0.00    -0.008 C 
HETATM   34  C9  UNL     1      37.944  22.623  30.130  1.00  0.00    -0.026 C 
HETATM   35  C10 UNL     1      38.433  21.861  28.989  1.00  0.00     0.038 C 
HETATM   36  C11 UNL     1      38.602  22.657  27.647  1.00  0.00     0.086 C 
HETATM   37  C12 UNL     1      38.941  23.951  28.080  1.00  0.00    -0.149 C 
ENDBRANCH  25  30
ENDBRANCH   3  22
TORSDOF 5
ENDMDL
MODEL 4
REMARK VINA RESULT: -8.785318869      5.563      8.084
REMARK  5 active torsions:
REMARK  status: ('A' for Active; 'I' for Inactive)
REMARK       I    between atoms: C1_2  and  N1_3 
REMARK    1  A    between atoms: C1_2  and  C17_21 
REMARK    2  A    between atoms: N1_3  and  C2_5 
REMARK    3  A    between atoms: N2_8  and  C5_9 
REMARK    4  A    between atoms: N3_24  and  C20_25 
REMARK    5  A    between atoms: C24_31  and  C25_32 
ROOT
HETATM    1  O1  UNL     1      36.592  29.832  25.251  1.00  0.00    -0.268 OA
HETATM    2  C1  UNL     1      36.100  28.887  24.575  1.00  0.00     0.247 C 
HETATM    3  N1  UNL     1      36.671  27.609  24.770  1.00  0.00    -0.352 N 
ATOM      4  H1  UNL     1      36.291  26.828  24.236  1.00  0.00     0.163 HD
ENDROOT
BRANCH   2   5
HETATM    5  C17 UNL     1      35.013  29.203  23.679  1.00  0.00     0.009 C 
HETATM    6  C18 UNL     1      34.003  29.985  24.044  1.00  0.00     0.005 C 
HETATM    7  C19 UNL     1      32.936  30.222  22.983  1.00  0.00     0.152 C 
HETATM    8  N3  UNL     1      33.566  30.600  21.754  1.00  0.00    -0.363 N 
HETATM    9  C26 UNL     1      34.742  29.838  21.354  1.00  0.00     0.129 C 
HETATM   10  C27 UNL     1      34.959  28.669  22.300  1.00  0.00     0.064 C 
BRANCH   8  11
HETATM   11  C20 UNL     1      33.162  31.656  20.913  1.00  0.00     0.118 A 
HETATM   12  N4  UNL     1      33.540  32.929  21.292  1.00  0.00    -0.352 N 
HETATM   13  C21 UNL     1      33.230  34.016  20.583  1.00  0.00     0.089 A 
ATOM     14  H4  UNL     1      34.079  33.044  22.151  1.00  0.00     0.166 HD
HETATM   15  C22 UNL     1      32.506  33.954  19.411  1.00  0.00     0.018 A 
HETATM   16  C23 UNL     1      32.112  32.712  19.000  1.00  0.00     0.021 A 
HETATM   17  C24 UNL     1      32.441  31.566  19.754  1.00  0.00     0.091 A 
BRANCH  17  18
HETATM   18  C25 UNL     1      31.978  30.261  19.260  1.00  0.00     0.421 C 
HETATM   19  F1  UNL     1      32.913  29.423  18.764  1.00  0.00    -0.166 F 
HETATM   20  F2  UNL     1      31.321  29.569  20.285  1.00  0.00    -0.166 F 
HETATM   21  F3  UNL     1      31.053  30.510  18.236  1.00  0.00    -0.166 F 
ENDBRANCH  17  18
ENDBRANCH   8  11
ENDBRANCH   2   5
BRANCH   3  22
HETATM   22  C2  UNL     1      37.754  27.344  25.677  1.00  0.00     0.092 C 
HETATM   23  C3  UNL     1      38.588  26.156  25.353  1.00  0.00     0.053 C 
HETATM   24  C4  UNL     1      38.387  24.959  26.221  1.00  0.00     0.241 C 
HETATM   25  N2  UNL     1      38.245  25.187  27.612  1.00  0.00    -0.052 N 
HETATM   26  C13 UNL     1      36.804  25.024  27.906  1.00  0.00     0.239 C 
HETATM   27  C16 UNL     1      38.397  26.571  27.960  1.00  0.00     0.245 C 
HETATM   28  C14 UNL     1      36.165  26.233  27.246  1.00  0.00     0.036 C 
HETATM   29  C15 UNL     1      37.290  27.203  27.089  1.00  0.00     0.036 C 
BRANCH  25  30
HETATM   30  C5  UNL     1      38.905  24.249  28.472  1.00  0.00     0.259 C 
HETATM   31  C6  UNL     1      38.614  24.570  29.975  1.00  0.00     0.072 C 
HETATM   32  C7  UNL     1      38.652  23.441  30.899  1.00  0.00    -0.024 C 
HETATM   33  C8  UNL     1      37.677  22.386  31.092  1.00  0.00    -0.008 C 
HETATM   34  C9  UNL     1      37.057  21.548  30.088  1.00  0.00    -0.026 C 
HETATM   35  C10 UNL     1      37.673  20.824  28.984  1.00  0.00     0.038 C 
HETATM   36  C11 UNL     1      38.120  21.688  27.753  1.00  0.00     0.086 C 
HETATM   37  C12 UNL     1      38.473  22.919  28.334  1.00  0.00    -0.149 C 
ENDBRANCH  25  30
ENDBRANCH   3  22
TORSDOF 5
ENDMDL
MODEL 5
REMARK VINA RESULT: -8.608370917      3.247      4.524
REMARK  5 active torsions:
REMARK  status: ('A' for Active; 'I' for Inactive)
REMARK       I    between atoms: C1_2  and  N1_3 
REMARK    1  A    between atoms: C1_2  and  C17_21 
REMARK    2  A    between atoms: N1_3  and  C2_5 
REMARK    3  A    between atoms: N2_8  and  C5_9 
REMARK    4  A    between atoms: N3_24  and  C20_25 
REMARK    5  A    between atoms: C24_31  and  C25_32 
ROOT
HETATM    1  O1  UNL     1      37.461  29.132  22.155  1.00  0.00    -0.268 OA
HETATM    2  C1  UNL     1      36.585  29.569  22.951  1.00  0.00     0.247 C 
HETATM    3  N1  UNL     1      37.031  29.932  24.242  1.00  0.00    -0.352 N 
ATOM      4  H1  UNL     1      36.342  30.288  24.904  1.00  0.00     0.163 HD
ENDROOT
BRANCH   2   5
HETATM    5  C17 UNL     1      35.227  29.656  22.467  1.00  0.00     0.009 C 
HETATM    6  C18 UNL     1      34.367  30.553  22.936  1.00  0.00     0.005 C 
HETATM    7  C19 UNL     1      32.973  30.515  22.321  1.00  0.00     0.152 C 
HETATM    8  N3  UNL     1      33.087  30.491  20.894  1.00  0.00    -0.363 N 
HETATM    9  C26 UNL     1      34.087  29.596  20.327  1.00  0.00     0.129 C 
HETATM   10  C27 UNL     1      34.714  28.745  21.419  1.00  0.00     0.064 C 
BRANCH   8  11
HETATM   11  C20 UNL     1      32.333  31.271  19.995  1.00  0.00     0.118 A 
HETATM   12  N4  UNL     1      31.349  30.615  19.280  1.00  0.00    -0.352 N 
HETATM   13  C21 UNL     1      30.559  31.236  18.402  1.00  0.00     0.089 A 
ATOM     14  H4  UNL     1      31.222  29.614  19.429  1.00  0.00     0.166 HD
HETATM   15  C22 UNL     1      30.662  32.585  18.138  1.00  0.00     0.018 A 
HETATM   16  C23 UNL     1      31.622  33.272  18.825  1.00  0.00     0.021 A 
HETATM   17  C24 UNL     1      32.456  32.612  19.752  1.00  0.00     0.091 A 
BRANCH  17  18
HETATM   18  C25 UNL     1      33.476  33.408  20.450  1.00  0.00     0.421 C 
HETATM   19  F1  UNL     1      34.342  32.741  21.242  1.00  0.00    -0.166 F 
HETATM   20  F2  UNL     1      34.245  34.118  19.520  1.00  0.00    -0.166 F 
HETATM   21  F3  UNL     1      32.798  34.333  21.257  1.00  0.00    -0.166 F 
ENDBRANCH  17  18
ENDBRANCH   8  11
ENDBRANCH   2   5
BRANCH   3  22
HETATM   22  C2  UNL     1      38.396  29.828  24.677  1.00  0.00     0.092 C 
HETATM   23  C3  UNL     1      38.756  28.562  25.369  1.00  0.00     0.053 C 
HETATM   24  C4  UNL     1      38.941  28.654  26.847  1.00  0.00     0.241 C 
HETATM   25  N2  UNL     1      39.636  29.785  27.342  1.00  0.00    -0.052 N 
HETATM   26  C13 UNL     1      38.604  30.677  27.916  1.00  0.00     0.239 C 
HETATM   27  C16 UNL     1      40.118  30.635  26.292  1.00  0.00     0.245 C 
HETATM   28  C14 UNL     1      37.852  31.184  26.699  1.00  0.00     0.036 C 
HETATM   29  C15 UNL     1      38.797  30.961  25.564  1.00  0.00     0.036 C 
BRANCH  25  30
HETATM   30  C5  UNL     1      40.550  29.539  28.418  1.00  0.00     0.259 C 
HETATM   31  C6  UNL     1      40.284  28.142  29.069  1.00  0.00     0.072 C 
HETATM   32  C7  UNL     1      41.432  27.487  29.691  1.00  0.00    -0.024 C 
HETATM   33  C8  UNL     1      42.550  26.813  29.062  1.00  0.00    -0.008 C 
HETATM   34  C9  UNL     1      43.400  27.298  27.995  1.00  0.00    -0.026 C 
HETATM   35  C10 UNL     1      44.058  28.591  27.858  1.00  0.00     0.038 C 
HETATM   36  C11 UNL     1      43.138  29.795  27.452  1.00  0.00     0.086 C 
HETATM   37  C12 UNL     1      41.902  29.468  28.037  1.00  0.00    -0.149 C 
ENDBRANCH  25  30
ENDBRANCH   3  22
TORSDOF 5
ENDMDL
