MODEL 1
REMARK VINA RESULT: -7.645300945      0.000      0.000
REMARK  5 active torsions:
REMARK  status: ('A' for Active; 'I' for Inactive)
REMARK    1  A    between atoms: C2_2  and  O1_3 
REMARK    2  A    between atoms: C4_6  and  N1_7 
REMARK       I    between atoms: N1_7  and  C5_8 
REMARK    3  A    between atoms: N1_7  and  C20_28 
REMARK    4  A    between atoms: C5_8  and  C6_10 
REMARK    5  A    between atoms: C8_12  and  C9_13 
ROOT
HETATM    1  C6  UNL     1      36.374  28.438  23.390  1.00  0.00     0.036 C 
HETATM    2  C7  UNL     1      36.397  27.826  24.555  1.00  0.00     0.009 C 
HETATM    3  C8  UNL     1      37.431  27.894  25.527  1.00  0.00     0.054 C 
HETATM    4  C10 UNL     1      38.416  26.900  25.929  1.00  0.00     0.061 C 
HETATM    5  C11 UNL     1      39.035  27.679  27.096  1.00  0.00     0.036 C 
HETATM    6 CL1  UNL     1      39.414  27.127  28.685  1.00  0.00    -0.087 Cl
HETATM    7  C12 UNL     1      39.198  28.911  26.530  1.00  0.00     0.041 C 
HETATM    8 CL2  UNL     1      39.844  30.361  27.222  1.00  0.00    -0.086 Cl
HETATM    9  C13 UNL     1      38.685  28.657  25.131  1.00  0.00     0.029 C 
HETATM   10  C14 UNL     1      38.431  29.744  24.211  1.00  0.00     0.058 C 
HETATM   11  C15 UNL     1      37.637  29.140  23.045  1.00  0.00    -0.031 C 
HETATM   12  C16 UNL     1      38.198  29.183  21.883  1.00  0.00     0.092 C 
HETATM   13 CL3  UNL     1      37.766  28.490  20.360  1.00  0.00    -0.096 Cl
HETATM   14  C17 UNL     1      39.361  27.397  24.849  1.00  0.00    -0.023 C 
HETATM   15  C18 UNL     1      40.788  27.453  25.471  1.00  0.00     0.016 C 
HETATM   16  C19 UNL     1      39.376  26.648  23.595  1.00  0.00     0.016 C 
ENDROOT
BRANCH   1  17
HETATM   17  C5  UNL     1      35.315  28.374  22.405  1.00  0.00     0.254 C 
HETATM   18  N1  UNL     1      34.249  29.216  22.132  1.00  0.00    -0.338 N 
HETATM   19  O2  UNL     1      35.377  27.332  21.630  1.00  0.00    -0.267 OA
BRANCH  18  20
HETATM   20  C4  UNL     1      33.481  29.097  20.904  1.00  0.00     0.093 C 
HETATM   21  C3  UNL     1      33.888  29.883  19.713  1.00  0.00     0.062 C 
HETATM   22  C2  UNL     1      32.418  30.167  19.461  1.00  0.00     0.058 C 
HETATM   23  C1  UNL     1      32.062  31.564  19.068  1.00  0.00     0.046 C 
HETATM   24  C24 UNL     1      32.137  29.769  20.890  1.00  0.00     0.062 C 
BRANCH  22  25
HETATM   25  O1  UNL     1      31.808  29.264  18.587  1.00  0.00    -0.390 OA
ATOM     26  H1  UNL     1      31.186  29.723  18.036  1.00  0.00     0.210 HD
ENDBRANCH  22  25
ENDBRANCH  18  20
BRANCH  18  27
HETATM   27  C20 UNL     1      33.686  30.156  23.090  1.00  0.00     0.088 C 
HETATM   28  C21 UNL     1      33.376  29.568  24.431  1.00  0.00     0.025 C 
HETATM   29  C22 UNL     1      34.174  30.655  25.091  1.00  0.00     0.004 C 
HETATM   30  C23 UNL     1      34.766  31.019  23.763  1.00  0.00     0.025 C 
ENDBRANCH  18  27
ENDBRANCH   1  17
BRANCH   3  31
HETATM   31  C9  UNL     1      36.890  28.550  26.835  1.00  0.00     0.246 C 
HETATM   32  O3  UNL     1      35.785  28.278  27.208  1.00  0.00    -0.306 OA
ENDBRANCH   3  31
TORSDOF 5
ENDMDL
MODEL 2
REMARK VINA RESULT: -7.620333624      2.384      3.763
REMARK  5 active torsions:
REMARK  status: ('A' for Active; 'I' for Inactive)
REMARK    1  A    between atoms: C2_2  and  O1_3 
REMARK    2  A    between atoms: C4_6  and  N1_7 
REMARK       I    between atoms: N1_7  and  C5_8 
REMARK    3  A    between atoms: N1_7  and  C20_28 
REMARK    4  A    between atoms: C5_8  and  C6_10 
REMARK    5  A    between atoms: C8_12  and  C9_13 
ROOT
HETATM    1  C6  UNL     1      35.846  30.100  23.149  1.00  0.00     0.036 C 
HETATM    2  C7  UNL     1      37.022  30.691  23.134  1.00  0.00     0.009 C 
HETATM    3  C8  UNL     1      38.049  30.557  24.106  1.00  0.00     0.054 C 
HETATM    4  C10 UNL     1      38.525  31.497  25.112  1.00  0.00     0.061 C 
HETATM    5  C11 UNL     1      39.710  30.670  25.626  1.00  0.00     0.036 C 
HETATM    6 CL1  UNL     1      41.328  31.178  25.938  1.00  0.00    -0.087 Cl
HETATM    7  C12 UNL     1      39.131  29.442  25.763  1.00  0.00     0.041 C 
HETATM    8 CL2  UNL     1      39.830  27.951  26.301  1.00  0.00    -0.086 Cl
HETATM    9  C13 UNL     1      37.710  29.742  25.344  1.00  0.00     0.029 C 
HETATM   10  C14 UNL     1      36.756  28.684  25.093  1.00  0.00     0.058 C 
HETATM   11  C15 UNL     1      35.559  29.345  24.396  1.00  0.00    -0.031 C 
HETATM   12  C16 UNL     1      34.430  29.294  25.020  1.00  0.00     0.092 C 
HETATM   13 CL3  UNL     1      32.898  30.031  24.708  1.00  0.00    -0.096 Cl
HETATM   14  C17 UNL     1      37.491  30.973  26.092  1.00  0.00    -0.023 C 
HETATM   15  C18 UNL     1      38.191  30.839  27.477  1.00  0.00     0.016 C 
HETATM   16  C19 UNL     1      36.254  31.741  26.215  1.00  0.00     0.016 C 
ENDROOT
BRANCH   1  17
HETATM   17  C5  UNL     1      34.803  30.230  22.152  1.00  0.00     0.254 C 
HETATM   18  N1  UNL     1      34.285  29.337  21.229  1.00  0.00    -0.338 N 
HETATM   19  O2  UNL     1      34.250  31.406  22.118  1.00  0.00    -0.267 OA
BRANCH  18  20
HETATM   20  C4  UNL     1      33.041  29.604  20.528  1.00  0.00     0.093 C 
HETATM   21  C3  UNL     1      33.085  30.149  19.149  1.00  0.00     0.062 C 
HETATM   22  C2  UNL     1      31.940  31.071  19.530  1.00  0.00     0.058 C 
HETATM   23  C1  UNL     1      32.033  32.487  19.063  1.00  0.00     0.046 C 
HETATM   24  C24 UNL     1      32.266  30.810  20.981  1.00  0.00     0.062 C 
BRANCH  22  25
HETATM   25  O1  UNL     1      30.676  30.559  19.228  1.00  0.00    -0.390 OA
ATOM     26  H1  UNL     1      30.447  29.883  19.856  1.00  0.00     0.210 HD
ENDBRANCH  22  25
ENDBRANCH  18  20
BRANCH  18  27
HETATM   27  C20 UNL     1      34.994  28.162  20.743  1.00  0.00     0.088 C 
HETATM   28  C21 UNL     1      36.186  28.463  19.890  1.00  0.00     0.025 C 
HETATM   29  C22 UNL     1      37.034  27.587  20.765  1.00  0.00     0.004 C 
HETATM   30  C23 UNL     1      35.949  27.579  21.799  1.00  0.00     0.025 C 
ENDBRANCH  18  27
ENDBRANCH   1  17
BRANCH   3  31
HETATM   31  C9  UNL     1      39.312  29.907  23.461  1.00  0.00     0.246 C 
HETATM   32  O3  UNL     1      39.305  29.661  22.289  1.00  0.00    -0.306 OA
ENDBRANCH   3  31
TORSDOF 5
ENDMDL
MODEL 3
REMARK VINA RESULT: -7.514956088      2.045      3.056
REMARK  5 active torsions:
REMARK  status: ('A' for Active; 'I' for Inactive)
REMARK    1  A    between atoms: C2_2  and  O1_3 
REMARK    2  A    between atoms: C4_6  and  N1_7 
REMARK       I    between atoms: N1_7  and  C5_8 
REMARK    3  A    between atoms: N1_7  and  C20_28 
REMARK    4  A    between atoms: C5_8  and  C6_10 
REMARK    5  A    between atoms: C8_12  and  C9_13 
ROOT
HETATM    1  C6  UNL     1      36.506  30.050  25.226  1.00  0.00     0.036 C 
HETATM    2  C7  UNL     1      37.241  28.971  25.399  1.00  0.00     0.009 C 
HETATM    3  C8  UNL     1      38.427  28.870  26.174  1.00  0.00     0.054 C 
HETATM    4  C10 UNL     1      39.816  28.731  25.759  1.00  0.00     0.061 C 
HETATM    5  C11 UNL     1      40.430  28.541  27.151  1.00  0.00     0.036 C 
HETATM    6 CL1  UNL     1      41.592  27.377  27.672  1.00  0.00    -0.087 Cl
HETATM    7  C12 UNL     1      39.809  29.535  27.850  1.00  0.00     0.041 C 
HETATM    8 CL2  UNL     1      39.970  29.975  29.517  1.00  0.00    -0.086 Cl
HETATM    9  C13 UNL     1      38.962  30.164  26.767  1.00  0.00     0.029 C 
HETATM   10  C14 UNL     1      37.928  31.126  27.078  1.00  0.00     0.058 C 
HETATM   11  C15 UNL     1      37.095  31.287  25.799  1.00  0.00    -0.031 C 
HETATM   12  C16 UNL     1      37.085  32.462  25.264  1.00  0.00     0.092 C 
HETATM   13 CL3  UNL     1      36.446  33.050  23.769  1.00  0.00    -0.096 Cl
HETATM   14  C17 UNL     1      39.951  30.242  25.699  1.00  0.00    -0.023 C 
HETATM   15  C18 UNL     1      41.328  30.610  26.329  1.00  0.00     0.016 C 
HETATM   16  C19 UNL     1      39.806  30.862  24.384  1.00  0.00     0.016 C 
ENDROOT
BRANCH   1  17
HETATM   17  C5  UNL     1      35.292  30.149  24.442  1.00  0.00     0.254 C 
HETATM   18  N1  UNL     1      34.981  29.737  23.157  1.00  0.00    -0.338 N 
HETATM   19  O2  UNL     1      34.310  30.732  25.063  1.00  0.00    -0.267 OA
BRANCH  18  20
HETATM   20  C4  UNL     1      33.607  29.684  22.687  1.00  0.00     0.093 C 
HETATM   21  C3  UNL     1      33.248  28.749  21.593  1.00  0.00     0.062 C 
HETATM   22  C2  UNL     1      32.385  29.850  21.003  1.00  0.00     0.058 C 
HETATM   23  C1  UNL     1      32.454  30.037  19.522  1.00  0.00     0.046 C 
HETATM   24  C24 UNL     1      33.142  30.843  21.851  1.00  0.00     0.062 C 
BRANCH  22  25
HETATM   25  O1  UNL     1      31.049  29.802  21.408  1.00  0.00    -0.390 OA
ATOM     26  H1  UNL     1      30.997  29.907  22.351  1.00  0.00     0.210 HD
ENDBRANCH  22  25
ENDBRANCH  18  20
BRANCH  18  27
HETATM   27  C20 UNL     1      35.969  29.497  22.115  1.00  0.00     0.088 C 
HETATM   28  C21 UNL     1      37.358  29.933  22.463  1.00  0.00     0.025 C 
HETATM   29  C22 UNL     1      37.875  28.568  22.111  1.00  0.00     0.004 C 
HETATM   30  C23 UNL     1      36.470  28.042  22.113  1.00  0.00     0.025 C 
ENDBRANCH  18  27
ENDBRANCH   1  17
BRANCH   3  31
HETATM   31  C9  UNL     1      38.206  27.881  27.359  1.00  0.00     0.246 C 
HETATM   32  O3  UNL     1      37.121  27.403  27.524  1.00  0.00    -0.306 OA
ENDBRANCH   3  31
TORSDOF 5
ENDMDL
MODEL 4
REMARK VINA RESULT: -7.048743426      2.136      2.887
REMARK  5 active torsions:
REMARK  status: ('A' for Active; 'I' for Inactive)
REMARK    1  A    between atoms: C2_2  and  O1_3 
REMARK    2  A    between atoms: C4_6  and  N1_7 
REMARK       I    between atoms: N1_7  and  C5_8 
REMARK    3  A    between atoms: N1_7  and  C20_28 
REMARK    4  A    between atoms: C5_8  and  C6_10 
REMARK    5  A    between atoms: C8_12  and  C9_13 
ROOT
HETATM    1  C6  UNL     1      37.082  29.890  24.969  1.00  0.00     0.036 C 
HETATM    2  C7  UNL     1      37.861  28.856  25.204  1.00  0.00     0.009 C 
HETATM    3  C8  UNL     1      39.003  28.831  26.050  1.00  0.00     0.054 C 
HETATM    4  C10 UNL     1      40.419  28.760  25.721  1.00  0.00     0.061 C 
HETATM    5  C11 UNL     1      40.958  28.624  27.150  1.00  0.00     0.036 C 
HETATM    6 CL1  UNL     1      42.147  27.532  27.759  1.00  0.00    -0.087 Cl
HETATM    7  C12 UNL     1      40.244  29.594  27.792  1.00  0.00     0.041 C 
HETATM    8 CL2  UNL     1      40.282  30.067  29.458  1.00  0.00    -0.086 Cl
HETATM    9  C13 UNL     1      39.432  30.160  26.650  1.00  0.00     0.029 C 
HETATM   10  C14 UNL     1      38.331  31.069  26.882  1.00  0.00     0.058 C 
HETATM   11  C15 UNL     1      37.570  31.166  25.554  1.00  0.00    -0.031 C 
HETATM   12  C16 UNL     1      37.529  32.331  24.997  1.00  0.00     0.092 C 
HETATM   13 CL3  UNL     1      36.951  32.861  23.457  1.00  0.00    -0.096 Cl
HETATM   14  C17 UNL     1      40.478  30.275  25.642  1.00  0.00    -0.023 C 
HETATM   15  C18 UNL     1      41.793  30.726  26.345  1.00  0.00     0.016 C 
HETATM   16  C19 UNL     1      40.379  30.866  24.309  1.00  0.00     0.016 C 
ENDROOT
BRANCH   1  17
HETATM   17  C5  UNL     1      35.914  29.912  24.113  1.00  0.00     0.254 C 
HETATM   18  N1  UNL     1      34.565  30.072  24.388  1.00  0.00    -0.338 N 
HETATM   19  O2  UNL     1      36.181  29.752  22.852  1.00  0.00    -0.267 OA
BRANCH  18  20
HETATM   20  C4  UNL     1      33.603  30.350  23.335  1.00  0.00     0.093 C 
HETATM   21  C3  UNL     1      33.124  29.240  22.476  1.00  0.00     0.062 C 
HETATM   22  C2  UNL     1      33.236  30.178  21.287  1.00  0.00     0.058 C 
HETATM   23  C1  UNL     1      33.826  29.611  20.037  1.00  0.00     0.046 C 
HETATM   24  C24 UNL     1      34.130  31.064  22.121  1.00  0.00     0.062 C 
BRANCH  22  25
HETATM   25  O1  UNL     1      32.050  30.852  20.983  1.00  0.00    -0.390 OA
ATOM     26  H1  UNL     1      31.962  30.934  20.041  1.00  0.00     0.210 HD
ENDBRANCH  22  25
ENDBRANCH  18  20
BRANCH  18  27
HETATM   27  C20 UNL     1      33.960  29.810  25.685  1.00  0.00     0.088 C 
HETATM   28  C21 UNL     1      34.447  30.694  26.790  1.00  0.00     0.025 C 
HETATM   29  C22 UNL     1      33.030  31.052  27.129  1.00  0.00     0.004 C 
HETATM   30  C23 UNL     1      32.576  30.467  25.825  1.00  0.00     0.025 C 
ENDBRANCH  18  27
ENDBRANCH   1  17
BRANCH   3  31
HETATM   31  C9  UNL     1      38.764  27.848  27.238  1.00  0.00     0.246 C 
HETATM   32  O3  UNL     1      37.648  27.487  27.478  1.00  0.00    -0.306 OA
ENDBRANCH   3  31
TORSDOF 5
ENDMDL
MODEL 5
REMARK VINA RESULT: -7.032183371      2.458      3.292
REMARK  5 active torsions:
REMARK  status: ('A' for Active; 'I' for Inactive)
REMARK    1  A    between atoms: C2_2  and  O1_3 
REMARK    2  A    between atoms: C4_6  and  N1_7 
REMARK       I    between atoms: N1_7  and  C5_8 
REMARK    3  A    between atoms: N1_7  and  C20_28 
REMARK    4  A    between atoms: C5_8  and  C6_10 
REMARK    5  A    between atoms: C8_12  and  C9_13 
ROOT
HETATM    1  C6  UNL     1      35.133  30.953  23.367  1.00  0.00     0.036 C 
HETATM    2  C7  UNL     1      35.400  31.207  24.630  1.00  0.00     0.009 C 
HETATM    3  C8  UNL     1      36.603  30.898  25.320  1.00  0.00     0.054 C 
HETATM    4  C10 UNL     1      36.876  29.890  26.335  1.00  0.00     0.061 C 
HETATM    5  C11 UNL     1      38.317  30.305  26.657  1.00  0.00     0.036 C 
HETATM    6 CL1  UNL     1      39.065  30.511  28.198  1.00  0.00    -0.087 Cl
HETATM    7  C12 UNL     1      38.831  30.463  25.402  1.00  0.00     0.041 C 
HETATM    8 CL2  UNL     1      40.426  30.932  24.918  1.00  0.00    -0.086 Cl
HETATM    9  C13 UNL     1      37.637  30.091  24.552  1.00  0.00     0.029 C 
HETATM   10  C14 UNL     1      37.618  30.338  23.127  1.00  0.00     0.058 C 
HETATM   11  C15 UNL     1      36.165  30.135  22.678  1.00  0.00    -0.031 C 
HETATM   12  C16 UNL     1      35.951  29.183  21.833  1.00  0.00     0.092 C 
HETATM   13 CL3  UNL     1      34.495  28.498  21.201  1.00  0.00    -0.096 Cl
HETATM   14  C17 UNL     1      37.209  28.884  25.248  1.00  0.00    -0.023 C 
HETATM   15  C18 UNL     1      38.477  28.106  25.709  1.00  0.00     0.016 C 
HETATM   16  C19 UNL     1      36.148  27.956  24.866  1.00  0.00     0.016 C 
ENDROOT
BRANCH   1  17
HETATM   17  C5  UNL     1      33.909  31.277  22.662  1.00  0.00     0.254 C 
HETATM   18  N1  UNL     1      33.652  32.102  21.580  1.00  0.00    -0.338 N 
HETATM   19  O2  UNL     1      32.856  30.680  23.134  1.00  0.00    -0.267 OA
BRANCH  18  20
HETATM   20  C4  UNL     1      32.389  32.045  20.863  1.00  0.00     0.093 C 
HETATM   21  C3  UNL     1      31.821  30.725  20.495  1.00  0.00     0.062 C 
HETATM   22  C2  UNL     1      31.446  31.318  19.149  1.00  0.00     0.058 C 
HETATM   23  C1  UNL     1      31.700  30.468  17.946  1.00  0.00     0.046 C 
HETATM   24  C24 UNL     1      32.428  32.435  19.412  1.00  0.00     0.062 C 
BRANCH  22  25
HETATM   25  O1  UNL     1      30.148  31.830  19.097  1.00  0.00    -0.390 OA
ATOM     26  H1  UNL     1      30.126  32.688  19.503  1.00  0.00     0.210 HD
ENDBRANCH  22  25
ENDBRANCH  18  20
BRANCH  18  27
HETATM   27  C20 UNL     1      34.512  33.203  21.170  1.00  0.00     0.088 C 
HETATM   28  C21 UNL     1      33.811  34.516  21.012  1.00  0.00     0.025 C 
HETATM   29  C22 UNL     1      34.817  35.162  21.919  1.00  0.00     0.004 C 
HETATM   30  C23 UNL     1      35.288  33.807  22.352  1.00  0.00     0.025 C 
ENDBRANCH  18  27
ENDBRANCH   1  17
BRANCH   3  31
HETATM   31  C9  UNL     1      37.302  32.212  25.787  1.00  0.00     0.246 C 
HETATM   32  O3  UNL     1      36.824  33.266  25.478  1.00  0.00    -0.306 OA
ENDBRANCH   3  31
TORSDOF 5
ENDMDL
