MODEL 1
REMARK VINA RESULT: -7.316966841      0.000      0.000
REMARK  4 active torsions:
REMARK  status: ('A' for Active; 'I' for Inactive)
REMARK    1  A    between atoms: N1_2  and  C3_4 
REMARK    2  A    between atoms: C3_4  and  C4_5 
REMARK    3  A    between atoms: N2_10  and  C7_11 
REMARK    4  A    between atoms: C11_15  and  N3_16 
ROOT
HETATM    1  C7  UNL     1      37.506  27.050  26.746  1.00  0.00     0.061 C 
HETATM    2  C8  UNL     1      38.979  27.229  27.036  1.00  0.00     0.041 C 
HETATM    3  C9  UNL     1      37.354  26.687  25.291  1.00  0.00     0.036 C 
HETATM    4  C10 UNL     1      36.625  27.875  24.630  1.00  0.00     0.030 C 
HETATM    5  C11 UNL     1      37.110  29.030  25.507  1.00  0.00     0.117 C 
HETATM    6  C23 UNL     1      36.837  28.457  26.841  1.00  0.00     0.220 C 
HETATM    7  F1  UNL     1      35.512  28.135  27.087  1.00  0.00    -0.245 F 
ENDROOT
BRANCH   5   8
HETATM    8  N3  UNL     1      36.549  30.280  25.138  1.00  0.00    -0.387 N 
HETATM    9  C12 UNL     1      35.286  30.151  24.477  1.00  0.00     0.109 C 
HETATM   10  C13 UNL     1      34.210  30.623  25.454  1.00  0.00     0.027 C 
HETATM   11  C17 UNL     1      35.124  30.789  23.149  1.00  0.00     0.094 C 
HETATM   12  C14 UNL     1      32.832  30.233  24.956  1.00  0.00     0.002 C 
HETATM   13  C15 UNL     1      32.852  29.958  23.465  1.00  0.00     0.002 C 
HETATM   14  C16 UNL     1      33.645  31.047  22.828  1.00  0.00     0.034 C 
HETATM   15 CL1  UNL     1      35.742  29.766  21.817  1.00  0.00    -0.111 Cl
HETATM   16  C18 UNL     1      35.778  32.108  23.056  1.00  0.00     0.036 C 
HETATM   17 CL2  UNL     1      35.075  33.345  22.040  1.00  0.00    -0.087 Cl
HETATM   18  C19 UNL     1      36.866  32.298  23.738  1.00  0.00     0.024 C 
HETATM   19  C20 UNL     1      37.445  31.240  24.583  1.00  0.00     0.041 C 
HETATM   20  C21 UNL     1      38.552  30.626  23.725  1.00  0.00     0.042 C 
HETATM   21  C22 UNL     1      38.211  32.018  25.682  1.00  0.00     0.042 C 
ENDBRANCH   5   8
BRANCH   1  22
HETATM   22  N2  UNL     1      36.919  26.161  27.666  1.00  0.00    -0.378 N 
HETATM   23  C6  UNL     1      35.888  25.300  27.238  1.00  0.00     0.062 C 
HETATM   24  C5  UNL     1      36.342  23.871  27.498  1.00  0.00     0.099 C 
HETATM   25  C3  UNL     1      37.349  24.020  28.615  1.00  0.00     0.265 C 
HETATM   26  C24 UNL     1      37.788  25.466  28.558  1.00  0.00     0.176 C 
BRANCH  25  27
HETATM   27  N1  UNL     1      38.502  23.190  28.398  1.00  0.00     0.102 N 
HETATM   28  C1  UNL     1      38.771  23.076  26.995  1.00  0.00     0.311 C 
HETATM   29  C2  UNL     1      39.668  23.595  29.116  1.00  0.00     0.311 C 
ENDBRANCH  25  27
BRANCH  25  30
HETATM   30  C4  UNL     1      36.644  23.680  29.872  1.00  0.00     0.215 C 
HETATM   31  O1  UNL     1      36.102  22.567  30.026  1.00  0.00    -0.646 OA
HETATM   32  O2  UNL     1      36.583  24.605  30.893  1.00  0.00    -0.646 OA
ENDBRANCH  25  30
ENDBRANCH   1  22
TORSDOF 4
ENDMDL
MODEL 2
REMARK VINA RESULT: -7.111491397      1.260      1.502
REMARK  4 active torsions:
REMARK  status: ('A' for Active; 'I' for Inactive)
REMARK    1  A    between atoms: N1_2  and  C3_4 
REMARK    2  A    between atoms: C3_4  and  C4_5 
REMARK    3  A    between atoms: N2_10  and  C7_11 
REMARK    4  A    between atoms: C11_15  and  N3_16 
ROOT
HETATM    1  C7  UNL     1      37.705  26.308  27.038  1.00  0.00     0.061 C 
HETATM    2  C8  UNL     1      38.983  26.581  27.798  1.00  0.00     0.041 C 
HETATM    3  C9  UNL     1      38.035  26.245  25.568  1.00  0.00     0.036 C 
HETATM    4  C10 UNL     1      37.337  27.460  24.922  1.00  0.00     0.030 C 
HETATM    5  C11 UNL     1      37.353  28.450  26.088  1.00  0.00     0.117 C 
HETATM    6  C23 UNL     1      36.811  27.583  27.155  1.00  0.00     0.220 C 
HETATM    7  F1  UNL     1      35.544  27.075  26.917  1.00  0.00    -0.245 F 
ENDROOT
BRANCH   5   8
HETATM    8  N3  UNL     1      36.720  29.682  25.778  1.00  0.00    -0.387 N 
HETATM    9  C12 UNL     1      35.980  29.635  24.554  1.00  0.00     0.109 C 
HETATM   10  C13 UNL     1      34.496  29.640  24.919  1.00  0.00     0.027 C 
HETATM   11  C17 UNL     1      36.282  30.649  23.516  1.00  0.00     0.094 C 
HETATM   12  C14 UNL     1      33.651  29.284  23.711  1.00  0.00     0.002 C 
HETATM   13  C15 UNL     1      34.419  29.513  22.424  1.00  0.00     0.002 C 
HETATM   14  C16 UNL     1      35.102  30.831  22.550  1.00  0.00     0.034 C 
HETATM   15 CL1  UNL     1      37.681  30.191  22.498  1.00  0.00    -0.111 Cl
HETATM   16  C18 UNL     1      36.539  31.990  24.073  1.00  0.00     0.036 C 
HETATM   17 CL2  UNL     1      36.084  33.404  23.151  1.00  0.00    -0.087 Cl
HETATM   18  C19 UNL     1      37.106  32.068  25.238  1.00  0.00     0.024 C 
HETATM   19  C20 UNL     1      37.487  30.863  25.995  1.00  0.00     0.041 C 
HETATM   20  C21 UNL     1      38.980  30.690  25.713  1.00  0.00     0.042 C 
HETATM   21  C22 UNL     1      37.437  31.320  27.475  1.00  0.00     0.042 C 
ENDBRANCH   5   8
BRANCH   1  22
HETATM   22  N2  UNL     1      37.036  25.187  27.565  1.00  0.00    -0.378 N 
HETATM   23  C6  UNL     1      37.118  23.950  26.894  1.00  0.00     0.062 C 
HETATM   24  C5  UNL     1      37.718  22.940  27.860  1.00  0.00     0.099 C 
HETATM   25  C3  UNL     1      37.381  23.509  29.220  1.00  0.00     0.265 C 
HETATM   26  C24 UNL     1      37.113  24.977  28.974  1.00  0.00     0.176 C 
BRANCH  25  27
HETATM   27  N1  UNL     1      38.491  23.398  30.126  1.00  0.00     0.102 N 
HETATM   28  C1  UNL     1      39.692  23.107  29.401  1.00  0.00     0.311 C 
HETATM   29  C2  UNL     1      38.667  24.524  30.987  1.00  0.00     0.311 C 
ENDBRANCH  25  27
BRANCH  25  30
HETATM   30  C4  UNL     1      36.188  22.778  29.704  1.00  0.00     0.215 C 
HETATM   31  O1  UNL     1      36.283  21.621  30.163  1.00  0.00    -0.646 OA
HETATM   32  O2  UNL     1      34.948  23.380  29.650  1.00  0.00    -0.646 OA
ENDBRANCH  25  30
ENDBRANCH   1  22
TORSDOF 4
ENDMDL
MODEL 3
REMARK VINA RESULT: -7.001051016      1.913      3.622
REMARK  4 active torsions:
REMARK  status: ('A' for Active; 'I' for Inactive)
REMARK    1  A    between atoms: N1_2  and  C3_4 
REMARK    2  A    between atoms: C3_4  and  C4_5 
REMARK    3  A    between atoms: N2_10  and  C7_11 
REMARK    4  A    between atoms: C11_15  and  N3_16 
ROOT
HETATM    1  C7  UNL     1      37.176  26.885  26.457  1.00  0.00     0.061 C 
HETATM    2  C8  UNL     1      35.802  26.591  27.014  1.00  0.00     0.041 C 
HETATM    3  C9  UNL     1      37.741  28.071  27.197  1.00  0.00     0.036 C 
HETATM    4  C10 UNL     1      37.843  29.211  26.162  1.00  0.00     0.030 C 
HETATM    5  C11 UNL     1      36.686  28.852  25.229  1.00  0.00     0.117 C 
HETATM    6  C23 UNL     1      36.986  27.422  25.004  1.00  0.00     0.220 C 
HETATM    7  F1  UNL     1      38.221  27.161  24.430  1.00  0.00    -0.245 F 
ENDROOT
BRANCH   5   8
HETATM    8  N3  UNL     1      36.566  29.739  24.128  1.00  0.00    -0.387 N 
HETATM    9  C12 UNL     1      37.513  30.811  24.171  1.00  0.00     0.109 C 
HETATM   10  C13 UNL     1      38.554  30.542  23.084  1.00  0.00     0.027 C 
HETATM   11  C17 UNL     1      37.001  32.200  24.093  1.00  0.00     0.094 C 
HETATM   12  C14 UNL     1      39.753  31.454  23.261  1.00  0.00     0.002 C 
HETATM   13  C15 UNL     1      39.396  32.665  24.099  1.00  0.00     0.002 C 
HETATM   14  C16 UNL     1      38.085  33.170  23.603  1.00  0.00     0.034 C 
HETATM   15 CL1  UNL     1      36.469  32.823  25.684  1.00  0.00    -0.111 Cl
HETATM   16  C18 UNL     1      35.883  32.353  23.143  1.00  0.00     0.036 C 
HETATM   17 CL2  UNL     1      35.697  33.858  22.273  1.00  0.00    -0.087 Cl
HETATM   18  C19 UNL     1      35.069  31.353  22.993  1.00  0.00     0.024 C 
HETATM   19  C20 UNL     1      35.242  30.096  23.741  1.00  0.00     0.041 C 
HETATM   20  C21 UNL     1      34.266  30.211  24.913  1.00  0.00     0.042 C 
HETATM   21  C22 UNL     1      34.600  29.025  22.824  1.00  0.00     0.042 C 
ENDBRANCH   5   8
BRANCH   1  22
HETATM   22  N2  UNL     1      37.975  25.726  26.454  1.00  0.00    -0.378 N 
HETATM   23  C6  UNL     1      39.283  25.783  26.974  1.00  0.00     0.062 C 
HETATM   24  C5  UNL     1      39.374  24.770  28.106  1.00  0.00     0.099 C 
HETATM   25  C3  UNL     1      38.295  23.766  27.768  1.00  0.00     0.265 C 
HETATM   26  C24 UNL     1      37.357  24.499  26.835  1.00  0.00     0.176 C 
BRANCH  25  27
HETATM   27  N1  UNL     1      37.556  23.374  28.936  1.00  0.00     0.102 N 
HETATM   28  C1  UNL     1      37.463  24.472  29.853  1.00  0.00     0.311 C 
HETATM   29  C2  UNL     1      36.270  22.817  28.664  1.00  0.00     0.311 C 
ENDBRANCH  25  27
BRANCH  25  30
HETATM   30  C4  UNL     1      38.971  22.618  27.122  1.00  0.00     0.215 C 
HETATM   31  O1  UNL     1      39.810  21.932  27.740  1.00  0.00    -0.646 OA
HETATM   32  O2  UNL     1      38.671  22.297  25.814  1.00  0.00    -0.646 OA
ENDBRANCH  25  30
ENDBRANCH   1  22
TORSDOF 4
ENDMDL
MODEL 4
REMARK VINA RESULT: -6.733563828      2.021      2.782
REMARK  4 active torsions:
REMARK  status: ('A' for Active; 'I' for Inactive)
REMARK    1  A    between atoms: N1_2  and  C3_4 
REMARK    2  A    between atoms: C3_4  and  C4_5 
REMARK    3  A    between atoms: N2_10  and  C7_11 
REMARK    4  A    between atoms: C11_15  and  N3_16 
ROOT
HETATM    1  C7  UNL     1      38.297  26.249  26.912  1.00  0.00     0.061 C 
HETATM    2  C8  UNL     1      39.621  25.524  27.006  1.00  0.00     0.041 C 
HETATM    3  C9  UNL     1      37.973  26.451  25.454  1.00  0.00     0.036 C 
HETATM    4  C10 UNL     1      38.030  27.974  25.213  1.00  0.00     0.030 C 
HETATM    5  C11 UNL     1      39.072  28.389  26.252  1.00  0.00     0.117 C 
HETATM    6  C23 UNL     1      38.522  27.701  27.439  1.00  0.00     0.220 C 
HETATM    7  F1  UNL     1      37.240  28.083  27.802  1.00  0.00    -0.245 F 
ENDROOT
BRANCH   5   8
HETATM    8  N3  UNL     1      39.301  29.789  26.280  1.00  0.00    -0.387 N 
HETATM    9  C12 UNL     1      38.243  30.539  25.675  1.00  0.00     0.109 C 
HETATM   10  C13 UNL     1      37.479  31.236  26.800  1.00  0.00     0.027 C 
HETATM   11  C17 UNL     1      38.590  31.488  24.592  1.00  0.00     0.094 C 
HETATM   12  C14 UNL     1      36.168  31.797  26.284  1.00  0.00     0.002 C 
HETATM   13  C15 UNL     1      36.204  31.960  24.777  1.00  0.00     0.002 C 
HETATM   14  C16 UNL     1      37.517  32.574  24.433  1.00  0.00     0.034 C 
HETATM   15 CL1  UNL     1      38.716  30.689  22.995  1.00  0.00    -0.111 Cl
HETATM   16  C18 UNL     1      39.848  32.217  24.840  1.00  0.00     0.036 C 
HETATM   17 CL2  UNL     1      40.022  33.854  24.251  1.00  0.00    -0.087 Cl
HETATM   18  C19 UNL     1      40.789  31.604  25.491  1.00  0.00     0.024 C 
HETATM   19  C20 UNL     1      40.623  30.222  25.973  1.00  0.00     0.041 C 
HETATM   20  C21 UNL     1      41.326  29.363  24.920  1.00  0.00     0.042 C 
HETATM   21  C22 UNL     1      41.559  30.142  27.205  1.00  0.00     0.042 C 
ENDBRANCH   5   8
BRANCH   1  22
HETATM   22  N2  UNL     1      37.311  25.594  27.675  1.00  0.00    -0.378 N 
HETATM   23  C6  UNL     1      36.320  24.834  27.024  1.00  0.00     0.062 C 
HETATM   24  C5  UNL     1      36.412  23.409  27.548  1.00  0.00     0.099 C 
HETATM   25  C3  UNL     1      37.047  23.575  28.910  1.00  0.00     0.265 C 
HETATM   26  C24 UNL     1      37.734  24.922  28.860  1.00  0.00     0.176 C 
BRANCH  25  27
HETATM   27  N1  UNL     1      38.044  22.569  29.152  1.00  0.00     0.102 N 
HETATM   28  C1  UNL     1      38.379  21.902  27.929  1.00  0.00     0.311 C 
HETATM   29  C2  UNL     1      39.214  23.043  29.820  1.00  0.00     0.311 C 
ENDBRANCH  25  27
BRANCH  25  30
HETATM   30  C4  UNL     1      35.948  23.524  29.901  1.00  0.00     0.215 C 
HETATM   31  O1  UNL     1      34.967  22.772  29.737  1.00  0.00    -0.646 OA
HETATM   32  O2  UNL     1      36.006  24.319  31.027  1.00  0.00    -0.646 OA
ENDBRANCH  25  30
ENDBRANCH   1  22
TORSDOF 4
ENDMDL
MODEL 5
REMARK VINA RESULT: -6.693729852      1.142      1.279
REMARK  4 active torsions:
REMARK  status: ('A' for Active; 'I' for Inactive)
REMARK    1  A    between atoms: N1_2  and  C3_4 
REMARK    2  A    between atoms: C3_4  and  C4_5 
REMARK    3  A    between atoms: N2_10  and  C7_11 
REMARK    4  A    between atoms: C11_15  and  N3_16 
ROOT
HETATM    1  C7  UNL     1      38.441  26.954  26.526  1.00  0.00     0.061 C 
HETATM    2  C8  UNL     1      39.948  27.080  26.515  1.00  0.00     0.041 C 
HETATM    3  C9  UNL     1      37.988  26.603  25.132  1.00  0.00     0.036 C 
HETATM    4  C10 UNL     1      37.184  27.820  24.626  1.00  0.00     0.030 C 
HETATM    5  C11 UNL     1      37.875  28.953  25.386  1.00  0.00     0.117 C 
HETATM    6  C23 UNL     1      37.855  28.383  26.750  1.00  0.00     0.220 C 
HETATM    7  F1  UNL     1      36.594  28.107  27.256  1.00  0.00    -0.245 F 
ENDROOT
BRANCH   5   8
HETATM    8  N3  UNL     1      37.296  30.224  25.134  1.00  0.00    -0.387 N 
HETATM    9  C12 UNL     1      35.924  30.141  24.735  1.00  0.00     0.109 C 
HETATM   10  C13 UNL     1      35.079  30.644  25.904  1.00  0.00     0.027 C 
HETATM   11  C17 UNL     1      35.526  30.792  23.464  1.00  0.00     0.094 C 
HETATM   12  C14 UNL     1      33.617  30.305  25.687  1.00  0.00     0.002 C 
HETATM   13  C15 UNL     1      33.334  30.038  24.222  1.00  0.00     0.002 C 
HETATM   14  C16 UNL     1      34.023  31.103  23.441  1.00  0.00     0.034 C 
HETATM   15 CL1  UNL     1      35.834  29.757  22.038  1.00  0.00    -0.111 Cl
HETATM   16  C18 UNL     1      36.194  32.089  23.243  1.00  0.00     0.036 C 
HETATM   17 CL2  UNL     1      35.348  33.355  22.384  1.00  0.00    -0.087 Cl
HETATM   18  C19 UNL     1      37.401  32.238  23.696  1.00  0.00     0.024 C 
HETATM   19  C20 UNL     1      38.098  31.155  24.412  1.00  0.00     0.041 C 
HETATM   20  C21 UNL     1      38.993  30.509  23.353  1.00  0.00     0.042 C 
HETATM   21  C22 UNL     1      39.093  31.900  25.338  1.00  0.00     0.042 C 
ENDBRANCH   5   8
BRANCH   1  22
HETATM   22  N2  UNL     1      38.018  26.082  27.547  1.00  0.00    -0.378 N 
HETATM   23  C6  UNL     1      37.565  24.790  27.213  1.00  0.00     0.062 C 
HETATM   24  C5  UNL     1      38.450  23.788  27.940  1.00  0.00     0.099 C 
HETATM   25  C3  UNL     1      38.970  24.572  29.124  1.00  0.00     0.265 C 
HETATM   26  C24 UNL     1      38.807  26.025  28.733  1.00  0.00     0.176 C 
BRANCH  25  27
HETATM   27  N1  UNL     1      40.366  24.319  29.349  1.00  0.00     0.102 N 
HETATM   28  C1  UNL     1      40.966  23.773  28.168  1.00  0.00     0.311 C 
HETATM   29  C2  UNL     1      41.103  25.444  29.830  1.00  0.00     0.311 C 
ENDBRANCH  25  27
BRANCH  25  30
HETATM   30  C4  UNL     1      38.137  24.191  30.287  1.00  0.00     0.215 C 
HETATM   31  O1  UNL     1      37.678  23.036  30.400  1.00  0.00    -0.646 OA
HETATM   32  O2  UNL     1      37.861  25.124  31.265  1.00  0.00    -0.646 OA
ENDBRANCH  25  30
ENDBRANCH   1  22
TORSDOF 4
ENDMDL
