MODEL 1
REMARK VINA RESULT: -8.547614854      0.000      0.000
REMARK  6 active torsions:
REMARK  status: ('A' for Active; 'I' for Inactive)
REMARK    1  A    between atoms: C1_2  and  C2_3 
REMARK       I    between atoms: C1_2  and  N1_13 
REMARK    2  A    between atoms: C2_3  and  O2_4 
REMARK    3  A    between atoms: O2_4  and  C3_5 
REMARK    4  A    between atoms: C3_5  and  C4_7 
REMARK    5  A    between atoms: N1_13  and  C10_15 
REMARK    6  A    between atoms: C14_22  and  C15_23 
ROOT
HETATM    1  C10 UNL     1      35.968  30.529  24.204  1.00  0.00     0.116 A 
HETATM    2  N2  UNL     1      35.835  31.793  24.680  1.00  0.00    -0.350 N 
ATOM      3  H2  UNL     1      34.925  32.110  25.013  1.00  0.00     0.166 HD
HETATM    4  C11 UNL     1      36.879  32.631  24.720  1.00  0.00     0.108 A 
HETATM    5  C12 UNL     1      38.109  32.201  24.270  1.00  0.00     0.027 A 
HETATM    6 BR1  UNL     1      39.625  33.346  24.301  1.00  0.00    -0.050 Br
HETATM    7  C13 UNL     1      38.276  30.904  23.775  1.00  0.00     0.033 A 
HETATM    8  C14 UNL     1      37.195  30.054  23.740  1.00  0.00     0.011 A 
ENDROOT
BRANCH   1   9
HETATM    9  N1  UNL     1      34.950  29.740  24.133  1.00  0.00    -0.311 N 
HETATM   10  C1  UNL     1      33.636  30.242  24.338  1.00  0.00     0.247 C 
HETATM   11  O1  UNL     1      33.227  30.541  25.486  1.00  0.00    -0.271 OA
ATOM     12  H1  UNL     1      35.087  28.750  23.928  1.00  0.00     0.170 HD
BRANCH  10  13
HETATM   13  C2  UNL     1      32.730  30.420  23.190  1.00  0.00     0.281 C 
BRANCH  13  14
HETATM   14  O2  UNL     1      32.971  29.586  22.103  1.00  0.00    -0.312 OA
BRANCH  14  15
HETATM   15  C3  UNL     1      33.119  29.988  20.790  1.00  0.00     0.263 C 
HETATM   16  O3  UNL     1      34.047  29.512  20.128  1.00  0.00    -0.265 OA
BRANCH  15  17
HETATM   17  C4  UNL     1      32.204  30.973  20.150  1.00  0.00     0.085 C 
HETATM   18  C5  UNL     1      31.846  30.481  18.789  1.00  0.00     0.014 C 
HETATM   19  C6  UNL     1      31.064  31.458  17.973  1.00  0.00     0.001 C 
HETATM   20  C7  UNL     1      30.935  32.809  18.643  1.00  0.00     0.000 C 
HETATM   21  C8  UNL     1      32.226  33.305  19.218  1.00  0.00     0.001 C 
HETATM   22  C9  UNL     1      32.979  32.266  19.997  1.00  0.00     0.014 C 
ENDBRANCH  15  17
ENDBRANCH  14  15
ENDBRANCH  13  14
ENDBRANCH  10  13
ENDBRANCH   1   9
BRANCH   8  23
HETATM   23  C15 UNL     1      37.323  28.640  23.282  1.00  0.00     0.068 C 
HETATM   24 CL1  UNL     1      37.223  27.675  24.859  1.00  0.00    -0.114 Cl
HETATM   25  C16 UNL     1      38.705  28.333  22.801  1.00  0.00     0.032 C 
HETATM   26  C17 UNL     1      38.903  28.527  21.309  1.00  0.00     0.022 C 
HETATM   27  C18 UNL     1      37.629  28.401  20.524  1.00  0.00     0.082 C 
HETATM   28 CL2  UNL     1      37.944  27.891  18.843  1.00  0.00    -0.125 Cl
HETATM   29  C19 UNL     1      36.695  27.446  21.194  1.00  0.00     0.022 C 
HETATM   30  C20 UNL     1      36.199  28.127  22.481  1.00  0.00     0.032 C 
ENDBRANCH   8  23
TORSDOF 6
ENDMDL
MODEL 2
REMARK VINA RESULT: -8.457163067      2.728      4.104
REMARK  6 active torsions:
REMARK  status: ('A' for Active; 'I' for Inactive)
REMARK    1  A    between atoms: C1_2  and  C2_3 
REMARK       I    between atoms: C1_2  and  N1_13 
REMARK    2  A    between atoms: C2_3  and  O2_4 
REMARK    3  A    between atoms: O2_4  and  C3_5 
REMARK    4  A    between atoms: C3_5  and  C4_7 
REMARK    5  A    between atoms: N1_13  and  C10_15 
REMARK    6  A    between atoms: C14_22  and  C15_23 
ROOT
HETATM    1  C10 UNL     1      35.100  30.201  23.572  1.00  0.00     0.116 A 
HETATM    2  N2  UNL     1      33.869  29.655  23.739  1.00  0.00    -0.350 N 
ATOM      3  H2  UNL     1      33.473  29.076  22.998  1.00  0.00     0.166 HD
HETATM    4  C11 UNL     1      33.167  29.861  24.860  1.00  0.00     0.108 A 
HETATM    5  C12 UNL     1      33.704  30.641  25.861  1.00  0.00     0.027 A 
HETATM    6 BR1  UNL     1      32.752  30.969  27.473  1.00  0.00    -0.050 Br
HETATM    7  C13 UNL     1      34.970  31.217  25.717  1.00  0.00     0.033 A 
HETATM    8  C14 UNL     1      35.680  30.997  24.561  1.00  0.00     0.011 A 
ENDROOT
BRANCH   1   9
HETATM    9  N1  UNL     1      35.755  30.030  22.474  1.00  0.00    -0.311 N 
HETATM   10  C1  UNL     1      35.542  28.868  21.684  1.00  0.00     0.247 C 
HETATM   11  O1  UNL     1      35.992  27.752  22.036  1.00  0.00    -0.271 OA
ATOM     12  H1  UNL     1      36.430  30.733  22.170  1.00  0.00     0.170 HD
BRANCH  10  13
HETATM   13  C2  UNL     1      34.780  28.964  20.427  1.00  0.00     0.281 C 
BRANCH  13  14
HETATM   14  O2  UNL     1      33.396  28.919  20.561  1.00  0.00    -0.312 OA
BRANCH  14  15
HETATM   15  C3  UNL     1      32.549  30.009  20.594  1.00  0.00     0.263 C 
HETATM   16  O3  UNL     1      31.404  29.854  21.031  1.00  0.00    -0.265 OA
BRANCH  15  17
HETATM   17  C4  UNL     1      32.967  31.358  20.122  1.00  0.00     0.085 C 
HETATM   18  C5  UNL     1      33.162  32.242  21.306  1.00  0.00     0.014 C 
HETATM   19  C6  UNL     1      33.422  33.674  20.964  1.00  0.00     0.001 C 
HETATM   20  C7  UNL     1      33.275  33.957  19.484  1.00  0.00     0.000 C 
HETATM   21  C8  UNL     1      32.045  33.342  18.888  1.00  0.00     0.001 C 
HETATM   22  C9  UNL     1      31.824  31.916  19.298  1.00  0.00     0.014 C 
ENDBRANCH  15  17
ENDBRANCH  14  15
ENDBRANCH  13  14
ENDBRANCH  10  13
ENDBRANCH   1   9
BRANCH   8  23
HETATM   23  C15 UNL     1      37.061  31.531  24.374  1.00  0.00     0.068 C 
HETATM   24 CL1  UNL     1      36.799  33.003  23.281  1.00  0.00    -0.114 Cl
HETATM   25  C16 UNL     1      37.895  30.634  23.516  1.00  0.00     0.032 C 
HETATM   26  C17 UNL     1      38.709  29.613  24.291  1.00  0.00     0.022 C 
HETATM   27  C18 UNL     1      39.006  30.041  25.699  1.00  0.00     0.082 C 
HETATM   28 CL2  UNL     1      40.495  29.275  26.316  1.00  0.00    -0.125 Cl
HETATM   29  C19 UNL     1      39.110  31.529  25.783  1.00  0.00     0.022 C 
HETATM   30  C20 UNL     1      37.693  32.094  25.580  1.00  0.00     0.032 C 
ENDBRANCH   8  23
TORSDOF 6
ENDMDL
MODEL 3
REMARK VINA RESULT: -8.454851812      0.950      1.085
REMARK  6 active torsions:
REMARK  status: ('A' for Active; 'I' for Inactive)
REMARK    1  A    between atoms: C1_2  and  C2_3 
REMARK       I    between atoms: C1_2  and  N1_13 
REMARK    2  A    between atoms: C2_3  and  O2_4 
REMARK    3  A    between atoms: O2_4  and  C3_5 
REMARK    4  A    between atoms: C3_5  and  C4_7 
REMARK    5  A    between atoms: N1_13  and  C10_15 
REMARK    6  A    between atoms: C14_22  and  C15_23 
ROOT
HETATM    1  C10 UNL     1      36.285  30.599  24.887  1.00  0.00     0.116 A 
HETATM    2  N2  UNL     1      36.231  31.857  25.393  1.00  0.00    -0.350 N 
ATOM      3  H2  UNL     1      35.421  32.141  25.946  1.00  0.00     0.166 HD
HETATM    4  C11 UNL     1      37.221  32.733  25.179  1.00  0.00     0.108 A 
HETATM    5  C12 UNL     1      38.314  32.349  24.433  1.00  0.00     0.027 A 
HETATM    6 BR1  UNL     1      39.749  33.549  24.096  1.00  0.00    -0.050 Br
HETATM    7  C13 UNL     1      38.398  31.059  23.900  1.00  0.00     0.033 A 
HETATM    8  C14 UNL     1      37.374  30.170  24.127  1.00  0.00     0.011 A 
ENDROOT
BRANCH   1   9
HETATM    9  N1  UNL     1      35.310  29.773  25.064  1.00  0.00    -0.311 N 
HETATM   10  C1  UNL     1      34.027  30.248  25.447  1.00  0.00     0.247 C 
HETATM   11  O1  UNL     1      33.802  30.644  26.616  1.00  0.00    -0.271 OA
ATOM     12  H1  UNL     1      35.461  28.773  24.929  1.00  0.00     0.170 HD
BRANCH  10  13
HETATM   13  C2  UNL     1      32.932  30.282  24.461  1.00  0.00     0.281 C 
BRANCH  13  14
HETATM   14  O2  UNL     1      33.315  30.098  23.136  1.00  0.00    -0.312 OA
BRANCH  14  15
HETATM   15  C3  UNL     1      33.633  31.097  22.238  1.00  0.00     0.263 C 
HETATM   16  O3  UNL     1      34.708  31.692  22.374  1.00  0.00    -0.265 OA
BRANCH  15  17
HETATM   17  C4  UNL     1      32.730  31.481  21.119  1.00  0.00     0.085 C 
HETATM   18  C5  UNL     1      32.860  30.472  20.029  1.00  0.00     0.014 C 
HETATM   19  C6  UNL     1      32.129  30.829  18.775  1.00  0.00     0.001 C 
HETATM   20  C7  UNL     1      31.538  32.222  18.819  1.00  0.00     0.000 C 
HETATM   21  C8  UNL     1      32.493  33.249  19.350  1.00  0.00     0.001 C 
HETATM   22  C9  UNL     1      33.218  32.814  20.590  1.00  0.00     0.014 C 
ENDBRANCH  15  17
ENDBRANCH  14  15
ENDBRANCH  13  14
ENDBRANCH  10  13
ENDBRANCH   1   9
BRANCH   8  23
HETATM   23  C15 UNL     1      37.434  28.761  23.639  1.00  0.00     0.068 C 
HETATM   24 CL1  UNL     1      37.645  27.782  25.196  1.00  0.00    -0.114 Cl
HETATM   25  C16 UNL     1      38.706  28.480  22.904  1.00  0.00     0.032 C 
HETATM   26  C17 UNL     1      38.617  28.690  21.403  1.00  0.00     0.022 C 
HETATM   27  C18 UNL     1      37.220  28.549  20.869  1.00  0.00     0.082 C 
HETATM   28 CL2  UNL     1      37.222  28.057  19.153  1.00  0.00    -0.125 Cl
HETATM   29  C19 UNL     1      36.442  27.574  21.692  1.00  0.00     0.022 C 
HETATM   30  C20 UNL     1      36.186  28.237  23.057  1.00  0.00     0.032 C 
ENDBRANCH   8  23
TORSDOF 6
ENDMDL
MODEL 4
REMARK VINA RESULT: -8.275662640      2.515      3.809
REMARK  6 active torsions:
REMARK  status: ('A' for Active; 'I' for Inactive)
REMARK    1  A    between atoms: C1_2  and  C2_3 
REMARK       I    between atoms: C1_2  and  N1_13 
REMARK    2  A    between atoms: C2_3  and  O2_4 
REMARK    3  A    between atoms: O2_4  and  C3_5 
REMARK    4  A    between atoms: C3_5  and  C4_7 
REMARK    5  A    between atoms: N1_13  and  C10_15 
REMARK    6  A    between atoms: C14_22  and  C15_23 
ROOT
HETATM    1  C10 UNL     1      35.288  29.525  23.490  1.00  0.00     0.116 A 
HETATM    2  N2  UNL     1      33.933  29.499  23.417  1.00  0.00    -0.350 N 
ATOM      3  H2  UNL     1      33.483  29.166  22.564  1.00  0.00     0.166 HD
HETATM    4  C11 UNL     1      33.177  29.903  24.446  1.00  0.00     0.108 A 
HETATM    5  C12 UNL     1      33.786  30.352  25.597  1.00  0.00     0.027 A 
HETATM    6 BR1  UNL     1      32.764  30.939  27.089  1.00  0.00    -0.050 Br
HETATM    7  C13 UNL     1      35.180  30.390  25.701  1.00  0.00     0.033 A 
HETATM    8  C14 UNL     1      35.944  29.972  24.637  1.00  0.00     0.011 A 
ENDROOT
BRANCH   1   9
HETATM    9  N1  UNL     1      36.010  29.171  22.481  1.00  0.00    -0.311 N 
HETATM   10  C1  UNL     1      35.437  28.434  21.410  1.00  0.00     0.247 C 
HETATM   11  O1  UNL     1      35.154  27.218  21.536  1.00  0.00    -0.271 OA
ATOM     12  H1  UNL     1      36.999  29.421  22.451  1.00  0.00     0.170 HD
BRANCH  10  13
HETATM   13  C2  UNL     1      35.164  29.098  20.124  1.00  0.00     0.281 C 
BRANCH  13  14
HETATM   14  O2  UNL     1      33.852  29.006  19.669  1.00  0.00    -0.312 OA
BRANCH  14  15
HETATM   15  C3  UNL     1      32.811  29.843  20.023  1.00  0.00     0.263 C 
HETATM   16  O3  UNL     1      32.101  29.526  20.984  1.00  0.00    -0.265 OA
BRANCH  15  17
HETATM   17  C4  UNL     1      32.518  31.105  19.291  1.00  0.00     0.085 C 
HETATM   18  C5  UNL     1      32.908  32.260  20.149  1.00  0.00     0.014 C 
HETATM   19  C6  UNL     1      32.511  33.592  19.598  1.00  0.00     0.001 C 
HETATM   20  C7  UNL     1      31.653  33.479  18.357  1.00  0.00     0.000 C 
HETATM   21  C8  UNL     1      30.561  32.460  18.488  1.00  0.00     0.001 C 
HETATM   22  C9  UNL     1      31.019  31.158  19.079  1.00  0.00     0.014 C 
ENDBRANCH  15  17
ENDBRANCH  14  15
ENDBRANCH  13  14
ENDBRANCH  10  13
ENDBRANCH   1   9
BRANCH   8  23
HETATM   23  C15 UNL     1      37.434  29.929  24.710  1.00  0.00     0.068 C 
HETATM   24 CL1  UNL     1      37.774  28.248  25.406  1.00  0.00    -0.114 Cl
HETATM   25  C16 UNL     1      37.966  30.835  25.773  1.00  0.00     0.032 C 
HETATM   26  C17 UNL     1      38.321  32.228  25.284  1.00  0.00     0.022 C 
HETATM   27  C18 UNL     1      38.646  32.273  23.819  1.00  0.00     0.082 C 
HETATM   28 CL2  UNL     1      39.732  33.636  23.432  1.00  0.00    -0.125 Cl
HETATM   29  C19 UNL     1      39.250  30.980  23.377  1.00  0.00     0.022 C 
HETATM   30  C20 UNL     1      38.134  29.923  23.413  1.00  0.00     0.032 C 
ENDBRANCH   8  23
TORSDOF 6
ENDMDL
MODEL 5
REMARK VINA RESULT: -8.151007283      4.043      5.796
REMARK  6 active torsions:
REMARK  status: ('A' for Active; 'I' for Inactive)
REMARK    1  A    between atoms: C1_2  and  C2_3 
REMARK       I    between atoms: C1_2  and  N1_13 
REMARK    2  A    between atoms: C2_3  and  O2_4 
REMARK    3  A    between atoms: O2_4  and  C3_5 
REMARK    4  A    between atoms: C3_5  and  C4_7 
REMARK    5  A    between atoms: N1_13  and  C10_15 
REMARK    6  A    between atoms: C14_22  and  C15_23 
ROOT
HETATM    1  C10 UNL     1      37.562  29.668  26.026  1.00  0.00     0.116 A 
HETATM    2  N2  UNL     1      38.326  28.701  26.593  1.00  0.00    -0.350 N 
ATOM      3  H2  UNL     1      39.327  28.857  26.711  1.00  0.00     0.166 HD
HETATM    4  C11 UNL     1      37.789  27.543  27.000  1.00  0.00     0.108 A 
HETATM    5  C12 UNL     1      36.436  27.333  26.840  1.00  0.00     0.027 A 
HETATM    6 BR1  UNL     1      35.619  25.710  27.397  1.00  0.00    -0.050 Br
HETATM    7  C13 UNL     1      35.624  28.312  26.260  1.00  0.00     0.033 A 
HETATM    8  C14 UNL     1      36.189  29.496  25.847  1.00  0.00     0.011 A 
ENDROOT
BRANCH   1   9
HETATM    9  N1  UNL     1      38.093  30.765  25.601  1.00  0.00    -0.311 N 
HETATM   10  C1  UNL     1      39.381  30.754  25.001  1.00  0.00     0.247 C 
HETATM   11  O1  UNL     1      40.418  30.610  25.692  1.00  0.00    -0.271 OA
ATOM     12  H1  UNL     1      37.585  31.645  25.696  1.00  0.00     0.170 HD
BRANCH  10  13
HETATM   13  C2  UNL     1      39.513  30.913  23.543  1.00  0.00     0.281 C 
BRANCH  13  14
HETATM   14  O2  UNL     1      39.670  29.732  22.824  1.00  0.00    -0.312 OA
BRANCH  14  15
HETATM   15  C3  UNL     1      38.750  28.706  22.740  1.00  0.00     0.263 C 
HETATM   16  O3  UNL     1      38.859  27.751  23.516  1.00  0.00    -0.265 OA
BRANCH  15  17
HETATM   17  C4  UNL     1      37.637  28.712  21.751  1.00  0.00     0.085 C 
HETATM   18  C5  UNL     1      36.641  27.674  22.142  1.00  0.00     0.014 C 
HETATM   19  C6  UNL     1      35.555  27.461  21.138  1.00  0.00     0.001 C 
HETATM   20  C7  UNL     1      35.782  28.235  19.857  1.00  0.00     0.000 C 
HETATM   21  C8  UNL     1      37.188  28.129  19.349  1.00  0.00     0.001 C 
HETATM   22  C9  UNL     1      38.230  28.319  20.412  1.00  0.00     0.014 C 
ENDBRANCH  15  17
ENDBRANCH  14  15
ENDBRANCH  13  14
ENDBRANCH  10  13
ENDBRANCH   1   9
BRANCH   8  23
HETATM   23  C15 UNL     1      35.365  30.603  25.279  1.00  0.00     0.068 C 
HETATM   24 CL1  UNL     1      35.776  32.039  26.373  1.00  0.00    -0.114 Cl
HETATM   25  C16 UNL     1      33.907  30.402  25.540  1.00  0.00     0.032 C 
HETATM   26  C17 UNL     1      33.170  29.676  24.429  1.00  0.00     0.022 C 
HETATM   27  C18 UNL     1      33.832  29.820  23.089  1.00  0.00     0.082 C 
HETATM   28 CL2  UNL     1      32.657  29.646  21.757  1.00  0.00    -0.125 Cl
HETATM   29  C19 UNL     1      34.540  31.133  22.994  1.00  0.00     0.022 C 
HETATM   30  C20 UNL     1      35.756  31.059  23.934  1.00  0.00     0.032 C 
ENDBRANCH   8  23
TORSDOF 6
ENDMDL
