MODEL 1
REMARK VINA RESULT: -7.908804735      0.000      0.000
REMARK  5 active torsions:
REMARK  status: ('A' for Active; 'I' for Inactive)
REMARK    1  A    between atoms: C2_2  and  O1_3 
REMARK    2  A    between atoms: C2_2  and  C3_6 
REMARK    3  A    between atoms: C10_13  and  C11_14 
REMARK    4  A    between atoms: C15_20  and  C16_21 
REMARK    5  A    between atoms: C22_29  and  C23_30 
ROOT
HETATM    1  C3  UNL     1      38.878  29.720  26.703  1.00  0.00     0.060 C 
HETATM    2  C4  UNL     1      38.288  30.875  27.534  1.00  0.00     0.011 C 
HETATM    3  C5  UNL     1      37.001  30.996  26.681  1.00  0.00     0.013 C 
HETATM    4  C6  UNL     1      37.586  31.149  25.334  1.00  0.00    -0.003 C 
HETATM    5  C7  UNL     1      38.182  32.525  25.265  1.00  0.00     0.131 C 
HETATM    6  C8  UNL     1      37.631  33.253  24.098  1.00  0.00     0.033 C 
HETATM    7  C9  UNL     1      36.602  32.329  23.528  1.00  0.00     0.009 C 
HETATM    8  C10 UNL     1      36.766  30.970  24.152  1.00  0.00     0.005 C 
HETATM    9  O2  UNL     1      39.532  32.471  25.183  1.00  0.00    -0.379 OA
HETATM   10  C22 UNL     1      39.952  31.178  24.935  1.00  0.00     0.137 C 
HETATM   11  C24 UNL     1      38.870  30.281  25.356  1.00  0.00     0.036 C 
ENDROOT
BRANCH   8  12
HETATM   12  C11 UNL     1      35.480  30.259  24.170  1.00  0.00    -0.033 C 
HETATM   13  C12 UNL     1      35.562  28.791  24.489  1.00  0.00     0.016 C 
HETATM   14  C13 UNL     1      34.354  30.953  24.933  1.00  0.00     0.029 C 
HETATM   15  C14 UNL     1      33.167  30.026  25.011  1.00  0.00     0.120 C 
HETATM   16  N1  UNL     1      32.840  29.600  23.707  1.00  0.00    -0.396 N 
HETATM   17  C15 UNL     1      33.573  29.686  22.681  1.00  0.00    -0.013 C 
ATOM     18  H1  UNL     1      31.920  29.180  23.579  1.00  0.00     0.159 HD
HETATM   19  C21 UNL     1      34.951  30.284  22.716  1.00  0.00     0.062 C 
BRANCH  17  20
HETATM   20  C16 UNL     1      33.068  29.179  21.351  1.00  0.00     0.034 C 
HETATM   21  C17 UNL     1      31.587  29.435  21.305  1.00  0.00     0.013 C 
HETATM   22  C18 UNL     1      31.397  30.776  20.634  1.00  0.00     0.038 C 
HETATM   23  C19 UNL     1      32.751  31.326  20.327  1.00  0.00     0.170 C 
HETATM   24  F2  UNL     1      32.795  32.004  19.110  1.00  0.00    -0.249 F 
HETATM   25  C20 UNL     1      33.634  30.097  20.285  1.00  0.00     0.047 C 
ENDBRANCH  17  20
ENDBRANCH   8  12
BRANCH   1  26
HETATM   26  C2  UNL     1      40.063  29.242  27.387  1.00  0.00     0.203 C 
HETATM   27  C1  UNL     1      40.878  28.198  26.673  1.00  0.00     0.085 C 
HETATM   28  F1  UNL     1      40.894  30.204  27.934  1.00  0.00    -0.212 F 
BRANCH  26  29
HETATM   29  O1  UNL     1      39.586  28.550  28.544  1.00  0.00    -0.362 OA
ATOM     30  H1  UNL     1      39.168  29.236  29.051  1.00  0.00     0.213 HD
ENDBRANCH  26  29
ENDBRANCH   1  26
BRANCH  10  31
HETATM   31  C23 UNL     1      40.357  31.101  23.490  1.00  0.00     0.117 C 
HETATM   32 BR1  UNL     1      39.793  29.531  22.575  1.00  0.00    -0.094 Br
ENDBRANCH  10  31
TORSDOF 5
ENDMDL
MODEL 2
REMARK VINA RESULT: -7.796420416      2.634      3.239
REMARK  5 active torsions:
REMARK  status: ('A' for Active; 'I' for Inactive)
REMARK    1  A    between atoms: C2_2  and  O1_3 
REMARK    2  A    between atoms: C2_2  and  C3_6 
REMARK    3  A    between atoms: C10_13  and  C11_14 
REMARK    4  A    between atoms: C15_20  and  C16_21 
REMARK    5  A    between atoms: C22_29  and  C23_30 
ROOT
HETATM    1  C3  UNL     1      37.815  30.319  26.458  1.00  0.00     0.060 C 
HETATM    2  C4  UNL     1      36.586  31.038  27.044  1.00  0.00     0.011 C 
HETATM    3  C5  UNL     1      35.706  30.819  25.789  1.00  0.00     0.013 C 
HETATM    4  C6  UNL     1      36.585  31.383  24.744  1.00  0.00    -0.003 C 
HETATM    5  C7  UNL     1      36.580  32.874  24.920  1.00  0.00     0.131 C 
HETATM    6  C8  UNL     1      36.197  33.529  23.647  1.00  0.00     0.033 C 
HETATM    7  C9  UNL     1      35.857  32.398  22.729  1.00  0.00     0.009 C 
HETATM    8  C10 UNL     1      36.330  31.109  23.343  1.00  0.00     0.005 C 
HETATM    9  O2  UNL     1      37.790  33.323  25.326  1.00  0.00    -0.379 OA
HETATM   10  C22 UNL     1      38.740  32.324  25.221  1.00  0.00     0.137 C 
HETATM   11  C24 UNL     1      38.023  31.044  25.208  1.00  0.00     0.036 C 
ENDROOT
BRANCH   8  12
HETATM   12  C11 UNL     1      35.495  29.989  22.885  1.00  0.00    -0.033 C 
HETATM   13  C12 UNL     1      35.694  28.695  23.626  1.00  0.00     0.016 C 
HETATM   14  C13 UNL     1      34.017  30.312  22.675  1.00  0.00     0.029 C 
HETATM   15  C14 UNL     1      33.271  29.035  22.383  1.00  0.00     0.120 C 
HETATM   16  N1  UNL     1      33.905  28.376  21.308  1.00  0.00    -0.396 N 
HETATM   17  C15 UNL     1      35.066  28.606  20.865  1.00  0.00    -0.013 C 
ATOM     18  H1  UNL     1      33.373  27.642  20.842  1.00  0.00     0.159 HD
HETATM   19  C21 UNL     1      35.964  29.659  21.448  1.00  0.00     0.062 C 
BRANCH  17  20
HETATM   20  C16 UNL     1      35.598  27.805  19.699  1.00  0.00     0.034 C 
HETATM   21  C17 UNL     1      37.035  28.201  19.500  1.00  0.00     0.013 C 
HETATM   22  C18 UNL     1      37.870  27.220  20.290  1.00  0.00     0.038 C 
HETATM   23  C19 UNL     1      36.937  26.283  20.983  1.00  0.00     0.170 C 
HETATM   24  F2  UNL     1      37.417  24.975  21.026  1.00  0.00    -0.249 F 
HETATM   25  C20 UNL     1      35.673  26.361  20.154  1.00  0.00     0.047 C 
ENDBRANCH  17  20
ENDBRANCH   8  12
BRANCH   1  26
HETATM   26  C2  UNL     1      38.803  30.197  27.512  1.00  0.00     0.203 C 
HETATM   27  C1  UNL     1      40.247  30.215  27.088  1.00  0.00     0.085 C 
HETATM   28  F1  UNL     1      38.623  31.001  28.625  1.00  0.00    -0.212 F 
BRANCH  26  29
HETATM   29  O1  UNL     1      38.635  28.883  28.047  1.00  0.00    -0.362 OA
ATOM     30  H1  UNL     1      37.781  28.924  28.463  1.00  0.00     0.213 HD
ENDBRANCH  26  29
ENDBRANCH   1  26
BRANCH  10  31
HETATM   31  C23 UNL     1      39.585  32.625  24.016  1.00  0.00     0.117 C 
HETATM   32 BR1  UNL     1      40.182  31.103  23.044  1.00  0.00    -0.094 Br
ENDBRANCH  10  31
TORSDOF 5
ENDMDL
MODEL 3
REMARK VINA RESULT: -7.536598118      3.415      7.563
REMARK  5 active torsions:
REMARK  status: ('A' for Active; 'I' for Inactive)
REMARK    1  A    between atoms: C2_2  and  O1_3 
REMARK    2  A    between atoms: C2_2  and  C3_6 
REMARK    3  A    between atoms: C10_13  and  C11_14 
REMARK    4  A    between atoms: C15_20  and  C16_21 
REMARK    5  A    between atoms: C22_29  and  C23_30 
ROOT
HETATM    1  C3  UNL     1      33.426  30.547  20.925  1.00  0.00     0.060 C 
HETATM    2  C4  UNL     1      32.803  29.947  22.199  1.00  0.00     0.011 C 
HETATM    3  C5  UNL     1      33.952  30.410  23.129  1.00  0.00     0.013 C 
HETATM    4  C6  UNL     1      35.115  29.840  22.419  1.00  0.00    -0.003 C 
HETATM    5  C7  UNL     1      35.076  28.354  22.626  1.00  0.00     0.131 C 
HETATM    6  C8  UNL     1      36.364  27.891  23.192  1.00  0.00     0.033 C 
HETATM    7  C9  UNL     1      37.143  29.145  23.432  1.00  0.00     0.009 C 
HETATM    8  C10 UNL     1      36.458  30.288  22.734  1.00  0.00     0.005 C 
HETATM    9  O2  UNL     1      34.818  27.706  21.466  1.00  0.00    -0.379 OA
HETATM   10  C22 UNL     1      34.915  28.571  20.393  1.00  0.00     0.137 C 
HETATM   11  C24 UNL     1      34.749  29.932  20.917  1.00  0.00     0.036 C 
ENDROOT
BRANCH   8  12
HETATM   12  C11 UNL     1      36.739  31.552  23.430  1.00  0.00    -0.033 C 
HETATM   13  C12 UNL     1      35.964  32.743  22.935  1.00  0.00     0.016 C 
HETATM   14  C13 UNL     1      36.763  31.473  24.955  1.00  0.00     0.029 C 
HETATM   15  C14 UNL     1      36.883  32.867  25.518  1.00  0.00     0.120 C 
HETATM   16  N1  UNL     1      37.998  33.499  24.927  1.00  0.00    -0.396 N 
HETATM   17  C15 UNL     1      38.606  33.129  23.883  1.00  0.00    -0.013 C 
ATOM     18  H1  UNL     1      38.348  34.338  25.389  1.00  0.00     0.159 HD
HETATM   19  C21 UNL     1      38.207  31.912  23.099  1.00  0.00     0.062 C 
BRANCH  17  20
HETATM   20  C16 UNL     1      39.789  33.924  23.381  1.00  0.00     0.034 C 
HETATM   21  C17 UNL     1      40.700  34.163  24.554  1.00  0.00     0.013 C 
HETATM   22  C18 UNL     1      41.713  33.043  24.554  1.00  0.00     0.038 C 
HETATM   23  C19 UNL     1      41.379  32.127  23.423  1.00  0.00     0.170 C 
HETATM   24  F2  UNL     1      42.511  31.618  22.788  1.00  0.00    -0.249 F 
HETATM   25  C20 UNL     1      40.586  33.004  22.477  1.00  0.00     0.047 C 
ENDBRANCH  17  20
ENDBRANCH   8  12
BRANCH   1  26
HETATM   26  C2  UNL     1      32.455  30.425  19.856  1.00  0.00     0.203 C 
HETATM   27  C1  UNL     1      31.946  31.708  19.257  1.00  0.00     0.085 C 
HETATM   28  F1  UNL     1      32.748  29.515  18.854  1.00  0.00    -0.212 F 
BRANCH  26  29
HETATM   29  O1  UNL     1      31.289  29.859  20.458  1.00  0.00    -0.362 OA
ATOM     30  H1  UNL     1      30.606  30.483  20.241  1.00  0.00     0.213 HD
ENDBRANCH  26  29
ENDBRANCH   1  26
BRANCH  10  31
HETATM   31  C23 UNL     1      36.211  28.281  19.691  1.00  0.00     0.117 C 
HETATM   32 BR1  UNL     1      36.851  26.499  19.874  1.00  0.00    -0.094 Br
ENDBRANCH  10  31
TORSDOF 5
ENDMDL
MODEL 4
REMARK VINA RESULT: -7.495269290      3.254      7.400
REMARK  5 active torsions:
REMARK  status: ('A' for Active; 'I' for Inactive)
REMARK    1  A    between atoms: C2_2  and  O1_3 
REMARK    2  A    between atoms: C2_2  and  C3_6 
REMARK    3  A    between atoms: C10_13  and  C11_14 
REMARK    4  A    between atoms: C15_20  and  C16_21 
REMARK    5  A    between atoms: C22_29  and  C23_30 
ROOT
HETATM    1  C3  UNL     1      35.420  29.883  22.492  1.00  0.00     0.060 C 
HETATM    2  C4  UNL     1      34.771  31.269  22.665  1.00  0.00     0.011 C 
HETATM    3  C5  UNL     1      36.047  31.932  23.238  1.00  0.00     0.013 C 
HETATM    4  C6  UNL     1      36.353  31.008  24.349  1.00  0.00    -0.003 C 
HETATM    5  C7  UNL     1      35.325  31.245  25.417  1.00  0.00     0.131 C 
HETATM    6  C8  UNL     1      35.997  31.542  26.704  1.00  0.00     0.033 C 
HETATM    7  C9  UNL     1      37.454  31.592  26.366  1.00  0.00     0.009 C 
HETATM    8  C10 UNL     1      37.655  31.030  24.986  1.00  0.00     0.005 C 
HETATM    9  O2  UNL     1      34.507  30.176  25.556  1.00  0.00    -0.379 OA
HETATM   10  C22 UNL     1      35.004  29.091  24.860  1.00  0.00     0.137 C 
HETATM   11  C24 UNL     1      35.918  29.612  23.837  1.00  0.00     0.036 C 
ENDROOT
BRANCH   8  12
HETATM   12  C11 UNL     1      38.843  31.630  24.360  1.00  0.00    -0.033 C 
HETATM   13  C12 UNL     1      39.328  30.942  23.112  1.00  0.00     0.016 C 
HETATM   14  C13 UNL     1      38.809  33.149  24.205  1.00  0.00     0.029 C 
HETATM   15  C14 UNL     1      40.003  33.587  23.394  1.00  0.00     0.120 C 
HETATM   16  N1  UNL     1      41.170  33.066  23.990  1.00  0.00    -0.396 N 
HETATM   17  C15 UNL     1      41.228  32.135  24.842  1.00  0.00    -0.013 C 
ATOM     18  H1  UNL     1      42.056  33.482  23.704  1.00  0.00     0.159 HD
HETATM   19  C21 UNL     1      40.006  31.431  25.360  1.00  0.00     0.062 C 
BRANCH  17  20
HETATM   20  C16 UNL     1      42.568  31.694  25.384  1.00  0.00     0.034 C 
HETATM   21  C17 UNL     1      42.391  30.313  25.951  1.00  0.00     0.013 C 
HETATM   22  C18 UNL     1      42.747  29.341  24.849  1.00  0.00     0.038 C 
HETATM   23  C19 UNL     1      43.087  30.138  23.633  1.00  0.00     0.170 C 
HETATM   24  F2  UNL     1      44.136  29.584  22.901  1.00  0.00    -0.249 F 
HETATM   25  C20 UNL     1      43.480  31.489  24.190  1.00  0.00     0.047 C 
ENDBRANCH  17  20
ENDBRANCH   8  12
BRANCH   1  26
HETATM   26  C2  UNL     1      34.482  29.040  21.777  1.00  0.00     0.203 C 
HETATM   27  C1  UNL     1      35.018  27.739  21.242  1.00  0.00     0.085 C 
HETATM   28  F1  UNL     1      33.250  28.838  22.375  1.00  0.00    -0.212 F 
BRANCH  26  29
HETATM   29  O1  UNL     1      34.139  29.764  20.594  1.00  0.00    -0.362 OA
ATOM     30  H1  UNL     1      34.362  30.661  20.814  1.00  0.00     0.213 HD
ENDBRANCH  26  29
ENDBRANCH   1  26
BRANCH  10  31
HETATM   31  C23 UNL     1      35.598  28.141  25.861  1.00  0.00     0.117 C 
HETATM   32 BR1  UNL     1      37.258  27.363  25.353  1.00  0.00    -0.094 Br
ENDBRANCH  10  31
TORSDOF 5
ENDMDL
MODEL 5
REMARK VINA RESULT: -7.488143039      2.217      3.737
REMARK  5 active torsions:
REMARK  status: ('A' for Active; 'I' for Inactive)
REMARK    1  A    between atoms: C2_2  and  O1_3 
REMARK    2  A    between atoms: C2_2  and  C3_6 
REMARK    3  A    between atoms: C10_13  and  C11_14 
REMARK    4  A    between atoms: C15_20  and  C16_21 
REMARK    5  A    between atoms: C22_29  and  C23_30 
ROOT
HETATM    1  C3  UNL     1      39.358  31.688  23.749  1.00  0.00     0.060 C 
HETATM    2  C4  UNL     1      40.348  30.555  23.419  1.00  0.00     0.011 C 
HETATM    3  C5  UNL     1      39.251  29.561  22.966  1.00  0.00     0.013 C 
HETATM    4  C6  UNL     1      38.368  29.579  24.150  1.00  0.00    -0.003 C 
HETATM    5  C7  UNL     1      39.080  28.841  25.245  1.00  0.00     0.131 C 
HETATM    6  C8  UNL     1      38.214  27.757  25.767  1.00  0.00     0.033 C 
HETATM    7  C9  UNL     1      37.006  27.782  24.884  1.00  0.00     0.009 C 
HETATM    8  C10 UNL     1      37.022  29.047  24.070  1.00  0.00     0.005 C 
HETATM    9  O2  UNL     1      39.434  29.675  26.250  1.00  0.00    -0.379 OA
HETATM   10  C22 UNL     1      38.824  30.906  26.097  1.00  0.00     0.137 C 
HETATM   11  C24 UNL     1      38.448  31.032  24.684  1.00  0.00     0.036 C 
ENDROOT
BRANCH   8  12
HETATM   12  C11 UNL     1      36.315  28.843  22.798  1.00  0.00    -0.033 C 
HETATM   13  C12 UNL     1      36.623  29.850  21.723  1.00  0.00     0.016 C 
HETATM   14  C13 UNL     1      36.319  27.412  22.265  1.00  0.00     0.029 C 
HETATM   15  C14 UNL     1      35.717  27.400  20.882  1.00  0.00     0.120 C 
HETATM   16  N1  UNL     1      34.452  28.022  20.934  1.00  0.00    -0.396 N 
HETATM   17  C15 UNL     1      34.013  28.756  21.864  1.00  0.00    -0.013 C 
ATOM     18  H1  UNL     1      33.830  27.863  20.142  1.00  0.00     0.159 HD
HETATM   19  C21 UNL     1      34.814  29.076  23.094  1.00  0.00     0.062 C 
BRANCH  17  20
HETATM   20  C16 UNL     1      32.626  29.349  21.763  1.00  0.00     0.034 C 
HETATM   21  C17 UNL     1      32.607  30.594  22.605  1.00  0.00     0.013 C 
HETATM   22  C18 UNL     1      32.943  31.746  21.687  1.00  0.00     0.038 C 
HETATM   23  C19 UNL     1      33.202  31.185  20.328  1.00  0.00     0.170 C 
HETATM   24  F2  UNL     1      32.722  32.000  19.306  1.00  0.00    -0.249 F 
HETATM   25  C20 UNL     1      32.468  29.861  20.344  1.00  0.00     0.047 C 
ENDBRANCH  17  20
ENDBRANCH   8  12
BRANCH   1  26
HETATM   26  C2  UNL     1      40.128  32.878  24.051  1.00  0.00     0.203 C 
HETATM   27  C1  UNL     1      40.729  33.607  22.879  1.00  0.00     0.085 C 
HETATM   28  F1  UNL     1      39.556  33.780  24.931  1.00  0.00    -0.212 F 
BRANCH  26  29
HETATM   29  O1  UNL     1      41.273  32.422  24.774  1.00  0.00    -0.362 OA
ATOM     30  H1  UNL     1      41.660  31.780  24.189  1.00  0.00     0.213 HD
ENDBRANCH  26  29
ENDBRANCH   1  26
BRANCH  10  31
HETATM   31  C23 UNL     1      37.702  30.983  27.093  1.00  0.00     0.117 C 
HETATM   32 BR1  UNL     1      36.083  31.732  26.431  1.00  0.00    -0.094 Br
ENDBRANCH  10  31
TORSDOF 5
ENDMDL
