MODEL 1
REMARK VINA RESULT: -9.023078603      0.000      0.000
REMARK  7 active torsions:
REMARK  status: ('A' for Active; 'I' for Inactive)
REMARK    1  A    between atoms: C4_4  and  C5_5 
REMARK    2  A    between atoms: C5_5  and  C6_6 
REMARK    3  A    between atoms: C6_6  and  N1_7 
REMARK    4  A    between atoms: N1_7  and  C7_8 
REMARK    5  A    between atoms: N1_7  and  C29_33 
REMARK    6  A    between atoms: C16_17  and  O1_18 
REMARK    7  A    between atoms: C16_17  and  C17_20 
ROOT
HETATM    1  C1  UNL     1      31.709  33.060  18.732  1.00  0.00     0.102 C 
HETATM    2  C2  UNL     1      32.538  33.489  19.524  1.00  0.00    -0.161 C 
HETATM    3  C3  UNL     1      33.518  34.006  20.424  1.00  0.00     0.046 C 
HETATM    4  C4  UNL     1      33.966  33.233  21.382  1.00  0.00    -0.017 C 
ENDROOT
BRANCH   4   5
HETATM    5  C5  UNL     1      33.474  31.831  21.558  1.00  0.00     0.058 C 
BRANCH   5   6
HETATM    6  C6  UNL     1      34.480  31.012  22.280  1.00  0.00     0.288 C 
BRANCH   6   7
HETATM    7  N1  UNL     1      34.174  30.890  23.690  1.00  0.00     0.201 N 
BRANCH   7   8
HETATM    8  C7  UNL     1      35.406  31.005  24.457  1.00  0.00     0.235 C 
HETATM    9  C8  UNL     1      35.301  31.413  25.872  1.00  0.00     0.040 C 
HETATM   10  C9  UNL     1      36.582  31.023  26.576  1.00  0.00     0.037 C 
HETATM   11  C10 UNL     1      37.783  31.097  25.694  1.00  0.00    -0.075 C 
HETATM   12  C11 UNL     1      38.955  31.131  26.314  1.00  0.00    -0.023 C 
HETATM   13  C26 UNL     1      37.779  31.128  24.223  1.00  0.00    -0.015 C 
HETATM   14  C12 UNL     1      40.290  31.205  25.680  1.00  0.00     0.033 C 
HETATM   15  C13 UNL     1      40.202  31.201  24.203  1.00  0.00    -0.001 C 
HETATM   16  C14 UNL     1      41.360  31.811  23.459  1.00  0.00     0.010 C 
HETATM   17  C25 UNL     1      38.967  31.893  23.683  1.00  0.00     0.003 C 
HETATM   18  C15 UNL     1      42.680  31.356  23.968  1.00  0.00     0.066 C 
HETATM   19  C21 UNL     1      41.355  33.289  23.360  1.00  0.00     0.025 C 
HETATM   20  C16 UNL     1      43.619  32.525  23.812  1.00  0.00     0.182 C 
HETATM   21  C20 UNL     1      42.693  33.678  23.884  1.00  0.00     0.182 C 
HETATM   22  O2  UNL     1      42.975  34.775  24.306  1.00  0.00    -0.293 OA
HETATM   23  C22 UNL     1      41.322  33.763  21.902  1.00  0.00     0.024 C 
HETATM   24  C23 UNL     1      40.279  33.997  24.098  1.00  0.00     0.018 C 
HETATM   25  C24 UNL     1      38.946  33.319  24.086  1.00  0.00     0.007 C 
HETATM   26  C27 UNL     1      37.763  29.786  23.551  1.00  0.00     0.020 C 
HETATM   27  C28 UNL     1      36.475  31.818  23.793  1.00  0.00     0.050 C 
BRANCH  20  28
HETATM   28  O1  UNL     1      44.542  32.511  24.853  1.00  0.00    -0.371 OA
ATOM     29  H1  UNL     1      44.607  33.383  25.224  1.00  0.00     0.212 HD
ENDBRANCH  20  28
BRANCH  20  30
HETATM   30  C17 UNL     1      44.243  32.454  22.513  1.00  0.00    -0.060 C 
HETATM   31  C18 UNL     1      44.743  32.402  21.421  1.00  0.00    -0.107 C 
HETATM   32  C19 UNL     1      45.348  32.338  20.068  1.00  0.00     0.112 C 
ENDBRANCH  20  30
ENDBRANCH   7   8
BRANCH   7  33
HETATM   33  C29 UNL     1      33.470  29.674  24.040  1.00  0.00     0.603 C 
HETATM   34  F1  UNL     1      34.338  28.761  24.559  1.00  0.00    -0.144 F 
HETATM   35  F2  UNL     1      32.502  29.888  25.008  1.00  0.00    -0.144 F 
HETATM   36  F3  UNL     1      32.946  29.118  22.903  1.00  0.00    -0.144 F 
ENDBRANCH   7  33
ENDBRANCH   6   7
ENDBRANCH   5   6
ENDBRANCH   4   5
TORSDOF 7
ENDMDL
MODEL 2
REMARK VINA RESULT: -8.703068544      1.052      1.296
REMARK  7 active torsions:
REMARK  status: ('A' for Active; 'I' for Inactive)
REMARK    1  A    between atoms: C4_4  and  C5_5 
REMARK    2  A    between atoms: C5_5  and  C6_6 
REMARK    3  A    between atoms: C6_6  and  N1_7 
REMARK    4  A    between atoms: N1_7  and  C7_8 
REMARK    5  A    between atoms: N1_7  and  C29_33 
REMARK    6  A    between atoms: C16_17  and  O1_18 
REMARK    7  A    between atoms: C16_17  and  C17_20 
ROOT
HETATM    1  C1  UNL     1      30.521  31.360  18.181  1.00  0.00     0.102 C 
HETATM    2  C2  UNL     1      31.264  32.245  18.585  1.00  0.00    -0.161 C 
HETATM    3  C3  UNL     1      32.137  33.285  19.026  1.00  0.00     0.046 C 
HETATM    4  C4  UNL     1      32.885  33.078  20.080  1.00  0.00    -0.017 C 
ENDROOT
BRANCH   4   5
HETATM    5  C5  UNL     1      32.844  31.785  20.833  1.00  0.00     0.058 C 
BRANCH   5   6
HETATM    6  C6  UNL     1      34.128  31.553  21.540  1.00  0.00     0.288 C 
BRANCH   6   7
HETATM    7  N1  UNL     1      34.009  30.546  22.574  1.00  0.00     0.201 N 
BRANCH   7   8
HETATM    8  C7  UNL     1      35.058  30.751  23.562  1.00  0.00     0.235 C 
HETATM    9  C8  UNL     1      34.660  31.242  24.896  1.00  0.00     0.040 C 
HETATM   10  C9  UNL     1      35.780  30.942  25.868  1.00  0.00     0.037 C 
HETATM   11  C10 UNL     1      37.133  31.002  25.242  1.00  0.00    -0.075 C 
HETATM   12  C11 UNL     1      38.154  31.116  26.080  1.00  0.00    -0.023 C 
HETATM   13  C26 UNL     1      37.426  30.942  23.802  1.00  0.00    -0.015 C 
HETATM   14  C12 UNL     1      39.588  31.196  25.724  1.00  0.00     0.033 C 
HETATM   15  C13 UNL     1      39.800  31.097  24.263  1.00  0.00    -0.001 C 
HETATM   16  C14 UNL     1      41.072  31.699  23.727  1.00  0.00     0.010 C 
HETATM   17  C25 UNL     1      38.682  31.712  23.460  1.00  0.00     0.003 C 
HETATM   18  C15 UNL     1      42.271  31.322  24.520  1.00  0.00     0.066 C 
HETATM   19  C21 UNL     1      41.056  33.167  23.528  1.00  0.00     0.025 C 
HETATM   20  C16 UNL     1      43.197  32.511  24.476  1.00  0.00     0.182 C 
HETATM   21  C20 UNL     1      42.251  33.633  24.282  1.00  0.00     0.182 C 
HETATM   22  O2  UNL     1      42.419  34.764  24.677  1.00  0.00    -0.293 OA
HETATM   23  C22 UNL     1      41.308  33.547  22.065  1.00  0.00     0.024 C 
HETATM   24  C23 UNL     1      39.838  33.881  23.985  1.00  0.00     0.018 C 
HETATM   25  C24 UNL     1      38.550  33.159  23.752  1.00  0.00     0.007 C 
HETATM   26  C27 UNL     1      37.575  29.560  23.233  1.00  0.00     0.020 C 
HETATM   27  C28 UNL     1      36.222  31.558  23.073  1.00  0.00     0.050 C 
BRANCH  20  28
HETATM   28  O1  UNL     1      43.891  32.594  25.679  1.00  0.00    -0.371 OA
ATOM     29  H1  UNL     1      43.755  33.455  26.058  1.00  0.00     0.212 HD
ENDBRANCH  20  28
BRANCH  20  30
HETATM   30  C17 UNL     1      44.073  32.381  23.336  1.00  0.00    -0.060 C 
HETATM   31  C18 UNL     1      44.811  32.292  22.392  1.00  0.00    -0.107 C 
HETATM   32  C19 UNL     1      45.725  32.197  21.228  1.00  0.00     0.112 C 
ENDBRANCH  20  30
ENDBRANCH   7   8
BRANCH   7  33
HETATM   33  C29 UNL     1      34.035  29.185  22.080  1.00  0.00     0.603 C 
HETATM   34  F1  UNL     1      34.646  28.369  22.984  1.00  0.00    -0.144 F 
HETATM   35  F2  UNL     1      32.762  28.673  21.887  1.00  0.00    -0.144 F 
HETATM   36  F3  UNL     1      34.787  29.139  20.936  1.00  0.00    -0.144 F 
ENDBRANCH   7  33
ENDBRANCH   6   7
ENDBRANCH   5   6
ENDBRANCH   4   5
TORSDOF 7
ENDMDL
MODEL 3
REMARK VINA RESULT: -8.695978750      1.891      2.639
REMARK  7 active torsions:
REMARK  status: ('A' for Active; 'I' for Inactive)
REMARK    1  A    between atoms: C4_4  and  C5_5 
REMARK    2  A    between atoms: C5_5  and  C6_6 
REMARK    3  A    between atoms: C6_6  and  N1_7 
REMARK    4  A    between atoms: N1_7  and  C7_8 
REMARK    5  A    between atoms: N1_7  and  C29_33 
REMARK    6  A    between atoms: C16_17  and  O1_18 
REMARK    7  A    between atoms: C16_17  and  C17_20 
ROOT
HETATM    1  C1  UNL     1      30.208  31.730  18.554  1.00  0.00     0.102 C 
HETATM    2  C2  UNL     1      31.086  32.583  18.568  1.00  0.00    -0.161 C 
HETATM    3  C3  UNL     1      32.117  33.570  18.556  1.00  0.00     0.046 C 
HETATM    4  C4  UNL     1      32.762  33.824  19.666  1.00  0.00    -0.017 C 
ENDROOT
BRANCH   4   5
HETATM    5  C5  UNL     1      32.443  33.112  20.943  1.00  0.00     0.058 C 
BRANCH   5   6
HETATM    6  C6  UNL     1      33.448  32.054  21.216  1.00  0.00     0.288 C 
BRANCH   6   7
HETATM    7  N1  UNL     1      32.888  30.947  21.964  1.00  0.00     0.201 N 
BRANCH   7   8
HETATM    8  C7  UNL     1      33.902  30.420  22.865  1.00  0.00     0.235 C 
HETATM    9  C8  UNL     1      33.533  30.233  24.282  1.00  0.00     0.040 C 
HETATM   10  C9  UNL     1      34.523  29.276  24.910  1.00  0.00     0.037 C 
HETATM   11  C10 UNL     1      35.894  29.388  24.333  1.00  0.00    -0.075 C 
HETATM   12  C11 UNL     1      36.872  28.865  25.061  1.00  0.00    -0.023 C 
HETATM   13  C26 UNL     1      36.248  30.012  23.049  1.00  0.00    -0.015 C 
HETATM   14  C12 UNL     1      38.312  28.843  24.723  1.00  0.00     0.033 C 
HETATM   15  C13 UNL     1      38.581  29.460  23.405  1.00  0.00    -0.001 C 
HETATM   16  C14 UNL     1      39.970  29.997  23.185  1.00  0.00     0.010 C 
HETATM   17  C25 UNL     1      37.643  30.596  23.082  1.00  0.00     0.003 C 
HETATM   18  C15 UNL     1      41.032  29.052  23.616  1.00  0.00     0.066 C 
HETATM   19  C21 UNL     1      40.241  31.335  23.760  1.00  0.00     0.025 C 
HETATM   20  C16 UNL     1      42.167  29.899  24.135  1.00  0.00     0.182 C 
HETATM   21  C20 UNL     1      41.460  31.120  24.585  1.00  0.00     0.182 C 
HETATM   22  O2  UNL     1      41.817  31.838  25.490  1.00  0.00    -0.293 OA
HETATM   23  C22 UNL     1      40.638  32.350  22.681  1.00  0.00     0.024 C 
HETATM   24  C23 UNL     1      39.156  31.935  24.577  1.00  0.00     0.018 C 
HETATM   25  C24 UNL     1      37.769  31.689  24.075  1.00  0.00     0.007 C 
HETATM   26  C27 UNL     1      36.165  29.110  21.851  1.00  0.00     0.020 C 
HETATM   27  C28 UNL     1      35.222  31.127  22.795  1.00  0.00     0.050 C 
BRANCH  20  28
HETATM   28  O1  UNL     1      42.798  29.227  25.177  1.00  0.00    -0.371 OA
ATOM     29  H1  UNL     1      43.602  29.682  25.399  1.00  0.00     0.212 HD
ENDBRANCH  20  28
BRANCH  20  30
HETATM   30  C17 UNL     1      43.062  30.202  23.044  1.00  0.00    -0.060 C 
HETATM   31  C18 UNL     1      43.793  30.443  22.122  1.00  0.00    -0.107 C 
HETATM   32  C19 UNL     1      44.690  30.729  20.976  1.00  0.00     0.112 C 
ENDBRANCH  20  30
ENDBRANCH   7   8
BRANCH   7  33
HETATM   33  C29 UNL     1      32.343  29.890  21.139  1.00  0.00     0.603 C 
HETATM   34  F1  UNL     1      32.769  28.676  21.588  1.00  0.00    -0.144 F 
HETATM   35  F2  UNL     1      30.958  29.857  21.175  1.00  0.00    -0.144 F 
HETATM   36  F3  UNL     1      32.821  30.028  19.862  1.00  0.00    -0.144 F 
ENDBRANCH   7  33
ENDBRANCH   6   7
ENDBRANCH   5   6
ENDBRANCH   4   5
TORSDOF 7
ENDMDL
MODEL 4
REMARK VINA RESULT: -8.669618966      0.621      1.194
REMARK  7 active torsions:
REMARK  status: ('A' for Active; 'I' for Inactive)
REMARK    1  A    between atoms: C4_4  and  C5_5 
REMARK    2  A    between atoms: C5_5  and  C6_6 
REMARK    3  A    between atoms: C6_6  and  N1_7 
REMARK    4  A    between atoms: N1_7  and  C7_8 
REMARK    5  A    between atoms: N1_7  and  C29_33 
REMARK    6  A    between atoms: C16_17  and  O1_18 
REMARK    7  A    between atoms: C16_17  and  C17_20 
ROOT
HETATM    1  C1  UNL     1      34.707  35.483  21.931  1.00  0.00     0.102 C 
HETATM    2  C2  UNL     1      34.304  34.703  21.078  1.00  0.00    -0.161 C 
HETATM    3  C3  UNL     1      33.823  33.818  20.066  1.00  0.00     0.046 C 
HETATM    4  C4  UNL     1      33.283  32.681  20.425  1.00  0.00    -0.017 C 
ENDROOT
BRANCH   4   5
HETATM    5  C5  UNL     1      33.161  32.286  21.863  1.00  0.00     0.058 C 
BRANCH   5   6
HETATM    6  C6  UNL     1      34.276  31.387  22.254  1.00  0.00     0.288 C 
BRANCH   6   7
HETATM    7  N1  UNL     1      34.060  30.780  23.551  1.00  0.00     0.201 N 
BRANCH   7   8
HETATM    8  C7  UNL     1      35.273  30.910  24.346  1.00  0.00     0.235 C 
HETATM    9  C8  UNL     1      35.130  31.315  25.758  1.00  0.00     0.040 C 
HETATM   10  C9  UNL     1      36.400  30.941  26.492  1.00  0.00     0.037 C 
HETATM   11  C10 UNL     1      37.619  31.032  25.637  1.00  0.00    -0.075 C 
HETATM   12  C11 UNL     1      38.776  31.081  26.284  1.00  0.00    -0.023 C 
HETATM   13  C26 UNL     1      37.649  31.066  24.167  1.00  0.00    -0.015 C 
HETATM   14  C12 UNL     1      40.124  31.174  25.681  1.00  0.00     0.033 C 
HETATM   15  C13 UNL     1      40.070  31.171  24.203  1.00  0.00    -0.001 C 
HETATM   16  C14 UNL     1      41.237  31.797  23.486  1.00  0.00     0.010 C 
HETATM   17  C25 UNL     1      38.838  31.847  23.655  1.00  0.00     0.003 C 
HETATM   18  C15 UNL     1      42.551  31.358  24.025  1.00  0.00     0.066 C 
HETATM   19  C21 UNL     1      41.215  33.275  23.388  1.00  0.00     0.025 C 
HETATM   20  C16 UNL     1      43.477  32.540  23.891  1.00  0.00     0.182 C 
HETATM   21  C20 UNL     1      42.535  33.680  23.944  1.00  0.00     0.182 C 
HETATM   22  O2  UNL     1      42.793  34.780  24.373  1.00  0.00    -0.293 OA
HETATM   23  C22 UNL     1      41.209  33.750  21.931  1.00  0.00     0.024 C 
HETATM   24  C23 UNL     1      40.112  33.967  24.103  1.00  0.00     0.018 C 
HETATM   25  C24 UNL     1      38.789  33.272  24.059  1.00  0.00     0.007 C 
HETATM   26  C27 UNL     1      37.666  29.724  23.493  1.00  0.00     0.020 C 
HETATM   27  C28 UNL     1      36.346  31.739  23.708  1.00  0.00     0.050 C 
BRANCH  20  28
HETATM   28  O1  UNL     1      44.377  32.537  24.954  1.00  0.00    -0.371 OA
ATOM     29  H1  UNL     1      45.114  33.097  24.740  1.00  0.00     0.212 HD
ENDBRANCH  20  28
BRANCH  20  30
HETATM   30  C17 UNL     1      44.132  32.479  22.607  1.00  0.00    -0.060 C 
HETATM   31  C18 UNL     1      44.684  32.450  21.540  1.00  0.00    -0.107 C 
HETATM   32  C19 UNL     1      45.366  32.427  20.223  1.00  0.00     0.112 C 
ENDBRANCH  20  30
ENDBRANCH   7   8
BRANCH   7  33
HETATM   33  C29 UNL     1      33.636  29.397  23.494  1.00  0.00     0.603 C 
HETATM   34  F1  UNL     1      32.832  29.108  24.556  1.00  0.00    -0.144 F 
HETATM   35  F2  UNL     1      32.895  29.122  22.356  1.00  0.00    -0.144 F 
HETATM   36  F3  UNL     1      34.736  28.587  23.601  1.00  0.00    -0.144 F 
ENDBRANCH   7  33
ENDBRANCH   6   7
ENDBRANCH   5   6
ENDBRANCH   4   5
TORSDOF 7
ENDMDL
MODEL 5
REMARK VINA RESULT: -8.526264889      0.577      1.052
REMARK  7 active torsions:
REMARK  status: ('A' for Active; 'I' for Inactive)
REMARK    1  A    between atoms: C4_4  and  C5_5 
REMARK    2  A    between atoms: C5_5  and  C6_6 
REMARK    3  A    between atoms: C6_6  and  N1_7 
REMARK    4  A    between atoms: N1_7  and  C7_8 
REMARK    5  A    between atoms: N1_7  and  C29_33 
REMARK    6  A    between atoms: C16_17  and  O1_18 
REMARK    7  A    between atoms: C16_17  and  C17_20 
ROOT
HETATM    1  C1  UNL     1      32.134  33.580  19.114  1.00  0.00     0.102 C 
HETATM    2  C2  UNL     1      32.265  32.372  19.270  1.00  0.00    -0.161 C 
HETATM    3  C3  UNL     1      32.390  30.960  19.437  1.00  0.00     0.046 C 
HETATM    4  C4  UNL     1      32.981  30.501  20.512  1.00  0.00    -0.017 C 
ENDROOT
BRANCH   4   5
HETATM    5  C5  UNL     1      33.530  31.416  21.561  1.00  0.00     0.058 C 
BRANCH   5   6
HETATM    6  C6  UNL     1      34.571  30.725  22.363  1.00  0.00     0.288 C 
BRANCH   6   7
HETATM    7  N1  UNL     1      34.280  30.760  23.781  1.00  0.00     0.201 N 
BRANCH   7   8
HETATM    8  C7  UNL     1      35.523  30.938  24.518  1.00  0.00     0.235 C 
HETATM    9  C8  UNL     1      35.436  31.445  25.901  1.00  0.00     0.040 C 
HETATM   10  C9  UNL     1      36.731  31.117  26.612  1.00  0.00     0.037 C 
HETATM   11  C10 UNL     1      37.918  31.137  25.707  1.00  0.00    -0.075 C 
HETATM   12  C11 UNL     1      39.098  31.224  26.305  1.00  0.00    -0.023 C 
HETATM   13  C26 UNL     1      37.891  31.063  24.239  1.00  0.00    -0.015 C 
HETATM   14  C12 UNL     1      40.423  31.263  25.646  1.00  0.00     0.033 C 
HETATM   15  C13 UNL     1      40.313  31.153  24.175  1.00  0.00    -0.001 C 
HETATM   16  C14 UNL     1      41.454  31.717  23.372  1.00  0.00     0.010 C 
HETATM   17  C25 UNL     1      39.064  31.796  23.626  1.00  0.00     0.003 C 
HETATM   18  C15 UNL     1      42.786  31.309  23.891  1.00  0.00     0.066 C 
HETATM   19  C21 UNL     1      41.435  33.184  23.167  1.00  0.00     0.025 C 
HETATM   20  C16 UNL     1      43.712  32.471  23.636  1.00  0.00     0.182 C 
HETATM   21  C20 UNL     1      42.777  33.619  23.641  1.00  0.00     0.182 C 
HETATM   22  O2  UNL     1      43.056  34.745  23.980  1.00  0.00    -0.293 OA
HETATM   23  C22 UNL     1      41.375  33.552  21.680  1.00  0.00     0.024 C 
HETATM   24  C23 UNL     1      40.364  33.934  23.870  1.00  0.00     0.018 C 
HETATM   25  C24 UNL     1      39.037  33.247  23.927  1.00  0.00     0.007 C 
HETATM   26  C27 UNL     1      37.877  29.675  23.664  1.00  0.00     0.020 C 
HETATM   27  C28 UNL     1      36.575  31.711  23.781  1.00  0.00     0.050 C 
BRANCH  20  28
HETATM   28  O1  UNL     1      44.651  32.538  24.661  1.00  0.00    -0.371 OA
ATOM     29  H1  UNL     1      44.744  33.442  24.940  1.00  0.00     0.212 HD
ENDBRANCH  20  28
BRANCH  20  30
HETATM   30  C17 UNL     1      44.316  32.313  22.336  1.00  0.00    -0.060 C 
HETATM   31  C18 UNL     1      44.800  32.185  21.243  1.00  0.00    -0.107 C 
HETATM   32  C19 UNL     1      45.384  32.026  19.889  1.00  0.00     0.112 C 
ENDBRANCH  20  30
ENDBRANCH   7   8
BRANCH   7  33
HETATM   33  C29 UNL     1      33.564  29.599  24.267  1.00  0.00     0.603 C 
HETATM   34  F1  UNL     1      32.972  28.944  23.229  1.00  0.00    -0.144 F 
HETATM   35  F2  UNL     1      34.404  28.683  24.879  1.00  0.00    -0.144 F 
HETATM   36  F3  UNL     1      32.557  30.011  25.099  1.00  0.00    -0.144 F 
ENDBRANCH   7  33
ENDBRANCH   6   7
ENDBRANCH   5   6
ENDBRANCH   4   5
TORSDOF 7
ENDMDL
