MODEL 1
REMARK VINA RESULT: -7.266893975      0.000      0.000
REMARK  4 active torsions:
REMARK  status: ('A' for Active; 'I' for Inactive)
REMARK    1  A    between atoms: O1_2  and  C2_3 
REMARK    2  A    between atoms: C2_3  and  C3_5 
REMARK    3  A    between atoms: C11_14  and  C12_15 
REMARK       I    between atoms: C12_15  and  N1_17 
REMARK    4  A    between atoms: N1_17  and  N2_19 
ROOT
HETATM    1  C3  UNL     1      34.822  29.551  25.090  1.00  0.00     0.110 C 
HETATM    2  C4  UNL     1      35.982  29.828  26.028  1.00  0.00     0.003 C 
HETATM    3  C5  UNL     1      35.948  31.325  26.105  1.00  0.00     0.015 C 
HETATM    4  C6  UNL     1      35.509  31.757  24.697  1.00  0.00     0.029 C 
HETATM    5  C7  UNL     1      36.686  32.319  24.029  1.00  0.00    -0.023 C 
HETATM    6  C8  UNL     1      37.385  31.321  23.506  1.00  0.00    -0.008 C 
HETATM    7  C9  UNL     1      36.712  30.019  23.791  1.00  0.00     0.054 C 
HETATM    8 BR1  UNL     1      37.007  28.833  22.333  1.00  0.00    -0.080 Br
HETATM    9  C10 UNL     1      37.152  29.451  25.121  1.00  0.00     0.032 C 
HETATM   10  C11 UNL     1      35.280  30.459  23.981  1.00  0.00     0.083 C 
ENDROOT
BRANCH  10  11
HETATM   11  C12 UNL     1      34.445  30.526  22.824  1.00  0.00     0.248 C 
HETATM   12  O3  UNL     1      34.021  29.414  22.346  1.00  0.00    -0.271 OA
HETATM   13  N1  UNL     1      34.017  31.677  22.128  1.00  0.00    -0.269 N 
ATOM     14  H1  UNL     1      34.330  32.584  22.472  1.00  0.00     0.190 HD
BRANCH  13  15
HETATM   15  N2  UNL     1      33.201  31.659  21.012  1.00  0.00    -0.307 N 
HETATM   16  C13 UNL     1      32.879  32.697  20.330  1.00  0.00    -0.004 C 
HETATM   17  C14 UNL     1      33.418  34.002  20.766  1.00  0.00     0.064 C 
HETATM   18  C15 UNL     1      32.005  32.654  19.139  1.00  0.00     0.064 C 
ATOM     19  H2  UNL     1      32.830  30.758  20.710  1.00  0.00     0.186 HD
ENDBRANCH  13  15
ENDBRANCH  10  11
BRANCH   1  20
HETATM   20  C2  UNL     1      33.575  29.908  25.739  1.00  0.00     0.264 C 
HETATM   21  O2  UNL     1      32.524  30.129  25.094  1.00  0.00    -0.265 OA
BRANCH  20  22
HETATM   22  O1  UNL     1      33.433  30.038  27.136  1.00  0.00    -0.326 OA
HETATM   23  C1  UNL     1      32.506  30.944  27.707  1.00  0.00     0.213 C 
ENDBRANCH  20  22
ENDBRANCH   1  20
TORSDOF 4
ENDMDL
MODEL 2
REMARK VINA RESULT: -7.047839452      1.276      1.540
REMARK  4 active torsions:
REMARK  status: ('A' for Active; 'I' for Inactive)
REMARK    1  A    between atoms: O1_2  and  C2_3 
REMARK    2  A    between atoms: C2_3  and  C3_5 
REMARK    3  A    between atoms: C11_14  and  C12_15 
REMARK       I    between atoms: C12_15  and  N1_17 
REMARK    4  A    between atoms: N1_17  and  N2_19 
ROOT
HETATM    1  C3  UNL     1      34.385  29.241  24.553  1.00  0.00     0.110 C 
HETATM    2  C4  UNL     1      35.505  28.636  25.380  1.00  0.00     0.003 C 
HETATM    3  C5  UNL     1      36.153  29.867  25.941  1.00  0.00     0.015 C 
HETATM    4  C6  UNL     1      36.017  30.903  24.814  1.00  0.00     0.029 C 
HETATM    5  C7  UNL     1      37.347  31.081  24.226  1.00  0.00    -0.023 C 
HETATM    6  C8  UNL     1      37.536  30.125  23.326  1.00  0.00    -0.008 C 
HETATM    7  C9  UNL     1      36.333  29.244  23.254  1.00  0.00     0.054 C 
HETATM    8 BR1  UNL     1      36.116  28.632  21.466  1.00  0.00    -0.080 Br
HETATM    9  C10 UNL     1      36.412  28.121  24.263  1.00  0.00     0.032 C 
HETATM   10  C11 UNL     1      35.252  30.174  23.750  1.00  0.00     0.083 C 
ENDROOT
BRANCH  10  11
HETATM   11  C12 UNL     1      34.587  30.995  22.789  1.00  0.00     0.248 C 
HETATM   12  O3  UNL     1      35.049  32.180  22.616  1.00  0.00    -0.271 OA
HETATM   13  N1  UNL     1      33.471  30.667  21.990  1.00  0.00    -0.269 N 
ATOM     14  H1  UNL     1      33.070  29.735  22.095  1.00  0.00     0.190 HD
BRANCH  13  15
HETATM   15  N2  UNL     1      32.885  31.521  21.075  1.00  0.00    -0.307 N 
HETATM   16  C13 UNL     1      32.412  31.157  19.939  1.00  0.00    -0.004 C 
HETATM   17  C14 UNL     1      32.500  29.725  19.584  1.00  0.00     0.064 C 
HETATM   18  C15 UNL     1      31.789  32.088  18.975  1.00  0.00     0.064 C 
ATOM     19  H2  UNL     1      32.824  32.510  21.320  1.00  0.00     0.186 HD
ENDBRANCH  13  15
ENDBRANCH  10  11
BRANCH   1  20
HETATM   20  C2  UNL     1      33.412  29.862  25.429  1.00  0.00     0.264 C 
HETATM   21  O2  UNL     1      32.402  30.458  24.992  1.00  0.00    -0.265 OA
BRANCH  20  22
HETATM   22  O1  UNL     1      33.513  29.853  26.836  1.00  0.00    -0.326 OA
HETATM   23  C1  UNL     1      32.849  30.816  27.634  1.00  0.00     0.213 C 
ENDBRANCH  20  22
ENDBRANCH   1  20
TORSDOF 4
ENDMDL
MODEL 3
REMARK VINA RESULT: -6.947814066      1.563      1.734
REMARK  4 active torsions:
REMARK  status: ('A' for Active; 'I' for Inactive)
REMARK    1  A    between atoms: O1_2  and  C2_3 
REMARK    2  A    between atoms: C2_3  and  C3_5 
REMARK    3  A    between atoms: C11_14  and  C12_15 
REMARK       I    between atoms: C12_15  and  N1_17 
REMARK    4  A    between atoms: N1_17  and  N2_19 
ROOT
HETATM    1  C3  UNL     1      34.814  29.533  25.322  1.00  0.00     0.110 C 
HETATM    2  C4  UNL     1      35.945  29.703  26.319  1.00  0.00     0.003 C 
HETATM    3  C5  UNL     1      35.969  31.193  26.487  1.00  0.00     0.015 C 
HETATM    4  C6  UNL     1      35.606  31.727  25.092  1.00  0.00     0.029 C 
HETATM    5  C7  UNL     1      36.831  32.278  24.506  1.00  0.00    -0.023 C 
HETATM    6  C8  UNL     1      37.510  31.284  23.950  1.00  0.00    -0.008 C 
HETATM    7  C9  UNL     1      36.774  29.997  24.128  1.00  0.00     0.054 C 
HETATM    8 BR1  UNL     1      37.080  28.890  22.612  1.00  0.00    -0.080 Br
HETATM    9  C10 UNL     1      37.135  29.332  25.436  1.00  0.00     0.032 C 
HETATM   10  C11 UNL     1      35.354  30.486  24.289  1.00  0.00     0.083 C 
ENDROOT
BRANCH  10  11
HETATM   11  C12 UNL     1      34.571  30.659  23.107  1.00  0.00     0.248 C 
HETATM   12  O3  UNL     1      34.682  31.779  22.493  1.00  0.00    -0.271 OA
HETATM   13  N1  UNL     1      33.676  29.741  22.517  1.00  0.00    -0.269 N 
ATOM     14  H1  UNL     1      33.555  28.836  22.972  1.00  0.00     0.190 HD
BRANCH  13  15
HETATM   15  N2  UNL     1      32.954  29.983  21.364  1.00  0.00    -0.307 N 
HETATM   16  C13 UNL     1      33.261  29.526  20.204  1.00  0.00    -0.004 C 
HETATM   17  C14 UNL     1      34.470  28.684  20.093  1.00  0.00     0.064 C 
HETATM   18  C15 UNL     1      32.473  29.798  18.983  1.00  0.00     0.064 C 
ATOM     19  H2  UNL     1      32.119  30.564  21.440  1.00  0.00     0.186 HD
ENDBRANCH  13  15
ENDBRANCH  10  11
BRANCH   1  20
HETATM   20  C2  UNL     1      33.557  29.903  25.943  1.00  0.00     0.264 C 
HETATM   21  O2  UNL     1      32.511  30.086  25.279  1.00  0.00    -0.265 OA
BRANCH  20  22
HETATM   22  O1  UNL     1      33.400  30.090  27.332  1.00  0.00    -0.326 OA
HETATM   23  C1  UNL     1      32.432  30.982  27.855  1.00  0.00     0.213 C 
ENDBRANCH  20  22
ENDBRANCH   1  20
TORSDOF 4
ENDMDL
MODEL 4
REMARK VINA RESULT: -6.800003308      2.205      3.805
REMARK  4 active torsions:
REMARK  status: ('A' for Active; 'I' for Inactive)
REMARK    1  A    between atoms: O1_2  and  C2_3 
REMARK    2  A    between atoms: C2_3  and  C3_5 
REMARK    3  A    between atoms: C11_14  and  C12_15 
REMARK       I    between atoms: C12_15  and  N1_17 
REMARK    4  A    between atoms: N1_17  and  N2_19 
ROOT
HETATM    1  C3  UNL     1      35.964  29.304  22.326  1.00  0.00     0.110 C 
HETATM    2  C4  UNL     1      36.931  29.021  23.461  1.00  0.00     0.003 C 
HETATM    3  C5  UNL     1      36.024  28.377  24.467  1.00  0.00     0.015 C 
HETATM    4  C6  UNL     1      34.687  29.111  24.282  1.00  0.00     0.029 C 
HETATM    5  C7  UNL     1      34.514  29.995  25.439  1.00  0.00    -0.023 C 
HETATM    6  C8  UNL     1      35.168  31.124  25.201  1.00  0.00    -0.008 C 
HETATM    7  C9  UNL     1      35.821  31.067  23.860  1.00  0.00     0.054 C 
HETATM    8 BR1  UNL     1      35.828  32.808  23.096  1.00  0.00    -0.080 Br
HETATM    9  C10 UNL     1      37.197  30.446  23.944  1.00  0.00     0.032 C 
HETATM   10  C11 UNL     1      34.953  30.057  23.148  1.00  0.00     0.083 C 
ENDROOT
BRANCH  10  11
HETATM   11  C12 UNL     1      33.799  30.539  22.458  1.00  0.00     0.248 C 
HETATM   12  O3  UNL     1      32.709  30.618  23.130  1.00  0.00    -0.271 OA
HETATM   13  N1  UNL     1      33.701  30.949  21.111  1.00  0.00    -0.269 N 
ATOM     14  H1  UNL     1      34.544  30.901  20.538  1.00  0.00     0.190 HD
BRANCH  13  15
HETATM   15  N2  UNL     1      32.543  31.409  20.515  1.00  0.00    -0.307 N 
HETATM   16  C13 UNL     1      31.950  30.831  19.534  1.00  0.00    -0.004 C 
HETATM   17  C14 UNL     1      32.548  29.587  19.005  1.00  0.00     0.064 C 
HETATM   18  C15 UNL     1      30.711  31.342  18.911  1.00  0.00     0.064 C 
ATOM     19  H2  UNL     1      32.131  32.268  20.880  1.00  0.00     0.186 HD
ENDBRANCH  13  15
ENDBRANCH  10  11
BRANCH   1  20
HETATM   20  C2  UNL     1      35.517  28.053  21.745  1.00  0.00     0.264 C 
HETATM   21  O2  UNL     1      34.331  27.868  21.388  1.00  0.00    -0.265 OA
BRANCH  20  22
HETATM   22  O1  UNL     1      36.364  26.946  21.531  1.00  0.00    -0.326 OA
HETATM   23  C1  UNL     1      36.295  26.177  20.344  1.00  0.00     0.213 C 
ENDBRANCH  20  22
ENDBRANCH   1  20
TORSDOF 4
ENDMDL
MODEL 5
REMARK VINA RESULT: -6.797076010      2.124      3.431
REMARK  4 active torsions:
REMARK  status: ('A' for Active; 'I' for Inactive)
REMARK    1  A    between atoms: O1_2  and  C2_3 
REMARK    2  A    between atoms: C2_3  and  C3_5 
REMARK    3  A    between atoms: C11_14  and  C12_15 
REMARK       I    between atoms: C12_15  and  N1_17 
REMARK    4  A    between atoms: N1_17  and  N2_19 
ROOT
HETATM    1  C3  UNL     1      35.827  31.958  24.468  1.00  0.00     0.110 C 
HETATM    2  C4  UNL     1      36.585  31.292  25.601  1.00  0.00     0.003 C 
HETATM    3  C5  UNL     1      37.536  30.414  24.842  1.00  0.00     0.015 C 
HETATM    4  C6  UNL     1      36.729  29.971  23.613  1.00  0.00     0.029 C 
HETATM    5  C7  UNL     1      36.376  28.562  23.810  1.00  0.00    -0.023 C 
HETATM    6  C8  UNL     1      35.279  28.507  24.553  1.00  0.00    -0.008 C 
HETATM    7  C9  UNL     1      34.823  29.886  24.897  1.00  0.00     0.054 C 
HETATM    8 BR1  UNL     1      32.924  29.910  24.989  1.00  0.00    -0.080 Br
HETATM    9  C10 UNL     1      35.488  30.387  26.159  1.00  0.00     0.032 C 
HETATM   10  C11 UNL     1      35.421  30.689  23.766  1.00  0.00     0.083 C 
ENDROOT
BRANCH  10  11
HETATM   11  C12 UNL     1      34.649  30.837  22.574  1.00  0.00     0.248 C 
HETATM   12  O3  UNL     1      34.706  29.881  21.720  1.00  0.00    -0.271 OA
HETATM   13  N1  UNL     1      33.816  31.915  22.207  1.00  0.00    -0.269 N 
ATOM     14  H1  UNL     1      33.740  32.699  22.856  1.00  0.00     0.190 HD
BRANCH  13  15
HETATM   15  N2  UNL     1      33.094  31.982  21.030  1.00  0.00    -0.307 N 
HETATM   16  C13 UNL     1      32.863  33.064  20.379  1.00  0.00    -0.004 C 
HETATM   17  C14 UNL     1      33.406  34.326  20.925  1.00  0.00     0.064 C 
HETATM   18  C15 UNL     1      32.089  33.113  19.121  1.00  0.00     0.064 C 
ATOM     19  H2  UNL     1      32.720  31.112  20.653  1.00  0.00     0.186 HD
ENDBRANCH  13  15
ENDBRANCH  10  11
BRANCH   1  20
HETATM   20  C2  UNL     1      36.716  32.840  23.738  1.00  0.00     0.264 C 
HETATM   21  O2  UNL     1      36.349  33.463  22.715  1.00  0.00    -0.265 OA
BRANCH  20  22
HETATM   22  O1  UNL     1      38.057  33.072  24.106  1.00  0.00    -0.326 OA
HETATM   23  C1  UNL     1      39.103  33.051  23.151  1.00  0.00     0.213 C 
ENDBRANCH  20  22
ENDBRANCH   1  20
TORSDOF 4
ENDMDL
