MODEL 1
REMARK VINA RESULT: -5.241095649      0.000      0.000
REMARK  4 active torsions:
REMARK  status: ('A' for Active; 'I' for Inactive)
REMARK    1  A    between atoms: O1_2  and  C2_3 
REMARK    2  A    between atoms: C2_3  and  C3_5 
REMARK    3  A    between atoms: C6_12  and  C7_13 
REMARK    4  A    between atoms: C7_13  and  S1_14 
ROOT
HETATM    1  C3  UNL     1      33.750  29.519  20.745  1.00  0.00     0.117 A 
HETATM    2  N1  UNL     1      34.419  28.699  19.945  1.00  0.00    -0.344 N 
ATOM      3  H1  UNL     1      34.056  28.362  19.053  1.00  0.00     0.167 HD
HETATM    4  C4  UNL     1      35.615  28.361  20.426  1.00  0.00     0.098 A 
HETATM    5 BR1  UNL     1      36.969  27.235  19.710  1.00  0.00    -0.030 Br
HETATM    6  C5  UNL     1      35.713  29.029  21.644  1.00  0.00     0.054 A 
HETATM    7 BR2  UNL     1      37.264  28.970  22.790  1.00  0.00    -0.047 Br
HETATM    8  C6  UNL     1      34.571  29.754  21.870  1.00  0.00     0.006 A 
ENDROOT
BRANCH   1   9
HETATM    9  C2  UNL     1      32.404  30.096  20.538  1.00  0.00     0.310 C 
HETATM   10  O2  UNL     1      31.403  29.631  21.093  1.00  0.00    -0.258 OA
BRANCH   9  11
HETATM   11  O1  UNL     1      32.301  31.188  19.695  1.00  0.00    -0.321 OA
HETATM   12  C1  UNL     1      31.453  31.221  18.572  1.00  0.00     0.213 C 
ENDBRANCH   9  11
ENDBRANCH   1   9
BRANCH   8  13
HETATM   13  C7  UNL     1      34.161  30.660  22.949  1.00  0.00     0.150 C 
BRANCH  13  14
HETATM   14  S1  UNL     1      34.143  29.821  24.507  1.00  0.00     0.015 S 
HETATM   15  C8  UNL     1      35.257  30.727  25.638  1.00  0.00     0.127 C 
HETATM   16  O3  UNL     1      32.578  30.026  25.223  1.00  0.00    -0.258 OA
ENDBRANCH  13  14
ENDBRANCH   8  13
TORSDOF 4
ENDMDL
MODEL 2
REMARK VINA RESULT: -5.038838486      3.761      5.153
REMARK  4 active torsions:
REMARK  status: ('A' for Active; 'I' for Inactive)
REMARK    1  A    between atoms: O1_2  and  C2_3 
REMARK    2  A    between atoms: C2_3  and  C3_5 
REMARK    3  A    between atoms: C6_12  and  C7_13 
REMARK    4  A    between atoms: C7_13  and  S1_14 
ROOT
HETATM    1  C3  UNL     1      34.266  30.038  25.118  1.00  0.00     0.117 A 
HETATM    2  N1  UNL     1      33.311  30.156  24.204  1.00  0.00    -0.344 N 
ATOM      3  H1  UNL     1      32.438  30.657  24.364  1.00  0.00     0.167 HD
HETATM    4  C4  UNL     1      33.612  29.552  23.055  1.00  0.00     0.098 A 
HETATM    5 BR1  UNL     1      32.629  29.406  21.434  1.00  0.00    -0.030 Br
HETATM    6  C5  UNL     1      34.874  29.001  23.259  1.00  0.00     0.054 A 
HETATM    7 BR2  UNL     1      35.867  28.039  21.913  1.00  0.00    -0.047 Br
HETATM    8  C6  UNL     1      35.305  29.284  24.530  1.00  0.00     0.006 A 
ENDROOT
BRANCH   1   9
HETATM    9  C2  UNL     1      34.279  30.575  26.496  1.00  0.00     0.310 C 
HETATM   10  O2  UNL     1      35.149  31.362  26.881  1.00  0.00    -0.258 OA
BRANCH   9  11
HETATM   11  O1  UNL     1      33.271  30.164  27.350  1.00  0.00    -0.321 OA
HETATM   12  C1  UNL     1      32.106  30.915  27.592  1.00  0.00     0.213 C 
ENDBRANCH   9  11
ENDBRANCH   1   9
BRANCH   8  13
HETATM   13  C7  UNL     1      36.552  28.995  25.250  1.00  0.00     0.150 C 
BRANCH  13  14
HETATM   14  S1  UNL     1      36.519  27.369  25.944  1.00  0.00     0.015 S 
HETATM   15  C8  UNL     1      38.197  26.995  26.564  1.00  0.00     0.127 C 
HETATM   16  O3  UNL     1      35.551  27.405  27.381  1.00  0.00    -0.258 OA
ENDBRANCH  13  14
ENDBRANCH   8  13
TORSDOF 4
ENDMDL
MODEL 3
REMARK VINA RESULT: -5.015555858      3.290      4.169
REMARK  4 active torsions:
REMARK  status: ('A' for Active; 'I' for Inactive)
REMARK    1  A    between atoms: O1_2  and  C2_3 
REMARK    2  A    between atoms: C2_3  and  C3_5 
REMARK    3  A    between atoms: C6_12  and  C7_13 
REMARK    4  A    between atoms: C7_13  and  S1_14 
ROOT
HETATM    1  C3  UNL     1      33.656  29.518  23.276  1.00  0.00     0.117 A 
HETATM    2  N1  UNL     1      32.755  29.590  24.248  1.00  0.00    -0.344 N 
ATOM      3  H1  UNL     1      31.811  29.210  24.170  1.00  0.00     0.167 HD
HETATM    4  C4  UNL     1      33.210  30.210  25.337  1.00  0.00     0.098 A 
HETATM    5 BR1  UNL     1      32.363  30.587  26.996  1.00  0.00    -0.030 Br
HETATM    6  C5  UNL     1      34.520  30.563  25.026  1.00  0.00     0.054 A 
HETATM    7 BR2  UNL     1      35.722  31.449  26.249  1.00  0.00    -0.047 Br
HETATM    8  C6  UNL     1      34.825  30.149  23.755  1.00  0.00     0.006 A 
ENDROOT
BRANCH   1   9
HETATM    9  C2  UNL     1      33.505  28.907  21.938  1.00  0.00     0.310 C 
HETATM   10  O2  UNL     1      34.165  27.922  21.593  1.00  0.00    -0.258 OA
BRANCH   9  11
HETATM   11  O1  UNL     1      32.587  29.479  21.075  1.00  0.00    -0.321 OA
HETATM   12  C1  UNL     1      32.701  30.793  20.585  1.00  0.00     0.213 C 
ENDBRANCH   9  11
ENDBRANCH   1   9
BRANCH   8  13
HETATM   13  C7  UNL     1      36.051  30.215  22.950  1.00  0.00     0.150 C 
BRANCH  13  14
HETATM   14  S1  UNL     1      37.180  28.934  23.410  1.00  0.00     0.015 S 
HETATM   15  C8  UNL     1      38.520  29.698  24.389  1.00  0.00     0.127 C 
HETATM   16  O3  UNL     1      36.390  27.888  24.545  1.00  0.00    -0.258 OA
ENDBRANCH  13  14
ENDBRANCH   8  13
TORSDOF 4
ENDMDL
MODEL 4
REMARK VINA RESULT: -4.985242785      3.423      4.990
REMARK  4 active torsions:
REMARK  status: ('A' for Active; 'I' for Inactive)
REMARK    1  A    between atoms: O1_2  and  C2_3 
REMARK    2  A    between atoms: C2_3  and  C3_5 
REMARK    3  A    between atoms: C6_12  and  C7_13 
REMARK    4  A    between atoms: C7_13  and  S1_14 
ROOT
HETATM    1  C3  UNL     1      34.116  31.004  22.353  1.00  0.00     0.117 A 
HETATM    2  N1  UNL     1      33.716  32.141  21.797  1.00  0.00    -0.344 N 
ATOM      3  H1  UNL     1      33.905  33.060  22.196  1.00  0.00     0.167 HD
HETATM    4  C4  UNL     1      33.042  31.958  20.661  1.00  0.00     0.098 A 
HETATM    5 BR1  UNL     1      32.252  33.210  19.470  1.00  0.00    -0.030 Br
HETATM    6  C5  UNL     1      33.013  30.577  20.482  1.00  0.00     0.054 A 
HETATM    7 BR2  UNL     1      32.212  29.700  18.961  1.00  0.00    -0.047 Br
HETATM    8  C6  UNL     1      33.669  29.959  21.515  1.00  0.00     0.006 A 
ENDROOT
BRANCH   1   9
HETATM    9  C2  UNL     1      34.882  30.824  23.605  1.00  0.00     0.310 C 
HETATM   10  O2  UNL     1      36.094  31.052  23.667  1.00  0.00    -0.258 OA
BRANCH   9  11
HETATM   11  O1  UNL     1      34.187  30.388  24.720  1.00  0.00    -0.321 OA
HETATM   12  C1  UNL     1      34.528  29.228  25.439  1.00  0.00     0.213 C 
ENDBRANCH   9  11
ENDBRANCH   1   9
BRANCH   8  13
HETATM   13  C7  UNL     1      33.976  28.553  21.805  1.00  0.00     0.150 C 
BRANCH  13  14
HETATM   14  S1  UNL     1      35.567  28.110  21.173  1.00  0.00     0.015 S 
HETATM   15  C8  UNL     1      36.645  27.727  22.598  1.00  0.00     0.127 C 
HETATM   16  O3  UNL     1      35.426  26.591  20.347  1.00  0.00    -0.258 OA
ENDBRANCH  13  14
ENDBRANCH   8  13
TORSDOF 4
ENDMDL
MODEL 5
REMARK VINA RESULT: -4.981554256      2.466      3.872
REMARK  4 active torsions:
REMARK  status: ('A' for Active; 'I' for Inactive)
REMARK    1  A    between atoms: O1_2  and  C2_3 
REMARK    2  A    between atoms: C2_3  and  C3_5 
REMARK    3  A    between atoms: C6_12  and  C7_13 
REMARK    4  A    between atoms: C7_13  and  S1_14 
ROOT
HETATM    1  C3  UNL     1      33.900  30.560  21.850  1.00  0.00     0.117 A 
HETATM    2  N1  UNL     1      34.317  31.656  22.472  1.00  0.00    -0.344 N 
ATOM      3  H1  UNL     1      33.819  32.545  22.440  1.00  0.00     0.167 HD
HETATM    4  C4  UNL     1      35.453  31.473  23.145  1.00  0.00     0.098 A 
HETATM    5 BR1  UNL     1      36.481  32.679  24.196  1.00  0.00    -0.030 Br
HETATM    6  C5  UNL     1      35.787  30.139  22.929  1.00  0.00     0.054 A 
HETATM    7 BR2  UNL     1      37.324  29.268  23.705  1.00  0.00    -0.047 Br
HETATM    8  C6  UNL     1      34.844  29.547  22.128  1.00  0.00     0.006 A 
ENDROOT
BRANCH   1   9
HETATM    9  C2  UNL     1      32.691  30.391  21.016  1.00  0.00     0.310 C 
HETATM   10  O2  UNL     1      31.680  29.824  21.442  1.00  0.00    -0.258 OA
BRANCH   9  11
HETATM   11  O1  UNL     1      32.727  30.897  19.729  1.00  0.00    -0.321 OA
HETATM   12  C1  UNL     1      31.678  30.739  18.805  1.00  0.00     0.213 C 
ENDBRANCH   9  11
ENDBRANCH   1   9
BRANCH   8  13
HETATM   13  C7  UNL     1      34.675  28.177  21.630  1.00  0.00     0.150 C 
BRANCH  13  14
HETATM   14  S1  UNL     1      35.634  27.913  20.167  1.00  0.00     0.015 S 
HETATM   15  C8  UNL     1      35.896  26.113  19.992  1.00  0.00     0.127 C 
HETATM   16  O3  UNL     1      34.659  28.319  18.792  1.00  0.00    -0.258 OA
ENDBRANCH  13  14
ENDBRANCH   8  13
TORSDOF 4
ENDMDL
