MODEL 1
REMARK VINA RESULT: -5.781712005      0.000      0.000
REMARK  2 active torsions:
REMARK  status: ('A' for Active; 'I' for Inactive)
REMARK    1  A    between atoms: C3_3  and  O1_4 
REMARK    2  A    between atoms: C6_8  and  C7_9 
ROOT
HETATM    1  C1  UNL     1     -12.139  28.047   4.679  1.00  0.00     0.013 C 
HETATM    2  C2  UNL     1     -13.094  27.272   5.502  1.00  0.00     0.015 C 
HETATM    3  C3  UNL     1     -12.589  27.349   6.956  1.00  0.00     0.122 C 
HETATM    4  C4  UNL     1     -12.997  28.745   7.318  1.00  0.00     0.032 C 
HETATM    5  C5  UNL     1     -14.145  29.135   6.401  1.00  0.00     0.008 C 
HETATM    6  C6  UNL     1     -14.442  27.842   5.685  1.00  0.00    -0.004 C 
ENDROOT
BRANCH   6   7
HETATM    7  C7  UNL     1     -15.340  27.986   4.521  1.00  0.00    -0.010 C 
HETATM    8  C8  UNL     1     -16.606  27.183   4.586  1.00  0.00     0.005 C 
HETATM    9  C9  UNL     1     -17.247  27.325   3.194  1.00  0.00     0.000 C 
HETATM   10  C10 UNL     1     -17.787  28.736   3.204  1.00  0.00     0.000 C 
HETATM   11  C11 UNL     1     -16.660  29.726   3.238  1.00  0.00     0.000 C 
HETATM   12  C12 UNL     1     -15.527  29.409   4.111  1.00  0.00     0.005 C 
ENDBRANCH   6   7
BRANCH   3  13
HETATM   13  O1  UNL     1     -11.226  27.233   7.029  1.00  0.00    -0.395 OA
ATOM     14  H1  UNL     1     -10.787  28.001   6.683  1.00  0.00     0.210 HD
ENDBRANCH   3  13
TORSDOF 2
ENDMDL
MODEL 2
REMARK VINA RESULT: -5.733885991      5.577      8.234
REMARK  2 active torsions:
REMARK  status: ('A' for Active; 'I' for Inactive)
REMARK    1  A    between atoms: C3_3  and  O1_4 
REMARK    2  A    between atoms: C6_8  and  C7_9 
ROOT
HETATM    1  C1  UNL     1     -10.827  25.708   3.452  1.00  0.00     0.013 C 
HETATM    2  C2  UNL     1     -10.056  24.482   3.152  1.00  0.00     0.015 C 
HETATM    3  C3  UNL     1     -11.011  23.527   2.410  1.00  0.00     0.122 C 
HETATM    4  C4  UNL     1     -11.039  24.163   1.053  1.00  0.00     0.032 C 
HETATM    5  C5  UNL     1      -9.760  24.972   0.903  1.00  0.00     0.008 C 
HETATM    6  C6  UNL     1      -8.988  24.588   2.140  1.00  0.00    -0.004 C 
ENDROOT
BRANCH   6   7
HETATM    7  C7  UNL     1      -7.809  25.438   2.406  1.00  0.00    -0.010 C 
HETATM    8  C8  UNL     1      -7.868  26.816   1.815  1.00  0.00     0.005 C 
HETATM    9  C9  UNL     1      -6.465  27.411   2.034  1.00  0.00     0.000 C 
HETATM   10  C10 UNL     1      -6.447  27.719   3.513  1.00  0.00     0.000 C 
HETATM   11  C11 UNL     1      -6.481  26.449   4.311  1.00  0.00     0.000 C 
HETATM   12  C12 UNL     1      -7.375  25.391   3.833  1.00  0.00     0.005 C 
ENDBRANCH   6   7
BRANCH   3  13
HETATM   13  O1  UNL     1     -12.269  23.542   2.951  1.00  0.00    -0.395 OA
ATOM     14  H1  UNL     1     -12.775  22.781   2.693  1.00  0.00     0.210 HD
ENDBRANCH   3  13
TORSDOF 2
ENDMDL
MODEL 3
REMARK VINA RESULT: -5.715242529      1.702      2.015
REMARK  2 active torsions:
REMARK  status: ('A' for Active; 'I' for Inactive)
REMARK    1  A    between atoms: C3_3  and  O1_4 
REMARK    2  A    between atoms: C6_8  and  C7_9 
ROOT
HETATM    1  C1  UNL     1     -13.435  24.726   4.336  1.00  0.00     0.013 C 
HETATM    2  C2  UNL     1     -14.308  25.184   5.439  1.00  0.00     0.015 C 
HETATM    3  C3  UNL     1     -13.475  25.089   6.733  1.00  0.00     0.122 C 
HETATM    4  C4  UNL     1     -12.588  26.288   6.579  1.00  0.00     0.032 C 
HETATM    5  C5  UNL     1     -13.295  27.261   5.650  1.00  0.00     0.008 C 
HETATM    6  C6  UNL     1     -14.648  26.619   5.478  1.00  0.00    -0.004 C 
ENDROOT
BRANCH   6   7
HETATM    7  C7  UNL     1     -15.464  27.207   4.395  1.00  0.00    -0.010 C 
HETATM    8  C8  UNL     1     -16.873  26.699   4.308  1.00  0.00     0.005 C 
HETATM    9  C9  UNL     1     -17.432  27.280   2.997  1.00  0.00     0.000 C 
HETATM   10  C10 UNL     1     -17.659  28.735   3.333  1.00  0.00     0.000 C 
HETATM   11  C11 UNL     1     -16.348  29.429   3.560  1.00  0.00     0.000 C 
HETATM   12  C12 UNL     1     -15.332  28.691   4.316  1.00  0.00     0.005 C 
ENDBRANCH   6   7
BRANCH   3  13
HETATM   13  O1  UNL     1     -12.711  23.952   6.765  1.00  0.00    -0.395 OA
ATOM     14  H1  UNL     1     -12.822  23.429   5.980  1.00  0.00     0.210 HD
ENDBRANCH   3  13
TORSDOF 2
ENDMDL
MODEL 4
REMARK VINA RESULT: -5.572683337      1.789      2.524
REMARK  2 active torsions:
REMARK  status: ('A' for Active; 'I' for Inactive)
REMARK    1  A    between atoms: C3_3  and  O1_4 
REMARK    2  A    between atoms: C6_8  and  C7_9 
ROOT
HETATM    1  C1  UNL     1     -13.454  30.324   3.557  1.00  0.00     0.013 C 
HETATM    2  C2  UNL     1     -12.875  29.072   4.091  1.00  0.00     0.015 C 
HETATM    3  C3  UNL     1     -11.596  29.466   4.857  1.00  0.00     0.122 C 
HETATM    4  C4  UNL     1     -12.188  30.041   6.107  1.00  0.00     0.032 C 
HETATM    5  C5  UNL     1     -13.574  29.439   6.273  1.00  0.00     0.008 C 
HETATM    6  C6  UNL     1     -13.609  28.401   5.181  1.00  0.00    -0.004 C 
ENDROOT
BRANCH   6   7
HETATM    7  C7  UNL     1     -14.951  27.840   4.921  1.00  0.00    -0.010 C 
HETATM    8  C8  UNL     1     -15.813  28.645   3.994  1.00  0.00     0.005 C 
HETATM    9  C9  UNL     1     -17.203  27.988   4.061  1.00  0.00     0.000 C 
HETATM   10  C10 UNL     1     -17.021  26.713   3.270  1.00  0.00     0.000 C 
HETATM   11  C11 UNL     1     -16.094  25.779   3.991  1.00  0.00     0.000 C 
HETATM   12  C12 UNL     1     -14.916  26.377   4.627  1.00  0.00     0.005 C 
ENDBRANCH   6   7
BRANCH   3  13
HETATM   13  O1  UNL     1     -10.884  30.433   4.197  1.00  0.00    -0.395 OA
ATOM     14  H1  UNL     1     -10.105  30.688   4.676  1.00  0.00     0.210 HD
ENDBRANCH   3  13
TORSDOF 2
ENDMDL
MODEL 5
REMARK VINA RESULT: -5.561820087      1.687      2.853
REMARK  2 active torsions:
REMARK  status: ('A' for Active; 'I' for Inactive)
REMARK    1  A    between atoms: C3_3  and  O1_4 
REMARK    2  A    between atoms: C6_8  and  C7_9 
ROOT
HETATM    1  C1  UNL     1     -12.280  30.022   6.574  1.00  0.00     0.013 C 
HETATM    2  C2  UNL     1     -12.264  30.290   5.119  1.00  0.00     0.015 C 
HETATM    3  C3  UNL     1     -10.820  30.044   4.639  1.00  0.00     0.122 C 
HETATM    4  C4  UNL     1     -10.781  28.546   4.635  1.00  0.00     0.032 C 
HETATM    5  C5  UNL     1     -12.213  28.054   4.501  1.00  0.00     0.008 C 
HETATM    6  C6  UNL     1     -12.973  29.332   4.249  1.00  0.00    -0.004 C 
ENDROOT
BRANCH   6   7
HETATM    7  C7  UNL     1     -14.439  29.195   4.353  1.00  0.00    -0.010 C 
HETATM    8  C8  UNL     1     -15.224  29.885   3.277  1.00  0.00     0.005 C 
HETATM    9  C9  UNL     1     -16.695  29.788   3.722  1.00  0.00     0.000 C 
HETATM   10  C10 UNL     1     -17.040  28.340   3.463  1.00  0.00     0.000 C 
HETATM   11  C11 UNL     1     -16.272  27.447   4.392  1.00  0.00     0.000 C 
HETATM   12  C12 UNL     1     -14.869  27.794   4.635  1.00  0.00     0.005 C 
ENDBRANCH   6   7
BRANCH   3  13
HETATM   13  O1  UNL     1      -9.898  30.526   5.530  1.00  0.00    -0.395 OA
ATOM     14  H1  UNL     1      -9.031  30.173   5.367  1.00  0.00     0.210 HD
ENDBRANCH   3  13
TORSDOF 2
ENDMDL
