MODEL 1
REMARK VINA RESULT: -6.122275484      0.000      0.000
REMARK  2 active torsions:
REMARK  status: ('A' for Active; 'I' for Inactive)
REMARK    1  A    between atoms: C5_5  and  C6_6 
REMARK    2  A    between atoms: C6_6  and  N1_7 
ROOT
HETATM    1  C1  UNL     1     -12.979  29.320   4.853  1.00  0.00     0.015 C 
HETATM    2  C2  UNL     1     -14.466  28.946   4.944  1.00  0.00    -0.040 C 
HETATM    3  C3  UNL     1     -15.224  29.673   3.905  1.00  0.00     0.010 C 
HETATM    4  C4  UNL     1     -16.629  29.174   3.847  1.00  0.00     0.008 C 
HETATM    5  C5  UNL     1     -16.525  27.707   3.430  1.00  0.00     0.019 C 
HETATM    6  C7  UNL     1     -15.940  26.928   4.551  1.00  0.00    -0.038 C 
HETATM    7  C8  UNL     1     -15.604  25.533   3.992  1.00  0.00     0.015 C 
HETATM    8  C9  UNL     1     -16.993  26.654   5.634  1.00  0.00     0.015 C 
HETATM    9  C10 UNL     1     -14.698  27.509   5.090  1.00  0.00     0.002 C 
HETATM   10  C11 UNL     1     -14.693  27.705   6.613  1.00  0.00     0.007 C 
HETATM   11  C12 UNL     1     -14.922  29.183   6.376  1.00  0.00     0.010 C 
ENDROOT
BRANCH   5  12
HETATM   12  C6  UNL     1     -17.865  27.273   2.973  1.00  0.00     0.234 C 
BRANCH  12  13
HETATM   13  N1  UNL     1     -18.599  28.267   2.242  1.00  0.00    -0.079 N 
ATOM     14  H13 UNL     1     -19.126  28.861   2.883  1.00  0.00     0.274 HD
ATOM     15  H12 UNL     1     -17.962  28.957   1.846  1.00  0.00     0.274 HD
ATOM     16  H11 UNL     1     -19.214  27.895   1.518  1.00  0.00     0.274 HD
ENDBRANCH  12  13
ENDBRANCH   5  12
TORSDOF 2
ENDMDL
MODEL 2
REMARK VINA RESULT: -5.761204669      5.598      7.110
REMARK  2 active torsions:
REMARK  status: ('A' for Active; 'I' for Inactive)
REMARK    1  A    between atoms: C5_5  and  C6_6 
REMARK    2  A    between atoms: C6_6  and  N1_7 
ROOT
HETATM    1  C1  UNL     1     -10.518  24.887  -0.161  1.00  0.00     0.015 C 
HETATM    2  C2  UNL     1      -9.870  25.747   0.935  1.00  0.00    -0.040 C 
HETATM    3  C3  UNL     1      -9.920  27.171   0.540  1.00  0.00     0.010 C 
HETATM    4  C4  UNL     1      -9.480  28.035   1.674  1.00  0.00     0.008 C 
HETATM    5  C5  UNL     1     -10.504  27.806   2.785  1.00  0.00     0.019 C 
HETATM    6  C7  UNL     1     -10.330  26.434   3.326  1.00  0.00    -0.038 C 
HETATM    7  C8  UNL     1     -11.543  26.159   4.233  1.00  0.00     0.015 C 
HETATM    8  C9  UNL     1      -9.127  26.372   4.277  1.00  0.00     0.015 C 
HETATM    9  C10 UNL     1     -10.297  25.389   2.286  1.00  0.00     0.002 C 
HETATM   10  C11 UNL     1      -9.091  24.442   2.372  1.00  0.00     0.007 C 
HETATM   11  C12 UNL     1      -8.480  25.191   1.207  1.00  0.00     0.010 C 
ENDROOT
BRANCH   5  12
HETATM   12  C6  UNL     1     -10.361  28.909   3.764  1.00  0.00     0.234 C 
BRANCH  12  13
HETATM   13  N1  UNL     1     -10.532  30.223   3.214  1.00  0.00    -0.079 N 
ATOM     14  H13 UNL     1     -10.457  30.195   2.197  1.00  0.00     0.274 HD
ATOM     15  H12 UNL     1     -11.503  30.524   3.310  1.00  0.00     0.274 HD
ATOM     16  H11 UNL     1      -9.903  30.930   3.596  1.00  0.00     0.274 HD
ENDBRANCH  12  13
ENDBRANCH   5  12
TORSDOF 2
ENDMDL
MODEL 3
REMARK VINA RESULT: -5.446937305      1.537      2.165
REMARK  2 active torsions:
REMARK  status: ('A' for Active; 'I' for Inactive)
REMARK    1  A    between atoms: C5_5  and  C6_6 
REMARK    2  A    between atoms: C6_6  and  N1_7 
ROOT
HETATM    1  C1  UNL     1     -12.456  25.859   4.682  1.00  0.00     0.015 C 
HETATM    2  C2  UNL     1     -13.750  26.598   5.058  1.00  0.00    -0.040 C 
HETATM    3  C3  UNL     1     -13.638  28.020   4.674  1.00  0.00     0.010 C 
HETATM    4  C4  UNL     1     -14.951  28.706   4.846  1.00  0.00     0.008 C 
HETATM    5  C5  UNL     1     -15.904  28.016   3.870  1.00  0.00     0.019 C 
HETATM    6  C7  UNL     1     -16.180  26.641   4.358  1.00  0.00    -0.038 C 
HETATM    7  C8  UNL     1     -16.909  25.905   3.218  1.00  0.00     0.015 C 
HETATM    8  C9  UNL     1     -17.201  26.662   5.504  1.00  0.00     0.015 C 
HETATM    9  C10 UNL     1     -14.964  25.874   4.684  1.00  0.00     0.002 C 
HETATM   10  C11 UNL     1     -14.966  25.238   6.082  1.00  0.00     0.007 C 
HETATM   11  C12 UNL     1     -14.027  26.337   6.532  1.00  0.00     0.010 C 
ENDROOT
BRANCH   5  12
HETATM   12  C6  UNL     1     -17.088  28.891   3.703  1.00  0.00     0.234 C 
BRANCH  12  13
HETATM   13  N1  UNL     1     -16.821  30.141   3.052  1.00  0.00    -0.079 N 
ATOM     14  H13 UNL     1     -16.439  30.813   3.718  1.00  0.00     0.274 HD
ATOM     15  H12 UNL     1     -16.025  30.049   2.420  1.00  0.00     0.274 HD
ATOM     16  H11 UNL     1     -17.618  30.544   2.560  1.00  0.00     0.274 HD
ENDBRANCH  12  13
ENDBRANCH   5  12
TORSDOF 2
ENDMDL
MODEL 4
REMARK VINA RESULT: -5.437774312      6.417      8.094
REMARK  2 active torsions:
REMARK  status: ('A' for Active; 'I' for Inactive)
REMARK    1  A    between atoms: C5_5  and  C6_6 
REMARK    2  A    between atoms: C6_6  and  N1_7 
ROOT
HETATM    1  C1  UNL     1      -7.539  25.033   4.570  1.00  0.00     0.015 C 
HETATM    2  C2  UNL     1      -7.719  25.785   3.243  1.00  0.00    -0.040 C 
HETATM    3  C3  UNL     1      -8.089  24.830   2.178  1.00  0.00     0.010 C 
HETATM    4  C4  UNL     1      -8.462  25.563   0.934  1.00  0.00     0.008 C 
HETATM    5  C5  UNL     1      -9.700  26.383   1.298  1.00  0.00     0.019 C 
HETATM    6  C7  UNL     1      -9.300  27.475   2.221  1.00  0.00    -0.038 C 
HETATM    7  C8  UNL     1     -10.601  28.091   2.768  1.00  0.00     0.015 C 
HETATM    8  C9  UNL     1      -8.635  28.625   1.451  1.00  0.00     0.015 C 
HETATM    9  C10 UNL     1      -8.501  27.014   3.370  1.00  0.00     0.002 C 
HETATM   10  C11 UNL     1      -7.186  27.780   3.582  1.00  0.00     0.007 C 
HETATM   11  C12 UNL     1      -6.456  26.594   2.988  1.00  0.00     0.010 C 
ENDROOT
BRANCH   5  12
HETATM   12  C6  UNL     1     -10.344  26.810   0.034  1.00  0.00     0.234 C 
BRANCH  12  13
HETATM   13  N1  UNL     1     -10.005  26.013  -1.110  1.00  0.00    -0.079 N 
ATOM     14  H13 UNL     1      -9.433  26.552  -1.760  1.00  0.00     0.274 HD
ATOM     15  H12 UNL     1      -9.338  25.286  -0.850  1.00  0.00     0.274 HD
ATOM     16  H11 UNL     1     -10.803  25.604  -1.596  1.00  0.00     0.274 HD
ENDBRANCH  12  13
ENDBRANCH   5  12
TORSDOF 2
ENDMDL
MODEL 5
REMARK VINA RESULT: -5.383022236      6.336      8.162
REMARK  2 active torsions:
REMARK  status: ('A' for Active; 'I' for Inactive)
REMARK    1  A    between atoms: C5_5  and  C6_6 
REMARK    2  A    between atoms: C6_6  and  N1_7 
ROOT
HETATM    1  C1  UNL     1     -10.692  24.911   4.530  1.00  0.00     0.015 C 
HETATM    2  C2  UNL     1      -9.955  25.564   3.350  1.00  0.00    -0.040 C 
HETATM    3  C3  UNL     1     -10.578  26.867   3.036  1.00  0.00     0.010 C 
HETATM    4  C4  UNL     1      -9.757  27.602   2.032  1.00  0.00     0.008 C 
HETATM    5  C5  UNL     1      -8.413  27.862   2.713  1.00  0.00     0.019 C 
HETATM    6  C7  UNL     1      -7.689  26.574   2.856  1.00  0.00    -0.038 C 
HETATM    7  C8  UNL     1      -6.487  26.842   3.780  1.00  0.00     0.015 C 
HETATM    8  C9  UNL     1      -7.052  26.155   1.524  1.00  0.00     0.015 C 
HETATM    9  C10 UNL     1      -8.499  25.505   3.468  1.00  0.00     0.002 C 
HETATM   10  C11 UNL     1      -8.529  24.191   2.673  1.00  0.00     0.007 C 
HETATM   11  C12 UNL     1      -9.921  24.561   2.206  1.00  0.00     0.010 C 
ENDROOT
BRANCH   5  12
HETATM   12  C6  UNL     1      -7.712  28.914   1.940  1.00  0.00     0.234 C 
BRANCH  12  13
HETATM   13  N1  UNL     1      -8.575  29.892   1.341  1.00  0.00    -0.079 N 
ATOM     14  H13 UNL     1      -9.070  29.488   0.546  1.00  0.00     0.274 HD
ATOM     15  H12 UNL     1      -9.364  30.092   1.956  1.00  0.00     0.274 HD
ATOM     16  H11 UNL     1      -8.111  30.758   1.067  1.00  0.00     0.274 HD
ENDBRANCH  12  13
ENDBRANCH   5  12
TORSDOF 2
ENDMDL
