MODEL 1
REMARK VINA RESULT: -6.288061650      0.000      0.000
REMARK  2 active torsions:
REMARK  status: ('A' for Active; 'I' for Inactive)
REMARK    1  A    between atoms: C2_2  and  C4_4 
REMARK    2  A    between atoms: C9_9  and  O1_10 
ROOT
HETATM    1  C4  UNL     1     -14.207  27.453   4.974  1.00  0.00    -0.006 A 
HETATM    2  C5  UNL     1     -14.950  26.260   4.600  1.00  0.00     0.015 A 
HETATM    3  C6  UNL     1     -16.277  27.020   4.623  1.00  0.00    -0.037 A 
HETATM    4  C7  UNL     1     -17.221  26.580   5.715  1.00  0.00     0.015 C 
HETATM    5  C8  UNL     1     -16.968  27.145   3.315  1.00  0.00     0.041 C 
HETATM    6  C9  UNL     1     -17.780  28.433   3.339  1.00  0.00     0.118 C 
HETATM    7  C10 UNL     1     -16.891  29.648   3.341  1.00  0.00     0.032 C 
HETATM    8  C11 UNL     1     -15.508  29.262   3.794  1.00  0.00     0.008 C 
HETATM    9  C12 UNL     1     -15.494  28.265   4.904  1.00  0.00    -0.002 A 
ENDROOT
BRANCH   1  10
HETATM   10  C2  UNL     1     -13.544  27.625   6.276  1.00  0.00    -0.018 C 
HETATM   11  C1  UNL     1     -13.488  26.294   7.008  1.00  0.00     0.010 C 
HETATM   12  C3  UNL     1     -14.118  28.634   7.210  1.00  0.00     0.010 C 
ENDBRANCH   1  10
BRANCH   6  13
HETATM   13  O1  UNL     1     -18.619  28.531   2.229  1.00  0.00    -0.396 OA
ATOM     14  H1  UNL     1     -19.437  28.962   2.446  1.00  0.00     0.210 HD
ENDBRANCH   6  13
TORSDOF 2
ENDMDL
MODEL 2
REMARK VINA RESULT: -6.089238996      0.724      1.043
REMARK  2 active torsions:
REMARK  status: ('A' for Active; 'I' for Inactive)
REMARK    1  A    between atoms: C2_2  and  C4_4 
REMARK    2  A    between atoms: C9_9  and  O1_10 
ROOT
HETATM    1  C4  UNL     1     -14.252  26.867   4.958  1.00  0.00    -0.006 A 
HETATM    2  C5  UNL     1     -15.139  25.811   4.497  1.00  0.00     0.015 A 
HETATM    3  C6  UNL     1     -16.358  26.733   4.579  1.00  0.00    -0.037 A 
HETATM    4  C7  UNL     1     -17.359  26.336   5.637  1.00  0.00     0.015 C 
HETATM    5  C8  UNL     1     -17.016  27.044   3.287  1.00  0.00     0.041 C 
HETATM    6  C9  UNL     1     -17.656  28.420   3.410  1.00  0.00     0.118 C 
HETATM    7  C10 UNL     1     -16.618  29.507   3.502  1.00  0.00     0.032 C 
HETATM    8  C11 UNL     1     -15.300  28.912   3.922  1.00  0.00     0.008 C 
HETATM    9  C12 UNL     1     -15.423  27.841   4.953  1.00  0.00    -0.002 A 
ENDROOT
BRANCH   1  10
HETATM   10  C2  UNL     1     -13.582  26.854   6.269  1.00  0.00    -0.018 C 
HETATM   11  C1  UNL     1     -12.080  26.999   6.083  1.00  0.00     0.010 C 
HETATM   12  C3  UNL     1     -13.819  25.675   7.148  1.00  0.00     0.010 C 
ENDBRANCH   1  10
BRANCH   6  13
HETATM   13  O1  UNL     1     -18.467  28.709   2.312  1.00  0.00    -0.396 OA
ATOM     14  H1  UNL     1     -19.089  28.011   2.144  1.00  0.00     0.210 HD
ENDBRANCH   6  13
TORSDOF 2
ENDMDL
MODEL 3
REMARK VINA RESULT: -5.945263163      1.022      1.152
REMARK  2 active torsions:
REMARK  status: ('A' for Active; 'I' for Inactive)
REMARK    1  A    between atoms: C2_2  and  C4_4 
REMARK    2  A    between atoms: C9_9  and  O1_10 
ROOT
HETATM    1  C4  UNL     1     -14.098  27.981   5.325  1.00  0.00    -0.006 A 
HETATM    2  C5  UNL     1     -14.141  26.550   5.065  1.00  0.00     0.015 A 
HETATM    3  C6  UNL     1     -15.667  26.568   4.950  1.00  0.00    -0.037 A 
HETATM    4  C7  UNL     1     -16.376  25.817   6.051  1.00  0.00     0.015 C 
HETATM    5  C8  UNL     1     -16.214  26.232   3.613  1.00  0.00     0.041 C 
HETATM    6  C9  UNL     1     -17.543  26.958   3.458  1.00  0.00     0.118 C 
HETATM    7  C10 UNL     1     -17.350  28.448   3.351  1.00  0.00     0.032 C 
HETATM    8  C11 UNL     1     -15.998  28.823   3.897  1.00  0.00     0.008 C 
HETATM    9  C12 UNL     1     -15.605  28.055   5.115  1.00  0.00    -0.002 A 
ENDROOT
BRANCH   1  10
HETATM   10  C2  UNL     1     -13.717  28.562   6.622  1.00  0.00    -0.018 C 
HETATM   11  C1  UNL     1     -13.026  27.511   7.477  1.00  0.00     0.010 C 
HETATM   12  C3  UNL     1     -14.798  29.176   7.442  1.00  0.00     0.010 C 
ENDBRANCH   1  10
BRANCH   6  13
HETATM   13  O1  UNL     1     -18.224  26.542   2.313  1.00  0.00    -0.396 OA
ATOM     14  H1  UNL     1     -18.543  25.652   2.400  1.00  0.00     0.210 HD
ENDBRANCH   6  13
TORSDOF 2
ENDMDL
MODEL 4
REMARK VINA RESULT: -5.819391616      6.667      8.146
REMARK  2 active torsions:
REMARK  status: ('A' for Active; 'I' for Inactive)
REMARK    1  A    between atoms: C2_2  and  C4_4 
REMARK    2  A    between atoms: C9_9  and  O1_10 
ROOT
HETATM    1  C4  UNL     1     -10.594  24.220   2.624  1.00  0.00    -0.006 A 
HETATM    2  C5  UNL     1     -10.464  24.458   1.195  1.00  0.00     0.015 A 
HETATM    3  C6  UNL     1      -9.552  25.664   1.430  1.00  0.00    -0.037 A 
HETATM    4  C7  UNL     1     -10.158  26.984   1.023  1.00  0.00     0.015 C 
HETATM    5  C8  UNL     1      -8.160  25.521   0.936  1.00  0.00     0.041 C 
HETATM    6  C9  UNL     1      -7.262  26.376   1.819  1.00  0.00     0.118 C 
HETATM    7  C10 UNL     1      -7.159  25.814   3.213  1.00  0.00     0.032 C 
HETATM    8  C11 UNL     1      -8.311  24.879   3.467  1.00  0.00     0.008 C 
HETATM    9  C12 UNL     1      -9.606  25.347   2.893  1.00  0.00    -0.002 A 
ENDROOT
BRANCH   1  10
HETATM   10  C2  UNL     1     -11.844  24.423   3.374  1.00  0.00    -0.018 C 
HETATM   11  C1  UNL     1     -11.711  25.635   4.283  1.00  0.00     0.010 C 
HETATM   12  C3  UNL     1     -12.339  23.287   4.201  1.00  0.00     0.010 C 
ENDBRANCH   1  10
BRANCH   6  13
HETATM   13  O1  UNL     1      -5.968  26.461   1.306  1.00  0.00    -0.396 OA
ATOM     14  H1  UNL     1      -5.324  26.566   1.997  1.00  0.00     0.210 HD
ENDBRANCH   6  13
TORSDOF 2
ENDMDL
MODEL 5
REMARK VINA RESULT: -5.801357253      2.560      4.075
REMARK  2 active torsions:
REMARK  status: ('A' for Active; 'I' for Inactive)
REMARK    1  A    between atoms: C2_2  and  C4_4 
REMARK    2  A    between atoms: C9_9  and  O1_10 
ROOT
HETATM    1  C4  UNL     1     -15.979  27.940   5.416  1.00  0.00    -0.006 A 
HETATM    2  C5  UNL     1     -14.922  27.586   6.351  1.00  0.00     0.015 A 
HETATM    3  C6  UNL     1     -13.841  27.835   5.297  1.00  0.00    -0.037 A 
HETATM    4  C7  UNL     1     -13.102  26.590   4.868  1.00  0.00     0.015 C 
HETATM    5  C8  UNL     1     -12.911  28.956   5.583  1.00  0.00     0.041 C 
HETATM    6  C9  UNL     1     -12.436  29.517   4.250  1.00  0.00     0.118 C 
HETATM    7  C10 UNL     1     -13.550  30.214   3.514  1.00  0.00     0.032 C 
HETATM    8  C11 UNL     1     -14.878  29.753   4.053  1.00  0.00     0.008 C 
HETATM    9  C12 UNL     1     -14.926  28.297   4.375  1.00  0.00    -0.002 A 
ENDROOT
BRANCH   1  10
HETATM   10  C2  UNL     1     -16.948  26.972   4.877  1.00  0.00    -0.018 C 
HETATM   11  C1  UNL     1     -17.196  25.869   5.893  1.00  0.00     0.010 C 
HETATM   12  C3  UNL     1     -16.620  26.326   3.575  1.00  0.00     0.010 C 
ENDBRANCH   1  10
BRANCH   6  13
HETATM   13  O1  UNL     1     -11.406  30.442   4.421  1.00  0.00    -0.396 OA
ATOM     14  H1  UNL     1     -10.725  30.333   3.768  1.00  0.00     0.210 HD
ENDBRANCH   6  13
TORSDOF 2
ENDMDL
