MODEL 1
REMARK VINA RESULT: -6.194492685      0.000      0.000
REMARK  3 active torsions:
REMARK  status: ('A' for Active; 'I' for Inactive)
REMARK    1  A    between atoms: C2_2  and  C3_3 
REMARK       I    between atoms: N1_10  and  C9_11 
REMARK    2  A    between atoms: C9_11  and  O3_13 
REMARK    3  A    between atoms: O3_13  and  C10_14 
ROOT
HETATM    1  C3  UNL     1     -16.564  27.412   4.072  1.00  0.00     0.080 C 
HETATM    2  C4  UNL     1     -17.523  28.229   3.289  1.00  0.00     0.048 C 
HETATM    3  O1  UNL     1     -17.151  27.021   5.284  1.00  0.00    -0.354 OA
HETATM    4  C5  UNL     1     -17.177  25.624   5.278  1.00  0.00     0.229 C 
HETATM    5  C6  UNL     1     -18.172  25.211   4.186  1.00  0.00     0.056 C 
HETATM    6  C7  UNL     1     -17.391  25.379   2.879  1.00  0.00     0.033 C 
HETATM    7  C8  UNL     1     -16.160  26.116   3.391  1.00  0.00     0.126 C 
HETATM    8  N1  UNL     1     -15.946  25.340   4.589  1.00  0.00    -0.293 N 
HETATM    9  C9  UNL     1     -14.877  24.547   4.986  1.00  0.00     0.366 C 
HETATM   10  O2  UNL     1     -13.839  24.390   4.256  1.00  0.00    -0.238 OA
ENDROOT
BRANCH   9  11
HETATM   11  O3  UNL     1     -14.831  23.857   6.194  1.00  0.00    -0.294 OA
BRANCH  11  12
HETATM   12  C10 UNL     1     -14.191  24.324   7.346  1.00  0.00     0.061 C 
HETATM   13  C11 UNL     1     -14.032  25.825   7.375  1.00  0.00     0.046 C 
HETATM   14  C12 UNL     1     -12.867  23.639   7.556  1.00  0.00     0.046 C 
HETATM   15  C13 UNL     1     -15.080  23.915   8.529  1.00  0.00     0.046 C 
ENDBRANCH  11  12
ENDBRANCH   9  11
BRANCH   1  16
HETATM   16  C2  UNL     1     -15.282  28.167   4.394  1.00  0.00     0.035 C 
HETATM   17  C1  UNL     1     -15.428  29.638   4.009  1.00  0.00     0.008 C 
ENDBRANCH   1  16
TORSDOF 3
ENDMDL
MODEL 2
REMARK VINA RESULT: -5.796035119      0.557      1.174
REMARK  3 active torsions:
REMARK  status: ('A' for Active; 'I' for Inactive)
REMARK    1  A    between atoms: C2_2  and  C3_3 
REMARK       I    between atoms: N1_10  and  C9_11 
REMARK    2  A    between atoms: C9_11  and  O3_13 
REMARK    3  A    between atoms: O3_13  and  C10_14 
ROOT
HETATM    1  C3  UNL     1     -16.152  27.283   4.306  1.00  0.00     0.080 C 
HETATM    2  C4  UNL     1     -17.101  28.146   3.562  1.00  0.00     0.048 C 
HETATM    3  O1  UNL     1     -16.668  26.994   5.577  1.00  0.00    -0.354 OA
HETATM    4  C5  UNL     1     -16.809  25.605   5.641  1.00  0.00     0.229 C 
HETATM    5  C6  UNL     1     -17.920  25.234   4.651  1.00  0.00     0.056 C 
HETATM    6  C7  UNL     1     -17.237  25.280   3.280  1.00  0.00     0.033 C 
HETATM    7  C8  UNL     1     -15.913  25.930   3.659  1.00  0.00     0.126 C 
HETATM    8  N1  UNL     1     -15.665  25.189   4.872  1.00  0.00    -0.293 N 
HETATM    9  C9  UNL     1     -14.637  24.324   5.223  1.00  0.00     0.366 C 
HETATM   10  O2  UNL     1     -13.678  24.049   4.423  1.00  0.00    -0.238 OA
ENDROOT
BRANCH   9  11
HETATM   11  O3  UNL     1     -14.549  23.684   6.456  1.00  0.00    -0.294 OA
BRANCH  11  12
HETATM   12  C10 UNL     1     -13.677  24.061   7.481  1.00  0.00     0.061 C 
HETATM   13  C11 UNL     1     -12.340  23.363   7.417  1.00  0.00     0.046 C 
HETATM   14  C12 UNL     1     -14.311  23.885   8.836  1.00  0.00     0.046 C 
HETATM   15  C13 UNL     1     -13.438  25.568   7.311  1.00  0.00     0.046 C 
ENDBRANCH  11  12
ENDBRANCH   9  11
BRANCH   1  16
HETATM   16  C2  UNL     1     -14.790  27.938   4.490  1.00  0.00     0.035 C 
HETATM   17  C1  UNL     1     -14.954  29.444   4.684  1.00  0.00     0.008 C 
ENDBRANCH   1  16
TORSDOF 3
ENDMDL
MODEL 3
REMARK VINA RESULT: -5.596022072      1.472      2.930
REMARK  3 active torsions:
REMARK  status: ('A' for Active; 'I' for Inactive)
REMARK    1  A    between atoms: C2_2  and  C3_3 
REMARK       I    between atoms: N1_10  and  C9_11 
REMARK    2  A    between atoms: C9_11  and  O3_13 
REMARK    3  A    between atoms: O3_13  and  C10_14 
ROOT
HETATM    1  C3  UNL     1     -16.523  26.366   4.338  1.00  0.00     0.080 C 
HETATM    2  C4  UNL     1     -16.790  27.596   3.553  1.00  0.00     0.048 C 
HETATM    3  O1  UNL     1     -15.385  25.719   3.834  1.00  0.00    -0.354 OA
HETATM    4  C5  UNL     1     -14.456  25.682   4.877  1.00  0.00     0.229 C 
HETATM    5  C6  UNL     1     -14.027  27.133   5.129  1.00  0.00     0.056 C 
HETATM    6  C7  UNL     1     -15.180  27.733   5.940  1.00  0.00     0.033 C 
HETATM    7  C8  UNL     1     -16.215  26.624   5.802  1.00  0.00     0.126 C 
HETATM    8  N1  UNL     1     -15.333  25.500   6.004  1.00  0.00    -0.293 N 
HETATM    9  C9  UNL     1     -15.313  24.518   6.985  1.00  0.00     0.366 C 
HETATM   10  O2  UNL     1     -16.169  24.488   7.935  1.00  0.00    -0.238 OA
ENDROOT
BRANCH   9  11
HETATM   11  O3  UNL     1     -14.377  23.488   7.031  1.00  0.00    -0.294 OA
BRANCH  11  12
HETATM   12  C10 UNL     1     -13.110  23.600   7.611  1.00  0.00     0.061 C 
HETATM   13  C11 UNL     1     -12.875  24.929   8.286  1.00  0.00     0.046 C 
HETATM   14  C12 UNL     1     -12.021  23.304   6.613  1.00  0.00     0.046 C 
HETATM   15  C13 UNL     1     -13.026  22.500   8.678  1.00  0.00     0.046 C 
ENDBRANCH  11  12
ENDBRANCH   9  11
BRANCH   1  16
HETATM   16  C2  UNL     1     -17.683  25.381   4.291  1.00  0.00     0.035 C 
HETATM   17  C1  UNL     1     -18.102  25.132   2.843  1.00  0.00     0.008 C 
ENDBRANCH   1  16
TORSDOF 3
ENDMDL
MODEL 4
REMARK VINA RESULT: -5.562805925      7.023      8.595
REMARK  3 active torsions:
REMARK  status: ('A' for Active; 'I' for Inactive)
REMARK    1  A    between atoms: C2_2  and  C3_3 
REMARK       I    between atoms: N1_10  and  C9_11 
REMARK    2  A    between atoms: C9_11  and  O3_13 
REMARK    3  A    between atoms: O3_13  and  C10_14 
ROOT
HETATM    1  C3  UNL     1      -9.852  25.690   1.565  1.00  0.00     0.080 C 
HETATM    2  C4  UNL     1     -10.565  24.403   1.370  1.00  0.00     0.048 C 
HETATM    3  O1  UNL     1     -10.402  26.377   2.657  1.00  0.00    -0.354 OA
HETATM    4  C5  UNL     1      -9.372  26.529   3.588  1.00  0.00     0.229 C 
HETATM    5  C6  UNL     1      -9.042  25.124   4.108  1.00  0.00     0.056 C 
HETATM    6  C7  UNL     1      -8.189  24.501   2.999  1.00  0.00     0.033 C 
HETATM    7  C8  UNL     1      -8.379  25.534   1.897  1.00  0.00     0.126 C 
HETATM    8  N1  UNL     1      -8.248  26.720   2.709  1.00  0.00    -0.293 N 
HETATM    9  C9  UNL     1      -7.324  27.756   2.673  1.00  0.00     0.366 C 
HETATM   10  O2  UNL     1      -6.369  27.786   1.823  1.00  0.00    -0.238 OA
ENDROOT
BRANCH   9  11
HETATM   11  O3  UNL     1      -7.344  28.842   3.544  1.00  0.00    -0.294 OA
BRANCH  11  12
HETATM   12  C10 UNL     1      -8.011  30.044   3.290  1.00  0.00     0.061 C 
HETATM   13  C11 UNL     1      -9.497  29.969   3.547  1.00  0.00     0.046 C 
HETATM   14  C12 UNL     1      -7.731  30.546   1.899  1.00  0.00     0.046 C 
HETATM   15  C13 UNL     1      -7.412  31.080   4.251  1.00  0.00     0.046 C 
ENDBRANCH  11  12
ENDBRANCH   9  11
BRANCH   1  16
HETATM   16  C2  UNL     1      -9.943  26.597   0.346  1.00  0.00     0.035 C 
HETATM   17  C1  UNL     1     -10.292  25.777  -0.894  1.00  0.00     0.008 C 
ENDBRANCH   1  16
TORSDOF 3
ENDMDL
MODEL 5
REMARK VINA RESULT: -5.550606491      2.527      3.961
REMARK  3 active torsions:
REMARK  status: ('A' for Active; 'I' for Inactive)
REMARK    1  A    between atoms: C2_2  and  C3_3 
REMARK       I    between atoms: N1_10  and  C9_11 
REMARK    2  A    between atoms: C9_11  and  O3_13 
REMARK    3  A    between atoms: O3_13  and  C10_14 
ROOT
HETATM    1  C3  UNL     1     -16.168  25.756   5.045  1.00  0.00     0.080 C 
HETATM    2  C4  UNL     1     -17.185  26.345   5.950  1.00  0.00     0.048 C 
HETATM    3  O1  UNL     1     -15.367  26.773   4.505  1.00  0.00    -0.354 OA
HETATM    4  C5  UNL     1     -14.059  26.508   4.919  1.00  0.00     0.229 C 
HETATM    5  C6  UNL     1     -14.030  26.722   6.437  1.00  0.00     0.056 C 
HETATM    6  C7  UNL     1     -14.659  25.449   7.011  1.00  0.00     0.033 C 
HETATM    7  C8  UNL     1     -15.199  24.815   5.736  1.00  0.00     0.126 C 
HETATM    8  N1  UNL     1     -14.060  25.069   4.888  1.00  0.00    -0.293 N 
HETATM    9  C9  UNL     1     -13.202  24.202   4.223  1.00  0.00     0.366 C 
HETATM   10  O2  UNL     1     -13.332  22.932   4.293  1.00  0.00    -0.238 OA
ENDROOT
BRANCH   9  11
HETATM   11  O3  UNL     1     -12.136  24.622   3.432  1.00  0.00    -0.294 OA
BRANCH  11  12
HETATM   12  C10 UNL     1     -10.903  25.049   3.933  1.00  0.00     0.061 C 
HETATM   13  C11 UNL     1     -10.715  24.747   5.400  1.00  0.00     0.046 C 
HETATM   14  C12 UNL     1     -10.670  26.510   3.650  1.00  0.00     0.046 C 
HETATM   15  C13 UNL     1      -9.830  24.282   3.146  1.00  0.00     0.046 C 
ENDBRANCH  11  12
ENDBRANCH   9  11
BRANCH   1  16
HETATM   16  C2  UNL     1     -16.792  24.987   3.888  1.00  0.00     0.035 C 
HETATM   17  C1  UNL     1     -17.407  25.959   2.883  1.00  0.00     0.008 C 
ENDBRANCH   1  16
TORSDOF 3
ENDMDL
