MODEL 1
REMARK VINA RESULT: -6.847819179      0.000      0.000
REMARK  2 active torsions:
REMARK  status: ('A' for Active; 'I' for Inactive)
REMARK    1  A    between atoms: C2_2  and  O2_4 
REMARK    2  A    between atoms: O2_4  and  C3_5 
ROOT
HETATM    1  C3  UNL     1     -14.443  25.633   4.682  1.00  0.00     0.279 C 
HETATM    2  O3  UNL     1     -15.289  25.426   3.641  1.00  0.00    -0.345 OA
HETATM    3  C4  UNL     1     -16.626  25.264   3.853  1.00  0.00     0.086 A 
HETATM    4  C5  UNL     1     -17.039  25.098   5.230  1.00  0.00     0.014 C 
HETATM    5  C6  UNL     1     -16.817  26.150   6.004  1.00  0.00    -0.080 C 
HETATM    6  C7  UNL     1     -17.180  26.169   7.459  1.00  0.00     0.043 C 
HETATM    7  C8  UNL     1     -16.152  27.317   5.356  1.00  0.00     0.027 C 
HETATM    8  C9  UNL     1     -16.513  27.565   3.913  1.00  0.00     0.018 C 
HETATM    9  C10 UNL     1     -17.457  26.553   3.474  1.00  0.00     0.028 A 
HETATM   10  C11 UNL     1     -17.436  25.407   2.657  1.00  0.00     0.050 A 
HETATM   11  C12 UNL     1     -14.659  26.929   5.420  1.00  0.00     0.010 C 
HETATM   12  C13 UNL     1     -13.901  28.094   4.831  1.00  0.00     0.020 C 
HETATM   13  C14 UNL     1     -14.283  26.797   6.869  1.00  0.00     0.020 C 
ENDROOT
BRANCH   1  14
HETATM   14  O2  UNL     1     -14.456  24.507   5.541  1.00  0.00    -0.289 OA
BRANCH  14  15
HETATM   15  C2  UNL     1     -13.470  23.541   5.526  1.00  0.00     0.257 C 
HETATM   16  C1  UNL     1     -12.443  23.371   6.567  1.00  0.00     0.126 C 
HETATM   17  O1  UNL     1     -13.430  22.729   4.547  1.00  0.00    -0.266 OA
ENDBRANCH  14  15
ENDBRANCH   1  14
TORSDOF 2
ENDMDL
MODEL 2
REMARK VINA RESULT: -6.401167643      6.338      8.441
REMARK  2 active torsions:
REMARK  status: ('A' for Active; 'I' for Inactive)
REMARK    1  A    between atoms: C2_2  and  O2_4 
REMARK    2  A    between atoms: O2_4  and  C3_5 
ROOT
HETATM    1  C3  UNL     1      -9.574  27.426   1.946  1.00  0.00     0.279 C 
HETATM    2  O3  UNL     1      -8.402  27.947   1.502  1.00  0.00    -0.345 OA
HETATM    3  C4  UNL     1      -7.247  27.752   2.200  1.00  0.00     0.086 A 
HETATM    4  C5  UNL     1      -7.386  27.176   3.520  1.00  0.00     0.014 C 
HETATM    5  C6  UNL     1      -7.865  25.942   3.535  1.00  0.00    -0.080 C 
HETATM    6  C7  UNL     1      -8.077  25.177   4.808  1.00  0.00     0.043 C 
HETATM    7  C8  UNL     1      -8.215  25.353   2.210  1.00  0.00     0.027 C 
HETATM    8  C9  UNL     1      -7.333  25.754   1.056  1.00  0.00     0.018 C 
HETATM    9  C10 UNL     1      -6.312  26.671   1.528  1.00  0.00     0.028 A 
HETATM   10  C11 UNL     1      -6.043  28.051   1.444  1.00  0.00     0.050 A 
HETATM   11  C12 UNL     1      -9.630  25.920   1.957  1.00  0.00     0.010 C 
HETATM   12  C13 UNL     1     -10.088  25.322   0.649  1.00  0.00     0.020 C 
HETATM   13  C14 UNL     1     -10.526  25.418   3.054  1.00  0.00     0.020 C 
ENDROOT
BRANCH   1  14
HETATM   14  O2  UNL     1      -9.906  27.994   3.200  1.00  0.00    -0.289 OA
BRANCH  14  15
HETATM   15  C2  UNL     1     -10.598  29.181   3.326  1.00  0.00     0.257 C 
HETATM   16  C1  UNL     1     -11.960  29.307   3.871  1.00  0.00     0.126 C 
HETATM   17  O1  UNL     1     -10.032  30.257   2.948  1.00  0.00    -0.266 OA
ENDBRANCH  14  15
ENDBRANCH   1  14
TORSDOF 2
ENDMDL
MODEL 3
REMARK VINA RESULT: -6.205835624      6.602      8.667
REMARK  2 active torsions:
REMARK  status: ('A' for Active; 'I' for Inactive)
REMARK    1  A    between atoms: C2_2  and  O2_4 
REMARK    2  A    between atoms: O2_4  and  C3_5 
ROOT
HETATM    1  C3  UNL     1      -7.725  27.190   1.799  1.00  0.00     0.279 C 
HETATM    2  O3  UNL     1      -6.898  26.591   2.693  1.00  0.00    -0.345 OA
HETATM    3  C4  UNL     1      -7.312  26.350   3.970  1.00  0.00     0.086 A 
HETATM    4  C5  UNL     1      -8.562  26.966   4.363  1.00  0.00     0.014 C 
HETATM    5  C6  UNL     1      -9.623  26.532   3.700  1.00  0.00    -0.080 C 
HETATM    6  C7  UNL     1     -11.005  27.048   3.969  1.00  0.00     0.043 C 
HETATM    7  C8  UNL     1      -9.368  25.515   2.640  1.00  0.00     0.027 C 
HETATM    8  C9  UNL     1      -8.261  24.532   2.920  1.00  0.00     0.018 C 
HETATM    9  C10 UNL     1      -7.669  24.831   4.212  1.00  0.00     0.028 A 
HETATM   10  C11 UNL     1      -6.479  25.407   4.694  1.00  0.00     0.050 A 
HETATM   11  C12 UNL     1      -8.947  26.386   1.436  1.00  0.00     0.010 C 
HETATM   12  C13 UNL     1      -8.724  25.429   0.289  1.00  0.00     0.020 C 
HETATM   13  C14 UNL     1     -10.104  27.282   1.094  1.00  0.00     0.020 C 
ENDROOT
BRANCH   1  14
HETATM   14  O2  UNL     1      -8.043  28.497   2.241  1.00  0.00    -0.289 OA
BRANCH  14  15
HETATM   15  C2  UNL     1      -7.434  29.628   1.735  1.00  0.00     0.257 C 
HETATM   16  C1  UNL     1      -7.846  31.010   2.034  1.00  0.00     0.126 C 
HETATM   17  O1  UNL     1      -6.444  29.485   0.950  1.00  0.00    -0.266 OA
ENDBRANCH  14  15
ENDBRANCH   1  14
TORSDOF 2
ENDMDL
MODEL 4
REMARK VINA RESULT: -6.154986504      6.322      7.996
REMARK  2 active torsions:
REMARK  status: ('A' for Active; 'I' for Inactive)
REMARK    1  A    between atoms: C2_2  and  O2_4 
REMARK    2  A    between atoms: O2_4  and  C3_5 
ROOT
HETATM    1  C3  UNL     1      -9.308  27.847   2.357  1.00  0.00     0.279 C 
HETATM    2  O3  UNL     1      -9.577  27.229   1.178  1.00  0.00    -0.345 OA
HETATM    3  C4  UNL     1      -8.963  26.056   0.853  1.00  0.00     0.086 A 
HETATM    4  C5  UNL     1      -7.869  25.648   1.709  1.00  0.00     0.014 C 
HETATM    5  C6  UNL     1      -8.217  25.378   2.958  1.00  0.00    -0.080 C 
HETATM    6  C7  UNL     1      -7.224  24.936   3.991  1.00  0.00     0.043 C 
HETATM    7  C8  UNL     1      -9.657  25.565   3.297  1.00  0.00     0.027 C 
HETATM    8  C9  UNL     1     -10.641  25.238   2.203  1.00  0.00     0.018 C 
HETATM    9  C10 UNL     1      -9.918  24.809   1.019  1.00  0.00     0.028 A 
HETATM   10  C11 UNL     1      -9.594  25.342  -0.243  1.00  0.00     0.050 A 
HETATM   11  C12 UNL     1      -9.739  27.081   3.581  1.00  0.00     0.010 C 
HETATM   12  C13 UNL     1     -11.166  27.350   3.993  1.00  0.00     0.020 C 
HETATM   13  C14 UNL     1      -8.839  27.376   4.749  1.00  0.00     0.020 C 
ENDROOT
BRANCH   1  14
HETATM   14  O2  UNL     1      -7.944  28.224   2.400  1.00  0.00    -0.289 OA
BRANCH  14  15
HETATM   15  C2  UNL     1      -7.469  29.388   1.830  1.00  0.00     0.257 C 
HETATM   16  C1  UNL     1      -7.986  30.737   2.117  1.00  0.00     0.126 C 
HETATM   17  O1  UNL     1      -6.515  29.309   0.993  1.00  0.00    -0.266 OA
ENDBRANCH  14  15
ENDBRANCH   1  14
TORSDOF 2
ENDMDL
MODEL 5
REMARK VINA RESULT: -6.046401202      6.277      8.292
REMARK  2 active torsions:
REMARK  status: ('A' for Active; 'I' for Inactive)
REMARK    1  A    between atoms: C2_2  and  O2_4 
REMARK    2  A    between atoms: O2_4  and  C3_5 
ROOT
HETATM    1  C3  UNL     1      -8.106  27.830   3.404  1.00  0.00     0.279 C 
HETATM    2  O3  UNL     1      -9.181  27.426   4.127  1.00  0.00    -0.345 OA
HETATM    3  C4  UNL     1     -10.133  26.625   3.569  1.00  0.00     0.086 A 
HETATM    4  C5  UNL     1     -10.047  26.434   2.137  1.00  0.00     0.014 C 
HETATM    5  C6  UNL     1      -8.957  25.801   1.729  1.00  0.00    -0.080 C 
HETATM    6  C7  UNL     1      -8.692  25.506   0.283  1.00  0.00     0.043 C 
HETATM    7  C8  UNL     1      -7.981  25.418   2.790  1.00  0.00     0.027 C 
HETATM    8  C9  UNL     1      -8.572  25.023   4.119  1.00  0.00     0.018 C 
HETATM    9  C10 UNL     1     -10.018  25.126   4.052  1.00  0.00     0.028 A 
HETATM   10  C11 UNL     1     -11.016  25.995   4.534  1.00  0.00     0.050 A 
HETATM   11  C12 UNL     1      -7.175  26.720   2.988  1.00  0.00     0.010 C 
HETATM   12  C13 UNL     1      -6.115  26.401   4.015  1.00  0.00     0.020 C 
HETATM   13  C14 UNL     1      -6.498  27.041   1.685  1.00  0.00     0.020 C 
ENDROOT
BRANCH   1  14
HETATM   14  O2  UNL     1      -8.533  28.623   2.313  1.00  0.00    -0.289 OA
BRANCH  14  15
HETATM   15  C2  UNL     1      -8.774  29.979   2.419  1.00  0.00     0.257 C 
HETATM   16  C1  UNL     1      -7.794  31.034   2.117  1.00  0.00     0.126 C 
HETATM   17  O1  UNL     1      -9.924  30.362   2.807  1.00  0.00    -0.266 OA
ENDBRANCH  14  15
ENDBRANCH   1  14
TORSDOF 2
ENDMDL
