MODEL 1
REMARK VINA RESULT: -7.146791040      0.000      0.000
REMARK  5 active torsions:
REMARK  status: ('A' for Active; 'I' for Inactive)
REMARK    1  A    between atoms: C2_2  and  O1_5 
REMARK    2  A    between atoms: O1_5  and  C5_6 
REMARK    3  A    between atoms: C5_6  and  C6_8 
REMARK    4  A    between atoms: N1_9  and  N2_11 
REMARK       I    between atoms: N2_11  and  C7_13 
REMARK    5  A    between atoms: C7_13  and  C8_15 
ROOT
HETATM    1  N2  UNL     1     -10.597  25.316   3.183  1.00  0.00    -0.270 N 
ATOM      2  H2  UNL     1     -10.254  26.049   3.804  1.00  0.00     0.190 HD
HETATM    3  C7  UNL     1     -10.246  25.375   1.797  1.00  0.00     0.244 C 
HETATM    4  O3  UNL     1     -10.661  24.482   1.039  1.00  0.00    -0.271 OA
ENDROOT
BRANCH   3   5
HETATM    5  C8  UNL     1      -9.382  26.516   1.295  1.00  0.00     0.040 C 
HETATM    6  C9  UNL     1     -10.001  26.862  -0.072  1.00  0.00     0.025 C 
HETATM    7  C10 UNL     1      -9.667  27.632   2.204  1.00  0.00     0.023 C 
HETATM    8  C11 UNL     1      -8.705  28.732   2.309  1.00  0.00    -0.013 C 
HETATM    9  C12 UNL     1      -8.056  28.700   3.700  1.00  0.00     0.010 C 
HETATM   10  C18 UNL     1      -7.552  28.745   1.396  1.00  0.00     0.010 C 
HETATM   11  C13 UNL     1      -6.852  27.837   3.532  1.00  0.00    -0.009 C 
HETATM   12  C14 UNL     1      -7.091  26.347   3.481  1.00  0.00     0.010 C 
HETATM   13  C17 UNL     1      -6.555  27.838   2.053  1.00  0.00    -0.006 C 
HETATM   14  C15 UNL     1      -6.940  26.395   2.015  1.00  0.00    -0.009 C 
HETATM   15  C16 UNL     1      -8.032  26.032   1.105  1.00  0.00     0.024 C 
ENDBRANCH   3   5
BRANCH   1  16
HETATM   16  N1  UNL     1     -11.378  24.312   3.720  1.00  0.00    -0.303 N 
HETATM   17  C6  UNL     1     -12.434  24.585   4.388  1.00  0.00     0.189 C 
ATOM     18  H1  UNL     1     -11.109  23.338   3.581  1.00  0.00     0.186 HD
BRANCH  17  19
HETATM   19  C5  UNL     1     -13.266  23.536   4.960  1.00  0.00     0.300 C 
HETATM   20  O2  UNL     1     -13.421  22.432   4.364  1.00  0.00    -0.259 OA
BRANCH  19  21
HETATM   21  O1  UNL     1     -13.917  23.705   6.171  1.00  0.00    -0.307 OA
BRANCH  21  22
HETATM   22  C2  UNL     1     -14.854  24.726   6.402  1.00  0.00     0.060 C 
HETATM   23  C1  UNL     1     -14.222  25.981   6.939  1.00  0.00     0.046 C 
HETATM   24  C3  UNL     1     -15.655  25.044   5.139  1.00  0.00     0.046 C 
HETATM   25  C4  UNL     1     -15.842  24.235   7.447  1.00  0.00     0.046 C 
ENDBRANCH  21  22
ENDBRANCH  19  21
ENDBRANCH  17  19
ENDBRANCH   1  16
TORSDOF 5
ENDMDL
MODEL 2
REMARK VINA RESULT: -6.968779458      0.962      1.301
REMARK  5 active torsions:
REMARK  status: ('A' for Active; 'I' for Inactive)
REMARK    1  A    between atoms: C2_2  and  O1_5 
REMARK    2  A    between atoms: O1_5  and  C5_6 
REMARK    3  A    between atoms: C5_6  and  C6_8 
REMARK    4  A    between atoms: N1_9  and  N2_11 
REMARK       I    between atoms: N2_11  and  C7_13 
REMARK    5  A    between atoms: C7_13  and  C8_15 
ROOT
HETATM    1  N2  UNL     1     -10.690  25.367   3.174  1.00  0.00    -0.270 N 
ATOM      2  H2  UNL     1     -10.443  26.158   3.769  1.00  0.00     0.190 HD
HETATM    3  C7  UNL     1     -10.233  25.364   1.818  1.00  0.00     0.244 C 
HETATM    4  O3  UNL     1     -10.531  24.400   1.091  1.00  0.00    -0.271 OA
ENDROOT
BRANCH   3   5
HETATM    5  C8  UNL     1      -9.403  26.526   1.308  1.00  0.00     0.040 C 
HETATM    6  C9  UNL     1     -10.069  26.883  -0.034  1.00  0.00     0.025 C 
HETATM    7  C10 UNL     1      -9.679  27.624   2.242  1.00  0.00     0.023 C 
HETATM    8  C11 UNL     1      -8.733  28.738   2.335  1.00  0.00    -0.013 C 
HETATM    9  C12 UNL     1      -8.042  28.696   3.705  1.00  0.00     0.010 C 
HETATM   10  C18 UNL     1      -7.608  28.784   1.389  1.00  0.00     0.010 C 
HETATM   11  C13 UNL     1      -6.829  27.856   3.488  1.00  0.00    -0.009 C 
HETATM   12  C14 UNL     1      -7.046  26.363   3.422  1.00  0.00     0.010 C 
HETATM   13  C17 UNL     1      -6.577  27.884   2.001  1.00  0.00    -0.006 C 
HETATM   14  C15 UNL     1      -6.939  26.435   1.953  1.00  0.00    -0.009 C 
HETATM   15  C16 UNL     1      -8.052  26.068   1.070  1.00  0.00     0.024 C 
ENDBRANCH   3   5
BRANCH   1  16
HETATM   16  N1  UNL     1     -11.448  24.348   3.715  1.00  0.00    -0.303 N 
HETATM   17  C6  UNL     1     -12.495  24.602   4.406  1.00  0.00     0.189 C 
ATOM     18  H1  UNL     1     -11.170  23.379   3.562  1.00  0.00     0.186 HD
BRANCH  17  19
HETATM   19  C5  UNL     1     -13.302  23.538   4.983  1.00  0.00     0.300 C 
HETATM   20  O2  UNL     1     -13.402  22.414   4.412  1.00  0.00    -0.259 OA
BRANCH  19  21
HETATM   21  O1  UNL     1     -13.991  23.712   6.172  1.00  0.00    -0.307 OA
BRANCH  21  22
HETATM   22  C2  UNL     1     -13.383  23.597   7.434  1.00  0.00     0.060 C 
HETATM   23  C1  UNL     1     -12.030  22.944   7.367  1.00  0.00     0.046 C 
HETATM   24  C3  UNL     1     -13.273  24.956   8.125  1.00  0.00     0.046 C 
HETATM   25  C4  UNL     1     -14.265  22.721   8.307  1.00  0.00     0.046 C 
ENDBRANCH  21  22
ENDBRANCH  19  21
ENDBRANCH  17  19
ENDBRANCH   1  16
TORSDOF 5
ENDMDL
MODEL 3
REMARK VINA RESULT: -6.828421929      1.579      2.351
REMARK  5 active torsions:
REMARK  status: ('A' for Active; 'I' for Inactive)
REMARK    1  A    between atoms: C2_2  and  O1_5 
REMARK    2  A    between atoms: O1_5  and  C5_6 
REMARK    3  A    between atoms: C5_6  and  C6_8 
REMARK    4  A    between atoms: N1_9  and  N2_11 
REMARK       I    between atoms: N2_11  and  C7_13 
REMARK    5  A    between atoms: C7_13  and  C8_15 
ROOT
HETATM    1  N2  UNL     1     -11.472  24.066   4.606  1.00  0.00    -0.270 N 
ATOM      2  H2  UNL     1     -11.168  23.142   4.299  1.00  0.00     0.190 HD
HETATM    3  C7  UNL     1     -11.059  25.206   3.846  1.00  0.00     0.244 C 
HETATM    4  O3  UNL     1     -11.428  26.334   4.218  1.00  0.00    -0.271 OA
ENDROOT
BRANCH   3   5
HETATM    5  C8  UNL     1     -10.190  25.011   2.619  1.00  0.00     0.040 C 
HETATM    6  C9  UNL     1     -10.839  23.809   1.907  1.00  0.00     0.025 C 
HETATM    7  C10 UNL     1     -10.436  26.198   1.792  1.00  0.00     0.023 C 
HETATM    8  C11 UNL     1      -9.455  26.572   0.770  1.00  0.00    -0.013 C 
HETATM    9  C12 UNL     1      -8.772  27.882   1.186  1.00  0.00     0.010 C 
HETATM   10  C18 UNL     1      -8.325  25.665   0.516  1.00  0.00     0.010 C 
HETATM   11  C13 UNL     1      -7.585  27.451   1.980  1.00  0.00    -0.009 C 
HETATM   12  C14 UNL     1      -7.849  27.002   3.398  1.00  0.00     0.010 C 
HETATM   13  C17 UNL     1      -7.326  26.021   1.577  1.00  0.00    -0.006 C 
HETATM   14  C15 UNL     1      -7.733  25.601   2.952  1.00  0.00    -0.009 C 
HETATM   15  C16 UNL     1      -8.854  24.658   3.043  1.00  0.00     0.024 C 
ENDBRANCH   3   5
BRANCH   1  16
HETATM   16  N1  UNL     1     -12.262  24.158   5.734  1.00  0.00    -0.303 N 
HETATM   17  C6  UNL     1     -13.054  23.208   6.062  1.00  0.00     0.189 C 
ATOM     18  H1  UNL     1     -12.213  24.995   6.314  1.00  0.00     0.186 HD
BRANCH  17  19
HETATM   19  C5  UNL     1     -13.892  23.294   7.249  1.00  0.00     0.300 C 
HETATM   20  O2  UNL     1     -13.405  23.129   8.404  1.00  0.00    -0.259 OA
BRANCH  19  21
HETATM   21  O1  UNL     1     -15.250  23.555   7.162  1.00  0.00    -0.307 OA
BRANCH  21  22
HETATM   22  C2  UNL     1     -15.767  24.825   6.855  1.00  0.00     0.060 C 
HETATM   23  C1  UNL     1     -15.041  25.934   7.567  1.00  0.00     0.046 C 
HETATM   24  C3  UNL     1     -15.762  25.081   5.348  1.00  0.00     0.046 C 
HETATM   25  C4  UNL     1     -17.216  24.870   7.312  1.00  0.00     0.046 C 
ENDBRANCH  21  22
ENDBRANCH  19  21
ENDBRANCH  17  19
ENDBRANCH   1  16
TORSDOF 5
ENDMDL
MODEL 4
REMARK VINA RESULT: -6.825099922      1.801      3.071
REMARK  5 active torsions:
REMARK  status: ('A' for Active; 'I' for Inactive)
REMARK    1  A    between atoms: C2_2  and  O1_5 
REMARK    2  A    between atoms: O1_5  and  C5_6 
REMARK    3  A    between atoms: C5_6  and  C6_8 
REMARK    4  A    between atoms: N1_9  and  N2_11 
REMARK       I    between atoms: N2_11  and  C7_13 
REMARK    5  A    between atoms: C7_13  and  C8_15 
ROOT
HETATM    1  N2  UNL     1     -10.506  24.652   4.987  1.00  0.00    -0.270 N 
ATOM      2  H2  UNL     1     -10.701  24.323   4.042  1.00  0.00     0.190 HD
HETATM    3  C7  UNL     1      -9.286  25.360   5.225  1.00  0.00     0.244 C 
HETATM    4  O3  UNL     1      -9.046  25.763   6.377  1.00  0.00    -0.271 OA
ENDROOT
BRANCH   3   5
HETATM    5  C8  UNL     1      -8.325  25.599   4.076  1.00  0.00     0.040 C 
HETATM    6  C9  UNL     1      -7.003  24.989   4.579  1.00  0.00     0.025 C 
HETATM    7  C10 UNL     1      -8.819  24.745   2.989  1.00  0.00     0.023 C 
HETATM    8  C11 UNL     1      -8.427  25.045   1.610  1.00  0.00    -0.013 C 
HETATM    9  C12 UNL     1      -9.660  25.527   0.832  1.00  0.00     0.010 C 
HETATM   10  C18 UNL     1      -7.441  26.111   1.377  1.00  0.00     0.010 C 
HETATM   11  C13 UNL     1      -9.664  27.007   1.014  1.00  0.00    -0.009 C 
HETATM   12  C14 UNL     1     -10.158  27.522   2.345  1.00  0.00     0.010 C 
HETATM   13  C17 UNL     1      -8.252  27.372   1.400  1.00  0.00    -0.006 C 
HETATM   14  C15 UNL     1      -8.759  27.736   2.757  1.00  0.00    -0.009 C 
HETATM   15  C16 UNL     1      -8.161  27.024   3.892  1.00  0.00     0.024 C 
ENDBRANCH   3   5
BRANCH   1  16
HETATM   16  N1  UNL     1     -11.432  24.394   5.977  1.00  0.00    -0.303 N 
HETATM   17  C6  UNL     1     -12.405  23.588   5.775  1.00  0.00     0.189 C 
ATOM     18  H1  UNL     1     -11.339  24.852   6.883  1.00  0.00     0.186 HD
BRANCH  17  19
HETATM   19  C5  UNL     1     -13.389  23.308   6.811  1.00  0.00     0.300 C 
HETATM   20  O2  UNL     1     -13.037  22.849   7.935  1.00  0.00    -0.259 OA
BRANCH  19  21
HETATM   21  O1  UNL     1     -14.741  23.529   6.607  1.00  0.00    -0.307 OA
BRANCH  21  22
HETATM   22  C2  UNL     1     -15.284  24.807   6.388  1.00  0.00     0.060 C 
HETATM   23  C1  UNL     1     -14.525  25.889   7.108  1.00  0.00     0.046 C 
HETATM   24  C3  UNL     1     -15.366  25.131   4.897  1.00  0.00     0.046 C 
HETATM   25  C4  UNL     1     -16.705  24.817   6.927  1.00  0.00     0.046 C 
ENDBRANCH  21  22
ENDBRANCH  19  21
ENDBRANCH  17  19
ENDBRANCH   1  16
TORSDOF 5
ENDMDL
MODEL 5
REMARK VINA RESULT: -6.740453816      1.582      2.200
REMARK  5 active torsions:
REMARK  status: ('A' for Active; 'I' for Inactive)
REMARK    1  A    between atoms: C2_2  and  O1_5 
REMARK    2  A    between atoms: O1_5  and  C5_6 
REMARK    3  A    between atoms: C5_6  and  C6_8 
REMARK    4  A    between atoms: N1_9  and  N2_11 
REMARK       I    between atoms: N2_11  and  C7_13 
REMARK    5  A    between atoms: C7_13  and  C8_15 
ROOT
HETATM    1  N2  UNL     1     -11.846  24.978   4.227  1.00  0.00    -0.270 N 
ATOM      2  H2  UNL     1     -11.505  25.902   4.492  1.00  0.00     0.190 HD
HETATM    3  C7  UNL     1     -11.194  24.292   3.154  1.00  0.00     0.244 C 
HETATM    4  O3  UNL     1     -11.608  23.165   2.830  1.00  0.00    -0.271 OA
ENDROOT
BRANCH   3   5
HETATM    5  C8  UNL     1     -10.025  24.951   2.448  1.00  0.00     0.040 C 
HETATM    6  C9  UNL     1     -10.303  24.676   0.958  1.00  0.00     0.025 C 
HETATM    7  C10 UNL     1     -10.212  26.389   2.673  1.00  0.00     0.023 C 
HETATM    8  C11 UNL     1      -9.065  27.289   2.533  1.00  0.00    -0.013 C 
HETATM    9  C12 UNL     1      -8.695  27.847   3.914  1.00  0.00     0.010 C 
HETATM   10  C18 UNL     1      -7.796  26.737   2.038  1.00  0.00     0.010 C 
HETATM   11  C13 UNL     1      -7.700  26.877   4.456  1.00  0.00    -0.009 C 
HETATM   12  C14 UNL     1      -8.250  25.579   4.999  1.00  0.00     0.010 C 
HETATM   13  C17 UNL     1      -7.156  26.142   3.256  1.00  0.00    -0.006 C 
HETATM   14  C15 UNL     1      -7.836  24.908   3.752  1.00  0.00    -0.009 C 
HETATM   15  C16 UNL     1      -8.804  24.284   2.843  1.00  0.00     0.024 C 
ENDBRANCH   3   5
BRANCH   1  16
HETATM   16  N1  UNL     1     -12.916  24.448   4.920  1.00  0.00    -0.303 N 
HETATM   17  C6  UNL     1     -12.819  24.166   6.165  1.00  0.00     0.189 C 
ATOM     18  H1  UNL     1     -13.796  24.280   4.434  1.00  0.00     0.186 HD
BRANCH  17  19
HETATM   19  C5  UNL     1     -13.939  23.607   6.907  1.00  0.00     0.300 C 
HETATM   20  O2  UNL     1     -13.748  22.826   7.882  1.00  0.00    -0.259 OA
BRANCH  19  21
HETATM   21  O1  UNL     1     -15.251  23.905   6.576  1.00  0.00    -0.307 OA
BRANCH  21  22
HETATM   22  C2  UNL     1     -16.103  24.645   7.413  1.00  0.00     0.060 C 
HETATM   23  C1  UNL     1     -16.687  23.816   8.524  1.00  0.00     0.046 C 
HETATM   24  C3  UNL     1     -15.391  25.868   7.993  1.00  0.00     0.046 C 
HETATM   25  C4  UNL     1     -17.262  25.158   6.575  1.00  0.00     0.046 C 
ENDBRANCH  21  22
ENDBRANCH  19  21
ENDBRANCH  17  19
ENDBRANCH   1  16
TORSDOF 5
ENDMDL
