MODEL 1
REMARK VINA RESULT: -6.616833582      0.000      0.000
REMARK  5 active torsions:
REMARK  status: ('A' for Active; 'I' for Inactive)
REMARK    1  A    between atoms: C2_2  and  C3_3 
REMARK    2  A    between atoms: C3_3  and  N1_4 
REMARK    3  A    between atoms: C13_14  and  C15_16 
REMARK    4  A    between atoms: C15_16  and  O1_17 
REMARK    5  A    between atoms: C16_19  and  C17_20 
ROOT
HETATM    1  N1  UNL     1      -8.932  28.051   4.114  1.00  0.00    -0.349 N 
HETATM    2  C4  UNL     1      -7.593  28.634   4.118  1.00  0.00     0.327 C 
HETATM    3  C5  UNL     1      -7.522  29.569   2.931  1.00  0.00     0.035 C 
HETATM    4  C6  UNL     1      -7.588  31.019   3.316  1.00  0.00     0.014 C 
HETATM    5  C7  UNL     1      -8.570  29.199   1.896  1.00  0.00     0.008 C 
HETATM    6  C8  UNL     1      -8.243  27.851   1.333  1.00  0.00     0.006 C 
HETATM    7  C9  UNL     1      -9.368  26.900   1.545  1.00  0.00     0.003 C 
HETATM    8  C10 UNL     1      -9.612  26.261   2.827  1.00  0.00     0.025 C 
HETATM    9  C11 UNL     1      -9.598  24.956   2.188  1.00  0.00    -0.001 C 
HETATM   10  C12 UNL     1     -10.989  24.291   2.020  1.00  0.00     0.011 C 
HETATM   11  C13 UNL     1      -9.196  25.579   0.825  1.00  0.00    -0.015 C 
HETATM   12  C14 UNL     1      -7.831  25.219   0.351  1.00  0.00     0.018 C 
HETATM   13  C16 UNL     1      -8.809  26.655   4.031  1.00  0.00     0.064 C 
HETATM   14  C19 UNL     1      -7.369  26.356   4.054  1.00  0.00     0.306 C 
HETATM   15  N2  UNL     1      -6.641  27.609   3.980  1.00  0.00     0.110 N 
HETATM   16  C20 UNL     1      -5.495  27.671   4.822  1.00  0.00     0.312 C 
ENDROOT
BRANCH  11  17
HETATM   17  C15 UNL     1     -10.186  25.363  -0.280  1.00  0.00     0.173 C 
BRANCH  17  18
HETATM   18  O1  UNL     1      -9.795  25.737  -1.517  1.00  0.00    -0.400 OA
ATOM     19  H1  UNL     1     -10.478  26.049  -2.099  1.00  0.00     0.209 HD
ENDBRANCH  17  18
ENDBRANCH  11  17
BRANCH  13  20
HETATM   20  C17 UNL     1      -9.419  25.889   5.203  1.00  0.00     0.029 C 
HETATM   21  C18 UNL     1      -8.446  25.422   6.244  1.00  0.00     0.007 C 
ENDBRANCH  13  20
BRANCH   1  22
HETATM   22  C3  UNL     1      -9.717  28.803   4.951  1.00  0.00     0.088 C 
BRANCH  22  23
HETATM   23  C2  UNL     1     -10.882  29.568   4.486  1.00  0.00     0.007 C 
HETATM   24  C1  UNL     1     -11.946  28.980   3.922  1.00  0.00     0.012 C 
ENDBRANCH  22  23
ENDBRANCH   1  22
TORSDOF 5
ENDMDL
MODEL 2
REMARK VINA RESULT: -6.460881271      2.134      4.357
REMARK  5 active torsions:
REMARK  status: ('A' for Active; 'I' for Inactive)
REMARK    1  A    between atoms: C2_2  and  C3_3 
REMARK    2  A    between atoms: C3_3  and  N1_4 
REMARK    3  A    between atoms: C13_14  and  C15_16 
REMARK    4  A    between atoms: C15_16  and  O1_17 
REMARK    5  A    between atoms: C16_19  and  C17_20 
ROOT
HETATM    1  N1  UNL     1      -9.650  25.834   4.243  1.00  0.00    -0.349 N 
HETATM    2  C4  UNL     1     -10.342  26.230   5.466  1.00  0.00     0.327 C 
HETATM    3  C5  UNL     1     -11.448  27.176   5.053  1.00  0.00     0.035 C 
HETATM    4  C6  UNL     1     -12.811  26.550   5.104  1.00  0.00     0.014 C 
HETATM    5  C7  UNL     1     -11.145  27.791   3.698  1.00  0.00     0.008 C 
HETATM    6  C8  UNL     1      -9.933  28.659   3.817  1.00  0.00     0.006 C 
HETATM    7  C9  UNL     1      -8.863  28.210   2.884  1.00  0.00     0.003 C 
HETATM    8  C10 UNL     1      -8.020  27.062   3.166  1.00  0.00     0.025 C 
HETATM    9  C11 UNL     1      -6.832  27.875   2.966  1.00  0.00    -0.001 C 
HETATM   10  C12 UNL     1      -6.079  27.622   1.634  1.00  0.00     0.011 C 
HETATM   11  C13 UNL     1      -7.687  29.159   2.798  1.00  0.00    -0.015 C 
HETATM   12  C14 UNL     1      -7.525  30.163   3.885  1.00  0.00     0.018 C 
HETATM   13  C16 UNL     1      -8.298  26.196   4.359  1.00  0.00     0.064 C 
HETATM   14  C19 UNL     1      -8.129  26.767   5.705  1.00  0.00     0.306 C 
HETATM   15  N2  UNL     1      -9.439  26.890   6.318  1.00  0.00     0.110 N 
HETATM   16  C20 UNL     1      -9.475  26.540   7.697  1.00  0.00     0.312 C 
ENDROOT
BRANCH  11  17
HETATM   17  C15 UNL     1      -7.552  29.833   1.466  1.00  0.00     0.173 C 
BRANCH  17  18
HETATM   18  O1  UNL     1      -7.583  31.183   1.471  1.00  0.00    -0.400 OA
ATOM     19  H1  UNL     1      -6.796  31.621   1.771  1.00  0.00     0.209 HD
ENDBRANCH  17  18
ENDBRANCH  11  17
BRANCH  13  20
HETATM   20  C17 UNL     1      -7.314  25.034   4.266  1.00  0.00     0.029 C 
HETATM   21  C18 UNL     1      -6.290  24.966   5.359  1.00  0.00     0.007 C 
ENDBRANCH  13  20
BRANCH   1  22
HETATM   22  C3  UNL     1     -10.194  24.647   3.821  1.00  0.00     0.088 C 
BRANCH  22  23
HETATM   23  C2  UNL     1     -10.796  24.468   2.493  1.00  0.00     0.007 C 
HETATM   24  C1  UNL     1     -10.207  24.913   1.374  1.00  0.00     0.012 C 
ENDBRANCH  22  23
ENDBRANCH   1  22
TORSDOF 5
ENDMDL
MODEL 3
REMARK VINA RESULT: -6.402670221      2.495      4.789
REMARK  5 active torsions:
REMARK  status: ('A' for Active; 'I' for Inactive)
REMARK    1  A    between atoms: C2_2  and  C3_3 
REMARK    2  A    between atoms: C3_3  and  N1_4 
REMARK    3  A    between atoms: C13_14  and  C15_16 
REMARK    4  A    between atoms: C15_16  and  O1_17 
REMARK    5  A    between atoms: C16_19  and  C17_20 
ROOT
HETATM    1  N1  UNL     1      -8.588  25.963   3.248  1.00  0.00    -0.349 N 
HETATM    2  C4  UNL     1      -8.258  26.266   1.859  1.00  0.00     0.327 C 
HETATM    3  C5  UNL     1      -7.454  27.547   1.871  1.00  0.00     0.035 C 
HETATM    4  C6  UNL     1      -5.989  27.329   1.627  1.00  0.00     0.014 C 
HETATM    5  C7  UNL     1      -7.716  28.329   3.148  1.00  0.00     0.008 C 
HETATM    6  C8  UNL     1      -9.143  28.779   3.159  1.00  0.00     0.006 C 
HETATM    7  C9  UNL     1      -9.855  28.260   4.358  1.00  0.00     0.003 C 
HETATM    8  C10 UNL     1     -10.329  26.890   4.446  1.00  0.00     0.025 C 
HETATM    9  C11 UNL     1     -11.665  27.364   4.768  1.00  0.00    -0.001 C 
HETATM   10  C12 UNL     1     -12.079  27.203   6.253  1.00  0.00     0.011 C 
HETATM   11  C13 UNL     1     -11.241  28.841   4.546  1.00  0.00    -0.015 C 
HETATM   12  C14 UNL     1     -11.880  29.505   3.376  1.00  0.00     0.018 C 
HETATM   13  C16 UNL     1      -9.986  25.902   3.370  1.00  0.00     0.064 C 
HETATM   14  C19 UNL     1     -10.536  26.103   2.021  1.00  0.00     0.306 C 
HETATM   15  N2  UNL     1      -9.446  26.451   1.129  1.00  0.00     0.110 N 
HETATM   16  C20 UNL     1      -9.520  25.840  -0.154  1.00  0.00     0.312 C 
ENDROOT
BRANCH  11  17
HETATM   17  C15 UNL     1     -11.368  29.718   5.755  1.00  0.00     0.173 C 
BRANCH  17  18
HETATM   18  O1  UNL     1     -11.631  31.022   5.524  1.00  0.00    -0.400 OA
ATOM     19  H1  UNL     1     -11.603  31.598   6.279  1.00  0.00     0.209 HD
ENDBRANCH  17  18
ENDBRANCH  11  17
BRANCH  13  20
HETATM   20  C17 UNL     1     -10.528  24.560   3.854  1.00  0.00     0.029 C 
HETATM   21  C18 UNL     1     -10.969  23.616   2.775  1.00  0.00     0.007 C 
ENDBRANCH  13  20
BRANCH   1  22
HETATM   22  C3  UNL     1      -7.639  25.092   3.723  1.00  0.00     0.088 C 
BRANCH  22  23
HETATM   23  C2  UNL     1      -6.947  25.282   5.004  1.00  0.00     0.007 C 
HETATM   24  C1  UNL     1      -5.648  25.604   5.076  1.00  0.00     0.012 C 
ENDBRANCH  22  23
ENDBRANCH   1  22
TORSDOF 5
ENDMDL
MODEL 4
REMARK VINA RESULT: -6.399683004      2.594      4.446
REMARK  5 active torsions:
REMARK  status: ('A' for Active; 'I' for Inactive)
REMARK    1  A    between atoms: C2_2  and  C3_3 
REMARK    2  A    between atoms: C3_3  and  N1_4 
REMARK    3  A    between atoms: C13_14  and  C15_16 
REMARK    4  A    between atoms: C15_16  and  O1_17 
REMARK    5  A    between atoms: C16_19  and  C17_20 
ROOT
HETATM    1  N1  UNL     1      -9.588  27.279   2.663  1.00  0.00    -0.349 N 
HETATM    2  C4  UNL     1      -8.220  27.551   3.094  1.00  0.00     0.327 C 
HETATM    3  C5  UNL     1      -7.446  26.263   2.923  1.00  0.00     0.035 C 
HETATM    4  C6  UNL     1      -6.523  26.281   1.739  1.00  0.00     0.014 C 
HETATM    5  C7  UNL     1      -8.389  25.072   2.902  1.00  0.00     0.008 C 
HETATM    6  C8  UNL     1      -9.041  24.944   4.241  1.00  0.00     0.006 C 
HETATM    7  C9  UNL     1     -10.523  25.017   4.121  1.00  0.00     0.003 C 
HETATM    8  C10 UNL     1     -11.225  26.277   3.944  1.00  0.00     0.025 C 
HETATM    9  C11 UNL     1     -12.070  25.975   5.087  1.00  0.00    -0.001 C 
HETATM   10  C12 UNL     1     -13.520  25.554   4.740  1.00  0.00     0.011 C 
HETATM   11  C13 UNL     1     -11.259  24.690   5.403  1.00  0.00    -0.015 C 
HETATM   12  C14 UNL     1     -10.488  24.735   6.676  1.00  0.00     0.018 C 
HETATM   13  C16 UNL     1     -10.455  27.547   3.735  1.00  0.00     0.064 C 
HETATM   14  C19 UNL     1      -9.621  28.060   4.832  1.00  0.00     0.306 C 
HETATM   15  N2  UNL     1      -8.227  27.931   4.447  1.00  0.00     0.110 N 
HETATM   16  C20 UNL     1      -7.413  29.040   4.813  1.00  0.00     0.312 C 
ENDROOT
BRANCH  11  17
HETATM   17  C15 UNL     1     -12.049  23.418   5.336  1.00  0.00     0.173 C 
BRANCH  17  18
HETATM   18  O1  UNL     1     -12.089  22.678   6.465  1.00  0.00    -0.400 OA
ATOM     19  H1  UNL     1     -12.515  21.831   6.398  1.00  0.00     0.209 HD
ENDBRANCH  17  18
ENDBRANCH  11  17
BRANCH  13  20
HETATM   20  C17 UNL     1     -11.500  28.624   3.458  1.00  0.00     0.029 C 
HETATM   21  C18 UNL     1     -11.636  29.678   4.516  1.00  0.00     0.007 C 
ENDBRANCH  13  20
BRANCH   1  22
HETATM   22  C3  UNL     1      -9.695  27.658   1.348  1.00  0.00     0.088 C 
BRANCH  22  23
HETATM   23  C2  UNL     1     -10.316  26.814   0.318  1.00  0.00     0.007 C 
HETATM   24  C1  UNL     1      -9.628  25.879  -0.351  1.00  0.00     0.012 C 
ENDBRANCH  22  23
ENDBRANCH   1  22
TORSDOF 5
ENDMDL
MODEL 5
REMARK VINA RESULT: -6.067554883      1.597      2.074
REMARK  5 active torsions:
REMARK  status: ('A' for Active; 'I' for Inactive)
REMARK    1  A    between atoms: C2_2  and  C3_3 
REMARK    2  A    between atoms: C3_3  and  N1_4 
REMARK    3  A    between atoms: C13_14  and  C15_16 
REMARK    4  A    between atoms: C15_16  and  O1_17 
REMARK    5  A    between atoms: C16_19  and  C17_20 
ROOT
HETATM    1  N1  UNL     1      -9.302  28.533   4.364  1.00  0.00    -0.349 N 
HETATM    2  C4  UNL     1      -7.981  28.846   3.826  1.00  0.00     0.327 C 
HETATM    3  C5  UNL     1      -8.123  28.888   2.320  1.00  0.00     0.035 C 
HETATM    4  C6  UNL     1      -8.107  30.283   1.764  1.00  0.00     0.014 C 
HETATM    5  C7  UNL     1      -9.347  28.105   1.877  1.00  0.00     0.008 C 
HETATM    6  C8  UNL     1      -9.140  26.658   2.195  1.00  0.00     0.006 C 
HETATM    7  C9  UNL     1     -10.213  26.152   3.094  1.00  0.00     0.003 C 
HETATM    8  C10 UNL     1     -10.221  26.422   4.521  1.00  0.00     0.025 C 
HETATM    9  C11 UNL     1     -10.335  25.000   4.798  1.00  0.00    -0.001 C 
HETATM   10  C12 UNL     1     -11.738  24.532   5.264  1.00  0.00     0.011 C 
HETATM   11  C13 UNL     1     -10.187  24.651   3.293  1.00  0.00    -0.015 C 
HETATM   12  C14 UNL     1      -8.936  23.925   2.941  1.00  0.00     0.018 C 
HETATM   13  C16 UNL     1      -9.207  27.352   5.118  1.00  0.00     0.064 C 
HETATM   14  C19 UNL     1      -7.790  26.959   5.108  1.00  0.00     0.306 C 
HETATM   15  N2  UNL     1      -7.078  27.833   4.194  1.00  0.00     0.110 N 
HETATM   16  C20 UNL     1      -5.797  28.245   4.656  1.00  0.00     0.312 C 
ENDROOT
BRANCH  11  17
HETATM   17  C15 UNL     1     -11.366  23.944   2.695  1.00  0.00     0.173 C 
BRANCH  17  18
HETATM   18  O1  UNL     1     -11.131  23.232   1.572  1.00  0.00    -0.400 OA
ATOM     19  H1  UNL     1     -11.523  23.564   0.773  1.00  0.00     0.209 HD
ENDBRANCH  17  18
ENDBRANCH  11  17
BRANCH  13  20
HETATM   20  C17 UNL     1      -9.595  27.499   6.587  1.00  0.00     0.029 C 
HETATM   21  C18 UNL     1      -8.463  27.406   7.566  1.00  0.00     0.007 C 
ENDBRANCH  13  20
BRANCH   1  22
HETATM   22  C3  UNL     1      -9.913  29.719   4.685  1.00  0.00     0.088 C 
BRANCH  22  23
HETATM   23  C2  UNL     1     -11.372  29.877   4.749  1.00  0.00     0.007 C 
HETATM   24  C1  UNL     1     -12.177  29.509   3.742  1.00  0.00     0.012 C 
ENDBRANCH  22  23
ENDBRANCH   1  22
TORSDOF 5
ENDMDL
