MODEL 1
REMARK VINA RESULT: -7.064535819      0.000      0.000
REMARK  5 active torsions:
REMARK  status: ('A' for Active; 'I' for Inactive)
REMARK    1  A    between atoms: C2_2  and  C3_3 
REMARK    2  A    between atoms: C6_6  and  N1_7 
REMARK    3  A    between atoms: C9_12  and  N3_13 
REMARK    4  A    between atoms: N3_13  and  C10_15 
REMARK    5  A    between atoms: C10_15  and  C11_16 
ROOT
HETATM    1  N1  UNL     1      -9.605  27.059   3.181  1.00  0.00    -0.271 N 
HETATM    2  N2  UNL     1      -8.899  27.529   4.184  1.00  0.00    -0.298 N 
ATOM      3  H2  UNL     1      -8.924  27.153   5.132  1.00  0.00     0.187 HD
HETATM    4  C7  UNL     1      -8.143  28.566   3.803  1.00  0.00     0.064 A 
HETATM    5  C8  UNL     1      -8.430  28.726   2.437  1.00  0.00     0.015 A 
HETATM    6  C9  UNL     1      -9.337  27.790   2.053  1.00  0.00     0.126 A 
HETATM    7  C14 UNL     1      -7.726  29.814   1.763  1.00  0.00     0.075 C 
HETATM    8  C15 UNL     1      -7.695  30.979   2.773  1.00  0.00     0.277 C 
HETATM    9  N4  UNL     1      -6.882  30.661   3.898  1.00  0.00     0.090 N 
HETATM   10  C16 UNL     1      -6.957  31.727   4.850  1.00  0.00     0.310 C 
HETATM   11  C17 UNL     1      -7.190  29.423   4.527  1.00  0.00     0.330 C 
ENDROOT
BRANCH   1  12
HETATM   12  C6  UNL     1     -10.492  25.962   3.310  1.00  0.00     0.110 C 
HETATM   13  C5  UNL     1     -11.301  26.061   4.598  1.00  0.00     0.028 C 
HETATM   14  C4  UNL     1     -11.499  24.719   5.217  1.00  0.00     0.007 C 
HETATM   15  C3  UNL     1     -11.889  23.632   4.245  1.00  0.00    -0.015 C 
HETATM   16  C19 UNL     1     -11.140  23.680   2.946  1.00  0.00     0.007 C 
HETATM   17  C18 UNL     1      -9.918  24.603   3.135  1.00  0.00     0.028 C 
BRANCH  15  18
HETATM   18  C2  UNL     1     -13.374  23.531   4.098  1.00  0.00     0.000 C 
HETATM   19  C1  UNL     1     -14.171  24.316   5.074  1.00  0.00     0.005 C 
ENDBRANCH  15  18
ENDBRANCH   1  12
BRANCH   6  20
HETATM   20  N3  UNL     1      -9.862  27.558   0.971  1.00  0.00    -0.374 N 
ATOM     21  H3  UNL     1     -10.747  28.061   0.911  1.00  0.00     0.161 HD
BRANCH  20  22
HETATM   22  C10 UNL     1      -9.661  26.846  -0.197  1.00  0.00     0.126 C 
BRANCH  22  23
HETATM   23  C11 UNL     1     -10.750  25.760  -0.280  1.00  0.00     0.003 A 
HETATM   24  C12 UNL     1     -10.479  24.598  -1.214  1.00  0.00     0.007 A 
HETATM   25  C13 UNL     1     -11.513  25.608  -1.580  1.00  0.00     0.007 A 
ENDBRANCH  22  23
ENDBRANCH  20  22
ENDBRANCH   6  20
TORSDOF 5
ENDMDL
MODEL 2
REMARK VINA RESULT: -6.929692092      1.426      2.146
REMARK  5 active torsions:
REMARK  status: ('A' for Active; 'I' for Inactive)
REMARK    1  A    between atoms: C2_2  and  C3_3 
REMARK    2  A    between atoms: C6_6  and  N1_7 
REMARK    3  A    between atoms: C9_12  and  N3_13 
REMARK    4  A    between atoms: N3_13  and  C10_15 
REMARK    5  A    between atoms: C10_15  and  C11_16 
ROOT
HETATM    1  N1  UNL     1     -10.687  26.699   3.817  1.00  0.00    -0.271 N 
HETATM    2  N2  UNL     1     -10.324  27.899   4.207  1.00  0.00    -0.298 N 
ATOM      3  H2  UNL     1     -10.807  28.443   4.923  1.00  0.00     0.187 HD
HETATM    4  C7  UNL     1      -9.237  28.317   3.547  1.00  0.00     0.064 A 
HETATM    5  C8  UNL     1      -8.926  27.259   2.677  1.00  0.00     0.015 A 
HETATM    6  C9  UNL     1      -9.828  26.255   2.846  1.00  0.00     0.126 A 
HETATM    7  C14 UNL     1      -7.761  27.461   1.820  1.00  0.00     0.075 C 
HETATM    8  C15 UNL     1      -7.817  28.939   1.384  1.00  0.00     0.277 C 
HETATM    9  N4  UNL     1      -7.611  29.810   2.491  1.00  0.00     0.090 N 
HETATM   10  C16 UNL     1      -7.765  31.166   2.059  1.00  0.00     0.310 C 
HETATM   11  C17 UNL     1      -8.448  29.558   3.613  1.00  0.00     0.330 C 
ENDROOT
BRANCH   1  12
HETATM   12  C6  UNL     1     -11.809  26.020   4.355  1.00  0.00     0.110 C 
HETATM   13  C5  UNL     1     -12.695  26.972   5.150  1.00  0.00     0.028 C 
HETATM   14  C4  UNL     1     -13.252  26.307   6.362  1.00  0.00     0.007 C 
HETATM   15  C3  UNL     1     -13.782  24.913   6.125  1.00  0.00    -0.015 C 
HETATM   16  C19 UNL     1     -12.920  24.080   5.226  1.00  0.00     0.007 C 
HETATM   17  C18 UNL     1     -11.544  24.769   5.112  1.00  0.00     0.028 C 
BRANCH  15  18
HETATM   18  C2  UNL     1     -15.230  24.931   5.750  1.00  0.00     0.000 C 
HETATM   19  C1  UNL     1     -15.515  24.973   4.293  1.00  0.00     0.005 C 
ENDBRANCH  15  18
ENDBRANCH   1  12
BRANCH   6  20
HETATM   20  N3  UNL     1      -9.938  25.159   2.311  1.00  0.00    -0.374 N 
ATOM     21  H3  UNL     1      -9.316  24.495   2.771  1.00  0.00     0.161 HD
BRANCH  20  22
HETATM   22  C10 UNL     1     -10.621  24.517   1.295  1.00  0.00     0.126 C 
BRANCH  22  23
HETATM   23  C11 UNL     1     -10.084  25.054  -0.046  1.00  0.00     0.003 A 
HETATM   24  C12 UNL     1     -10.721  26.322  -0.573  1.00  0.00     0.007 A 
HETATM   25  C13 UNL     1     -11.003  25.024  -1.249  1.00  0.00     0.007 A 
ENDBRANCH  22  23
ENDBRANCH  20  22
ENDBRANCH   6  20
TORSDOF 5
ENDMDL
MODEL 3
REMARK VINA RESULT: -6.831388371      2.108      2.610
REMARK  5 active torsions:
REMARK  status: ('A' for Active; 'I' for Inactive)
REMARK    1  A    between atoms: C2_2  and  C3_3 
REMARK    2  A    between atoms: C6_6  and  N1_7 
REMARK    3  A    between atoms: C9_12  and  N3_13 
REMARK    4  A    between atoms: N3_13  and  C10_15 
REMARK    5  A    between atoms: C10_15  and  C11_16 
ROOT
HETATM    1  N1  UNL     1      -9.751  25.623   4.014  1.00  0.00    -0.271 N 
HETATM    2  N2  UNL     1      -8.856  25.160   4.857  1.00  0.00    -0.298 N 
ATOM      3  H2  UNL     1      -9.058  24.493   5.602  1.00  0.00     0.187 HD
HETATM    4  C7  UNL     1      -7.646  25.676   4.614  1.00  0.00     0.064 A 
HETATM    5  C8  UNL     1      -7.843  26.531   3.517  1.00  0.00     0.015 A 
HETATM    6  C9  UNL     1      -9.150  26.497   3.147  1.00  0.00     0.126 A 
HETATM    7  C14 UNL     1      -6.657  27.239   3.041  1.00  0.00     0.075 C 
HETATM    8  C15 UNL     1      -5.874  27.639   4.308  1.00  0.00     0.277 C 
HETATM    9  N4  UNL     1      -5.368  26.491   4.982  1.00  0.00     0.090 N 
HETATM   10  C16 UNL     1      -4.732  26.901   6.198  1.00  0.00     0.310 C 
HETATM   11  C17 UNL     1      -6.334  25.483   5.254  1.00  0.00     0.330 C 
ENDROOT
BRANCH   1  12
HETATM   12  C6  UNL     1     -11.115  25.241   4.050  1.00  0.00     0.110 C 
HETATM   13  C5  UNL     1     -11.859  25.973   5.162  1.00  0.00     0.028 C 
HETATM   14  C4  UNL     1     -12.860  25.083   5.818  1.00  0.00     0.007 C 
HETATM   15  C3  UNL     1     -13.690  24.260   4.863  1.00  0.00    -0.015 C 
HETATM   16  C19 UNL     1     -12.909  23.681   3.722  1.00  0.00     0.007 C 
HETATM   17  C18 UNL     1     -11.409  23.784   4.070  1.00  0.00     0.028 C 
BRANCH  15  18
HETATM   18  C2  UNL     1     -14.936  24.981   4.456  1.00  0.00     0.000 C 
HETATM   19  C1  UNL     1     -15.980  25.102   5.505  1.00  0.00     0.005 C 
ENDBRANCH  15  18
ENDBRANCH   1  12
BRANCH   6  20
HETATM   20  N3  UNL     1      -9.760  27.071   2.253  1.00  0.00    -0.374 N 
ATOM     21  H3  UNL     1     -10.275  27.858   2.648  1.00  0.00     0.161 HD
BRANCH  20  22
HETATM   22  C10 UNL     1      -9.987  27.015   0.890  1.00  0.00     0.126 C 
BRANCH  22  23
HETATM   23  C11 UNL     1      -9.624  25.597   0.411  1.00  0.00     0.003 A 
HETATM   24  C12 UNL     1     -10.179  25.172  -0.933  1.00  0.00     0.007 A 
HETATM   25  C13 UNL     1     -10.731  24.568   0.313  1.00  0.00     0.007 A 
ENDBRANCH  22  23
ENDBRANCH  20  22
ENDBRANCH   6  20
TORSDOF 5
ENDMDL
MODEL 4
REMARK VINA RESULT: -6.794265947      2.054      2.611
REMARK  5 active torsions:
REMARK  status: ('A' for Active; 'I' for Inactive)
REMARK    1  A    between atoms: C2_2  and  C3_3 
REMARK    2  A    between atoms: C6_6  and  N1_7 
REMARK    3  A    between atoms: C9_12  and  N3_13 
REMARK    4  A    between atoms: N3_13  and  C10_15 
REMARK    5  A    between atoms: C10_15  and  C11_16 
ROOT
HETATM    1  N1  UNL     1     -10.339  25.497   4.067  1.00  0.00    -0.271 N 
HETATM    2  N2  UNL     1      -9.447  25.753   4.996  1.00  0.00    -0.298 N 
ATOM      3  H2  UNL     1      -9.638  25.736   5.998  1.00  0.00     0.187 HD
HETATM    4  C7  UNL     1      -8.254  26.039   4.460  1.00  0.00     0.064 A 
HETATM    5  C8  UNL     1      -8.460  25.944   3.074  1.00  0.00     0.015 A 
HETATM    6  C9  UNL     1      -9.755  25.608   2.832  1.00  0.00     0.126 A 
HETATM    7  C14 UNL     1      -7.295  26.219   2.237  1.00  0.00     0.075 C 
HETATM    8  C15 UNL     1      -6.564  27.395   2.915  1.00  0.00     0.277 C 
HETATM    9  N4  UNL     1      -6.025  27.008   4.175  1.00  0.00     0.090 N 
HETATM   10  C16 UNL     1      -5.440  28.150   4.809  1.00  0.00     0.310 C 
HETATM   11  C17 UNL     1      -6.952  26.384   5.055  1.00  0.00     0.330 C 
ENDROOT
BRANCH   1  12
HETATM   12  C6  UNL     1     -11.685  25.166   4.360  1.00  0.00     0.110 C 
HETATM   13  C5  UNL     1     -12.197  25.966   5.552  1.00  0.00     0.028 C 
HETATM   14  C4  UNL     1     -13.090  25.139   6.414  1.00  0.00     0.007 C 
HETATM   15  C3  UNL     1     -14.101  24.311   5.658  1.00  0.00    -0.015 C 
HETATM   16  C19 UNL     1     -13.553  23.661   4.424  1.00  0.00     0.007 C 
HETATM   17  C18 UNL     1     -12.013  23.723   4.496  1.00  0.00     0.028 C 
BRANCH  15  18
HETATM   18  C2  UNL     1     -15.379  25.060   5.447  1.00  0.00     0.000 C 
HETATM   19  C1  UNL     1     -15.830  25.175   4.037  1.00  0.00     0.005 C 
ENDBRANCH  15  18
ENDBRANCH   1  12
BRANCH   6  20
HETATM   20  N3  UNL     1     -10.367  25.417   1.788  1.00  0.00    -0.374 N 
ATOM     21  H3  UNL     1     -10.799  26.290   1.486  1.00  0.00     0.161 HD
BRANCH  20  22
HETATM   22  C10 UNL     1     -10.669  24.419   0.880  1.00  0.00     0.126 C 
BRANCH  22  23
HETATM   23  C11 UNL     1     -10.322  24.941  -0.527  1.00  0.00     0.003 A 
HETATM   24  C12 UNL     1     -10.873  26.302  -0.900  1.00  0.00     0.007 A 
HETATM   25  C13 UNL     1     -11.443  25.080  -1.536  1.00  0.00     0.007 A 
ENDBRANCH  22  23
ENDBRANCH  20  22
ENDBRANCH   6  20
TORSDOF 5
ENDMDL
MODEL 5
REMARK VINA RESULT: -6.789109330      2.202      4.655
REMARK  5 active torsions:
REMARK  status: ('A' for Active; 'I' for Inactive)
REMARK    1  A    between atoms: C2_2  and  C3_3 
REMARK    2  A    between atoms: C6_6  and  N1_7 
REMARK    3  A    between atoms: C9_12  and  N3_13 
REMARK    4  A    between atoms: N3_13  and  C10_15 
REMARK    5  A    between atoms: C10_15  and  C11_16 
ROOT
HETATM    1  N1  UNL     1      -8.284  26.775   3.436  1.00  0.00    -0.271 N 
HETATM    2  N2  UNL     1      -7.083  27.306   3.454  1.00  0.00    -0.298 N 
ATOM      3  H2  UNL     1      -6.540  27.531   2.619  1.00  0.00     0.187 HD
HETATM    4  C7  UNL     1      -6.662  27.515   4.707  1.00  0.00     0.064 A 
HETATM    5  C8  UNL     1      -7.719  27.062   5.513  1.00  0.00     0.015 A 
HETATM    6  C9  UNL     1      -8.725  26.603   4.722  1.00  0.00     0.126 A 
HETATM    7  C14 UNL     1      -7.513  27.175   6.954  1.00  0.00     0.075 C 
HETATM    8  C15 UNL     1      -6.036  26.806   7.194  1.00  0.00     0.277 C 
HETATM    9  N4  UNL     1      -5.165  27.778   6.624  1.00  0.00     0.090 N 
HETATM   10  C16 UNL     1      -3.808  27.348   6.787  1.00  0.00     0.310 C 
HETATM   11  C17 UNL     1      -5.419  28.080   5.258  1.00  0.00     0.330 C 
ENDROOT
BRANCH   1  12
HETATM   12  C6  UNL     1      -8.966  26.449   2.238  1.00  0.00     0.110 C 
HETATM   13  C5  UNL     1      -8.396  25.181   1.611  1.00  0.00     0.028 C 
HETATM   14  C4  UNL     1      -8.364  25.281   0.124  1.00  0.00     0.007 C 
HETATM   15  C3  UNL     1      -9.620  25.847  -0.494  1.00  0.00    -0.015 C 
HETATM   16  C19 UNL     1     -10.194  27.012   0.254  1.00  0.00     0.007 C 
HETATM   17  C18 UNL     1      -9.117  27.530   1.230  1.00  0.00     0.028 C 
BRANCH  15  18
HETATM   18  C2  UNL     1     -10.608  24.771  -0.816  1.00  0.00     0.000 C 
HETATM   19  C1  UNL     1     -11.755  25.185  -1.663  1.00  0.00     0.005 C 
ENDBRANCH  15  18
ENDBRANCH   1  12
BRANCH   6  20
HETATM   20  N3  UNL     1      -9.821  26.127   4.991  1.00  0.00    -0.374 N 
ATOM     21  H3  UNL     1     -10.484  26.883   5.163  1.00  0.00     0.161 HD
BRANCH  20  22
HETATM   22  C10 UNL     1     -10.465  24.912   5.140  1.00  0.00     0.126 C 
BRANCH  22  23
HETATM   23  C11 UNL     1     -11.533  24.807   4.035  1.00  0.00     0.003 A 
HETATM   24  C12 UNL     1     -12.417  23.578   4.061  1.00  0.00     0.007 A 
HETATM   25  C13 UNL     1     -11.384  23.715   2.995  1.00  0.00     0.007 A 
ENDBRANCH  22  23
ENDBRANCH  20  22
ENDBRANCH   6  20
TORSDOF 5
ENDMDL
