MODEL 1
REMARK VINA RESULT: -7.330276998      0.000      0.000
REMARK  5 active torsions:
REMARK  status: ('A' for Active; 'I' for Inactive)
REMARK    1  A    between atoms: N1_2  and  C3_4 
REMARK    2  A    between atoms: C3_4  and  C4_5 
REMARK    3  A    between atoms: C4_5  and  N2_6 
REMARK    4  A    between atoms: C5_8  and  N4_11 
REMARK    5  A    between atoms: N4_11  and  C7_13 
ROOT
HETATM    1  N2  UNL     1     -10.661  26.014  -1.284  1.00  0.00    -0.366 N 
ATOM      2  H2  UNL     1     -10.424  26.744  -1.956  1.00  0.00     0.161 HD
HETATM    3  C5  UNL     1     -10.040  25.961  -0.124  1.00  0.00     0.180 C 
HETATM    4  C6  UNL     1     -10.411  24.919   0.779  1.00  0.00     0.136 C 
HETATM    5  N3  UNL     1     -10.729  24.060   1.495  1.00  0.00    -0.188 NA
ENDROOT
BRANCH   3   6
HETATM    6  N4  UNL     1      -9.061  26.948   0.131  1.00  0.00    -0.358 N 
ATOM      7  H4  UNL     1      -8.489  27.265  -0.651  1.00  0.00     0.162 HD
BRANCH   6   8
HETATM    8  C7  UNL     1      -8.821  27.532   1.413  1.00  0.00     0.034 C 
HETATM    9  C8  UNL     1     -10.145  27.676   2.104  1.00  0.00     0.040 C 
HETATM   10  C9  UNL     1      -9.979  28.193   3.524  1.00  0.00    -0.040 C 
HETATM   11  C10 UNL     1     -11.338  28.148   4.176  1.00  0.00     0.015 C 
HETATM   12  C11 UNL     1      -9.008  27.279   4.223  1.00  0.00     0.018 C 
HETATM   13  C17 UNL     1      -9.456  29.609   3.395  1.00  0.00     0.018 C 
HETATM   14  C12 UNL     1      -7.664  27.370   3.585  1.00  0.00    -0.040 C 
HETATM   15  C13 UNL     1      -6.658  26.499   4.313  1.00  0.00     0.015 C 
HETATM   16  C14 UNL     1      -7.166  28.796   3.460  1.00  0.00     0.018 C 
HETATM   17  C19 UNL     1      -7.765  26.818   2.163  1.00  0.00     0.040 C 
HETATM   18  C15 UNL     1      -8.171  29.553   2.622  1.00  0.00    -0.040 C 
HETATM   19  C16 UNL     1      -7.697  31.006   2.472  1.00  0.00     0.015 C 
HETATM   20  C18 UNL     1      -8.302  28.982   1.244  1.00  0.00     0.040 C 
ENDBRANCH   6   8
ENDBRANCH   3   6
BRANCH   1  21
HETATM   21  C4  UNL     1     -11.682  25.038  -1.605  1.00  0.00     0.141 C 
BRANCH  21  22
HETATM   22  C3  UNL     1     -12.697  25.752  -2.468  1.00  0.00     0.135 C 
BRANCH  22  23
HETATM   23  N1  UNL     1     -13.778  24.955  -2.917  1.00  0.00    -0.419 N 
HETATM   24  C1  UNL     1     -13.644  23.550  -2.742  1.00  0.00     0.142 C 
HETATM   25  C2  UNL     1     -14.422  25.372  -4.117  1.00  0.00     0.142 C 
ENDBRANCH  22  23
ENDBRANCH  21  22
ENDBRANCH   1  21
TORSDOF 5
ENDMDL
MODEL 2
REMARK VINA RESULT: -7.296257307      0.180      2.364
REMARK  5 active torsions:
REMARK  status: ('A' for Active; 'I' for Inactive)
REMARK    1  A    between atoms: N1_2  and  C3_4 
REMARK    2  A    between atoms: C3_4  and  C4_5 
REMARK    3  A    between atoms: C4_5  and  N2_6 
REMARK    4  A    between atoms: C5_8  and  N4_11 
REMARK    5  A    between atoms: N4_11  and  C7_13 
ROOT
HETATM    1  N2  UNL     1     -10.690  26.058  -1.251  1.00  0.00    -0.366 N 
ATOM      2  H2  UNL     1     -10.464  26.812  -1.901  1.00  0.00     0.161 HD
HETATM    3  C5  UNL     1     -10.077  25.988  -0.088  1.00  0.00     0.180 C 
HETATM    4  C6  UNL     1     -10.430  24.911   0.782  1.00  0.00     0.136 C 
HETATM    5  N3  UNL     1     -10.733  24.025   1.471  1.00  0.00    -0.188 NA
ENDROOT
BRANCH   3   6
HETATM    6  N4  UNL     1      -9.126  26.991   0.205  1.00  0.00    -0.358 N 
ATOM      7  H4  UNL     1      -8.516  27.304  -0.551  1.00  0.00     0.162 HD
BRANCH   6   8
HETATM    8  C7  UNL     1      -8.961  27.595   1.488  1.00  0.00     0.034 C 
HETATM    9  C8  UNL     1      -8.341  28.946   1.281  1.00  0.00     0.040 C 
HETATM   10  C9  UNL     1      -8.224  29.712   2.589  1.00  0.00    -0.040 C 
HETATM   11  C10 UNL     1      -7.744  31.101   2.249  1.00  0.00     0.015 C 
HETATM   12  C11 UNL     1      -9.594  29.746   3.211  1.00  0.00     0.018 C 
HETATM   13  C17 UNL     1      -7.220  28.953   3.431  1.00  0.00     0.018 C 
HETATM   14  C12 UNL     1     -10.030  28.367   3.573  1.00  0.00    -0.040 C 
HETATM   15  C13 UNL     1     -11.385  28.388   4.256  1.00  0.00     0.015 C 
HETATM   16  C14 UNL     1      -9.007  27.625   4.409  1.00  0.00     0.018 C 
HETATM   17  C19 UNL     1     -10.207  27.563   2.286  1.00  0.00     0.040 C 
HETATM   18  C15 UNL     1      -7.731  27.552   3.599  1.00  0.00    -0.040 C 
HETATM   19  C16 UNL     1      -6.669  26.803   4.415  1.00  0.00     0.015 C 
HETATM   20  C18 UNL     1      -7.918  26.803   2.316  1.00  0.00     0.040 C 
ENDBRANCH   6   8
ENDBRANCH   3   6
BRANCH   1  21
HETATM   21  C4  UNL     1     -11.683  25.067  -1.610  1.00  0.00     0.141 C 
BRANCH  21  22
HETATM   22  C3  UNL     1     -12.724  25.787  -2.435  1.00  0.00     0.135 C 
BRANCH  22  23
HETATM   23  N1  UNL     1     -13.781  24.977  -2.919  1.00  0.00    -0.419 N 
HETATM   24  C1  UNL     1     -13.633  23.573  -2.742  1.00  0.00     0.142 C 
HETATM   25  C2  UNL     1     -14.393  25.389  -4.136  1.00  0.00     0.142 C 
ENDBRANCH  22  23
ENDBRANCH  21  22
ENDBRANCH   1  21
TORSDOF 5
ENDMDL
MODEL 3
REMARK VINA RESULT: -7.232826051      0.308      2.358
REMARK  5 active torsions:
REMARK  status: ('A' for Active; 'I' for Inactive)
REMARK    1  A    between atoms: N1_2  and  C3_4 
REMARK    2  A    between atoms: C3_4  and  C4_5 
REMARK    3  A    between atoms: C4_5  and  N2_6 
REMARK    4  A    between atoms: C5_8  and  N4_11 
REMARK    5  A    between atoms: N4_11  and  C7_13 
ROOT
HETATM    1  N2  UNL     1     -10.545  25.845  -1.057  1.00  0.00    -0.366 N 
ATOM      2  H2  UNL     1     -10.236  26.562  -1.713  1.00  0.00     0.161 HD
HETATM    3  C5  UNL     1      -9.951  25.723   0.112  1.00  0.00     0.180 C 
HETATM    4  C6  UNL     1     -10.424  24.702   0.992  1.00  0.00     0.136 C 
HETATM    5  N3  UNL     1     -10.825  23.862   1.688  1.00  0.00    -0.188 NA
ENDROOT
BRANCH   3   6
HETATM    6  N4  UNL     1      -8.899  26.621   0.400  1.00  0.00    -0.358 N 
ATOM      7  H4  UNL     1      -8.131  26.684  -0.268  1.00  0.00     0.162 HD
BRANCH   6   8
HETATM    8  C7  UNL     1      -8.839  27.445   1.565  1.00  0.00     0.034 C 
HETATM    9  C8  UNL     1      -7.979  26.746   2.576  1.00  0.00     0.040 C 
HETATM   10  C9  UNL     1      -7.770  27.601   3.816  1.00  0.00    -0.040 C 
HETATM   11  C10 UNL     1      -6.772  26.881   4.689  1.00  0.00     0.015 C 
HETATM   12  C11 UNL     1      -7.234  28.930   3.357  1.00  0.00     0.018 C 
HETATM   13  C17 UNL     1      -9.127  27.716   4.479  1.00  0.00     0.018 C 
HETATM   14  C12 UNL     1      -8.252  29.638   2.530  1.00  0.00    -0.040 C 
HETATM   15  C13 UNL     1      -7.752  31.006   2.107  1.00  0.00     0.015 C 
HETATM   16  C14 UNL     1      -9.602  29.735   3.210  1.00  0.00     0.018 C 
HETATM   17  C19 UNL     1      -8.469  28.841   1.244  1.00  0.00     0.040 C 
HETATM   18  C15 UNL     1     -10.072  28.324   3.484  1.00  0.00    -0.040 C 
HETATM   19  C16 UNL     1     -11.442  28.381   4.173  1.00  0.00     0.015 C 
HETATM   20  C18 UNL     1     -10.239  27.530   2.225  1.00  0.00     0.040 C 
ENDBRANCH   6   8
ENDBRANCH   3   6
BRANCH   1  21
HETATM   21  C4  UNL     1     -11.637  24.962  -1.411  1.00  0.00     0.141 C 
BRANCH  21  22
HETATM   22  C3  UNL     1     -12.521  25.739  -2.360  1.00  0.00     0.135 C 
BRANCH  22  23
HETATM   23  N1  UNL     1     -13.653  25.038  -2.844  1.00  0.00    -0.419 N 
HETATM   24  C1  UNL     1     -13.613  23.620  -2.738  1.00  0.00     0.142 C 
HETATM   25  C2  UNL     1     -14.267  25.555  -4.020  1.00  0.00     0.142 C 
ENDBRANCH  22  23
ENDBRANCH  21  22
ENDBRANCH   1  21
TORSDOF 5
ENDMDL
MODEL 4
REMARK VINA RESULT: -7.060719044      2.788      6.935
REMARK  5 active torsions:
REMARK  status: ('A' for Active; 'I' for Inactive)
REMARK    1  A    between atoms: N1_2  and  C3_4 
REMARK    2  A    between atoms: C3_4  and  C4_5 
REMARK    3  A    between atoms: C4_5  and  N2_6 
REMARK    4  A    between atoms: C5_8  and  N4_11 
REMARK    5  A    between atoms: N4_11  and  C7_13 
ROOT
HETATM    1  N2  UNL     1      -9.378  29.267   4.382  1.00  0.00    -0.366 N 
ATOM      2  H2  UNL     1      -9.954  28.548   4.823  1.00  0.00     0.161 HD
HETATM    3  C5  UNL     1      -9.413  29.428   3.076  1.00  0.00     0.180 C 
HETATM    4  C6  UNL     1      -8.586  30.448   2.513  1.00  0.00     0.136 C 
HETATM    5  N3  UNL     1      -7.902  31.282   2.079  1.00  0.00    -0.188 NA
ENDROOT
BRANCH   3   6
HETATM    6  N4  UNL     1     -10.274  28.583   2.342  1.00  0.00    -0.358 N 
ATOM      7  H4  UNL     1     -11.192  28.945   2.086  1.00  0.00     0.162 HD
BRANCH   6   8
HETATM    8  C7  UNL     1      -9.944  27.254   1.934  1.00  0.00     0.034 C 
HETATM    9  C8  UNL     1      -8.458  27.192   1.741  1.00  0.00     0.040 C 
HETATM   10  C9  UNL     1      -7.998  25.781   1.407  1.00  0.00    -0.040 C 
HETATM   11  C10 UNL     1      -6.490  25.797   1.393  1.00  0.00     0.015 C 
HETATM   12  C11 UNL     1      -8.524  24.873   2.486  1.00  0.00     0.018 C 
HETATM   13  C17 UNL     1      -8.577  25.464   0.044  1.00  0.00     0.018 C 
HETATM   14  C12 UNL     1     -10.014  24.844   2.454  1.00  0.00    -0.040 C 
HETATM   15  C13 UNL     1     -10.560  23.887   3.497  1.00  0.00     0.015 C 
HETATM   16  C14 UNL     1     -10.570  24.532   1.080  1.00  0.00     0.018 C 
HETATM   17  C19 UNL     1     -10.532  26.233   2.828  1.00  0.00     0.040 C 
HETATM   18  C15 UNL     1     -10.068  25.603   0.137  1.00  0.00    -0.040 C 
HETATM   19  C16 UNL     1     -10.614  25.321  -1.270  1.00  0.00     0.015 C 
HETATM   20  C18 UNL     1     -10.539  26.969   0.532  1.00  0.00     0.040 C 
ENDBRANCH   6   8
ENDBRANCH   3   6
BRANCH   1  21
HETATM   21  C4  UNL     1      -8.523  30.107   5.195  1.00  0.00     0.141 C 
BRANCH  21  22
HETATM   22  C3  UNL     1      -7.522  29.185   5.853  1.00  0.00     0.135 C 
BRANCH  22  23
HETATM   23  N1  UNL     1      -6.236  29.164   5.258  1.00  0.00    -0.419 N 
HETATM   24  C1  UNL     1      -5.955  28.064   4.400  1.00  0.00     0.142 C 
HETATM   25  C2  UNL     1      -5.154  29.614   6.066  1.00  0.00     0.142 C 
ENDBRANCH  22  23
ENDBRANCH  21  22
ENDBRANCH   1  21
TORSDOF 5
ENDMDL
MODEL 5
REMARK VINA RESULT: -7.026259929      2.783      6.827
REMARK  5 active torsions:
REMARK  status: ('A' for Active; 'I' for Inactive)
REMARK    1  A    between atoms: N1_2  and  C3_4 
REMARK    2  A    between atoms: C3_4  and  C4_5 
REMARK    3  A    between atoms: C4_5  and  N2_6 
REMARK    4  A    between atoms: C5_8  and  N4_11 
REMARK    5  A    between atoms: N4_11  and  C7_13 
ROOT
HETATM    1  N2  UNL     1      -9.772  29.255   4.503  1.00  0.00    -0.366 N 
ATOM      2  H2  UNL     1     -10.398  28.561   4.915  1.00  0.00     0.161 HD
HETATM    3  C5  UNL     1      -9.660  29.345   3.195  1.00  0.00     0.180 C 
HETATM    4  C6  UNL     1      -8.770  30.333   2.673  1.00  0.00     0.136 C 
HETATM    5  N3  UNL     1      -8.038  31.143   2.274  1.00  0.00    -0.188 NA
ENDROOT
BRANCH   3   6
HETATM    6  N4  UNL     1     -10.439  28.460   2.416  1.00  0.00    -0.358 N 
ATOM      7  H4  UNL     1     -11.390  28.743   2.181  1.00  0.00     0.162 HD
BRANCH   6   8
HETATM    8  C7  UNL     1      -9.982  27.195   1.935  1.00  0.00     0.034 C 
HETATM    9  C8  UNL     1     -10.431  26.147   2.909  1.00  0.00     0.040 C 
HETATM   10  C9  UNL     1     -10.080  24.749   2.424  1.00  0.00    -0.040 C 
HETATM   11  C10 UNL     1     -10.712  23.773   3.387  1.00  0.00     0.015 C 
HETATM   12  C11 UNL     1     -10.654  24.598   1.041  1.00  0.00     0.018 C 
HETATM   13  C17 UNL     1      -8.568  24.667   2.441  1.00  0.00     0.018 C 
HETATM   14  C12 UNL     1      -9.988  25.545   0.101  1.00  0.00    -0.040 C 
HETATM   15  C13 UNL     1     -10.513  25.367  -1.311  1.00  0.00     0.015 C 
HETATM   16  C14 UNL     1      -8.477  25.450   0.141  1.00  0.00     0.018 C 
HETATM   17  C19 UNL     1     -10.346  26.971   0.518  1.00  0.00     0.040 C 
HETATM   18  C15 UNL     1      -8.042  25.759   1.556  1.00  0.00    -0.040 C 
HETATM   19  C16 UNL     1      -6.511  25.674   1.634  1.00  0.00     0.015 C 
HETATM   20  C18 UNL     1      -8.434  27.141   1.978  1.00  0.00     0.040 C 
ENDBRANCH   6   8
ENDBRANCH   3   6
BRANCH   1  21
HETATM   21  C4  UNL     1      -9.009  30.139   5.360  1.00  0.00     0.141 C 
BRANCH  21  22
HETATM   22  C3  UNL     1      -8.009  29.269   6.086  1.00  0.00     0.135 C 
BRANCH  22  23
HETATM   23  N1  UNL     1      -6.662  29.423   5.677  1.00  0.00    -0.419 N 
HETATM   24  C1  UNL     1      -6.198  30.758   5.517  1.00  0.00     0.142 C 
HETATM   25  C2  UNL     1      -6.172  28.478   4.732  1.00  0.00     0.142 C 
ENDBRANCH  22  23
ENDBRANCH  21  22
ENDBRANCH   1  21
TORSDOF 5
ENDMDL
