MODEL 1
REMARK VINA RESULT: -6.699727421      0.000      0.000
REMARK  5 active torsions:
REMARK  status: ('A' for Active; 'I' for Inactive)
REMARK    1  A    between atoms: C2_2  and  C14_18 
REMARK    2  A    between atoms: C3_3  and  C4_4 
REMARK    3  A    between atoms: C4_4  and  C7_7 
REMARK    4  A    between atoms: C7_7  and  C9_9 
REMARK    5  A    between atoms: C7_7  and  N1_12 
ROOT
HETATM    1  C7  UNL     1      -9.171  26.190   1.573  1.00  0.00     0.130 C 
HETATM    2  C8  UNL     1      -7.970  25.381   0.894  1.00  0.00     0.052 C 
ENDROOT
BRANCH   1   3
HETATM    3  C4  UNL     1      -9.798  25.166   2.461  1.00  0.00     0.006 C 
HETATM    4  C5  UNL     1     -10.630  24.176   1.542  1.00  0.00     0.022 C 
HETATM    5  C6  UNL     1      -8.769  24.253   3.049  1.00  0.00     0.022 C 
BRANCH   3   6
HETATM    6  C3  UNL     1     -10.803  25.632   3.408  1.00  0.00    -0.012 C 
HETATM    7  C2  UNL     1     -11.669  25.021   4.174  1.00  0.00    -0.079 C 
HETATM    8  C1  UNL     1     -11.910  23.564   4.325  1.00  0.00     0.044 C 
BRANCH   7   9
HETATM    9  C14 UNL     1     -12.619  25.829   5.065  1.00  0.00    -0.029 C 
HETATM   10  C15 UNL     1     -12.468  27.293   4.898  1.00  0.00     0.019 C 
HETATM   11  C16 UNL     1     -12.361  25.497   6.523  1.00  0.00     0.019 C 
HETATM   12  C17 UNL     1     -14.002  25.304   4.737  1.00  0.00     0.019 C 
ENDBRANCH   7   9
ENDBRANCH   3   6
ENDBRANCH   1   3
BRANCH   1  13
HETATM   13  C9  UNL     1      -9.910  26.514   0.328  1.00  0.00     0.203 C 
HETATM   14  O1  UNL     1     -10.836  27.288   0.137  1.00  0.00    -0.646 OA
HETATM   15  O2  UNL     1      -9.498  25.816  -0.835  1.00  0.00    -0.646 OA
ENDBRANCH   1  13
BRANCH   1  16
HETATM   16  N1  UNL     1      -8.584  27.344   2.161  1.00  0.00    -0.352 N 
HETATM   17  C10 UNL     1      -9.189  28.010   3.192  1.00  0.00     0.074 C 
HETATM   18  C11 UNL     1      -9.351  29.504   3.172  1.00  0.00     0.118 C 
HETATM   19  S1  UNL     1      -7.842  30.338   2.623  1.00  0.00    -0.159 SA
HETATM   20  C12 UNL     1      -7.061  29.215   1.454  1.00  0.00     0.118 C 
HETATM   21  C13 UNL     1      -7.333  27.757   1.725  1.00  0.00     0.074 C 
ENDBRANCH   1  16
TORSDOF 5
ENDMDL
MODEL 2
REMARK VINA RESULT: -6.600707198      0.686      1.319
REMARK  5 active torsions:
REMARK  status: ('A' for Active; 'I' for Inactive)
REMARK    1  A    between atoms: C2_2  and  C14_18 
REMARK    2  A    between atoms: C3_3  and  C4_4 
REMARK    3  A    between atoms: C4_4  and  C7_7 
REMARK    4  A    between atoms: C7_7  and  C9_9 
REMARK    5  A    between atoms: C7_7  and  N1_12 
ROOT
HETATM    1  C7  UNL     1      -9.136  26.175   1.492  1.00  0.00     0.130 C 
HETATM    2  C8  UNL     1      -7.997  25.311   0.776  1.00  0.00     0.052 C 
ENDROOT
BRANCH   1   3
HETATM    3  C4  UNL     1      -9.775  25.185   2.410  1.00  0.00     0.006 C 
HETATM    4  C5  UNL     1     -10.644  24.198   1.522  1.00  0.00     0.022 C 
HETATM    5  C6  UNL     1      -8.759  24.258   3.001  1.00  0.00     0.022 C 
BRANCH   3   6
HETATM    6  C3  UNL     1     -10.754  25.694   3.362  1.00  0.00    -0.012 C 
HETATM    7  C2  UNL     1     -11.606  25.119   4.170  1.00  0.00    -0.079 C 
HETATM    8  C1  UNL     1     -11.854  23.670   4.380  1.00  0.00     0.044 C 
BRANCH   7   9
HETATM    9  C14 UNL     1     -12.529  25.966   5.052  1.00  0.00    -0.029 C 
HETATM   10  C15 UNL     1     -12.379  27.422   4.819  1.00  0.00     0.019 C 
HETATM   11  C16 UNL     1     -12.231  25.696   6.515  1.00  0.00     0.019 C 
HETATM   12  C17 UNL     1     -13.921  25.433   4.785  1.00  0.00     0.019 C 
ENDBRANCH   7   9
ENDBRANCH   3   6
ENDBRANCH   1   3
BRANCH   1  13
HETATM   13  C9  UNL     1      -9.905  26.526   0.274  1.00  0.00     0.203 C 
HETATM   14  O1  UNL     1     -10.854  27.282   0.127  1.00  0.00    -0.646 OA
HETATM   15  O2  UNL     1      -9.496  25.882  -0.922  1.00  0.00    -0.646 OA
ENDBRANCH   1  13
BRANCH   1  16
HETATM   16  N1  UNL     1      -8.478  27.305   2.052  1.00  0.00    -0.352 N 
HETATM   17  C10 UNL     1      -7.115  27.424   2.032  1.00  0.00     0.074 C 
HETATM   18  C11 UNL     1      -6.343  27.795   3.267  1.00  0.00     0.118 C 
HETATM   19  S1  UNL     1      -7.125  29.154   4.169  1.00  0.00    -0.159 SA
HETATM   20  C12 UNL     1      -8.893  28.973   3.886  1.00  0.00     0.118 C 
HETATM   21  C13 UNL     1      -9.244  28.344   2.562  1.00  0.00     0.074 C 
ENDBRANCH   1  16
TORSDOF 5
ENDMDL
MODEL 3
REMARK VINA RESULT: -6.544539244      1.985      2.643
REMARK  5 active torsions:
REMARK  status: ('A' for Active; 'I' for Inactive)
REMARK    1  A    between atoms: C2_2  and  C14_18 
REMARK    2  A    between atoms: C3_3  and  C4_4 
REMARK    3  A    between atoms: C4_4  and  C7_7 
REMARK    4  A    between atoms: C7_7  and  C9_9 
REMARK    5  A    between atoms: C7_7  and  N1_12 
ROOT
HETATM    1  C7  UNL     1      -8.767  26.707   2.575  1.00  0.00     0.130 C 
HETATM    2  C8  UNL     1      -7.892  26.338   1.287  1.00  0.00     0.052 C 
ENDROOT
BRANCH   1   3
HETATM    3  C4  UNL     1      -9.612  25.490   2.758  1.00  0.00     0.006 C 
HETATM    4  C5  UNL     1     -10.305  25.170   1.368  1.00  0.00     0.022 C 
HETATM    5  C6  UNL     1      -8.772  24.271   2.974  1.00  0.00     0.022 C 
BRANCH   3   6
HETATM    6  C3  UNL     1     -10.755  25.602   3.658  1.00  0.00    -0.012 C 
HETATM    7  C2  UNL     1     -11.699  24.774   4.020  1.00  0.00    -0.079 C 
HETATM    8  C1  UNL     1     -11.912  23.367   3.598  1.00  0.00     0.044 C 
BRANCH   7   9
HETATM    9  C14 UNL     1     -12.789  25.223   4.999  1.00  0.00    -0.029 C 
HETATM   10  C15 UNL     1     -14.146  24.779   4.601  1.00  0.00     0.019 C 
HETATM   11  C16 UNL     1     -12.802  26.736   5.093  1.00  0.00     0.019 C 
HETATM   12  C17 UNL     1     -12.337  24.706   6.350  1.00  0.00     0.019 C 
ENDBRANCH   7   9
ENDBRANCH   3   6
ENDBRANCH   1   3
BRANCH   1  13
HETATM   13  C9  UNL     1      -9.450  27.896   2.008  1.00  0.00     0.203 C 
HETATM   14  O1  UNL     1     -10.524  28.403   2.294  1.00  0.00    -0.646 OA
HETATM   15  O2  UNL     1      -8.767  28.557   0.955  1.00  0.00    -0.646 OA
ENDBRANCH   1  13
BRANCH   1  16
HETATM   16  N1  UNL     1      -7.839  27.060   3.593  1.00  0.00    -0.352 N 
HETATM   17  C10 UNL     1      -6.507  26.765   3.483  1.00  0.00     0.074 C 
HETATM   18  C11 UNL     1      -5.753  26.116   4.609  1.00  0.00     0.118 C 
HETATM   19  S1  UNL     1      -6.148  26.867   6.206  1.00  0.00    -0.159 SA
HETATM   20  C12 UNL     1      -7.860  27.405   6.083  1.00  0.00     0.118 C 
HETATM   21  C13 UNL     1      -8.287  27.785   4.688  1.00  0.00     0.074 C 
ENDBRANCH   1  16
TORSDOF 5
ENDMDL
MODEL 4
REMARK VINA RESULT: -6.506501226      1.414      1.706
REMARK  5 active torsions:
REMARK  status: ('A' for Active; 'I' for Inactive)
REMARK    1  A    between atoms: C2_2  and  C14_18 
REMARK    2  A    between atoms: C3_3  and  C4_4 
REMARK    3  A    between atoms: C4_4  and  C7_7 
REMARK    4  A    between atoms: C7_7  and  C9_9 
REMARK    5  A    between atoms: C7_7  and  N1_12 
ROOT
HETATM    1  C7  UNL     1      -9.117  26.196   2.367  1.00  0.00     0.130 C 
HETATM    2  C8  UNL     1      -8.283  25.576   1.151  1.00  0.00     0.052 C 
ENDROOT
BRANCH   1   3
HETATM    3  C4  UNL     1      -9.997  25.060   2.776  1.00  0.00     0.006 C 
HETATM    4  C5  UNL     1     -10.709  24.509   1.471  1.00  0.00     0.022 C 
HETATM    5  C6  UNL     1      -9.190  23.878   3.213  1.00  0.00     0.022 C 
BRANCH   3   6
HETATM    6  C3  UNL     1     -11.128  25.373   3.642  1.00  0.00    -0.012 C 
HETATM    7  C2  UNL     1     -12.056  24.645   4.206  1.00  0.00    -0.079 C 
HETATM    8  C1  UNL     1     -12.256  23.176   4.134  1.00  0.00     0.044 C 
BRANCH   7   9
HETATM    9  C14 UNL     1     -13.138  25.304   5.068  1.00  0.00    -0.029 C 
HETATM   10  C15 UNL     1     -14.511  25.048   4.572  1.00  0.00     0.019 C 
HETATM   11  C16 UNL     1     -12.926  26.805   5.098  1.00  0.00     0.019 C 
HETATM   12  C17 UNL     1     -12.880  24.799   6.472  1.00  0.00     0.019 C 
ENDBRANCH   7   9
ENDBRANCH   3   6
ENDBRANCH   1   3
BRANCH   1  13
HETATM   13  C9  UNL     1      -9.773  27.290   1.611  1.00  0.00     0.203 C 
HETATM   14  O1  UNL     1     -10.480  28.208   1.999  1.00  0.00    -0.646 OA
HETATM   15  O2  UNL     1      -9.570  27.279   0.207  1.00  0.00    -0.646 OA
ENDBRANCH   1  13
BRANCH   1  16
HETATM   16  N1  UNL     1      -8.156  26.689   3.292  1.00  0.00    -0.352 N 
HETATM   17  C10 UNL     1      -8.501  27.032   4.571  1.00  0.00     0.074 C 
HETATM   18  C11 UNL     1      -8.070  28.338   5.176  1.00  0.00     0.118 C 
HETATM   19  S1  UNL     1      -6.334  28.703   4.825  1.00  0.00    -0.159 SA
HETATM   20  C12 UNL     1      -5.997  27.975   3.215  1.00  0.00     0.118 C 
HETATM   21  C13 UNL     1      -6.824  26.753   2.906  1.00  0.00     0.074 C 
ENDBRANCH   1  16
TORSDOF 5
ENDMDL
MODEL 5
REMARK VINA RESULT: -6.391011870      2.217      2.998
REMARK  5 active torsions:
REMARK  status: ('A' for Active; 'I' for Inactive)
REMARK    1  A    between atoms: C2_2  and  C14_18 
REMARK    2  A    between atoms: C3_3  and  C4_4 
REMARK    3  A    between atoms: C4_4  and  C7_7 
REMARK    4  A    between atoms: C7_7  and  C9_9 
REMARK    5  A    between atoms: C7_7  and  N1_12 
ROOT
HETATM    1  C7  UNL     1      -7.678  27.493   2.186  1.00  0.00     0.130 C 
HETATM    2  C8  UNL     1      -6.359  26.953   1.460  1.00  0.00     0.052 C 
ENDROOT
BRANCH   1   3
HETATM    3  C4  UNL     1      -8.708  26.487   1.788  1.00  0.00     0.006 C 
HETATM    4  C5  UNL     1      -9.686  27.184   0.751  1.00  0.00     0.022 C 
HETATM    5  C6  UNL     1      -8.109  25.393   0.962  1.00  0.00     0.022 C 
BRANCH   3   6
HETATM    6  C3  UNL     1      -9.626  26.029   2.824  1.00  0.00    -0.012 C 
HETATM    7  C2  UNL     1     -10.483  25.044   2.894  1.00  0.00    -0.079 C 
HETATM    8  C1  UNL     1     -10.807  24.020   1.869  1.00  0.00     0.044 C 
BRANCH   7   9
HETATM    9  C14 UNL     1     -11.327  24.841   4.157  1.00  0.00    -0.029 C 
HETATM   10  C15 UNL     1     -12.250  23.685   4.059  1.00  0.00     0.019 C 
HETATM   11  C16 UNL     1     -12.159  26.081   4.423  1.00  0.00     0.019 C 
HETATM   12  C17 UNL     1     -10.321  24.740   5.286  1.00  0.00     0.019 C 
ENDBRANCH   7   9
ENDBRANCH   3   6
ENDBRANCH   1   3
BRANCH   1  13
HETATM   13  C9  UNL     1      -7.750  28.806   1.500  1.00  0.00     0.203 C 
HETATM   14  O1  UNL     1      -8.691  29.571   1.351  1.00  0.00    -0.646 OA
HETATM   15  O2  UNL     1      -6.545  29.260   0.906  1.00  0.00    -0.646 OA
ENDBRANCH   1  13
BRANCH   1  16
HETATM   16  N1  UNL     1      -7.343  27.627   3.562  1.00  0.00    -0.352 N 
HETATM   17  C10 UNL     1      -7.883  28.615   4.338  1.00  0.00     0.074 C 
HETATM   18  C11 UNL     1      -7.024  29.475   5.221  1.00  0.00     0.118 C 
HETATM   19  S1  UNL     1      -5.798  28.500   6.126  1.00  0.00    -0.159 SA
HETATM   20  C12 UNL     1      -5.382  27.119   5.050  1.00  0.00     0.118 C 
HETATM   21  C13 UNL     1      -6.505  26.686   4.143  1.00  0.00     0.074 C 
ENDBRANCH   1  16
TORSDOF 5
ENDMDL
