MODEL 1
REMARK VINA RESULT: -7.335725271      0.000      0.000
REMARK  7 active torsions:
REMARK  status: ('A' for Active; 'I' for Inactive)
REMARK    1  A    between atoms: C2_2  and  C3_3 
REMARK    2  A    between atoms: C3_3  and  C4_4 
REMARK    3  A    between atoms: C4_4  and  C5_5 
REMARK    4  A    between atoms: C8_10  and  C9_11 
REMARK    5  A    between atoms: C9_11  and  N1_12 
REMARK    6  A    between atoms: C16_19  and  C18_21 
REMARK    7  A    between atoms: C18_21  and  C19_23 
ROOT
HETATM    1  C5  UNL     1      22.467  28.900   7.016  1.00  0.00     0.060 C 
HETATM    2  C6  UNL     1      21.697  27.975   6.137  1.00  0.00     0.209 C 
HETATM    3  O1  UNL     1      21.122  26.901   6.278  1.00  0.00    -0.288 OA
HETATM    4  C7  UNL     1      21.739  28.675   4.824  1.00  0.00     0.205 C 
HETATM    5  O2  UNL     1      20.891  28.728   3.916  1.00  0.00    -0.288 OA
HETATM    6  C8  UNL     1      23.077  29.351   4.779  1.00  0.00     0.121 C 
HETATM    7  C12 UNL     1      23.663  28.978   6.094  1.00  0.00    -0.053 C 
HETATM    8  C13 UNL     1      24.850  28.719   6.533  1.00  0.00    -0.021 C 
HETATM    9  C14 UNL     1      25.185  28.329   7.932  1.00  0.00     0.034 C 
HETATM   10  C15 UNL     1      23.990  27.525   8.515  1.00  0.00     0.014 C 
HETATM   11  C16 UNL     1      24.430  27.178   9.868  1.00  0.00     0.021 C 
HETATM   12  C17 UNL     1      23.485  26.466  10.802  1.00  0.00     0.024 C 
HETATM   13  C21 UNL     1      24.837  28.439  10.572  1.00  0.00     0.017 C 
HETATM   14  C22 UNL     1      23.685  29.360  10.568  1.00  0.00     0.002 C 
HETATM   15  C23 UNL     1      22.988  29.645   9.278  1.00  0.00     0.011 C 
HETATM   16  C24 UNL     1      22.765  28.432   8.392  1.00  0.00    -0.020 C 
HETATM   17  C25 UNL     1      21.580  27.667   8.898  1.00  0.00     0.017 C 
ENDROOT
BRANCH  11  18
HETATM   18  C18 UNL     1      25.578  26.183   9.754  1.00  0.00     0.135 C 
HETATM   19  O3  UNL     1      25.527  25.340   8.903  1.00  0.00    -0.297 OA
BRANCH  18  20
HETATM   20  C19 UNL     1      26.730  26.259  10.689  1.00  0.00     0.074 C 
HETATM   21  C20 UNL     1      28.027  26.640  10.045  1.00  0.00     0.013 C 
ENDBRANCH  18  20
ENDBRANCH  11  18
BRANCH   1  22
HETATM   22  C4  UNL     1      21.725  30.191   7.015  1.00  0.00     0.027 C 
BRANCH  22  23
HETATM   23  C3  UNL     1      22.445  31.474   7.059  1.00  0.00     0.028 C 
BRANCH  23  24
HETATM   24  C2  UNL     1      21.644  32.517   6.305  1.00  0.00    -0.037 C 
HETATM   25  C1  UNL     1      20.612  32.228   5.535  1.00  0.00     0.007 C 
ENDBRANCH  23  24
ENDBRANCH  22  23
ENDBRANCH   1  22
BRANCH   6  26
HETATM   26  C9  UNL     1      23.910  28.762   3.639  1.00  0.00     0.288 C 
BRANCH  26  27
HETATM   27  N1  UNL     1      23.172  29.026   2.421  1.00  0.00     0.081 N 
HETATM   28  C10 UNL     1      23.412  30.361   1.964  1.00  0.00     0.309 C 
HETATM   29  C11 UNL     1      23.604  28.087   1.371  1.00  0.00     0.309 C 
ENDBRANCH  26  27
ENDBRANCH   6  26
TORSDOF 7
ENDMDL
MODEL 2
REMARK VINA RESULT: -7.319911464      2.295      6.071
REMARK  7 active torsions:
REMARK  status: ('A' for Active; 'I' for Inactive)
REMARK    1  A    between atoms: C2_2  and  C3_3 
REMARK    2  A    between atoms: C3_3  and  C4_4 
REMARK    3  A    between atoms: C4_4  and  C5_5 
REMARK    4  A    between atoms: C8_10  and  C9_11 
REMARK    5  A    between atoms: C9_11  and  N1_12 
REMARK    6  A    between atoms: C16_19  and  C18_21 
REMARK    7  A    between atoms: C18_21  and  C19_23 
ROOT
HETATM    1  C5  UNL     1      24.348  28.655   8.152  1.00  0.00     0.060 C 
HETATM    2  C6  UNL     1      25.727  28.123   7.955  1.00  0.00     0.209 C 
HETATM    3  O1  UNL     1      26.734  28.488   7.360  1.00  0.00    -0.288 OA
HETATM    4  C7  UNL     1      25.690  26.850   8.726  1.00  0.00     0.205 C 
HETATM    5  O2  UNL     1      26.582  26.284   9.381  1.00  0.00    -0.288 OA
HETATM    6  C8  UNL     1      24.293  26.330   8.563  1.00  0.00     0.121 C 
HETATM    7  C12 UNL     1      23.661  27.379   7.720  1.00  0.00    -0.053 C 
HETATM    8  C13 UNL     1      22.765  27.397   6.789  1.00  0.00    -0.021 C 
HETATM    9  C14 UNL     1      22.311  28.611   6.054  1.00  0.00     0.034 C 
HETATM   10  C15 UNL     1      23.510  29.594   5.945  1.00  0.00     0.014 C 
HETATM   11  C16 UNL     1      22.965  30.727   5.195  1.00  0.00     0.021 C 
HETATM   12  C17 UNL     1      23.814  31.951   4.968  1.00  0.00     0.024 C 
HETATM   13  C21 UNL     1      21.727  31.207   5.895  1.00  0.00     0.017 C 
HETATM   14  C22 UNL     1      22.091  31.563   7.280  1.00  0.00     0.002 C 
HETATM   15  C23 UNL     1      22.850  30.577   8.107  1.00  0.00     0.011 C 
HETATM   16  C24 UNL     1      23.973  29.863   7.376  1.00  0.00    -0.020 C 
HETATM   17  C25 UNL     1      25.166  30.768   7.306  1.00  0.00     0.017 C 
ENDROOT
BRANCH  11  18
HETATM   18  C18 UNL     1      22.681  30.265   3.771  1.00  0.00     0.135 C 
HETATM   19  O3  UNL     1      21.589  30.449   3.313  1.00  0.00    -0.297 OA
BRANCH  18  20
HETATM   20  C19 UNL     1      23.742  29.594   2.978  1.00  0.00     0.074 C 
HETATM   21  C20 UNL     1      23.280  28.389   2.217  1.00  0.00     0.013 C 
ENDBRANCH  18  20
ENDBRANCH  11  18
BRANCH   1  22
HETATM   22  C4  UNL     1      24.186  28.862   9.618  1.00  0.00     0.027 C 
BRANCH  22  23
HETATM   23  C3  UNL     1      22.896  28.604  10.277  1.00  0.00     0.028 C 
BRANCH  23  24
HETATM   24  C2  UNL     1      22.851  29.360  11.590  1.00  0.00    -0.037 C 
HETATM   25  C1  UNL     1      22.016  30.354  11.831  1.00  0.00     0.007 C 
ENDBRANCH  23  24
ENDBRANCH  22  23
ENDBRANCH   1  22
BRANCH   6  26
HETATM   26  C9  UNL     1      24.328  24.995   7.815  1.00  0.00     0.288 C 
BRANCH  26  27
HETATM   27  N1  UNL     1      23.376  24.132   8.483  1.00  0.00     0.081 N 
HETATM   28  C10 UNL     1      22.697  24.841   9.526  1.00  0.00     0.309 C 
HETATM   29  C11 UNL     1      22.376  23.658   7.512  1.00  0.00     0.309 C 
ENDBRANCH  26  27
ENDBRANCH   6  26
TORSDOF 7
ENDMDL
MODEL 3
REMARK VINA RESULT: -7.227853141      2.290      6.242
REMARK  7 active torsions:
REMARK  status: ('A' for Active; 'I' for Inactive)
REMARK    1  A    between atoms: C2_2  and  C3_3 
REMARK    2  A    between atoms: C3_3  and  C4_4 
REMARK    3  A    between atoms: C4_4  and  C5_5 
REMARK    4  A    between atoms: C8_10  and  C9_11 
REMARK    5  A    between atoms: C9_11  and  N1_12 
REMARK    6  A    between atoms: C16_19  and  C18_21 
REMARK    7  A    between atoms: C18_21  and  C19_23 
ROOT
HETATM    1  C5  UNL     1      24.360  29.007   7.940  1.00  0.00     0.060 C 
HETATM    2  C6  UNL     1      25.736  28.493   7.693  1.00  0.00     0.209 C 
HETATM    3  O1  UNL     1      26.712  28.862   7.050  1.00  0.00    -0.288 OA
HETATM    4  C7  UNL     1      25.752  27.233   8.486  1.00  0.00     0.205 C 
HETATM    5  O2  UNL     1      26.680  26.692   9.112  1.00  0.00    -0.288 OA
HETATM    6  C8  UNL     1      24.358  26.689   8.392  1.00  0.00     0.121 C 
HETATM    7  C12 UNL     1      23.675  27.714   7.558  1.00  0.00    -0.053 C 
HETATM    8  C13 UNL     1      22.740  27.702   6.666  1.00  0.00    -0.021 C 
HETATM    9  C14 UNL     1      22.237  28.897   5.931  1.00  0.00     0.034 C 
HETATM   10  C15 UNL     1      23.414  29.895   5.755  1.00  0.00     0.014 C 
HETATM   11  C16 UNL     1      22.820  31.007   5.010  1.00  0.00     0.021 C 
HETATM   12  C17 UNL     1      23.640  32.240   4.726  1.00  0.00     0.024 C 
HETATM   13  C21 UNL     1      21.606  31.480   5.754  1.00  0.00     0.017 C 
HETATM   14  C22 UNL     1      22.022  31.865   7.116  1.00  0.00     0.002 C 
HETATM   15  C23 UNL     1      22.831  30.906   7.927  1.00  0.00     0.011 C 
HETATM   16  C24 UNL     1      23.933  30.196   7.161  1.00  0.00    -0.020 C 
HETATM   17  C25 UNL     1      25.108  31.118   7.025  1.00  0.00     0.017 C 
ENDROOT
BRANCH  11  18
HETATM   18  C18 UNL     1      22.484  30.516   3.608  1.00  0.00     0.135 C 
HETATM   19  O3  UNL     1      21.357  30.623   3.215  1.00  0.00    -0.297 OA
BRANCH  18  20
HETATM   20  C19 UNL     1      23.538  29.911   2.755  1.00  0.00     0.074 C 
HETATM   21  C20 UNL     1      23.247  28.512   2.305  1.00  0.00     0.013 C 
ENDBRANCH  18  20
ENDBRANCH  11  18
BRANCH   1  22
HETATM   22  C4  UNL     1      24.256  29.237   9.408  1.00  0.00     0.027 C 
BRANCH  22  23
HETATM   23  C3  UNL     1      25.339  29.906  10.145  1.00  0.00     0.028 C 
BRANCH  23  24
HETATM   24  C2  UNL     1      25.423  29.322  11.541  1.00  0.00    -0.037 C 
HETATM   25  C1  UNL     1      24.734  28.266  11.932  1.00  0.00     0.007 C 
ENDBRANCH  23  24
ENDBRANCH  22  23
ENDBRANCH   1  22
BRANCH   6  26
HETATM   26  C9  UNL     1      24.382  25.342   7.665  1.00  0.00     0.288 C 
BRANCH  26  27
HETATM   27  N1  UNL     1      23.591  24.435   8.469  1.00  0.00     0.081 N 
HETATM   28  C10 UNL     1      22.919  25.143   9.517  1.00  0.00     0.309 C 
HETATM   29  C11 UNL     1      22.578  23.783   7.621  1.00  0.00     0.309 C 
ENDBRANCH  26  27
ENDBRANCH   6  26
TORSDOF 7
ENDMDL
MODEL 4
REMARK VINA RESULT: -6.889006115      2.345      4.194
REMARK  7 active torsions:
REMARK  status: ('A' for Active; 'I' for Inactive)
REMARK    1  A    between atoms: C2_2  and  C3_3 
REMARK    2  A    between atoms: C3_3  and  C4_4 
REMARK    3  A    between atoms: C4_4  and  C5_5 
REMARK    4  A    between atoms: C8_10  and  C9_11 
REMARK    5  A    between atoms: C9_11  and  N1_12 
REMARK    6  A    between atoms: C16_19  and  C18_21 
REMARK    7  A    between atoms: C18_21  and  C19_23 
ROOT
HETATM    1  C5  UNL     1      23.570  29.424   6.737  1.00  0.00     0.060 C 
HETATM    2  C6  UNL     1      24.602  30.482   6.544  1.00  0.00     0.209 C 
HETATM    3  O1  UNL     1      25.812  30.574   6.719  1.00  0.00    -0.288 OA
HETATM    4  C7  UNL     1      23.799  31.618   6.012  1.00  0.00     0.205 C 
HETATM    5  O2  UNL     1      24.102  32.496   5.186  1.00  0.00    -0.288 OA
HETATM    6  C8  UNL     1      22.468  31.513   6.694  1.00  0.00     0.121 C 
HETATM    7  C12 UNL     1      22.642  30.305   7.543  1.00  0.00    -0.053 C 
HETATM    8  C13 UNL     1      22.219  29.926   8.704  1.00  0.00    -0.021 C 
HETATM    9  C14 UNL     1      22.570  28.641   9.371  1.00  0.00     0.034 C 
HETATM   10  C15 UNL     1      24.011  28.245   8.944  1.00  0.00     0.014 C 
HETATM   11  C16 UNL     1      24.257  26.995   9.666  1.00  0.00     0.021 C 
HETATM   12  C17 UNL     1      25.538  26.236   9.430  1.00  0.00     0.024 C 
HETATM   13  C21 UNL     1      23.145  26.038   9.350  1.00  0.00     0.017 C 
HETATM   14  C22 UNL     1      23.100  25.852   7.888  1.00  0.00     0.002 C 
HETATM   15  C23 UNL     1      23.065  27.055   7.003  1.00  0.00     0.011 C 
HETATM   16  C24 UNL     1      24.000  28.178   7.417  1.00  0.00    -0.020 C 
HETATM   17  C25 UNL     1      25.391  27.849   6.966  1.00  0.00     0.017 C 
ENDROOT
BRANCH  11  18
HETATM   18  C18 UNL     1      24.343  27.313  11.153  1.00  0.00     0.135 C 
HETATM   19  O3  UNL     1      23.754  26.611  11.926  1.00  0.00    -0.297 OA
BRANCH  18  20
HETATM   20  C19 UNL     1      25.136  28.476  11.626  1.00  0.00     0.074 C 
HETATM   21  C20 UNL     1      24.342  29.512  12.361  1.00  0.00     0.013 C 
ENDBRANCH  18  20
ENDBRANCH  11  18
BRANCH   1  22
HETATM   22  C4  UNL     1      22.991  29.155   5.392  1.00  0.00     0.027 C 
BRANCH  22  23
HETATM   23  C3  UNL     1      23.851  29.100   4.198  1.00  0.00     0.028 C 
BRANCH  23  24
HETATM   24  C2  UNL     1      23.015  28.680   3.005  1.00  0.00    -0.037 C 
HETATM   25  C1  UNL     1      23.532  28.275   1.860  1.00  0.00     0.007 C 
ENDBRANCH  23  24
ENDBRANCH  22  23
ENDBRANCH   1  22
BRANCH   6  26
HETATM   26  C9  UNL     1      22.242  32.750   7.567  1.00  0.00     0.288 C 
BRANCH  26  27
HETATM   27  N1  UNL     1      21.132  33.466   6.974  1.00  0.00     0.081 N 
HETATM   28  C10 UNL     1      21.568  34.720   6.438  1.00  0.00     0.309 C 
HETATM   29  C11 UNL     1      20.558  32.664   5.880  1.00  0.00     0.309 C 
ENDBRANCH  26  27
ENDBRANCH   6  26
TORSDOF 7
ENDMDL
MODEL 5
REMARK VINA RESULT: -6.797444996      3.708      6.406
REMARK  7 active torsions:
REMARK  status: ('A' for Active; 'I' for Inactive)
REMARK    1  A    between atoms: C2_2  and  C3_3 
REMARK    2  A    between atoms: C3_3  and  C4_4 
REMARK    3  A    between atoms: C4_4  and  C5_5 
REMARK    4  A    between atoms: C8_10  and  C9_11 
REMARK    5  A    between atoms: C9_11  and  N1_12 
REMARK    6  A    between atoms: C16_19  and  C18_21 
REMARK    7  A    between atoms: C18_21  and  C19_23 
ROOT
HETATM    1  C5  UNL     1      25.045  29.304  10.116  1.00  0.00     0.060 C 
HETATM    2  C6  UNL     1      25.357  29.689   8.710  1.00  0.00     0.209 C 
HETATM    3  O1  UNL     1      25.482  30.740   8.092  1.00  0.00    -0.288 OA
HETATM    4  C7  UNL     1      25.522  28.366   8.047  1.00  0.00     0.205 C 
HETATM    5  O2  UNL     1      26.281  28.021   7.125  1.00  0.00    -0.288 OA
HETATM    6  C8  UNL     1      24.546  27.457   8.731  1.00  0.00     0.121 C 
HETATM    7  C12 UNL     1      23.927  28.359   9.739  1.00  0.00    -0.053 C 
HETATM    8  C13 UNL     1      22.754  28.483  10.266  1.00  0.00    -0.021 C 
HETATM    9  C14 UNL     1      22.364  29.518  11.265  1.00  0.00     0.034 C 
HETATM   10  C15 UNL     1      23.186  30.805  10.981  1.00  0.00     0.014 C 
HETATM   11  C16 UNL     1      22.713  31.752  11.993  1.00  0.00     0.021 C 
HETATM   12  C17 UNL     1      23.357  33.110  12.106  1.00  0.00     0.024 C 
HETATM   13  C21 UNL     1      22.856  31.112  13.343  1.00  0.00     0.017 C 
HETATM   14  C22 UNL     1      24.271  30.741  13.529  1.00  0.00     0.002 C 
HETATM   15  C23 UNL     1      24.961  29.951  12.464  1.00  0.00     0.011 C 
HETATM   16  C24 UNL     1      24.657  30.395  11.044  1.00  0.00    -0.020 C 
HETATM   17  C25 UNL     1      25.482  31.604  10.722  1.00  0.00     0.017 C 
ENDROOT
BRANCH  11  18
HETATM   18  C18 UNL     1      21.267  32.109  11.672  1.00  0.00     0.135 C 
HETATM   19  O3  UNL     1      21.028  32.663  10.636  1.00  0.00    -0.297 OA
BRANCH  18  20
HETATM   20  C19 UNL     1      20.184  31.780  12.634  1.00  0.00     0.074 C 
HETATM   21  C20 UNL     1      19.538  32.970  13.272  1.00  0.00     0.013 C 
ENDBRANCH  18  20
ENDBRANCH  11  18
BRANCH   1  22
HETATM   22  C4  UNL     1      26.224  28.542  10.613  1.00  0.00     0.027 C 
BRANCH  22  23
HETATM   23  C3  UNL     1      27.593  28.994  10.317  1.00  0.00     0.028 C 
BRANCH  23  24
HETATM   24  C2  UNL     1      28.553  27.841  10.535  1.00  0.00    -0.037 C 
HETATM   25  C1  UNL     1      28.275  26.591  10.217  1.00  0.00     0.007 C 
ENDBRANCH  23  24
ENDBRANCH  22  23
ENDBRANCH   1  22
BRANCH   6  26
HETATM   26  C9  UNL     1      23.496  26.983   7.724  1.00  0.00     0.288 C 
BRANCH  26  27
HETATM   27  N1  UNL     1      23.142  25.634   8.113  1.00  0.00     0.081 N 
HETATM   28  C10 UNL     1      22.240  25.054   7.165  1.00  0.00     0.309 C 
HETATM   29  C11 UNL     1      24.358  24.804   8.170  1.00  0.00     0.309 C 
ENDBRANCH  26  27
ENDBRANCH   6  26
TORSDOF 7
ENDMDL
