MODEL 1
REMARK VINA RESULT: -6.458850740      0.000      0.000
REMARK  7 active torsions:
REMARK  status: ('A' for Active; 'I' for Inactive)
REMARK    1  A    between atoms: C2_2  and  C3_3 
REMARK    2  A    between atoms: C3_3  and  O1_4 
REMARK    3  A    between atoms: O1_4  and  C4_5 
REMARK    4  A    between atoms: C4_5  and  C5_6 
REMARK    5  A    between atoms: C5_6  and  C6_7 
REMARK    6  A    between atoms: C6_7  and  N1_8 
REMARK    7  A    between atoms: C12_16  and  C13_17 
ROOT
HETATM    1  C4  UNL     1      25.687  27.970   8.883  1.00  0.00     0.195 C 
HETATM    2  O2  UNL     1      24.878  26.908   8.410  1.00  0.00    -0.322 OA
HETATM    3  C10 UNL     1      23.634  27.430   8.146  1.00  0.00     0.272 C 
HETATM    4  O3  UNL     1      23.849  28.805   7.949  1.00  0.00    -0.349 OA
HETATM    5  C11 UNL     1      24.614  29.023   9.124  1.00  0.00     0.197 C 
HETATM    6  C12 UNL     1      23.719  28.533  10.201  1.00  0.00     0.073 C 
HETATM    7  C21 UNL     1      22.882  27.498   9.483  1.00  0.00     0.013 C 
HETATM    8  C22 UNL     1      22.908  26.163  10.184  1.00  0.00     0.020 C 
HETATM    9  C23 UNL     1      21.482  27.926   9.195  1.00  0.00     0.020 C 
ENDROOT
BRANCH   1  10
HETATM   10  O1  UNL     1      26.348  27.632  10.034  1.00  0.00    -0.349 OA
BRANCH  10  11
HETATM   11  C3  UNL     1      26.953  26.399  10.000  1.00  0.00     0.198 C 
BRANCH  11  12
HETATM   12  C2  UNL     1      28.391  26.461  10.319  1.00  0.00    -0.011 C 
HETATM   13  C1  UNL     1      28.954  27.614  10.610  1.00  0.00     0.009 C 
ENDBRANCH  11  12
ENDBRANCH  10  11
ENDBRANCH   1  10
BRANCH   1  14
HETATM   14  C5  UNL     1      26.570  28.361   7.729  1.00  0.00     0.099 C 
BRANCH  14  15
HETATM   15  C6  UNL     1      27.335  29.620   7.976  1.00  0.00     0.241 C 
BRANCH  15  16
HETATM   16  N1  UNL     1      27.514  30.325   6.733  1.00  0.00    -0.078 N 
HETATM   17  C7  UNL     1      28.059  29.401   5.757  1.00  0.00     0.271 C 
HETATM   18  C8  UNL     1      26.289  30.863   6.199  1.00  0.00     0.271 C 
HETATM   19  C9  UNL     1      28.451  31.440   6.875  1.00  0.00     0.271 C 
ENDBRANCH  15  16
ENDBRANCH  14  15
ENDBRANCH   1  14
BRANCH   6  20
HETATM   20  C13 UNL     1      22.904  29.635  10.780  1.00  0.00    -0.008 A 
HETATM   21  C14 UNL     1      22.259  29.711  11.987  1.00  0.00     0.027 A 
HETATM   22  C15 UNL     1      21.589  30.842  12.262  1.00  0.00    -0.018 A 
HETATM   23  C16 UNL     1      20.861  31.136  13.430  1.00  0.00     0.013 A 
HETATM   24  C20 UNL     1      21.603  31.827  11.313  1.00  0.00     0.015 A 
HETATM   25  C17 UNL     1      20.217  32.318  13.604  1.00  0.00     0.001 A 
HETATM   26  C18 UNL     1      20.232  33.307  12.651  1.00  0.00     0.001 A 
HETATM   27  C19 UNL     1      20.936  33.049  11.495  1.00  0.00     0.019 A 
HETATM   28  S1  UNL     1      22.553  31.142  10.068  1.00  0.00    -0.094 SA
ENDBRANCH   6  20
TORSDOF 7
ENDMDL
MODEL 2
REMARK VINA RESULT: -6.432497770      4.081      6.916
REMARK  7 active torsions:
REMARK  status: ('A' for Active; 'I' for Inactive)
REMARK    1  A    between atoms: C2_2  and  C3_3 
REMARK    2  A    between atoms: C3_3  and  O1_4 
REMARK    3  A    between atoms: O1_4  and  C4_5 
REMARK    4  A    between atoms: C4_5  and  C5_6 
REMARK    5  A    between atoms: C5_6  and  C6_7 
REMARK    6  A    between atoms: C6_7  and  N1_8 
REMARK    7  A    between atoms: C12_16  and  C13_17 
ROOT
HETATM    1  C4  UNL     1      22.824  29.715   4.127  1.00  0.00     0.195 C 
HETATM    2  O2  UNL     1      21.551  29.774   4.747  1.00  0.00    -0.322 OA
HETATM    3  C10 UNL     1      21.759  30.052   6.077  1.00  0.00     0.272 C 
HETATM    4  O3  UNL     1      23.024  30.661   6.130  1.00  0.00    -0.349 OA
HETATM    5  C11 UNL     1      23.711  29.684   5.364  1.00  0.00     0.197 C 
HETATM    6  C12 UNL     1      23.433  28.426   6.101  1.00  0.00     0.073 C 
HETATM    7  C21 UNL     1      22.106  28.724   6.764  1.00  0.00     0.013 C 
HETATM    8  C22 UNL     1      21.071  27.671   6.457  1.00  0.00     0.020 C 
HETATM    9  C23 UNL     1      22.193  28.981   8.231  1.00  0.00     0.020 C 
ENDROOT
BRANCH   1  10
HETATM   10  O1  UNL     1      22.964  28.589   3.361  1.00  0.00    -0.349 OA
BRANCH  10  11
HETATM   11  C3  UNL     1      23.615  28.790   2.168  1.00  0.00     0.198 C 
BRANCH  11  12
HETATM   12  C2  UNL     1      23.637  27.585   1.320  1.00  0.00    -0.011 C 
HETATM   13  C1  UNL     1      24.674  27.340   0.546  1.00  0.00     0.009 C 
ENDBRANCH  11  12
ENDBRANCH  10  11
ENDBRANCH   1  10
BRANCH   1  14
HETATM   14  C5  UNL     1      22.984  31.016   3.387  1.00  0.00     0.099 C 
BRANCH  14  15
HETATM   15  C6  UNL     1      21.682  31.669   3.059  1.00  0.00     0.241 C 
BRANCH  15  16
HETATM   16  N1  UNL     1      21.721  33.051   3.463  1.00  0.00    -0.078 N 
HETATM   17  C7  UNL     1      20.713  33.257   4.485  1.00  0.00     0.271 C 
HETATM   18  C8  UNL     1      22.993  33.451   4.008  1.00  0.00     0.271 C 
HETATM   19  C9  UNL     1      21.425  33.948   2.346  1.00  0.00     0.271 C 
ENDBRANCH  15  16
ENDBRANCH  14  15
ENDBRANCH   1  14
BRANCH   6  20
HETATM   20  C13 UNL     1      24.511  28.113   7.078  1.00  0.00    -0.008 A 
HETATM   21  C14 UNL     1      24.612  27.083   7.975  1.00  0.00     0.027 A 
HETATM   22  C15 UNL     1      25.711  27.037   8.746  1.00  0.00    -0.018 A 
HETATM   23  C16 UNL     1      26.021  26.077   9.727  1.00  0.00     0.013 A 
HETATM   24  C20 UNL     1      26.641  28.025   8.573  1.00  0.00     0.015 A 
HETATM   25  C17 UNL     1      27.167  26.127  10.453  1.00  0.00     0.001 A 
HETATM   26  C18 UNL     1      28.101  27.119  10.277  1.00  0.00     0.001 A 
HETATM   27  C19 UNL     1      27.826  28.074   9.324  1.00  0.00     0.019 A 
HETATM   28  S1  UNL     1      25.951  28.984   7.338  1.00  0.00    -0.094 SA
ENDBRANCH   6  20
TORSDOF 7
ENDMDL
MODEL 3
REMARK VINA RESULT: -6.411645849      2.872      5.815
REMARK  7 active torsions:
REMARK  status: ('A' for Active; 'I' for Inactive)
REMARK    1  A    between atoms: C2_2  and  C3_3 
REMARK    2  A    between atoms: C3_3  and  O1_4 
REMARK    3  A    between atoms: O1_4  and  C4_5 
REMARK    4  A    between atoms: C4_5  and  C5_6 
REMARK    5  A    between atoms: C5_6  and  C6_7 
REMARK    6  A    between atoms: C6_7  and  N1_8 
REMARK    7  A    between atoms: C12_16  and  C13_17 
ROOT
HETATM    1  C4  UNL     1      24.425  27.653   9.347  1.00  0.00     0.195 C 
HETATM    2  O2  UNL     1      23.338  26.768   9.555  1.00  0.00    -0.322 OA
HETATM    3  C10 UNL     1      22.872  26.398   8.315  1.00  0.00     0.272 C 
HETATM    4  O3  UNL     1      23.952  26.609   7.441  1.00  0.00    -0.349 OA
HETATM    5  C11 UNL     1      24.250  27.931   7.860  1.00  0.00     0.197 C 
HETATM    6  C12 UNL     1      22.960  28.640   7.672  1.00  0.00     0.073 C 
HETATM    7  C21 UNL     1      21.950  27.525   7.828  1.00  0.00     0.013 C 
HETATM    8  C22 UNL     1      20.903  27.850   8.863  1.00  0.00     0.020 C 
HETATM    9  C23 UNL     1      21.322  27.077   6.551  1.00  0.00     0.020 C 
ENDROOT
BRANCH   1  10
HETATM   10  O1  UNL     1      24.308  28.788  10.104  1.00  0.00    -0.349 OA
BRANCH  10  11
HETATM   11  C3  UNL     1      23.468  28.666  11.184  1.00  0.00     0.198 C 
BRANCH  11  12
HETATM   12  C2  UNL     1      22.555  29.814  11.329  1.00  0.00    -0.011 C 
HETATM   13  C1  UNL     1      22.064  30.124  12.510  1.00  0.00     0.009 C 
ENDBRANCH  11  12
ENDBRANCH  10  11
ENDBRANCH   1  10
BRANCH   1  14
HETATM   14  C5  UNL     1      25.669  26.843   9.596  1.00  0.00     0.099 C 
BRANCH  14  15
HETATM   15  C6  UNL     1      26.571  27.451  10.620  1.00  0.00     0.241 C 
BRANCH  15  16
HETATM   16  N1  UNL     1      27.806  27.852   9.997  1.00  0.00    -0.078 N 
HETATM   17  C7  UNL     1      28.739  26.745  10.078  1.00  0.00     0.271 C 
HETATM   18  C8  UNL     1      27.657  28.206   8.609  1.00  0.00     0.271 C 
HETATM   19  C9  UNL     1      28.405  29.002  10.676  1.00  0.00     0.271 C 
ENDBRANCH  15  16
ENDBRANCH  14  15
ENDBRANCH   1  14
BRANCH   6  20
HETATM   20  C13 UNL     1      22.888  29.303   6.342  1.00  0.00    -0.008 A 
HETATM   21  C14 UNL     1      23.439  28.932   5.143  1.00  0.00     0.027 A 
HETATM   22  C15 UNL     1      23.209  29.724   4.083  1.00  0.00    -0.018 A 
HETATM   23  C16 UNL     1      23.672  29.538   2.768  1.00  0.00     0.013 A 
HETATM   24  C20 UNL     1      22.444  30.838   4.286  1.00  0.00     0.015 A 
HETATM   25  C17 UNL     1      23.379  30.407   1.767  1.00  0.00     0.001 A 
HETATM   26  C18 UNL     1      22.608  31.526   1.972  1.00  0.00     0.001 A 
HETATM   27  C19 UNL     1      22.140  31.735   3.250  1.00  0.00     0.019 A 
HETATM   28  S1  UNL     1      22.068  30.744   5.951  1.00  0.00    -0.094 SA
ENDBRANCH   6  20
TORSDOF 7
ENDMDL
MODEL 4
REMARK VINA RESULT: -6.363250953      3.030      5.707
REMARK  7 active torsions:
REMARK  status: ('A' for Active; 'I' for Inactive)
REMARK    1  A    between atoms: C2_2  and  C3_3 
REMARK    2  A    between atoms: C3_3  and  O1_4 
REMARK    3  A    between atoms: O1_4  and  C4_5 
REMARK    4  A    between atoms: C4_5  and  C5_6 
REMARK    5  A    between atoms: C5_6  and  C6_7 
REMARK    6  A    between atoms: C6_7  and  N1_8 
REMARK    7  A    between atoms: C12_16  and  C13_17 
ROOT
HETATM    1  C4  UNL     1      24.279  27.943   9.607  1.00  0.00     0.195 C 
HETATM    2  O2  UNL     1      23.277  26.949   9.728  1.00  0.00    -0.322 OA
HETATM    3  C10 UNL     1      22.954  26.540   8.456  1.00  0.00     0.272 C 
HETATM    4  O3  UNL     1      24.073  26.866   7.671  1.00  0.00    -0.349 OA
HETATM    5  C11 UNL     1      24.196  28.210   8.110  1.00  0.00     0.197 C 
HETATM    6  C12 UNL     1      22.860  28.782   7.815  1.00  0.00     0.073 C 
HETATM    7  C21 UNL     1      21.962  27.567   7.892  1.00  0.00     0.013 C 
HETATM    8  C22 UNL     1      20.807  27.776   8.837  1.00  0.00     0.020 C 
HETATM    9  C23 UNL     1      21.490  27.063   6.569  1.00  0.00     0.020 C 
ENDROOT
BRANCH   1  10
HETATM   10  O1  UNL     1      23.983  29.056  10.348  1.00  0.00    -0.349 OA
BRANCH  10  11
HETATM   11  C3  UNL     1      23.251  28.804  11.483  1.00  0.00     0.198 C 
BRANCH  11  12
HETATM   12  C2  UNL     1      22.347  29.913  11.837  1.00  0.00    -0.011 C 
HETATM   13  C1  UNL     1      21.826  30.667  10.892  1.00  0.00     0.009 C 
ENDBRANCH  11  12
ENDBRANCH  10  11
ENDBRANCH   1  10
BRANCH   1  14
HETATM   14  C5  UNL     1      25.576  27.266   9.958  1.00  0.00     0.099 C 
BRANCH  14  15
HETATM   15  C6  UNL     1      26.535  28.166  10.666  1.00  0.00     0.241 C 
BRANCH  15  16
HETATM   16  N1  UNL     1      27.850  28.010  10.100  1.00  0.00    -0.078 N 
HETATM   17  C7  UNL     1      28.742  28.952  10.747  1.00  0.00     0.271 C 
HETATM   18  C8  UNL     1      28.395  26.688  10.278  1.00  0.00     0.271 C 
HETATM   19  C9  UNL     1      27.856  28.291   8.664  1.00  0.00     0.271 C 
ENDBRANCH  15  16
ENDBRANCH  14  15
ENDBRANCH   1  14
BRANCH   6  20
HETATM   20  C13 UNL     1      22.827  29.442   6.482  1.00  0.00    -0.008 A 
HETATM   21  C14 UNL     1      21.905  30.303   5.949  1.00  0.00     0.027 A 
HETATM   22  C15 UNL     1      22.127  30.758   4.705  1.00  0.00    -0.018 A 
HETATM   23  C16 UNL     1      21.318  31.643   3.967  1.00  0.00     0.013 A 
HETATM   24  C20 UNL     1      23.256  30.323   4.070  1.00  0.00     0.015 A 
HETATM   25  C17 UNL     1      21.639  32.039   2.709  1.00  0.00     0.001 A 
HETATM   26  C18 UNL     1      22.775  31.603   2.072  1.00  0.00     0.001 A 
HETATM   27  C19 UNL     1      23.587  30.735   2.769  1.00  0.00     0.019 A 
HETATM   28  S1  UNL     1      23.974  29.294   5.231  1.00  0.00    -0.094 SA
ENDBRANCH   6  20
TORSDOF 7
ENDMDL
MODEL 5
REMARK VINA RESULT: -6.341692955      4.124      7.452
REMARK  7 active torsions:
REMARK  status: ('A' for Active; 'I' for Inactive)
REMARK    1  A    between atoms: C2_2  and  C3_3 
REMARK    2  A    between atoms: C3_3  and  O1_4 
REMARK    3  A    between atoms: O1_4  and  C4_5 
REMARK    4  A    between atoms: C4_5  and  C5_6 
REMARK    5  A    between atoms: C5_6  and  C6_7 
REMARK    6  A    between atoms: C6_7  and  N1_8 
REMARK    7  A    between atoms: C12_16  and  C13_17 
ROOT
HETATM    1  C4  UNL     1      24.292  29.066   7.191  1.00  0.00     0.195 C 
HETATM    2  O2  UNL     1      23.054  29.383   7.802  1.00  0.00    -0.322 OA
HETATM    3  C10 UNL     1      22.113  29.457   6.803  1.00  0.00     0.272 C 
HETATM    4  O3  UNL     1      22.641  28.694   5.747  1.00  0.00    -0.349 OA
HETATM    5  C11 UNL     1      23.924  29.299   5.731  1.00  0.00     0.197 C 
HETATM    6  C12 UNL     1      23.613  30.740   5.557  1.00  0.00     0.073 C 
HETATM    7  C21 UNL     1      22.235  30.851   6.172  1.00  0.00     0.013 C 
HETATM    8  C22 UNL     1      22.172  31.927   7.227  1.00  0.00     0.020 C 
HETATM    9  C23 UNL     1      21.127  31.001   5.185  1.00  0.00     0.020 C 
ENDROOT
BRANCH   1  10
HETATM   10  O1  UNL     1      25.294  29.899   7.611  1.00  0.00    -0.349 OA
BRANCH  10  11
HETATM   11  C3  UNL     1      26.521  29.293   7.735  1.00  0.00     0.198 C 
BRANCH  11  12
HETATM   12  C2  UNL     1      27.471  29.711   6.687  1.00  0.00    -0.011 C 
HETATM   13  C1  UNL     1      27.884  28.845   5.786  1.00  0.00     0.009 C 
ENDBRANCH  11  12
ENDBRANCH  10  11
ENDBRANCH   1  10
BRANCH   1  14
HETATM   14  C5  UNL     1      24.521  27.603   7.456  1.00  0.00     0.099 C 
BRANCH  14  15
HETATM   15  C6  UNL     1      23.943  27.144   8.755  1.00  0.00     0.241 C 
BRANCH  15  16
HETATM   16  N1  UNL     1      23.384  25.827   8.594  1.00  0.00    -0.078 N 
HETATM   17  C7  UNL     1      22.775  25.432   9.849  1.00  0.00     0.271 C 
HETATM   18  C8  UNL     1      22.374  25.756   7.569  1.00  0.00     0.271 C 
HETATM   19  C9  UNL     1      24.413  24.841   8.258  1.00  0.00     0.271 C 
ENDBRANCH  15  16
ENDBRANCH  14  15
ENDBRANCH   1  14
BRANCH   6  20
HETATM   20  C13 UNL     1      23.639  31.137   4.124  1.00  0.00    -0.008 A 
HETATM   21  C14 UNL     1      23.634  30.360   2.995  1.00  0.00     0.027 A 
HETATM   22  C15 UNL     1      23.659  30.989   1.809  1.00  0.00    -0.018 A 
HETATM   23  C16 UNL     1      23.660  30.396   0.533  1.00  0.00     0.013 A 
HETATM   24  C20 UNL     1      23.689  32.356   1.823  1.00  0.00     0.015 A 
HETATM   25  C17 UNL     1      23.687  31.131  -0.608  1.00  0.00     0.001 A 
HETATM   26  C18 UNL     1      23.716  32.504  -0.592  1.00  0.00     0.001 A 
HETATM   27  C19 UNL     1      23.716  33.115   0.642  1.00  0.00     0.019 A 
HETATM   28  S1  UNL     1      23.679  32.719   3.493  1.00  0.00    -0.094 SA
ENDBRANCH   6  20
TORSDOF 7
ENDMDL
