MODEL 1
REMARK VINA RESULT: -6.874194975      0.000      0.000
REMARK  8 active torsions:
REMARK  status: ('A' for Active; 'I' for Inactive)
REMARK       I    between atoms: N1_2  and  C2_3 
REMARK    1  A    between atoms: N1_2  and  C17_22 
REMARK    2  A    between atoms: C2_3  and  C3_5 
REMARK    3  A    between atoms: C4_6  and  C5_7 
REMARK    4  A    between atoms: C5_7  and  C6_8 
REMARK    5  A    between atoms: C6_8  and  C7_9 
REMARK    6  A    between atoms: C7_9  and  C8_10 
REMARK    7  A    between atoms: C8_10  and  O3_12 
REMARK    8  A    between atoms: O3_12  and  C9_13 
ROOT
HETATM    1  C5  UNL     1      27.546  29.140   5.808  1.00  0.00     0.028 C 
ENDROOT
BRANCH   1   2
HETATM    2  C4  UNL     1      27.666  28.222   6.955  1.00  0.00    -0.021 C 
HETATM    3  C3  UNL     1      27.108  28.582   8.123  1.00  0.00     0.070 C 
BRANCH   3   4
HETATM    4  C2  UNL     1      27.209  27.701   9.271  1.00  0.00     0.243 C 
HETATM    5  N1  UNL     1      26.131  26.915   9.677  1.00  0.00    -0.348 N 
HETATM    6  C1  UNL     1      26.327  26.043  10.859  1.00  0.00     0.153 C 
HETATM    7  O1  UNL     1      28.292  27.659   9.897  1.00  0.00    -0.268 OA
BRANCH   5   8
HETATM    8  C17 UNL     1      24.821  26.859   9.055  1.00  0.00     0.087 C 
HETATM    9  C18 UNL     1      23.753  27.302   9.981  1.00  0.00     0.025 C 
HETATM   10  C19 UNL     1      22.806  28.307   9.337  1.00  0.00     0.002 C 
HETATM   11  C20 UNL     1      21.668  27.605   8.630  1.00  0.00     0.000 C 
HETATM   12  C21 UNL     1      22.064  27.082   7.281  1.00  0.00     0.000 C 
HETATM   13  C22 UNL     1      22.278  25.617   7.259  1.00  0.00     0.000 C 
HETATM   14  C23 UNL     1      23.216  25.047   8.269  1.00  0.00     0.002 C 
HETATM   15  C24 UNL     1      24.587  25.592   8.293  1.00  0.00     0.025 C 
ENDBRANCH   5   8
ENDBRANCH   3   4
ENDBRANCH   1   2
BRANCH   1  16
HETATM   16  C6  UNL     1      28.084  30.489   6.193  1.00  0.00     0.013 C 
BRANCH  16  17
HETATM   17  C7  UNL     1      27.212  31.562   5.616  1.00  0.00     0.111 C 
BRANCH  17  18
HETATM   18  C8  UNL     1      26.016  31.711   6.489  1.00  0.00     0.259 C 
HETATM   19  O2  UNL     1      26.132  31.959   7.699  1.00  0.00    -0.265 OA
BRANCH  18  20
HETATM   20  O3  UNL     1      24.770  31.567   5.927  1.00  0.00    -0.316 OA
BRANCH  20  21
HETATM   21  C9  UNL     1      24.050  30.358   5.981  1.00  0.00     0.136 C 
HETATM   22  C10 UNL     1      24.129  29.647   4.671  1.00  0.00     0.068 C 
HETATM   23  C11 UNL     1      22.954  29.911   3.754  1.00  0.00     0.225 C 
HETATM   24  C12 UNL     1      21.901  28.871   4.041  1.00  0.00     0.038 C 
HETATM   25  N2  UNL     1      22.393  31.193   4.090  1.00  0.00     0.093 N 
HETATM   26  C13 UNL     1      20.953  29.597   4.960  1.00  0.00     0.038 C 
HETATM   27  C14 UNL     1      21.671  30.879   5.321  1.00  0.00     0.225 C 
HETATM   28  C15 UNL     1      22.651  30.682   6.429  1.00  0.00     0.068 C 
HETATM   29  C16 UNL     1      21.519  31.716   3.068  1.00  0.00     0.310 C 
ENDBRANCH  20  21
ENDBRANCH  18  20
ENDBRANCH  17  18
ENDBRANCH  16  17
ENDBRANCH   1  16
TORSDOF 8
ENDMDL
MODEL 2
REMARK VINA RESULT: -6.861214101      2.169      4.099
REMARK  8 active torsions:
REMARK  status: ('A' for Active; 'I' for Inactive)
REMARK       I    between atoms: N1_2  and  C2_3 
REMARK    1  A    between atoms: N1_2  and  C17_22 
REMARK    2  A    between atoms: C2_3  and  C3_5 
REMARK    3  A    between atoms: C4_6  and  C5_7 
REMARK    4  A    between atoms: C5_7  and  C6_8 
REMARK    5  A    between atoms: C6_8  and  C7_9 
REMARK    6  A    between atoms: C7_9  and  C8_10 
REMARK    7  A    between atoms: C8_10  and  O3_12 
REMARK    8  A    between atoms: O3_12  and  C9_13 
ROOT
HETATM    1  C5  UNL     1      23.934  24.843   8.272  1.00  0.00     0.028 C 
ENDROOT
BRANCH   1   2
HETATM    2  C4  UNL     1      25.008  25.831   8.490  1.00  0.00    -0.021 C 
HETATM    3  C3  UNL     1      25.679  25.797   9.653  1.00  0.00     0.070 C 
BRANCH   3   4
HETATM    4  C2  UNL     1      26.741  26.755   9.899  1.00  0.00     0.243 C 
HETATM    5  N1  UNL     1      26.460  28.099  10.143  1.00  0.00    -0.348 N 
HETATM    6  C1  UNL     1      27.607  29.005  10.386  1.00  0.00     0.153 C 
HETATM    7  O1  UNL     1      27.925  26.350   9.886  1.00  0.00    -0.268 OA
BRANCH   5   8
HETATM    8  C17 UNL     1      25.145  28.712  10.187  1.00  0.00     0.087 C 
HETATM    9  C18 UNL     1      25.112  29.998   9.453  1.00  0.00     0.025 C 
HETATM   10  C19 UNL     1      23.922  30.097   8.508  1.00  0.00     0.002 C 
HETATM   11  C20 UNL     1      22.712  30.666   9.216  1.00  0.00     0.000 C 
HETATM   12  C21 UNL     1      21.997  29.640  10.044  1.00  0.00     0.000 C 
HETATM   13  C22 UNL     1      22.249  29.778  11.496  1.00  0.00     0.000 C 
HETATM   14  C23 UNL     1      23.672  29.820  11.942  1.00  0.00     0.002 C 
HETATM   15  C24 UNL     1      24.531  28.686  11.552  1.00  0.00     0.025 C 
ENDBRANCH   5   8
ENDBRANCH   3   4
ENDBRANCH   1   2
BRANCH   1  16
HETATM   16  C6  UNL     1      22.646  25.564   7.991  1.00  0.00     0.013 C 
BRANCH  16  17
HETATM   17  C7  UNL     1      22.941  26.902   7.384  1.00  0.00     0.111 C 
BRANCH  17  18
HETATM   18  C8  UNL     1      21.756  27.324   6.589  1.00  0.00     0.259 C 
HETATM   19  O2  UNL     1      20.907  26.499   6.215  1.00  0.00    -0.265 OA
BRANCH  18  20
HETATM   20  O3  UNL     1      21.617  28.654   6.271  1.00  0.00    -0.316 OA
BRANCH  20  21
HETATM   21  C9  UNL     1      21.349  29.095   4.960  1.00  0.00     0.136 C 
HETATM   22  C10 UNL     1      22.357  28.541   4.009  1.00  0.00     0.068 C 
HETATM   23  C11 UNL     1      23.514  29.475   3.724  1.00  0.00     0.225 C 
HETATM   24  C12 UNL     1      23.139  30.325   2.537  1.00  0.00     0.038 C 
HETATM   25  N2  UNL     1      23.675  30.358   4.849  1.00  0.00     0.093 N 
HETATM   26  C13 UNL     1      22.664  31.605   3.175  1.00  0.00     0.038 C 
HETATM   27  C14 UNL     1      22.563  31.285   4.651  1.00  0.00     0.225 C 
HETATM   28  C15 UNL     1      21.283  30.597   4.991  1.00  0.00     0.068 C 
HETATM   29  C16 UNL     1      24.949  31.035   4.861  1.00  0.00     0.310 C 
ENDBRANCH  20  21
ENDBRANCH  18  20
ENDBRANCH  17  18
ENDBRANCH  16  17
ENDBRANCH   1  16
TORSDOF 8
ENDMDL
MODEL 3
REMARK VINA RESULT: -6.691791240      1.145      1.615
REMARK  8 active torsions:
REMARK  status: ('A' for Active; 'I' for Inactive)
REMARK       I    between atoms: N1_2  and  C2_3 
REMARK    1  A    between atoms: N1_2  and  C17_22 
REMARK    2  A    between atoms: C2_3  and  C3_5 
REMARK    3  A    between atoms: C4_6  and  C5_7 
REMARK    4  A    between atoms: C5_7  and  C6_8 
REMARK    5  A    between atoms: C6_8  and  C7_9 
REMARK    6  A    between atoms: C7_9  and  C8_10 
REMARK    7  A    between atoms: C8_10  and  O3_12 
REMARK    8  A    between atoms: O3_12  and  C9_13 
ROOT
HETATM    1  C5  UNL     1      27.229  29.414   5.732  1.00  0.00     0.028 C 
ENDROOT
BRANCH   1   2
HETATM    2  C4  UNL     1      27.409  28.336   6.722  1.00  0.00    -0.021 C 
HETATM    3  C3  UNL     1      27.106  28.591   8.006  1.00  0.00     0.070 C 
BRANCH   3   4
HETATM    4  C2  UNL     1      27.273  27.551   9.004  1.00  0.00     0.243 C 
HETATM    5  N1  UNL     1      26.219  27.166   9.832  1.00  0.00    -0.348 N 
HETATM    6  C1  UNL     1      26.480  26.095  10.820  1.00  0.00     0.153 C 
HETATM    7  O1  UNL     1      28.392  27.001   9.110  1.00  0.00    -0.268 OA
BRANCH   5   8
HETATM    8  C17 UNL     1      24.874  27.712   9.826  1.00  0.00     0.087 C 
HETATM    9  C18 UNL     1      24.431  28.102  11.184  1.00  0.00     0.025 C 
HETATM   10  C19 UNL     1      23.818  29.496  11.218  1.00  0.00     0.002 C 
HETATM   11  C20 UNL     1      22.333  29.444  10.935  1.00  0.00     0.000 C 
HETATM   12  C21 UNL     1      22.032  29.323   9.470  1.00  0.00     0.000 C 
HETATM   13  C22 UNL     1      21.618  27.960   9.066  1.00  0.00     0.000 C 
HETATM   14  C23 UNL     1      22.516  26.831   9.447  1.00  0.00     0.002 C 
HETATM   15  C24 UNL     1      23.919  26.910   8.998  1.00  0.00     0.025 C 
ENDBRANCH   5   8
ENDBRANCH   3   4
ENDBRANCH   1   2
BRANCH   1  16
HETATM   16  C6  UNL     1      27.764  30.700   6.296  1.00  0.00     0.013 C 
BRANCH  16  17
HETATM   17  C7  UNL     1      26.988  31.854   5.739  1.00  0.00     0.111 C 
BRANCH  17  18
HETATM   18  C8  UNL     1      25.670  31.906   6.430  1.00  0.00     0.259 C 
HETATM   19  O2  UNL     1      25.590  32.158   7.642  1.00  0.00    -0.265 OA
BRANCH  18  20
HETATM   20  O3  UNL     1      24.533  31.667   5.695  1.00  0.00    -0.316 OA
BRANCH  20  21
HETATM   21  C9  UNL     1      23.421  30.981   6.222  1.00  0.00     0.136 C 
HETATM   22  C10 UNL     1      23.718  29.523   6.339  1.00  0.00     0.068 C 
HETATM   23  C11 UNL     1      23.240  28.700   5.162  1.00  0.00     0.225 C 
HETATM   24  C12 UNL     1      21.833  28.245   5.458  1.00  0.00     0.038 C 
HETATM   25  N2  UNL     1      23.180  29.553   4.004  1.00  0.00     0.093 N 
HETATM   26  C13 UNL     1      20.991  29.244   4.708  1.00  0.00     0.038 C 
HETATM   27  C14 UNL     1      21.964  30.319   4.272  1.00  0.00     0.225 C 
HETATM   28  C15 UNL     1      22.235  31.307   5.357  1.00  0.00     0.068 C 
HETATM   29  C16 UNL     1      23.096  28.821   2.764  1.00  0.00     0.310 C 
ENDBRANCH  20  21
ENDBRANCH  18  20
ENDBRANCH  17  18
ENDBRANCH  16  17
ENDBRANCH   1  16
TORSDOF 8
ENDMDL
MODEL 4
REMARK VINA RESULT: -6.570912478      2.367      4.453
REMARK  8 active torsions:
REMARK  status: ('A' for Active; 'I' for Inactive)
REMARK       I    between atoms: N1_2  and  C2_3 
REMARK    1  A    between atoms: N1_2  and  C17_22 
REMARK    2  A    between atoms: C2_3  and  C3_5 
REMARK    3  A    between atoms: C4_6  and  C5_7 
REMARK    4  A    between atoms: C5_7  and  C6_8 
REMARK    5  A    between atoms: C6_8  and  C7_9 
REMARK    6  A    between atoms: C7_9  and  C8_10 
REMARK    7  A    between atoms: C8_10  and  O3_12 
REMARK    8  A    between atoms: O3_12  and  C9_13 
ROOT
HETATM    1  C5  UNL     1      23.328  24.870   8.589  1.00  0.00     0.028 C 
ENDROOT
BRANCH   1   2
HETATM    2  C4  UNL     1      24.551  25.690   8.669  1.00  0.00    -0.021 C 
HETATM    3  C3  UNL     1      25.011  26.034   9.884  1.00  0.00     0.070 C 
BRANCH   3   4
HETATM    4  C2  UNL     1      26.211  26.841   9.997  1.00  0.00     0.243 C 
HETATM    5  N1  UNL     1      26.167  28.136  10.512  1.00  0.00    -0.348 N 
HETATM    6  C1  UNL     1      27.442  28.884  10.593  1.00  0.00     0.153 C 
HETATM    7  O1  UNL     1      27.298  26.348   9.621  1.00  0.00    -0.268 OA
BRANCH   5   8
HETATM    8  C17 UNL     1      24.986  28.837  10.984  1.00  0.00     0.087 C 
HETATM    9  C18 UNL     1      24.251  29.487   9.875  1.00  0.00     0.025 C 
HETATM   10  C19 UNL     1      22.756  29.199   9.922  1.00  0.00     0.002 C 
HETATM   11  C20 UNL     1      22.033  30.220  10.772  1.00  0.00     0.000 C 
HETATM   12  C21 UNL     1      22.156  29.935  12.240  1.00  0.00     0.000 C 
HETATM   13  C22 UNL     1      23.117  30.823  12.932  1.00  0.00     0.000 C 
HETATM   14  C23 UNL     1      24.493  30.917  12.364  1.00  0.00     0.002 C 
HETATM   15  C24 UNL     1      25.243  29.657  12.210  1.00  0.00     0.025 C 
ENDBRANCH   5   8
ENDBRANCH   3   4
ENDBRANCH   1   2
BRANCH   1  16
HETATM   16  C6  UNL     1      22.456  25.386   7.480  1.00  0.00     0.013 C 
BRANCH  16  17
HETATM   17  C7  UNL     1      22.811  26.812   7.184  1.00  0.00     0.111 C 
BRANCH  17  18
HETATM   18  C8  UNL     1      21.791  27.361   6.249  1.00  0.00     0.259 C 
HETATM   19  O2  UNL     1      20.605  26.999   6.308  1.00  0.00    -0.265 OA
BRANCH  18  20
HETATM   20  O3  UNL     1      22.189  28.283   5.310  1.00  0.00    -0.316 OA
BRANCH  20  21
HETATM   21  C9  UNL     1      23.320  29.103   5.487  1.00  0.00     0.136 C 
HETATM   22  C10 UNL     1      22.936  30.383   6.152  1.00  0.00     0.068 C 
HETATM   23  C11 UNL     1      22.680  31.524   5.191  1.00  0.00     0.225 C 
HETATM   24  C12 UNL     1      23.985  32.247   4.974  1.00  0.00     0.038 C 
HETATM   25  N2  UNL     1      22.281  30.972   3.923  1.00  0.00     0.093 N 
HETATM   26  C13 UNL     1      24.479  31.669   3.674  1.00  0.00     0.038 C 
HETATM   27  C14 UNL     1      23.561  30.498   3.399  1.00  0.00     0.225 C 
HETATM   28  C15 UNL     1      23.973  29.272   4.143  1.00  0.00     0.068 C 
HETATM   29  C16 UNL     1      21.664  31.941   3.051  1.00  0.00     0.310 C 
ENDBRANCH  20  21
ENDBRANCH  18  20
ENDBRANCH  17  18
ENDBRANCH  16  17
ENDBRANCH   1  16
TORSDOF 8
ENDMDL
MODEL 5
REMARK VINA RESULT: -6.555459670      2.405      4.792
REMARK  8 active torsions:
REMARK  status: ('A' for Active; 'I' for Inactive)
REMARK       I    between atoms: N1_2  and  C2_3 
REMARK    1  A    between atoms: N1_2  and  C17_22 
REMARK    2  A    between atoms: C2_3  and  C3_5 
REMARK    3  A    between atoms: C4_6  and  C5_7 
REMARK    4  A    between atoms: C5_7  and  C6_8 
REMARK    5  A    between atoms: C6_8  and  C7_9 
REMARK    6  A    between atoms: C7_9  and  C8_10 
REMARK    7  A    between atoms: C8_10  and  O3_12 
REMARK    8  A    between atoms: O3_12  and  C9_13 
ROOT
HETATM    1  C5  UNL     1      22.829  25.216   8.243  1.00  0.00     0.028 C 
ENDROOT
BRANCH   1   2
HETATM    2  C4  UNL     1      24.108  25.935   8.387  1.00  0.00    -0.021 C 
HETATM    3  C3  UNL     1      24.508  26.286   9.621  1.00  0.00     0.070 C 
BRANCH   3   4
HETATM    4  C2  UNL     1      25.761  26.995   9.796  1.00  0.00     0.243 C 
HETATM    5  N1  UNL     1      25.814  28.220  10.460  1.00  0.00    -0.348 N 
HETATM    6  C1  UNL     1      27.137  28.871  10.594  1.00  0.00     0.153 C 
HETATM    7  O1  UNL     1      26.806  26.482   9.336  1.00  0.00    -0.268 OA
BRANCH   5   8
HETATM    8  C17 UNL     1      24.692  28.934  11.043  1.00  0.00     0.087 C 
HETATM    9  C18 UNL     1      23.930  29.690  10.022  1.00  0.00     0.025 C 
HETATM   10  C19 UNL     1      22.428  29.461  10.131  1.00  0.00     0.002 C 
HETATM   11  C20 UNL     1      21.796  30.448  11.087  1.00  0.00     0.000 C 
HETATM   12  C21 UNL     1      21.982  30.056  12.523  1.00  0.00     0.000 C 
HETATM   13  C22 UNL     1      23.016  30.854  13.220  1.00  0.00     0.000 C 
HETATM   14  C23 UNL     1      24.364  30.932  12.585  1.00  0.00     0.002 C 
HETATM   15  C24 UNL     1      25.047  29.655  12.306  1.00  0.00     0.025 C 
ENDBRANCH   5   8
ENDBRANCH   3   4
ENDBRANCH   1   2
BRANCH   1  16
HETATM   16  C6  UNL     1      22.076  25.772   7.069  1.00  0.00     0.013 C 
BRANCH  16  17
HETATM   17  C7  UNL     1      21.651  27.178   7.365  1.00  0.00     0.111 C 
BRANCH  17  18
HETATM   18  C8  UNL     1      21.888  28.003   6.148  1.00  0.00     0.259 C 
HETATM   19  O2  UNL     1      21.279  27.776   5.091  1.00  0.00    -0.265 OA
BRANCH  18  20
HETATM   20  O3  UNL     1      22.801  29.028   6.216  1.00  0.00    -0.316 OA
BRANCH  20  21
HETATM   21  C9  UNL     1      24.021  29.002   5.512  1.00  0.00     0.136 C 
HETATM   22  C10 UNL     1      25.161  28.810   6.456  1.00  0.00     0.068 C 
HETATM   23  C11 UNL     1      25.828  30.098   6.888  1.00  0.00     0.225 C 
HETATM   24  C12 UNL     1      26.935  30.396   5.908  1.00  0.00     0.038 C 
HETATM   25  N2  UNL     1      24.868  31.164   6.787  1.00  0.00     0.093 N 
HETATM   26  C13 UNL     1      26.300  31.397   4.978  1.00  0.00     0.038 C 
HETATM   27  C14 UNL     1      24.831  31.385   5.343  1.00  0.00     0.225 C 
HETATM   28  C15 UNL     1      24.098  30.260   4.692  1.00  0.00     0.068 C 
HETATM   29  C16 UNL     1      25.260  32.352   7.507  1.00  0.00     0.310 C 
ENDBRANCH  20  21
ENDBRANCH  18  20
ENDBRANCH  17  18
ENDBRANCH  16  17
ENDBRANCH   1  16
TORSDOF 8
ENDMDL
