MODEL 1
REMARK VINA RESULT: -8.160532502      0.000      0.000
REMARK  9 active torsions:
REMARK  status: ('A' for Active; 'I' for Inactive)
REMARK    1  A    between atoms: C2_2  and  C3_3 
REMARK    2  A    between atoms: C3_3  and  C4_4 
REMARK    3  A    between atoms: C4_4  and  O1_5 
REMARK    4  A    between atoms: C4_4  and  C5_7 
REMARK    5  A    between atoms: C6_8  and  C7_9 
REMARK    6  A    between atoms: C7_9  and  O2_10 
REMARK    7  A    between atoms: O2_10  and  C8_11 
REMARK    8  A    between atoms: C8_11  and  C9_12 
REMARK    9  A    between atoms: C23_30  and  C24_31 
ROOT
HETATM    1  C9  UNL     1      11.954  10.043  76.069  1.00  0.00     0.085 A 
HETATM    2  C10 UNL     1      11.556  10.315  74.676  1.00  0.00    -0.026 C 
HETATM    3  C11 UNL     1      12.481  10.604  73.613  1.00  0.00     0.006 C 
HETATM    4  C12 UNL     1      13.446  11.662  73.512  1.00  0.00     0.099 A 
HETATM    5  C13 UNL     1      13.917  11.790  72.066  1.00  0.00     0.275 C 
HETATM    6  O3  UNL     1      14.496  10.822  71.492  1.00  0.00    -0.264 OA
HETATM    7  O4  UNL     1      13.612  13.032  71.591  1.00  0.00    -0.315 OA
HETATM    8  C14 UNL     1      13.691  13.917  72.690  1.00  0.00     0.134 C 
HETATM    9  C15 UNL     1      15.064  14.502  72.750  1.00  0.00     0.040 C 
HETATM   10  C16 UNL     1      13.364  13.042  73.908  1.00  0.00     0.046 A 
HETATM   11  C17 UNL     1      14.553  12.863  74.831  1.00  0.00     0.027 A 
HETATM   12  C18 UNL     1      14.095  12.687  76.244  1.00  0.00     0.041 A 
HETATM   13  C19 UNL     1      14.154  11.207  76.461  1.00  0.00     0.143 A 
HETATM   14  O5  UNL     1      14.462  10.576  75.301  1.00  0.00    -0.377 OA
HETATM   15  C20 UNL     1      14.714  11.484  74.324  1.00  0.00     0.149 A 
HETATM   16  C21 UNL     1      12.790  10.758  76.907  1.00  0.00     0.123 A 
HETATM   17  N1  UNL     1      11.623  11.478  76.537  1.00  0.00    -0.265 NA
HETATM   18  C22 UNL     1      10.398  11.824  75.911  1.00  0.00     0.069 C 
HETATM   19  C23 UNL     1      10.306  11.153  74.772  1.00  0.00    -0.036 C 
ENDROOT
BRANCH   1  20
HETATM   20  C8  UNL     1      11.099   8.985  76.825  1.00  0.00     0.201 C 
BRANCH  20  21
HETATM   21  O2  UNL     1      10.470   8.146  75.927  1.00  0.00    -0.377 OA
BRANCH  21  22
HETATM   22  C7  UNL     1       9.244   7.800  76.479  1.00  0.00     0.261 C 
BRANCH  22  23
HETATM   23  C6  UNL     1       9.437   6.639  77.351  1.00  0.00    -0.078 C 
HETATM   24  C5  UNL     1       9.609   5.685  78.077  1.00  0.00    -0.072 C 
BRANCH  24  25
HETATM   25  C4  UNL     1       9.831   4.525  78.936  1.00  0.00     0.200 C 
BRANCH  25  26
HETATM   26  C3  UNL     1      10.366   4.999  80.257  1.00  0.00     0.071 C 
BRANCH  26  27
HETATM   27  C2  UNL     1      11.767   5.475  80.052  1.00  0.00    -0.033 C 
HETATM   28  C1  UNL     1      12.488   5.858  81.079  1.00  0.00     0.007 C 
ENDBRANCH  26  27
ENDBRANCH  25  26
BRANCH  25  29
HETATM   29  O1  UNL     1       8.631   3.835  79.194  1.00  0.00    -0.383 OA
ATOM     30  H1  UNL     1       8.761   2.934  78.922  1.00  0.00     0.211 HD
ENDBRANCH  25  29
ENDBRANCH  24  25
ENDBRANCH  22  23
ENDBRANCH  21  22
ENDBRANCH  20  21
ENDBRANCH   1  20
BRANCH  19  31
HETATM   31  C24 UNL     1       9.171  11.310  73.855  1.00  0.00     0.012 C 
HETATM   32  C25 UNL     1       9.380  12.087  72.616  1.00  0.00     0.015 C 
HETATM   33  C26 UNL     1       8.583   9.949  73.455  1.00  0.00     0.015 C 
ENDBRANCH  19  31
TORSDOF 9
ENDMDL
MODEL 2
REMARK VINA RESULT: -7.882803153      1.226      1.461
REMARK  9 active torsions:
REMARK  status: ('A' for Active; 'I' for Inactive)
REMARK    1  A    between atoms: C2_2  and  C3_3 
REMARK    2  A    between atoms: C3_3  and  C4_4 
REMARK    3  A    between atoms: C4_4  and  O1_5 
REMARK    4  A    between atoms: C4_4  and  C5_7 
REMARK    5  A    between atoms: C6_8  and  C7_9 
REMARK    6  A    between atoms: C7_9  and  O2_10 
REMARK    7  A    between atoms: O2_10  and  C8_11 
REMARK    8  A    between atoms: C8_11  and  C9_12 
REMARK    9  A    between atoms: C23_30  and  C24_31 
ROOT
HETATM    1  C9  UNL     1      10.851   9.415  75.718  1.00  0.00     0.085 A 
HETATM    2  C10 UNL     1      10.969   9.961  74.354  1.00  0.00    -0.026 C 
HETATM    3  C11 UNL     1      12.220  10.220  73.692  1.00  0.00     0.006 C 
HETATM    4  C12 UNL     1      13.300  11.076  74.095  1.00  0.00     0.099 A 
HETATM    5  C13 UNL     1      14.229  11.322  72.910  1.00  0.00     0.275 C 
HETATM    6  O3  UNL     1      14.826  10.357  72.351  1.00  0.00    -0.264 OA
HETATM    7  O4  UNL     1      14.267  12.656  72.625  1.00  0.00    -0.315 OA
HETATM    8  C14 UNL     1      14.104  13.337  73.853  1.00  0.00     0.134 C 
HETATM    9  C15 UNL     1      15.448  13.632  74.432  1.00  0.00     0.040 C 
HETATM   10  C16 UNL     1      13.282  12.372  74.718  1.00  0.00     0.046 A 
HETATM   11  C17 UNL     1      14.069  11.833  75.896  1.00  0.00     0.027 A 
HETATM   12  C18 UNL     1      13.157  11.542  77.045  1.00  0.00     0.041 A 
HETATM   13  C19 UNL     1      12.940  10.063  76.968  1.00  0.00     0.143 A 
HETATM   14  O5  UNL     1      13.520   9.562  75.849  1.00  0.00    -0.377 OA
HETATM   15  C20 UNL     1      14.197  10.539  75.193  1.00  0.00     0.149 A 
HETATM   16  C21 UNL     1      11.458   9.824  76.891  1.00  0.00     0.123 A 
HETATM   17  N1  UNL     1      10.585  10.802  76.344  1.00  0.00    -0.265 NA
HETATM   18  C22 UNL     1       9.689  11.466  75.467  1.00  0.00     0.069 C 
HETATM   19  C23 UNL     1       9.882  11.001  74.242  1.00  0.00    -0.036 C 
ENDROOT
BRANCH   1  20
HETATM   20  C8  UNL     1       9.661   8.442  75.959  1.00  0.00     0.201 C 
BRANCH  20  21
HETATM   21  O2  UNL     1       9.919   7.629  77.045  1.00  0.00    -0.377 OA
BRANCH  21  22
HETATM   22  C7  UNL     1       8.757   6.915  77.306  1.00  0.00     0.261 C 
BRANCH  22  23
HETATM   23  C6  UNL     1       9.048   5.910  78.332  1.00  0.00    -0.078 C 
HETATM   24  C5  UNL     1       9.291   5.070  79.169  1.00  0.00    -0.072 C 
BRANCH  24  25
HETATM   25  C4  UNL     1       9.561   4.049  80.178  1.00  0.00     0.200 C 
BRANCH  25  26
HETATM   26  C3  UNL     1      10.805   4.429  80.928  1.00  0.00     0.071 C 
BRANCH  26  27
HETATM   27  C2  UNL     1      11.071   3.378  81.956  1.00  0.00    -0.033 C 
HETATM   28  C1  UNL     1      12.255   3.290  82.514  1.00  0.00     0.007 C 
ENDBRANCH  26  27
ENDBRANCH  25  26
BRANCH  25  29
HETATM   29  O1  UNL     1       8.516   3.962  81.119  1.00  0.00    -0.383 OA
ATOM     30  H1  UNL     1       8.786   3.337  81.781  1.00  0.00     0.211 HD
ENDBRANCH  25  29
ENDBRANCH  24  25
ENDBRANCH  22  23
ENDBRANCH  21  22
ENDBRANCH  20  21
ENDBRANCH   1  20
BRANCH  19  31
HETATM   31  C24 UNL     1       9.140  11.506  73.081  1.00  0.00     0.012 C 
HETATM   32  C25 UNL     1       9.794  12.516  72.223  1.00  0.00     0.015 C 
HETATM   33  C26 UNL     1       8.674  10.359  72.172  1.00  0.00     0.015 C 
ENDBRANCH  19  31
TORSDOF 9
ENDMDL
MODEL 3
REMARK VINA RESULT: -7.767966676      0.852      1.104
REMARK  9 active torsions:
REMARK  status: ('A' for Active; 'I' for Inactive)
REMARK    1  A    between atoms: C2_2  and  C3_3 
REMARK    2  A    between atoms: C3_3  and  C4_4 
REMARK    3  A    between atoms: C4_4  and  O1_5 
REMARK    4  A    between atoms: C4_4  and  C5_7 
REMARK    5  A    between atoms: C6_8  and  C7_9 
REMARK    6  A    between atoms: C7_9  and  O2_10 
REMARK    7  A    between atoms: O2_10  and  C8_11 
REMARK    8  A    between atoms: C8_11  and  C9_12 
REMARK    9  A    between atoms: C23_30  and  C24_31 
ROOT
HETATM    1  C9  UNL     1      11.946  10.023  75.923  1.00  0.00     0.085 A 
HETATM    2  C10 UNL     1      11.559  10.298  74.528  1.00  0.00    -0.026 C 
HETATM    3  C11 UNL     1      12.492  10.596  73.474  1.00  0.00     0.006 C 
HETATM    4  C12 UNL     1      13.452  11.660  73.386  1.00  0.00     0.099 A 
HETATM    5  C13 UNL     1      13.936  11.796  71.945  1.00  0.00     0.275 C 
HETATM    6  O3  UNL     1      14.525  10.833  71.373  1.00  0.00    -0.264 OA
HETATM    7  O4  UNL     1      13.628  13.037  71.471  1.00  0.00    -0.315 OA
HETATM    8  C14 UNL     1      13.693  13.919  72.575  1.00  0.00     0.134 C 
HETATM    9  C15 UNL     1      15.061  14.512  72.649  1.00  0.00     0.040 C 
HETATM   10  C16 UNL     1      13.359  13.038  73.786  1.00  0.00     0.046 A 
HETATM   11  C17 UNL     1      14.540  12.862  74.719  1.00  0.00     0.027 A 
HETATM   12  C18 UNL     1      14.071  12.679  76.127  1.00  0.00     0.041 A 
HETATM   13  C19 UNL     1      14.135  11.198  76.340  1.00  0.00     0.143 A 
HETATM   14  O5  UNL     1      14.458  10.573  75.181  1.00  0.00    -0.377 OA
HETATM   15  C20 UNL     1      14.713  11.486  74.209  1.00  0.00     0.149 A 
HETATM   16  C21 UNL     1      12.770  10.740  76.771  1.00  0.00     0.123 A 
HETATM   17  N1  UNL     1      11.603  11.455  76.393  1.00  0.00    -0.265 NA
HETATM   18  C22 UNL     1      10.382  11.797  75.758  1.00  0.00     0.069 C 
HETATM   19  C23 UNL     1      10.303  11.130  74.616  1.00  0.00    -0.036 C 
ENDROOT
BRANCH   1  20
HETATM   20  C8  UNL     1      11.090   8.958  76.668  1.00  0.00     0.201 C 
BRANCH  20  21
HETATM   21  O2  UNL     1      10.463   8.128  75.760  1.00  0.00    -0.377 OA
BRANCH  21  22
HETATM   22  C7  UNL     1       9.293   7.678  76.358  1.00  0.00     0.261 C 
BRANCH  22  23
HETATM   23  C6  UNL     1       9.646   6.923  77.562  1.00  0.00    -0.078 C 
HETATM   24  C5  UNL     1       9.948   6.291  78.550  1.00  0.00    -0.072 C 
BRANCH  24  25
HETATM   25  C4  UNL     1      10.297   5.511  79.734  1.00  0.00     0.200 C 
BRANCH  25  26
HETATM   26  C3  UNL     1       9.579   4.193  79.673  1.00  0.00     0.071 C 
BRANCH  26  27
HETATM   27  C2  UNL     1       9.309   3.742  81.072  1.00  0.00    -0.033 C 
HETATM   28  C1  UNL     1      10.269   3.204  81.785  1.00  0.00     0.007 C 
ENDBRANCH  26  27
ENDBRANCH  25  26
BRANCH  25  29
HETATM   29  O1  UNL     1      11.677   5.233  79.782  1.00  0.00    -0.383 OA
ATOM     30  H1  UNL     1      12.064   5.835  80.407  1.00  0.00     0.211 HD
ENDBRANCH  25  29
ENDBRANCH  24  25
ENDBRANCH  22  23
ENDBRANCH  21  22
ENDBRANCH  20  21
ENDBRANCH   1  20
BRANCH  19  31
HETATM   31  C24 UNL     1       9.176  11.284  73.689  1.00  0.00     0.012 C 
HETATM   32  C25 UNL     1       9.358  12.155  72.510  1.00  0.00     0.015 C 
HETATM   33  C26 UNL     1       8.677   9.921  73.184  1.00  0.00     0.015 C 
ENDBRANCH  19  31
TORSDOF 9
ENDMDL
MODEL 4
REMARK VINA RESULT: -7.544472215      1.750      2.553
REMARK  9 active torsions:
REMARK  status: ('A' for Active; 'I' for Inactive)
REMARK    1  A    between atoms: C2_2  and  C3_3 
REMARK    2  A    between atoms: C3_3  and  C4_4 
REMARK    3  A    between atoms: C4_4  and  O1_5 
REMARK    4  A    between atoms: C4_4  and  C5_7 
REMARK    5  A    between atoms: C6_8  and  C7_9 
REMARK    6  A    between atoms: C7_9  and  O2_10 
REMARK    7  A    between atoms: O2_10  and  C8_11 
REMARK    8  A    between atoms: C8_11  and  C9_12 
REMARK    9  A    between atoms: C23_30  and  C24_31 
ROOT
HETATM    1  C9  UNL     1      10.160   9.858  74.640  1.00  0.00     0.085 A 
HETATM    2  C10 UNL     1      11.164  10.218  73.623  1.00  0.00    -0.026 C 
HETATM    3  C11 UNL     1      12.555  10.450  73.908  1.00  0.00     0.006 C 
HETATM    4  C12 UNL     1      13.152  11.409  74.795  1.00  0.00     0.099 A 
HETATM    5  C13 UNL     1      14.640  11.539  74.481  1.00  0.00     0.275 C 
HETATM    6  O3  UNL     1      15.408  10.539  74.585  1.00  0.00    -0.264 OA
HETATM    7  O4  UNL     1      14.921  12.822  74.110  1.00  0.00    -0.315 OA
HETATM    8  C14 UNL     1      14.031  13.655  74.827  1.00  0.00     0.134 C 
HETATM    9  C15 UNL     1      14.686  14.096  76.094  1.00  0.00     0.040 C 
HETATM   10  C16 UNL     1      12.798  12.775  75.070  1.00  0.00     0.046 A 
HETATM   11  C17 UNL     1      12.600  12.444  76.536  1.00  0.00     0.027 A 
HETATM   12  C18 UNL     1      11.147  12.264  76.840  1.00  0.00     0.041 A 
HETATM   13  C19 UNL     1      10.959  10.779  76.844  1.00  0.00     0.143 A 
HETATM   14  O5  UNL     1      12.102  10.162  76.455  1.00  0.00    -0.377 OA
HETATM   15  C20 UNL     1      13.090  11.074  76.273  1.00  0.00     0.149 A 
HETATM   16  C21 UNL     1       9.875  10.454  75.854  1.00  0.00     0.123 A 
HETATM   17  N1  UNL     1       9.618  11.302  74.744  1.00  0.00    -0.265 NA
HETATM   18  C22 UNL     1       9.544  11.792  73.415  1.00  0.00     0.069 C 
HETATM   19  C23 UNL     1      10.465  11.175  72.689  1.00  0.00    -0.036 C 
ENDROOT
BRANCH   1  20
HETATM   20  C8  UNL     1       9.053   8.865  74.179  1.00  0.00     0.201 C 
BRANCH  20  21
HETATM   21  O2  UNL     1       9.179   7.662  74.846  1.00  0.00    -0.377 OA
BRANCH  21  22
HETATM   22  C7  UNL     1       8.321   7.707  75.936  1.00  0.00     0.261 C 
BRANCH  22  23
HETATM   23  C6  UNL     1       8.932   6.964  77.041  1.00  0.00    -0.078 C 
HETATM   24  C5  UNL     1       9.434   6.361  77.963  1.00  0.00    -0.072 C 
BRANCH  24  25
HETATM   25  C4  UNL     1      10.060   5.646  79.071  1.00  0.00     0.200 C 
BRANCH  25  26
HETATM   26  C3  UNL     1       9.369   4.323  79.243  1.00  0.00     0.071 C 
BRANCH  26  27
HETATM   27  C2  UNL     1       9.115   4.114  80.700  1.00  0.00    -0.033 C 
HETATM   28  C1  UNL     1       9.934   3.376  81.411  1.00  0.00     0.007 C 
ENDBRANCH  26  27
ENDBRANCH  25  26
BRANCH  25  29
HETATM   29  O1  UNL     1      11.419   5.377  78.812  1.00  0.00    -0.383 OA
ATOM     30  H1  UNL     1      11.883   5.454  79.638  1.00  0.00     0.211 HD
ENDBRANCH  25  29
ENDBRANCH  24  25
ENDBRANCH  22  23
ENDBRANCH  21  22
ENDBRANCH  20  21
ENDBRANCH   1  20
BRANCH  19  31
HETATM   31  C24 UNL     1      10.685  11.478  71.270  1.00  0.00     0.012 C 
HETATM   32  C25 UNL     1       9.720  10.946  70.288  1.00  0.00     0.015 C 
HETATM   33  C26 UNL     1      10.801  12.991  71.033  1.00  0.00     0.015 C 
ENDBRANCH  19  31
TORSDOF 9
ENDMDL
MODEL 5
REMARK VINA RESULT: -7.486559546      1.918      2.982
REMARK  9 active torsions:
REMARK  status: ('A' for Active; 'I' for Inactive)
REMARK    1  A    between atoms: C2_2  and  C3_3 
REMARK    2  A    between atoms: C3_3  and  C4_4 
REMARK    3  A    between atoms: C4_4  and  O1_5 
REMARK    4  A    between atoms: C4_4  and  C5_7 
REMARK    5  A    between atoms: C6_8  and  C7_9 
REMARK    6  A    between atoms: C7_9  and  O2_10 
REMARK    7  A    between atoms: O2_10  and  C8_11 
REMARK    8  A    between atoms: C8_11  and  C9_12 
REMARK    9  A    between atoms: C23_30  and  C24_31 
ROOT
HETATM    1  C9  UNL     1      11.928  10.088  76.288  1.00  0.00     0.085 A 
HETATM    2  C10 UNL     1      11.425  10.208  74.908  1.00  0.00    -0.026 C 
HETATM    3  C11 UNL     1      12.261  10.435  73.759  1.00  0.00     0.006 C 
HETATM    4  C12 UNL     1      13.162  11.522  73.494  1.00  0.00     0.099 A 
HETATM    5  C13 UNL     1      13.529  11.532  72.012  1.00  0.00     0.275 C 
HETATM    6  O3  UNL     1      14.118  10.541  71.490  1.00  0.00    -0.264 OA
HETATM    7  O4  UNL     1      13.130  12.708  71.448  1.00  0.00    -0.315 OA
HETATM    8  C14 UNL     1      13.236  13.696  72.453  1.00  0.00     0.134 C 
HETATM    9  C15 UNL     1      14.578  14.346  72.362  1.00  0.00     0.040 C 
HETATM   10  C16 UNL     1      13.036  12.928  73.766  1.00  0.00     0.046 A 
HETATM   11  C17 UNL     1      14.290  12.891  74.615  1.00  0.00     0.027 A 
HETATM   12  C18 UNL     1      13.937  12.830  76.067  1.00  0.00     0.041 A 
HETATM   13  C19 UNL     1      14.086  11.382  76.415  1.00  0.00     0.143 A 
HETATM   14  O5  UNL     1      14.349  10.657  75.299  1.00  0.00    -0.377 OA
HETATM   15  C20 UNL     1      14.488  11.479  74.227  1.00  0.00     0.149 A 
HETATM   16  C21 UNL     1      12.780  10.916  76.995  1.00  0.00     0.123 A 
HETATM   17  N1  UNL     1      11.556  11.545  76.644  1.00  0.00    -0.265 NA
HETATM   18  C22 UNL     1      10.275  11.774  76.078  1.00  0.00     0.069 C 
HETATM   19  C23 UNL     1      10.142  10.995  75.014  1.00  0.00    -0.036 C 
ENDROOT
BRANCH   1  20
HETATM   20  C8  UNL     1      11.181   9.069  77.197  1.00  0.00     0.201 C 
BRANCH  20  21
HETATM   21  O2  UNL     1      10.492   8.154  76.425  1.00  0.00    -0.377 OA
BRANCH  21  22
HETATM   22  C7  UNL     1      10.113   7.115  77.265  1.00  0.00     0.261 C 
BRANCH  22  23
HETATM   23  C6  UNL     1       8.656   7.142  77.411  1.00  0.00    -0.078 C 
HETATM   24  C5  UNL     1       7.451   7.151  77.537  1.00  0.00    -0.072 C 
BRANCH  24  25
HETATM   25  C4  UNL     1       5.997   7.151  77.669  1.00  0.00     0.200 C 
BRANCH  25  26
HETATM   26  C3  UNL     1       5.402   7.784  76.443  1.00  0.00     0.071 C 
BRANCH  26  27
HETATM   27  C2  UNL     1       3.914   7.765  76.583  1.00  0.00    -0.033 C 
HETATM   28  C1  UNL     1       3.315   8.645  77.349  1.00  0.00     0.007 C 
ENDBRANCH  26  27
ENDBRANCH  25  26
BRANCH  25  29
HETATM   29  O1  UNL     1       5.485   5.842  77.754  1.00  0.00    -0.383 OA
ATOM     30  H1  UNL     1       5.444   5.615  78.675  1.00  0.00     0.211 HD
ENDBRANCH  25  29
ENDBRANCH  24  25
ENDBRANCH  22  23
ENDBRANCH  21  22
ENDBRANCH  20  21
ENDBRANCH   1  20
BRANCH  19  31
HETATM   31  C24 UNL     1       8.943  11.012  74.169  1.00  0.00     0.012 C 
HETATM   32  C25 UNL     1       9.021  11.700  72.864  1.00  0.00     0.015 C 
HETATM   33  C26 UNL     1       8.418   9.591  73.913  1.00  0.00     0.015 C 
ENDBRANCH  19  31
TORSDOF 9
ENDMDL
