MODEL 1
REMARK VINA RESULT: -8.152769038      0.000      0.000
REMARK  6 active torsions:
REMARK  status: ('A' for Active; 'I' for Inactive)
REMARK    1  A    between atoms: C2_2  and  O1_3 
REMARK    2  A    between atoms: O1_3  and  C3_4 
REMARK    3  A    between atoms: C3_4  and  O2_5 
REMARK    4  A    between atoms: C3_4  and  C5_7 
REMARK    5  A    between atoms: C5_7  and  N1_9 
REMARK       I    between atoms: N1_9  and  C7_11 
REMARK    6  A    between atoms: C7_11  and  C8_13 
ROOT
HETATM    1  C8  UNL     1      12.299  10.397  76.481  1.00  0.00     0.145 C 
HETATM    2  C9  UNL     1      13.222   9.546  77.384  1.00  0.00     0.057 C 
HETATM    3  O4  UNL     1      12.419  11.718  76.792  1.00  0.00    -0.340 OA
HETATM    4  C10 UNL     1      12.448  12.514  75.662  1.00  0.00     0.270 C 
HETATM    5  O5  UNL     1      13.178  13.546  75.499  1.00  0.00    -0.353 OA
HETATM    6  C11 UNL     1      14.329  14.086  75.281  1.00  0.00     0.250 C 
HETATM    7  C12 UNL     1      15.017  13.785  73.954  1.00  0.00     0.159 C 
HETATM    8  O6  UNL     1      15.549  14.763  73.468  1.00  0.00    -0.295 OA
HETATM    9  C13 UNL     1      15.268  12.619  73.000  1.00  0.00     0.027 C 
HETATM   10  C14 UNL     1      16.749  12.447  72.740  1.00  0.00     0.024 C 
HETATM   11  C15 UNL     1      14.465  12.590  71.758  1.00  0.00     0.018 C 
HETATM   12  C16 UNL     1      13.208  11.738  72.068  1.00  0.00     0.007 C 
HETATM   13  C17 UNL     1      13.322  11.949  73.564  1.00  0.00     0.008 C 
HETATM   14  C18 UNL     1      12.319  11.505  74.484  1.00  0.00     0.017 C 
HETATM   15  C19 UNL     1      10.953  11.559  73.844  1.00  0.00     0.021 C 
HETATM   16  C20 UNL     1      12.633  10.163  75.037  1.00  0.00     0.043 C 
HETATM   17  C21 UNL     1      13.888   9.506  74.701  1.00  0.00     0.010 C 
HETATM   18  C22 UNL     1      14.676  10.093  73.503  1.00  0.00     0.011 C 
HETATM   19  C23 UNL     1      14.692  11.517  73.830  1.00  0.00    -0.025 C 
HETATM   20  C24 UNL     1      15.513  11.609  75.032  1.00  0.00     0.016 C 
ENDROOT
BRANCH   1  21
HETATM   21  C7  UNL     1      10.940   9.937  76.833  1.00  0.00     0.253 C 
HETATM   22  N1  UNL     1      10.438   8.623  76.670  1.00  0.00    -0.349 N 
ATOM     23  H1  UNL     1      11.056   7.915  76.275  1.00  0.00     0.163 HD
HETATM   24  O3  UNL     1      10.143  10.799  77.327  1.00  0.00    -0.270 OA
BRANCH  22  25
HETATM   25  C5  UNL     1       9.105   8.239  77.032  1.00  0.00     0.135 C 
HETATM   26  C6  UNL     1       8.404   7.932  75.688  1.00  0.00     0.037 C 
BRANCH  25  27
HETATM   27  C3  UNL     1       9.131   6.943  77.791  1.00  0.00     0.281 C 
BRANCH  27  28
HETATM   28  O1  UNL     1       8.573   7.081  79.065  1.00  0.00    -0.360 OA
BRANCH  28  29
HETATM   29  C2  UNL     1       7.200   7.066  79.036  1.00  0.00     0.166 C 
HETATM   30  C1  UNL     1       6.653   5.884  78.264  1.00  0.00     0.033 C 
ENDBRANCH  28  29
ENDBRANCH  27  28
BRANCH  27  31
HETATM   31  O2  UNL     1      10.350   6.315  77.820  1.00  0.00    -0.364 OA
HETATM   32  C4  UNL     1      10.291   5.017  78.317  1.00  0.00     0.204 C 
ENDBRANCH  27  31
ENDBRANCH  25  27
ENDBRANCH  22  25
ENDBRANCH   1  21
TORSDOF 6
ENDMDL
MODEL 2
REMARK VINA RESULT: -8.149977112      0.539      1.420
REMARK  6 active torsions:
REMARK  status: ('A' for Active; 'I' for Inactive)
REMARK    1  A    between atoms: C2_2  and  O1_3 
REMARK    2  A    between atoms: O1_3  and  C3_4 
REMARK    3  A    between atoms: C3_4  and  O2_5 
REMARK    4  A    between atoms: C3_4  and  C5_7 
REMARK    5  A    between atoms: C5_7  and  N1_9 
REMARK       I    between atoms: N1_9  and  C7_11 
REMARK    6  A    between atoms: C7_11  and  C8_13 
ROOT
HETATM    1  C8  UNL     1      12.141  10.249  76.612  1.00  0.00     0.145 C 
HETATM    2  C9  UNL     1      13.062   9.444  77.557  1.00  0.00     0.057 C 
HETATM    3  O4  UNL     1      12.235  11.581  76.880  1.00  0.00    -0.340 OA
HETATM    4  C10 UNL     1      12.269  12.339  75.724  1.00  0.00     0.270 C 
HETATM    5  O5  UNL     1      12.986  13.377  75.537  1.00  0.00    -0.353 OA
HETATM    6  C11 UNL     1      14.131  13.928  75.319  1.00  0.00     0.250 C 
HETATM    7  C12 UNL     1      14.845  13.593  74.013  1.00  0.00     0.159 C 
HETATM    8  O6  UNL     1      15.369  14.562  73.502  1.00  0.00    -0.295 OA
HETATM    9  C13 UNL     1      15.129  12.399  73.103  1.00  0.00     0.027 C 
HETATM   10  C14 UNL     1      16.616  12.243  72.871  1.00  0.00     0.024 C 
HETATM   11  C15 UNL     1      14.345  12.316  71.851  1.00  0.00     0.018 C 
HETATM   12  C16 UNL     1      13.097  11.454  72.171  1.00  0.00     0.007 C 
HETATM   13  C17 UNL     1      13.185  11.717  73.660  1.00  0.00     0.008 C 
HETATM   14  C18 UNL     1      12.174  11.289  74.579  1.00  0.00     0.017 C 
HETATM   15  C19 UNL     1      10.818  11.299  73.917  1.00  0.00     0.021 C 
HETATM   16  C20 UNL     1      12.500   9.972  75.182  1.00  0.00     0.043 C 
HETATM   17  C21 UNL     1      13.771   9.324  74.888  1.00  0.00     0.010 C 
HETATM   18  C22 UNL     1      14.568   9.882  73.682  1.00  0.00     0.011 C 
HETATM   19  C23 UNL     1      14.557  11.317  73.961  1.00  0.00    -0.025 C 
HETATM   20  C24 UNL     1      15.357  11.462  75.172  1.00  0.00     0.016 C 
ENDROOT
BRANCH   1  21
HETATM   21  C7  UNL     1      10.784   9.779  76.959  1.00  0.00     0.253 C 
HETATM   22  N1  UNL     1      10.339   8.435  76.944  1.00  0.00    -0.349 N 
ATOM     23  H1  UNL     1      11.002   7.709  76.672  1.00  0.00     0.163 HD
HETATM   24  O3  UNL     1       9.931  10.661  77.303  1.00  0.00    -0.270 OA
BRANCH  22  25
HETATM   25  C5  UNL     1       9.005   8.043  77.292  1.00  0.00     0.135 C 
HETATM   26  C6  UNL     1       8.303   7.787  75.938  1.00  0.00     0.037 C 
BRANCH  25  27
HETATM   27  C3  UNL     1       9.026   6.720  78.005  1.00  0.00     0.281 C 
BRANCH  27  28
HETATM   28  O1  UNL     1      10.112   5.936  77.603  1.00  0.00    -0.360 OA
BRANCH  28  29
HETATM   29  C2  UNL     1      10.457   5.002  78.549  1.00  0.00     0.166 C 
HETATM   30  C1  UNL     1      10.865   5.635  79.863  1.00  0.00     0.033 C 
ENDBRANCH  28  29
ENDBRANCH  27  28
BRANCH  27  31
HETATM   31  O2  UNL     1       7.842   6.029  77.973  1.00  0.00    -0.364 OA
HETATM   32  C4  UNL     1       7.033   6.269  79.079  1.00  0.00     0.204 C 
ENDBRANCH  27  31
ENDBRANCH  25  27
ENDBRANCH  22  25
ENDBRANCH   1  21
TORSDOF 6
ENDMDL
MODEL 3
REMARK VINA RESULT: -7.125819357      1.885      3.292
REMARK  6 active torsions:
REMARK  status: ('A' for Active; 'I' for Inactive)
REMARK    1  A    between atoms: C2_2  and  O1_3 
REMARK    2  A    between atoms: O1_3  and  C3_4 
REMARK    3  A    between atoms: C3_4  and  O2_5 
REMARK    4  A    between atoms: C3_4  and  C5_7 
REMARK    5  A    between atoms: C5_7  and  N1_9 
REMARK       I    between atoms: N1_9  and  C7_11 
REMARK    6  A    between atoms: C7_11  and  C8_13 
ROOT
HETATM    1  C8  UNL     1      10.494   8.938  75.566  1.00  0.00     0.145 C 
HETATM    2  C9  UNL     1       9.457   8.482  74.513  1.00  0.00     0.057 C 
HETATM    3  O4  UNL     1      11.711   8.383  75.303  1.00  0.00    -0.340 OA
HETATM    4  C10 UNL     1      12.741   9.286  75.485  1.00  0.00     0.270 C 
HETATM    5  O5  UNL     1      13.779   9.386  74.752  1.00  0.00    -0.353 OA
HETATM    6  C11 UNL     1      14.349   9.742  73.652  1.00  0.00     0.250 C 
HETATM    7  C12 UNL     1      14.351  11.226  73.299  1.00  0.00     0.159 C 
HETATM    8  O6  UNL     1      15.410  11.597  72.836  1.00  0.00    -0.295 OA
HETATM    9  C13 UNL     1      13.429  12.443  73.337  1.00  0.00     0.027 C 
HETATM   10  C14 UNL     1      13.313  13.072  71.965  1.00  0.00     0.024 C 
HETATM   11  C15 UNL     1      13.684  13.439  74.400  1.00  0.00     0.018 C 
HETATM   12  C16 UNL     1      12.790  13.039  75.601  1.00  0.00     0.007 C 
HETATM   13  C17 UNL     1      12.658  11.602  75.141  1.00  0.00     0.008 C 
HETATM   14  C18 UNL     1      12.023  10.593  75.934  1.00  0.00     0.017 C 
HETATM   15  C19 UNL     1      12.227  10.870  77.403  1.00  0.00     0.021 C 
HETATM   16  C20 UNL     1      10.590  10.435  75.581  1.00  0.00     0.043 C 
HETATM   17  C21 UNL     1      10.019  11.188  74.473  1.00  0.00     0.010 C 
HETATM   18  C22 UNL     1      10.857  12.379  73.944  1.00  0.00     0.011 C 
HETATM   19  C23 UNL     1      12.171  11.763  73.772  1.00  0.00    -0.025 C 
HETATM   20  C24 UNL     1      11.985  10.794  72.698  1.00  0.00     0.016 C 
ENDROOT
BRANCH   1  21
HETATM   21  C7  UNL     1       9.973   8.388  76.834  1.00  0.00     0.253 C 
HETATM   22  N1  UNL     1      10.249   7.103  77.360  1.00  0.00    -0.349 N 
ATOM     23  H1  UNL     1      10.863   6.485  76.830  1.00  0.00     0.163 HD
HETATM   24  O3  UNL     1       9.201   9.135  77.520  1.00  0.00    -0.270 OA
BRANCH  22  25
HETATM   25  C5  UNL     1       9.710   6.627  78.600  1.00  0.00     0.135 C 
HETATM   26  C6  UNL     1       8.421   5.870  78.205  1.00  0.00     0.037 C 
BRANCH  25  27
HETATM   27  C3  UNL     1      10.627   5.598  79.199  1.00  0.00     0.281 C 
BRANCH  27  28
HETATM   28  O1  UNL     1       9.974   4.378  79.394  1.00  0.00    -0.360 OA
BRANCH  28  29
HETATM   29  C2  UNL     1      10.045   3.952  80.698  1.00  0.00     0.166 C 
HETATM   30  C1  UNL     1       8.682   3.865  81.350  1.00  0.00     0.033 C 
ENDBRANCH  28  29
ENDBRANCH  27  28
BRANCH  27  31
HETATM   31  O2  UNL     1      11.306   6.012  80.317  1.00  0.00    -0.364 OA
HETATM   32  C4  UNL     1      12.684   6.075  80.134  1.00  0.00     0.204 C 
ENDBRANCH  27  31
ENDBRANCH  25  27
ENDBRANCH  22  25
ENDBRANCH   1  21
TORSDOF 6
ENDMDL
MODEL 4
REMARK VINA RESULT: -7.099711059      1.997      3.633
REMARK  6 active torsions:
REMARK  status: ('A' for Active; 'I' for Inactive)
REMARK    1  A    between atoms: C2_2  and  O1_3 
REMARK    2  A    between atoms: O1_3  and  C3_4 
REMARK    3  A    between atoms: C3_4  and  O2_5 
REMARK    4  A    between atoms: C3_4  and  C5_7 
REMARK    5  A    between atoms: C5_7  and  N1_9 
REMARK       I    between atoms: N1_9  and  C7_11 
REMARK    6  A    between atoms: C7_11  and  C8_13 
ROOT
HETATM    1  C8  UNL     1      10.318   9.087  75.991  1.00  0.00     0.145 C 
HETATM    2  C9  UNL     1       9.025   9.375  75.194  1.00  0.00     0.057 C 
HETATM    3  O4  UNL     1      11.251   8.506  75.185  1.00  0.00    -0.340 OA
HETATM    4  C10 UNL     1      12.517   9.013  75.411  1.00  0.00     0.270 C 
HETATM    5  O5  UNL     1      13.393   9.250  74.515  1.00  0.00    -0.353 OA
HETATM    6  C11 UNL     1      13.839   9.966  73.541  1.00  0.00     0.250 C 
HETATM    7  C12 UNL     1      14.217  11.414  73.836  1.00  0.00     0.159 C 
HETATM    8  O6  UNL     1      15.239  11.756  73.279  1.00  0.00    -0.295 OA
HETATM    9  C13 UNL     1      13.716  12.619  74.631  1.00  0.00     0.027 C 
HETATM   10  C14 UNL     1      13.551  13.824  73.731  1.00  0.00     0.024 C 
HETATM   11  C15 UNL     1      14.437  12.938  75.883  1.00  0.00     0.018 C 
HETATM   12  C16 UNL     1      13.691  12.195  77.020  1.00  0.00     0.007 C 
HETATM   13  C17 UNL     1      13.062  11.192  76.076  1.00  0.00     0.008 C 
HETATM   14  C18 UNL     1      12.308  10.066  76.538  1.00  0.00     0.017 C 
HETATM   15  C19 UNL     1      12.839   9.582  77.865  1.00  0.00     0.021 C 
HETATM   16  C20 UNL     1      10.853  10.358  76.583  1.00  0.00     0.043 C 
HETATM   17  C21 UNL     1      10.344  11.632  76.095  1.00  0.00     0.010 C 
HETATM   18  C22 UNL     1      11.389  12.755  75.877  1.00  0.00     0.011 C 
HETATM   19  C23 UNL     1      12.411  12.059  75.097  1.00  0.00    -0.025 C 
HETATM   20  C24 UNL     1      11.762  11.757  73.826  1.00  0.00     0.016 C 
ENDROOT
BRANCH   1  21
HETATM   21  C7  UNL     1       9.890   8.116  77.018  1.00  0.00     0.253 C 
HETATM   22  N1  UNL     1      10.708   7.135  77.628  1.00  0.00    -0.349 N 
ATOM     23  H1  UNL     1      11.686   7.077  77.346  1.00  0.00     0.163 HD
HETATM   24  O3  UNL     1       8.672   8.160  77.391  1.00  0.00    -0.270 OA
BRANCH  22  25
HETATM   25  C5  UNL     1      10.230   6.218  78.621  1.00  0.00     0.135 C 
HETATM   26  C6  UNL     1       9.962   4.904  77.850  1.00  0.00     0.037 C 
BRANCH  25  27
HETATM   27  C3  UNL     1      11.325   5.905  79.602  1.00  0.00     0.281 C 
BRANCH  27  28
HETATM   28  O1  UNL     1      10.810   5.558  80.854  1.00  0.00    -0.360 OA
BRANCH  28  29
HETATM   29  C2  UNL     1      10.805   4.199  81.056  1.00  0.00     0.166 C 
HETATM   30  C1  UNL     1       9.406   3.648  81.234  1.00  0.00     0.033 C 
ENDBRANCH  28  29
ENDBRANCH  27  28
BRANCH  27  31
HETATM   31  O2  UNL     1      12.312   6.854  79.687  1.00  0.00    -0.364 OA
HETATM   32  C4  UNL     1      13.400   6.451  80.455  1.00  0.00     0.204 C 
ENDBRANCH  27  31
ENDBRANCH  25  27
ENDBRANCH  22  25
ENDBRANCH   1  21
TORSDOF 6
ENDMDL
MODEL 5
REMARK VINA RESULT: -6.877742503      1.524      2.140
REMARK  6 active torsions:
REMARK  status: ('A' for Active; 'I' for Inactive)
REMARK    1  A    between atoms: C2_2  and  O1_3 
REMARK    2  A    between atoms: O1_3  and  C3_4 
REMARK    3  A    between atoms: C3_4  and  O2_5 
REMARK    4  A    between atoms: C3_4  and  C5_7 
REMARK    5  A    between atoms: C5_7  and  N1_9 
REMARK       I    between atoms: N1_9  and  C7_11 
REMARK    6  A    between atoms: C7_11  and  C8_13 
ROOT
HETATM    1  C8  UNL     1      13.453  10.338  75.886  1.00  0.00     0.145 C 
HETATM    2  C9  UNL     1      14.731   9.468  75.897  1.00  0.00     0.057 C 
HETATM    3  O4  UNL     1      13.706  11.557  76.440  1.00  0.00    -0.340 OA
HETATM    4  C10 UNL     1      13.101  12.580  75.735  1.00  0.00     0.270 C 
HETATM    5  O5  UNL     1      13.609  13.727  75.506  1.00  0.00    -0.353 OA
HETATM    6  C11 UNL     1      14.446  14.481  74.879  1.00  0.00     0.250 C 
HETATM    7  C12 UNL     1      14.300  14.602  73.366  1.00  0.00     0.159 C 
HETATM    8  O6  UNL     1      14.465  15.736  72.966  1.00  0.00    -0.295 OA
HETATM    9  C13 UNL     1      14.003  13.736  72.142  1.00  0.00     0.027 C 
HETATM   10  C14 UNL     1      15.102  13.870  71.111  1.00  0.00     0.024 C 
HETATM   11  C15 UNL     1      12.652  13.857  71.553  1.00  0.00     0.018 C 
HETATM   12  C16 UNL     1      11.781  12.764  72.225  1.00  0.00     0.007 C 
HETATM   13  C17 UNL     1      12.692  12.650  73.429  1.00  0.00     0.008 C 
HETATM   14  C18 UNL     1      12.362  11.854  74.573  1.00  0.00     0.017 C 
HETATM   15  C19 UNL     1      10.868  11.828  74.785  1.00  0.00     0.021 C 
HETATM   16  C20 UNL     1      12.945  10.492  74.483  1.00  0.00     0.043 C 
HETATM   17  C21 UNL     1      13.821  10.139  73.374  1.00  0.00     0.010 C 
HETATM   18  C22 UNL     1      13.817  11.100  72.159  1.00  0.00     0.011 C 
HETATM   19  C23 UNL     1      13.990  12.398  72.808  1.00  0.00    -0.025 C 
HETATM   20  C24 UNL     1      15.334  12.349  73.374  1.00  0.00     0.016 C 
ENDROOT
BRANCH   1  21
HETATM   21  C7  UNL     1      12.515   9.596  76.754  1.00  0.00     0.253 C 
HETATM   22  N1  UNL     1      11.366   8.891  76.324  1.00  0.00    -0.349 N 
ATOM     23  H1  UNL     1      11.148   8.881  75.328  1.00  0.00     0.163 HD
HETATM   24  O3  UNL     1      12.758   9.590  78.005  1.00  0.00    -0.270 OA
BRANCH  22  25
HETATM   25  C5  UNL     1      10.492   8.189  77.219  1.00  0.00     0.135 C 
HETATM   26  C6  UNL     1       9.455   9.245  77.668  1.00  0.00     0.037 C 
BRANCH  25  27
HETATM   27  C3  UNL     1       9.718   7.142  76.468  1.00  0.00     0.281 C 
BRANCH  27  28
HETATM   28  O1  UNL     1       8.671   7.705  75.732  1.00  0.00    -0.360 OA
BRANCH  28  29
HETATM   29  C2  UNL     1       8.948   7.754  74.388  1.00  0.00     0.166 C 
HETATM   30  C1  UNL     1       8.592   9.092  73.775  1.00  0.00     0.033 C 
ENDBRANCH  28  29
ENDBRANCH  27  28
BRANCH  27  31
HETATM   31  O2  UNL     1       9.311   6.073  77.224  1.00  0.00    -0.364 OA
HETATM   32  C4  UNL     1      10.197   5.751  78.248  1.00  0.00     0.204 C 
ENDBRANCH  27  31
ENDBRANCH  25  27
ENDBRANCH  22  25
ENDBRANCH   1  21
TORSDOF 6
ENDMDL
