MODEL 1
REMARK VINA RESULT: -8.097645315      0.000      0.000
REMARK  15 active torsions:
REMARK  status: ('A' for Active; 'I' for Inactive)
REMARK    1  A    between atoms: O1_2  and  C2_3 
REMARK    2  A    between atoms: C2_3  and  C3_4 
REMARK    3  A    between atoms: C3_4  and  C4_5 
REMARK    4  A    between atoms: C4_5  and  N1_6 
REMARK    5  A    between atoms: N1_6  and  C5_7 
REMARK    6  A    between atoms: N1_6  and  C13_22 
REMARK    7  A    between atoms: C5_7  and  O2_8 
REMARK    8  A    between atoms: C5_7  and  C6_10 
REMARK    9  A    between atoms: C10_16  and  C11_17 
REMARK   10  A    between atoms: C13_22  and  C14_23 
REMARK   11  A    between atoms: C13_22  and  C19_31 
REMARK       I    between atoms: C14_23  and  N4_25 
REMARK   12  A    between atoms: N4_25  and  C15_27 
REMARK   13  A    between atoms: C21_33  and  O5_34 
REMARK   14  A    between atoms: C23_36  and  O6_37 
REMARK   15  A    between atoms: C25_39  and  O7_40 
ROOT
HETATM    1  N1  UNL     1     121.578  57.130  17.911  1.00  0.00    -0.321 N 
ENDROOT
BRANCH   1   2
HETATM    2  C4  UNL     1     120.553  57.425  18.877  1.00  0.00     0.133 C 
BRANCH   2   3
HETATM    3  C3  UNL     1     119.527  58.362  18.242  1.00  0.00     0.046 C 
BRANCH   3   4
HETATM    4  C2  UNL     1     119.335  59.597  19.068  1.00  0.00     0.168 C 
BRANCH   4   5
HETATM    5  O1  UNL     1     119.685  60.745  18.418  1.00  0.00    -0.396 OA
HETATM    6  C1  UNL     1     120.023  60.526  17.093  1.00  0.00     0.201 C 
ENDBRANCH   4   5
ENDBRANCH   3   4
ENDBRANCH   2   3
ENDBRANCH   1   2
BRANCH   1   7
HETATM    7  C5  UNL     1     121.317  56.973  16.546  1.00  0.00     0.160 C 
BRANCH   7   8
HETATM    8  O2  UNL     1     121.859  57.858  15.726  1.00  0.00    -0.345 OA
ATOM      9  H2  UNL     1     122.088  57.554  14.855  1.00  0.00     0.219 HD
ENDBRANCH   7   8
BRANCH   7  10
HETATM   10  C6  UNL     1     120.537  55.985  15.822  1.00  0.00     0.057 A 
HETATM   11  C7  UNL     1     119.211  55.760  15.631  1.00  0.00     0.037 A 
HETATM   12  C8  UNL     1     118.822  54.723  14.863  1.00  0.00     0.000 A 
HETATM   13  C9  UNL     1     117.619  54.139  14.412  1.00  0.00     0.101 A 
HETATM   14  C12 UNL     1     119.794  53.946  14.313  1.00  0.00     0.049 A 
HETATM   15  N2  UNL     1     117.914  53.074  13.639  1.00  0.00    -0.360 N 
HETATM   16  C10 UNL     1     119.238  52.908  13.543  1.00  0.00     0.116 A 
ATOM     17  H2  UNL     1     117.222  52.476  13.188  1.00  0.00     0.165 HD
HETATM   18  S1  UNL     1     121.219  54.669  14.871  1.00  0.00    -0.083 SA
BRANCH  16  19
HETATM   19  C11 UNL     1     119.990  51.913  12.829  1.00  0.00     0.282 C 
HETATM   20  N3  UNL     1     119.619  50.544  12.939  1.00  0.00    -0.056 NA
HETATM   21  O3  UNL     1     120.959  52.205  12.114  1.00  0.00    -0.269 OA
ENDBRANCH  16  19
ENDBRANCH   7  10
ENDBRANCH   1   7
BRANCH   1  22
HETATM   22  C13 UNL     1     122.963  57.054  18.412  1.00  0.00     0.115 C 
BRANCH  22  23
HETATM   23  C14 UNL     1     123.774  56.042  17.765  1.00  0.00     0.269 C 
HETATM   24  O4  UNL     1     124.161  55.011  18.419  1.00  0.00    -0.266 OA
HETATM   25  N4  UNL     1     124.199  56.085  16.417  1.00  0.00    -0.348 N 
ATOM     26  H4  UNL     1     123.921  56.880  15.844  1.00  0.00     0.163 HD
BRANCH  25  27
HETATM   27  C15 UNL     1     125.012  55.047  15.817  1.00  0.00     0.022 C 
HETATM   28  C16 UNL     1     126.464  55.149  16.197  1.00  0.00     0.037 C 
HETATM   29  C17 UNL     1     124.922  55.145  14.309  1.00  0.00     0.037 C 
HETATM   30  C18 UNL     1     124.526  53.677  16.205  1.00  0.00     0.037 C 
ENDBRANCH  25  27
ENDBRANCH  22  23
BRANCH  22  31
HETATM   31  C19 UNL     1     123.579  58.358  18.708  1.00  0.00     0.002 A 
HETATM   32  C20 UNL     1     124.978  58.508  18.598  1.00  0.00     0.053 A 
HETATM   33  C21 UNL     1     125.644  59.672  18.879  1.00  0.00     0.105 A 
HETATM   34  C23 UNL     1     124.918  60.749  19.289  1.00  0.00     0.135 A 
HETATM   35  C25 UNL     1     123.561  60.673  19.419  1.00  0.00     0.105 A 
HETATM   36  C27 UNL     1     122.920  59.463  19.122  1.00  0.00     0.053 A 
BRANCH  33  37
HETATM   37  O5  UNL     1     127.030  59.711  18.736  1.00  0.00    -0.353 OA
HETATM   38  C22 UNL     1     127.631  58.815  17.834  1.00  0.00     0.210 C 
ENDBRANCH  33  37
BRANCH  34  39
HETATM   39  O6  UNL     1     125.580  61.935  19.577  1.00  0.00    -0.351 OA
HETATM   40  C24 UNL     1     126.075  62.221  20.866  1.00  0.00     0.210 C 
ENDBRANCH  34  39
BRANCH  35  41
HETATM   41  O7  UNL     1     122.817  61.793  19.845  1.00  0.00    -0.353 OA
HETATM   42  C26 UNL     1     121.891  61.644  20.898  1.00  0.00     0.210 C 
ENDBRANCH  35  41
ENDBRANCH  22  31
ENDBRANCH   1  22
TORSDOF 15
ENDMDL
MODEL 2
REMARK VINA RESULT: -8.089341754      0.123      2.185
REMARK  15 active torsions:
REMARK  status: ('A' for Active; 'I' for Inactive)
REMARK    1  A    between atoms: O1_2  and  C2_3 
REMARK    2  A    between atoms: C2_3  and  C3_4 
REMARK    3  A    between atoms: C3_4  and  C4_5 
REMARK    4  A    between atoms: C4_5  and  N1_6 
REMARK    5  A    between atoms: N1_6  and  C5_7 
REMARK    6  A    between atoms: N1_6  and  C13_22 
REMARK    7  A    between atoms: C5_7  and  O2_8 
REMARK    8  A    between atoms: C5_7  and  C6_10 
REMARK    9  A    between atoms: C10_16  and  C11_17 
REMARK   10  A    between atoms: C13_22  and  C14_23 
REMARK   11  A    between atoms: C13_22  and  C19_31 
REMARK       I    between atoms: C14_23  and  N4_25 
REMARK   12  A    between atoms: N4_25  and  C15_27 
REMARK   13  A    between atoms: C21_33  and  O5_34 
REMARK   14  A    between atoms: C23_36  and  O6_37 
REMARK   15  A    between atoms: C25_39  and  O7_40 
ROOT
HETATM    1  N1  UNL     1     121.620  57.162  17.943  1.00  0.00    -0.321 N 
ENDROOT
BRANCH   1   2
HETATM    2  C4  UNL     1     120.623  57.507  18.922  1.00  0.00     0.133 C 
BRANCH   2   3
HETATM    3  C3  UNL     1     119.578  58.411  18.270  1.00  0.00     0.046 C 
BRANCH   3   4
HETATM    4  C2  UNL     1     119.352  59.652  19.079  1.00  0.00     0.168 C 
BRANCH   4   5
HETATM    5  O1  UNL     1     119.691  60.798  18.422  1.00  0.00    -0.396 OA
HETATM    6  C1  UNL     1     120.048  60.572  17.103  1.00  0.00     0.201 C 
ENDBRANCH   4   5
ENDBRANCH   3   4
ENDBRANCH   2   3
ENDBRANCH   1   2
BRANCH   1   7
HETATM    7  C5  UNL     1     121.335  57.020  16.582  1.00  0.00     0.160 C 
BRANCH   7   8
HETATM    8  O2  UNL     1     121.861  57.915  15.762  1.00  0.00    -0.345 OA
ATOM      9  H2  UNL     1     121.272  58.329  15.142  1.00  0.00     0.219 HD
ENDBRANCH   7   8
BRANCH   7  10
HETATM   10  C6  UNL     1     120.543  56.040  15.860  1.00  0.00     0.057 A 
HETATM   11  C7  UNL     1     119.214  55.827  15.673  1.00  0.00     0.037 A 
HETATM   12  C8  UNL     1     118.813  54.794  14.908  1.00  0.00     0.000 A 
HETATM   13  C9  UNL     1     117.603  54.221  14.460  1.00  0.00     0.101 A 
HETATM   14  C12 UNL     1     119.775  54.006  14.356  1.00  0.00     0.049 A 
HETATM   15  N2  UNL     1     117.886  53.153  13.687  1.00  0.00    -0.360 N 
HETATM   16  C10 UNL     1     119.208  52.974  13.588  1.00  0.00     0.116 A 
ATOM     17  H2  UNL     1     117.186  52.561  13.239  1.00  0.00     0.165 HD
HETATM   18  S1  UNL     1     121.209  54.716  14.909  1.00  0.00    -0.083 SA
BRANCH  16  19
HETATM   19  C11 UNL     1     119.948  51.970  12.873  1.00  0.00     0.282 C 
HETATM   20  N3  UNL     1     119.574  50.603  12.999  1.00  0.00    -0.056 NA
HETATM   21  O3  UNL     1     120.909  52.253  12.143  1.00  0.00    -0.269 OA
ENDBRANCH  16  19
ENDBRANCH   7  10
ENDBRANCH   1   7
BRANCH   1  22
HETATM   22  C13 UNL     1     123.006  57.015  18.427  1.00  0.00     0.115 C 
BRANCH  22  23
HETATM   23  C14 UNL     1     123.763  55.980  17.754  1.00  0.00     0.269 C 
HETATM   24  O4  UNL     1     124.051  54.891  18.365  1.00  0.00    -0.266 OA
HETATM   25  N4  UNL     1     124.237  56.057  16.424  1.00  0.00    -0.348 N 
ATOM     26  H4  UNL     1     124.038  56.899  15.885  1.00  0.00     0.163 HD
BRANCH  25  27
HETATM   27  C15 UNL     1     124.993  54.994  15.796  1.00  0.00     0.022 C 
HETATM   28  C16 UNL     1     124.519  53.624  16.199  1.00  0.00     0.037 C 
HETATM   29  C17 UNL     1     126.450  55.111  16.187  1.00  0.00     0.037 C 
HETATM   30  C18 UNL     1     124.923  55.086  14.295  1.00  0.00     0.037 C 
ENDBRANCH  25  27
ENDBRANCH  22  23
BRANCH  22  31
HETATM   31  C19 UNL     1     123.683  58.285  18.739  1.00  0.00     0.002 A 
HETATM   32  C20 UNL     1     122.918  59.403  19.133  1.00  0.00     0.053 A 
HETATM   33  C21 UNL     1     123.454  60.632  19.416  1.00  0.00     0.105 A 
HETATM   34  C23 UNL     1     124.803  60.787  19.312  1.00  0.00     0.135 A 
HETATM   35  C25 UNL     1     125.603  59.748  18.935  1.00  0.00     0.105 A 
HETATM   36  C27 UNL     1     125.013  58.508  18.654  1.00  0.00     0.053 A 
BRANCH  33  37
HETATM   37  O5  UNL     1     122.605  61.670  19.796  1.00  0.00    -0.353 OA
HETATM   38  C22 UNL     1     121.955  61.576  21.040  1.00  0.00     0.210 C 
ENDBRANCH  33  37
BRANCH  34  39
HETATM   39  O6  UNL     1     125.360  62.027  19.597  1.00  0.00    -0.351 OA
HETATM   40  C24 UNL     1     125.850  62.350  20.879  1.00  0.00     0.210 C 
ENDBRANCH  34  39
BRANCH  35  41
HETATM   41  O7  UNL     1     126.999  59.917  18.830  1.00  0.00    -0.353 OA
HETATM   42  C26 UNL     1     127.737  59.051  17.996  1.00  0.00     0.210 C 
ENDBRANCH  35  41
ENDBRANCH  22  31
ENDBRANCH   1  22
TORSDOF 15
ENDMDL
MODEL 3
REMARK VINA RESULT: -8.060334550      2.543      9.371
REMARK  15 active torsions:
REMARK  status: ('A' for Active; 'I' for Inactive)
REMARK    1  A    between atoms: O1_2  and  C2_3 
REMARK    2  A    between atoms: C2_3  and  C3_4 
REMARK    3  A    between atoms: C3_4  and  C4_5 
REMARK    4  A    between atoms: C4_5  and  N1_6 
REMARK    5  A    between atoms: N1_6  and  C5_7 
REMARK    6  A    between atoms: N1_6  and  C13_22 
REMARK    7  A    between atoms: C5_7  and  O2_8 
REMARK    8  A    between atoms: C5_7  and  C6_10 
REMARK    9  A    between atoms: C10_16  and  C11_17 
REMARK   10  A    between atoms: C13_22  and  C14_23 
REMARK   11  A    between atoms: C13_22  and  C19_31 
REMARK       I    between atoms: C14_23  and  N4_25 
REMARK   12  A    between atoms: N4_25  and  C15_27 
REMARK   13  A    between atoms: C21_33  and  O5_34 
REMARK   14  A    between atoms: C23_36  and  O6_37 
REMARK   15  A    between atoms: C25_39  and  O7_40 
ROOT
HETATM    1  N1  UNL     1     122.787  55.489  16.600  1.00  0.00    -0.321 N 
ENDROOT
BRANCH   1   2
HETATM    2  C4  UNL     1     123.748  54.467  16.922  1.00  0.00     0.133 C 
BRANCH   2   3
HETATM    3  C3  UNL     1     125.102  54.855  16.329  1.00  0.00     0.046 C 
BRANCH   3   4
HETATM    4  C2  UNL     1     125.860  53.647  15.870  1.00  0.00     0.168 C 
BRANCH   4   5
HETATM    5  O1  UNL     1     125.581  53.287  14.584  1.00  0.00    -0.396 OA
HETATM    6  C1  UNL     1     125.349  54.377  13.762  1.00  0.00     0.201 C 
ENDBRANCH   4   5
ENDBRANCH   3   4
ENDBRANCH   2   3
ENDBRANCH   1   2
BRANCH   1   7
HETATM    7  C5  UNL     1     123.139  56.824  16.376  1.00  0.00     0.160 C 
BRANCH   7   8
HETATM    8  O2  UNL     1     123.121  57.246  15.123  1.00  0.00    -0.345 OA
ATOM      9  H2  UNL     1     123.029  58.181  14.985  1.00  0.00     0.219 HD
ENDBRANCH   7   8
BRANCH   7  10
HETATM   10  C6  UNL     1     123.534  57.882  17.288  1.00  0.00     0.057 A 
HETATM   11  C7  UNL     1     122.899  58.625  18.232  1.00  0.00     0.037 A 
HETATM   12  C8  UNL     1     123.596  59.544  18.927  1.00  0.00     0.000 A 
HETATM   13  C9  UNL     1     123.365  60.493  19.947  1.00  0.00     0.101 A 
HETATM   14  C12 UNL     1     124.919  59.683  18.641  1.00  0.00     0.049 A 
HETATM   15  N2  UNL     1     124.521  61.134  20.216  1.00  0.00    -0.360 N 
HETATM   16  C10 UNL     1     125.511  60.675  19.441  1.00  0.00     0.116 A 
ATOM     17  H2  UNL     1     124.626  61.869  20.915  1.00  0.00     0.165 HD
HETATM   18  S1  UNL     1     125.164  58.537  17.419  1.00  0.00    -0.083 SA
BRANCH  16  19
HETATM   19  C11 UNL     1     126.893  61.067  19.389  1.00  0.00     0.282 C 
HETATM   20  N3  UNL     1     127.876  60.113  19.008  1.00  0.00    -0.056 NA
HETATM   21  O3  UNL     1     127.263  62.217  19.667  1.00  0.00    -0.269 OA
ENDBRANCH  16  19
ENDBRANCH   7  10
ENDBRANCH   1   7
BRANCH   1  22
HETATM   22  C13 UNL     1     121.383  55.060  16.454  1.00  0.00     0.115 C 
BRANCH  22  23
HETATM   23  C14 UNL     1     120.413  56.105  16.711  1.00  0.00     0.269 C 
HETATM   24  O4  UNL     1     119.891  56.754  15.737  1.00  0.00    -0.266 OA
HETATM   25  N4  UNL     1     119.964  56.496  17.993  1.00  0.00    -0.348 N 
ATOM     26  H4  UNL     1     120.341  56.015  18.809  1.00  0.00     0.163 HD
BRANCH  25  27
HETATM   27  C15 UNL     1     118.991  57.550  18.198  1.00  0.00     0.022 C 
HETATM   28  C16 UNL     1     119.415  58.861  17.593  1.00  0.00     0.037 C 
HETATM   29  C17 UNL     1     118.790  57.769  19.681  1.00  0.00     0.037 C 
HETATM   30  C18 UNL     1     117.654  57.181  17.614  1.00  0.00     0.037 C 
ENDBRANCH  25  27
ENDBRANCH  22  23
BRANCH  22  31
HETATM   31  C19 UNL     1     121.138  54.141  15.330  1.00  0.00     0.002 A 
HETATM   32  C20 UNL     1     119.822  53.959  14.855  1.00  0.00     0.053 A 
HETATM   33  C21 UNL     1     119.492  53.105  13.835  1.00  0.00     0.105 A 
HETATM   34  C23 UNL     1     120.488  52.391  13.242  1.00  0.00     0.135 A 
HETATM   35  C25 UNL     1     121.784  52.519  13.652  1.00  0.00     0.105 A 
HETATM   36  C27 UNL     1     122.078  53.402  14.700  1.00  0.00     0.053 A 
BRANCH  33  37
HETATM   37  O5  UNL     1     118.158  53.001  13.444  1.00  0.00    -0.353 OA
HETATM   38  C22 UNL     1     117.379  51.974  14.006  1.00  0.00     0.210 C 
ENDBRANCH  33  37
BRANCH  34  39
HETATM   39  O6  UNL     1     120.168  51.524  12.206  1.00  0.00    -0.351 OA
HETATM   40  C24 UNL     1     119.909  50.156  12.430  1.00  0.00     0.210 C 
ENDBRANCH  34  39
BRANCH  35  41
HETATM   41  O7  UNL     1     122.810  51.775  13.033  1.00  0.00    -0.353 OA
HETATM   42  C26 UNL     1     123.413  50.714  13.739  1.00  0.00     0.210 C 
ENDBRANCH  35  41
ENDBRANCH  22  31
ENDBRANCH   1  22
TORSDOF 15
ENDMDL
MODEL 4
REMARK VINA RESULT: -8.050443807      2.549      9.401
REMARK  15 active torsions:
REMARK  status: ('A' for Active; 'I' for Inactive)
REMARK    1  A    between atoms: O1_2  and  C2_3 
REMARK    2  A    between atoms: C2_3  and  C3_4 
REMARK    3  A    between atoms: C3_4  and  C4_5 
REMARK    4  A    between atoms: C4_5  and  N1_6 
REMARK    5  A    between atoms: N1_6  and  C5_7 
REMARK    6  A    between atoms: N1_6  and  C13_22 
REMARK    7  A    between atoms: C5_7  and  O2_8 
REMARK    8  A    between atoms: C5_7  and  C6_10 
REMARK    9  A    between atoms: C10_16  and  C11_17 
REMARK   10  A    between atoms: C13_22  and  C14_23 
REMARK   11  A    between atoms: C13_22  and  C19_31 
REMARK       I    between atoms: C14_23  and  N4_25 
REMARK   12  A    between atoms: N4_25  and  C15_27 
REMARK   13  A    between atoms: C21_33  and  O5_34 
REMARK   14  A    between atoms: C23_36  and  O6_37 
REMARK   15  A    between atoms: C25_39  and  O7_40 
ROOT
HETATM    1  N1  UNL     1     123.100  55.668  16.751  1.00  0.00    -0.321 N 
ENDROOT
BRANCH   1   2
HETATM    2  C4  UNL     1     124.020  54.624  17.121  1.00  0.00     0.133 C 
BRANCH   2   3
HETATM    3  C3  UNL     1     125.330  54.826  16.363  1.00  0.00     0.046 C 
BRANCH   3   4
HETATM    4  C2  UNL     1     125.875  53.523  15.862  1.00  0.00     0.168 C 
BRANCH   4   5
HETATM    5  O1  UNL     1     125.810  53.393  14.505  1.00  0.00    -0.396 OA
HETATM    6  C1  UNL     1     125.414  54.560  13.875  1.00  0.00     0.201 C 
ENDBRANCH   4   5
ENDBRANCH   3   4
ENDBRANCH   2   3
ENDBRANCH   1   2
BRANCH   1   7
HETATM    7  C5  UNL     1     123.504  56.978  16.475  1.00  0.00     0.160 C 
BRANCH   7   8
HETATM    8  O2  UNL     1     123.295  57.423  15.247  1.00  0.00    -0.345 OA
ATOM      9  H2  UNL     1     123.526  58.328  15.073  1.00  0.00     0.219 HD
ENDBRANCH   7   8
BRANCH   7  10
HETATM   10  C6  UNL     1     124.133  57.988  17.307  1.00  0.00     0.057 A 
HETATM   11  C7  UNL     1     125.406  58.257  17.696  1.00  0.00     0.037 A 
HETATM   12  C8  UNL     1     125.643  59.320  18.489  1.00  0.00     0.000 A 
HETATM   13  C9  UNL     1     126.745  59.949  19.108  1.00  0.00     0.101 A 
HETATM   14  C12 UNL     1     124.577  60.076  18.866  1.00  0.00     0.049 A 
HETATM   15  N2  UNL     1     126.304  61.017  19.804  1.00  0.00    -0.360 N 
HETATM   16  C10 UNL     1     124.977  61.144  19.690  1.00  0.00     0.116 A 
ATOM     17  H2  UNL     1     126.901  61.643  20.343  1.00  0.00     0.165 HD
HETATM   18  S1  UNL     1     123.275  59.300  18.111  1.00  0.00    -0.083 SA
BRANCH  16  19
HETATM   19  C11 UNL     1     124.096  62.128  20.257  1.00  0.00     0.282 C 
HETATM   20  N3  UNL     1     124.238  62.487  21.626  1.00  0.00    -0.056 NA
HETATM   21  O3  UNL     1     123.210  62.682  19.591  1.00  0.00    -0.269 OA
ENDBRANCH  16  19
ENDBRANCH   7  10
ENDBRANCH   1   7
BRANCH   1  22
HETATM   22  C13 UNL     1     121.682  55.288  16.613  1.00  0.00     0.115 C 
BRANCH  22  23
HETATM   23  C14 UNL     1     120.749  56.358  16.900  1.00  0.00     0.269 C 
HETATM   24  O4  UNL     1     120.267  57.066  15.946  1.00  0.00    -0.266 OA
HETATM   25  N4  UNL     1     120.295  56.714  18.190  1.00  0.00    -0.348 N 
ATOM     26  H4  UNL     1     120.641  56.186  18.991  1.00  0.00     0.163 HD
BRANCH  25  27
HETATM   27  C15 UNL     1     119.361  57.796  18.425  1.00  0.00     0.022 C 
HETATM   28  C16 UNL     1     119.741  59.061  17.705  1.00  0.00     0.037 C 
HETATM   29  C17 UNL     1     119.309  58.105  19.905  1.00  0.00     0.037 C 
HETATM   30  C18 UNL     1     117.968  57.419  17.996  1.00  0.00     0.037 C 
ENDBRANCH  25  27
ENDBRANCH  22  23
BRANCH  22  31
HETATM   31  C19 UNL     1     121.395  54.398  15.476  1.00  0.00     0.002 A 
HETATM   32  C20 UNL     1     120.065  54.245  15.030  1.00  0.00     0.053 A 
HETATM   33  C21 UNL     1     119.697  53.420  13.999  1.00  0.00     0.105 A 
HETATM   34  C23 UNL     1     120.667  52.704  13.366  1.00  0.00     0.135 A 
HETATM   35  C25 UNL     1     121.974  52.804  13.747  1.00  0.00     0.105 A 
HETATM   36  C27 UNL     1     122.308  53.659  14.806  1.00  0.00     0.053 A 
BRANCH  33  37
HETATM   37  O5  UNL     1     118.352  53.344  13.640  1.00  0.00    -0.353 OA
HETATM   38  C22 UNL     1     117.575  52.306  14.185  1.00  0.00     0.210 C 
ENDBRANCH  33  37
BRANCH  34  39
HETATM   39  O6  UNL     1     120.308  51.865  12.320  1.00  0.00    -0.351 OA
HETATM   40  C24 UNL     1     120.056  50.491  12.516  1.00  0.00     0.210 C 
ENDBRANCH  34  39
BRANCH  35  41
HETATM   41  O7  UNL     1     122.973  52.058  13.086  1.00  0.00    -0.353 OA
HETATM   42  C26 UNL     1     123.556  50.954  13.742  1.00  0.00     0.210 C 
ENDBRANCH  35  41
ENDBRANCH  22  31
ENDBRANCH   1  22
TORSDOF 15
ENDMDL
MODEL 5
REMARK VINA RESULT: -8.002912009      0.810      1.166
REMARK  15 active torsions:
REMARK  status: ('A' for Active; 'I' for Inactive)
REMARK    1  A    between atoms: O1_2  and  C2_3 
REMARK    2  A    between atoms: C2_3  and  C3_4 
REMARK    3  A    between atoms: C3_4  and  C4_5 
REMARK    4  A    between atoms: C4_5  and  N1_6 
REMARK    5  A    between atoms: N1_6  and  C5_7 
REMARK    6  A    between atoms: N1_6  and  C13_22 
REMARK    7  A    between atoms: C5_7  and  O2_8 
REMARK    8  A    between atoms: C5_7  and  C6_10 
REMARK    9  A    between atoms: C10_16  and  C11_17 
REMARK   10  A    between atoms: C13_22  and  C14_23 
REMARK   11  A    between atoms: C13_22  and  C19_31 
REMARK       I    between atoms: C14_23  and  N4_25 
REMARK   12  A    between atoms: N4_25  and  C15_27 
REMARK   13  A    between atoms: C21_33  and  O5_34 
REMARK   14  A    between atoms: C23_36  and  O6_37 
REMARK   15  A    between atoms: C25_39  and  O7_40 
ROOT
HETATM    1  N1  UNL     1     121.705  57.227  18.099  1.00  0.00    -0.321 N 
ENDROOT
BRANCH   1   2
HETATM    2  C4  UNL     1     120.738  57.472  19.136  1.00  0.00     0.133 C 
BRANCH   2   3
HETATM    3  C3  UNL     1     119.743  58.523  18.648  1.00  0.00     0.046 C 
BRANCH   3   4
HETATM    4  C2  UNL     1     118.711  58.821  19.694  1.00  0.00     0.168 C 
BRANCH   4   5
HETATM    5  O1  UNL     1     117.517  58.199  19.471  1.00  0.00    -0.396 OA
HETATM    6  C1  UNL     1     117.465  57.568  18.239  1.00  0.00     0.201 C 
ENDBRANCH   4   5
ENDBRANCH   3   4
ENDBRANCH   2   3
ENDBRANCH   1   2
BRANCH   1   7
HETATM    7  C5  UNL     1     121.367  57.143  16.745  1.00  0.00     0.160 C 
BRANCH   7   8
HETATM    8  O2  UNL     1     121.822  58.099  15.953  1.00  0.00    -0.345 OA
ATOM      9  H2  UNL     1     121.274  58.868  15.848  1.00  0.00     0.219 HD
ENDBRANCH   7   8
BRANCH   7  10
HETATM   10  C6  UNL     1     120.583  56.169  16.006  1.00  0.00     0.057 A 
HETATM   11  C7  UNL     1     119.260  55.996  15.748  1.00  0.00     0.037 A 
HETATM   12  C8  UNL     1     118.868  54.955  14.989  1.00  0.00     0.000 A 
HETATM   13  C9  UNL     1     117.665  54.410  14.487  1.00  0.00     0.101 A 
HETATM   14  C12 UNL     1     119.831  54.118  14.517  1.00  0.00     0.049 A 
HETATM   15  N2  UNL     1     117.954  53.310  13.763  1.00  0.00    -0.360 N 
HETATM   16  C10 UNL     1     119.272  53.083  13.746  1.00  0.00     0.116 A 
ATOM     17  H2  UNL     1     117.260  52.729  13.291  1.00  0.00     0.165 HD
HETATM   18  S1  UNL     1     121.255  54.794  15.133  1.00  0.00    -0.083 SA
BRANCH  16  19
HETATM   19  C11 UNL     1     120.016  52.033  13.104  1.00  0.00     0.282 C 
HETATM   20  N3  UNL     1     119.850  50.691  13.543  1.00  0.00    -0.056 NA
HETATM   21  O3  UNL     1     120.803  52.257  12.174  1.00  0.00    -0.269 OA
ENDBRANCH  16  19
ENDBRANCH   7  10
ENDBRANCH   1   7
BRANCH   1  22
HETATM   22  C13 UNL     1     123.116  57.120  18.516  1.00  0.00     0.115 C 
BRANCH  22  23
HETATM   23  C14 UNL     1     123.868  56.099  17.815  1.00  0.00     0.269 C 
HETATM   24  O4  UNL     1     124.174  55.004  18.406  1.00  0.00    -0.266 OA
HETATM   25  N4  UNL     1     124.317  56.198  16.478  1.00  0.00    -0.348 N 
ATOM     26  H4  UNL     1     124.102  57.046  15.954  1.00  0.00     0.163 HD
BRANCH  25  27
HETATM   27  C15 UNL     1     125.067  55.148  15.822  1.00  0.00     0.022 C 
HETATM   28  C16 UNL     1     124.640  53.771  16.248  1.00  0.00     0.037 C 
HETATM   29  C17 UNL     1     126.537  55.298  16.150  1.00  0.00     0.037 C 
HETATM   30  C18 UNL     1     124.932  55.233  14.325  1.00  0.00     0.037 C 
ENDBRANCH  25  27
ENDBRANCH  22  23
BRANCH  22  31
HETATM   31  C19 UNL     1     123.773  58.410  18.785  1.00  0.00     0.002 A 
HETATM   32  C20 UNL     1     125.180  58.467  18.886  1.00  0.00     0.053 A 
HETATM   33  C21 UNL     1     125.878  59.614  19.160  1.00  0.00     0.105 A 
HETATM   34  C23 UNL     1     125.179  60.767  19.347  1.00  0.00     0.135 A 
HETATM   35  C25 UNL     1     123.817  60.783  19.265  1.00  0.00     0.105 A 
HETATM   36  C27 UNL     1     123.141  59.589  18.982  1.00  0.00     0.053 A 
BRANCH  33  37
HETATM   37  O5  UNL     1     127.269  59.557  19.237  1.00  0.00    -0.353 OA
HETATM   38  C22 UNL     1     127.985  59.184  18.085  1.00  0.00     0.210 C 
ENDBRANCH  33  37
BRANCH  34  39
HETATM   39  O6  UNL     1     125.874  61.937  19.625  1.00  0.00    -0.351 OA
HETATM   40  C24 UNL     1     126.182  62.328  20.945  1.00  0.00     0.210 C 
ENDBRANCH  34  39
BRANCH  35  41
HETATM   41  O7  UNL     1     123.100  61.983  19.460  1.00  0.00    -0.353 OA
HETATM   42  C26 UNL     1     121.694  61.936  19.556  1.00  0.00     0.210 C 
ENDBRANCH  35  41
ENDBRANCH  22  31
ENDBRANCH   1  22
TORSDOF 15
ENDMDL
