MODEL 1
REMARK VINA RESULT: -8.584039515      0.000      0.000
REMARK  13 active torsions:
REMARK  status: ('A' for Active; 'I' for Inactive)
REMARK    1  A    between atoms: O1_2  and  C2_3 
REMARK    2  A    between atoms: C4_5  and  O2_6 
REMARK    3  A    between atoms: C7_9  and  C8_10 
REMARK    4  A    between atoms: C9_13  and  N2_14 
REMARK    5  A    between atoms: N2_14  and  C10_16 
REMARK    6  A    between atoms: C12_18  and  O3_19 
REMARK    7  A    between atoms: C15_22  and  N3_23 
REMARK    8  A    between atoms: C22_33  and  C23_34 
REMARK    9  A    between atoms: C23_34  and  C24_35 
REMARK       I    between atoms: C24_35  and  N6_37 
REMARK   10  A    between atoms: N6_37  and  C25_39 
REMARK   11  A    between atoms: C25_39  and  C26_40 
REMARK   12  A    between atoms: C26_40  and  C27_41 
REMARK   13  A    between atoms: C27_41  and  N7_42 
ROOT
HETATM    1  C8  UNL     1     122.715  57.685  17.527  1.00  0.00     0.083 A 
HETATM    2  N1  UNL     1     122.857  59.052  17.693  1.00  0.00    -0.189 N 
ATOM      3  H1  UNL     1     122.153  59.744  17.438  1.00  0.00     0.184 HD
HETATM    4  C9  UNL     1     124.039  59.340  18.231  1.00  0.00     0.683 A 
HETATM    5  N5  UNL     1     124.683  58.195  18.425  1.00  0.00    -0.193 N 
ATOM      6  H5  UNL     1     125.617  58.098  18.824  1.00  0.00     0.184 HD
HETATM    7  C22 UNL     1     123.884  57.164  17.999  1.00  0.00     0.063 A 
ENDROOT
BRANCH   4   8
HETATM    8  N2  UNL     1     124.548  60.487  18.545  1.00  0.00    -0.192 N 
ATOM      9  H2  UNL     1     125.057  60.980  17.812  1.00  0.00     0.184 HD
BRANCH   8  10
HETATM   10  C10 UNL     1     124.468  61.117  19.792  1.00  0.00     0.054 A 
HETATM   11  C11 UNL     1     125.519  61.818  20.349  1.00  0.00     0.066 A 
HETATM   12  C12 UNL     1     125.399  62.424  21.584  1.00  0.00     0.072 A 
HETATM   13  C14 UNL     1     124.217  62.319  22.248  1.00  0.00     0.066 A 
HETATM   14  C15 UNL     1     123.108  61.629  21.752  1.00  0.00     0.035 A 
HETATM   15  C21 UNL     1     123.288  61.046  20.519  1.00  0.00     0.059 A 
BRANCH  12  16
HETATM   16  O3  UNL     1     126.498  63.122  22.102  1.00  0.00    -0.356 OA
HETATM   17  C13 UNL     1     126.524  63.314  23.523  1.00  0.00     0.210 C 
ENDBRANCH  12  16
BRANCH  14  18
HETATM   18  N3  UNL     1     121.910  61.543  22.471  1.00  0.00    -0.377 N 
HETATM   19  C16 UNL     1     120.912  60.532  22.177  1.00  0.00     0.153 C 
HETATM   20  C17 UNL     1     120.866  59.630  23.407  1.00  0.00     0.291 C 
HETATM   21  N4  UNL     1     121.698  60.148  24.475  1.00  0.00     0.087 N 
HETATM   22  C18 UNL     1     121.434  59.369  25.667  1.00  0.00     0.310 C 
HETATM   23  C19 UNL     1     121.405  61.541  24.782  1.00  0.00     0.291 C 
HETATM   24  C20 UNL     1     121.605  62.433  23.563  1.00  0.00     0.153 C 
ENDBRANCH  14  18
ENDBRANCH   8  10
ENDBRANCH   4   8
BRANCH   1  25
HETATM   25  C7  UNL     1     121.500  57.080  17.010  1.00  0.00    -0.002 A 
HETATM   26  C6  UNL     1     120.267  57.411  17.607  1.00  0.00     0.050 A 
HETATM   27  C4  UNL     1     119.077  56.904  17.160  1.00  0.00     0.071 A 
HETATM   28  C3  UNL     1     119.048  56.045  16.102  1.00  0.00     0.073 A 
HETATM   29  C2  UNL     1     120.221  55.698  15.494  1.00  0.00     0.071 A 
HETATM   30  C30 UNL     1     121.434  56.230  15.968  1.00  0.00     0.050 A 
BRANCH  27  31
HETATM   31  O2  UNL     1     117.903  57.294  17.819  1.00  0.00    -0.356 OA
HETATM   32  C5  UNL     1     118.021  58.183  18.919  1.00  0.00     0.210 C 
ENDBRANCH  27  31
BRANCH  29  33
HETATM   33  O1  UNL     1     120.196  54.828  14.423  1.00  0.00    -0.356 OA
HETATM   34  C1  UNL     1     119.350  53.701  14.421  1.00  0.00     0.210 C 
ENDBRANCH  29  33
ENDBRANCH   1  25
BRANCH   7  35
HETATM   35  C23 UNL     1     124.286  55.747  18.096  1.00  0.00     0.163 C 
BRANCH  35  36
HETATM   36  C24 UNL     1     125.079  55.313  16.907  1.00  0.00     0.223 C 
HETATM   37  O4  UNL     1     125.903  56.140  16.446  1.00  0.00    -0.273 OA
HETATM   38  N6  UNL     1     124.921  54.038  16.319  1.00  0.00    -0.361 N 
ATOM     39  H6  UNL     1     124.245  53.383  16.713  1.00  0.00     0.162 HD
BRANCH  38  40
HETATM   40  C25 UNL     1     125.696  53.648  15.175  1.00  0.00     0.124 C 
BRANCH  40  41
HETATM   41  C26 UNL     1     125.037  53.887  13.856  1.00  0.00     0.050 C 
BRANCH  41  42
HETATM   42  C27 UNL     1     124.680  52.601  13.147  1.00  0.00     0.273 C 
BRANCH  42  43
HETATM   43  N7  UNL     1     123.800  51.762  13.907  1.00  0.00     0.080 N 
HETATM   44  C28 UNL     1     124.341  50.415  13.908  1.00  0.00     0.309 C 
HETATM   45  C29 UNL     1     122.462  51.699  13.374  1.00  0.00     0.309 C 
ENDBRANCH  42  43
ENDBRANCH  41  42
ENDBRANCH  40  41
ENDBRANCH  38  40
ENDBRANCH  35  36
ENDBRANCH   7  35
TORSDOF 13
ENDMDL
MODEL 2
REMARK VINA RESULT: -8.527032424      3.700      7.608
REMARK  13 active torsions:
REMARK  status: ('A' for Active; 'I' for Inactive)
REMARK    1  A    between atoms: O1_2  and  C2_3 
REMARK    2  A    between atoms: C4_5  and  O2_6 
REMARK    3  A    between atoms: C7_9  and  C8_10 
REMARK    4  A    between atoms: C9_13  and  N2_14 
REMARK    5  A    between atoms: N2_14  and  C10_16 
REMARK    6  A    between atoms: C12_18  and  O3_19 
REMARK    7  A    between atoms: C15_22  and  N3_23 
REMARK    8  A    between atoms: C22_33  and  C23_34 
REMARK    9  A    between atoms: C23_34  and  C24_35 
REMARK       I    between atoms: C24_35  and  N6_37 
REMARK   10  A    between atoms: N6_37  and  C25_39 
REMARK   11  A    between atoms: C25_39  and  C26_40 
REMARK   12  A    between atoms: C26_40  and  C27_41 
REMARK   13  A    between atoms: C27_41  and  N7_42 
ROOT
HETATM    1  C8  UNL     1     119.621  51.322  13.510  1.00  0.00     0.083 A 
HETATM    2  N1  UNL     1     118.875  52.075  14.401  1.00  0.00    -0.189 N 
ATOM      3  H1  UNL     1     118.053  51.737  14.899  1.00  0.00     0.184 HD
HETATM    4  C9  UNL     1     119.379  53.300  14.518  1.00  0.00     0.683 A 
HETATM    5  N5  UNL     1     120.442  53.377  13.726  1.00  0.00    -0.193 N 
ATOM      6  H5  UNL     1     121.035  54.197  13.604  1.00  0.00     0.184 HD
HETATM    7  C22 UNL     1     120.609  52.169  13.097  1.00  0.00     0.063 A 
ENDROOT
BRANCH   4   8
HETATM    8  N2  UNL     1     118.980  54.293  15.245  1.00  0.00    -0.192 N 
ATOM      9  H2  UNL     1     118.004  54.571  15.148  1.00  0.00     0.184 HD
BRANCH   8  10
HETATM   10  C10 UNL     1     119.757  55.022  16.153  1.00  0.00     0.054 A 
HETATM   11  C11 UNL     1     120.935  54.542  16.689  1.00  0.00     0.066 A 
HETATM   12  C12 UNL     1     121.671  55.294  17.584  1.00  0.00     0.072 A 
HETATM   13  C14 UNL     1     121.214  56.526  17.929  1.00  0.00     0.066 A 
HETATM   14  C15 UNL     1     120.034  57.083  17.429  1.00  0.00     0.035 A 
HETATM   15  C21 UNL     1     119.344  56.288  16.544  1.00  0.00     0.059 A 
BRANCH  12  16
HETATM   16  O3  UNL     1     122.859  54.756  18.099  1.00  0.00    -0.356 OA
HETATM   17  C13 UNL     1     123.755  55.676  18.737  1.00  0.00     0.210 C 
ENDBRANCH  12  16
BRANCH  14  18
HETATM   18  N3  UNL     1     119.598  58.356  17.813  1.00  0.00    -0.377 N 
HETATM   19  C16 UNL     1     118.472  58.541  18.709  1.00  0.00     0.153 C 
HETATM   20  C17 UNL     1     119.052  59.156  19.978  1.00  0.00     0.291 C 
HETATM   21  N4  UNL     1     120.458  59.471  19.819  1.00  0.00     0.087 N 
HETATM   22  C18 UNL     1     120.879  60.241  20.971  1.00  0.00     0.310 C 
HETATM   23  C19 UNL     1     120.718  60.273  18.632  1.00  0.00     0.291 C 
HETATM   24  C20 UNL     1     120.255  59.559  17.368  1.00  0.00     0.153 C 
ENDBRANCH  14  18
ENDBRANCH   8  10
ENDBRANCH   4   8
BRANCH   1  25
HETATM   25  C7  UNL     1     119.333  49.927  13.229  1.00  0.00    -0.002 A 
HETATM   26  C6  UNL     1     119.861  48.937  14.081  1.00  0.00     0.050 A 
HETATM   27  C4  UNL     1     119.612  47.603  13.898  1.00  0.00     0.071 A 
HETATM   28  C3  UNL     1     118.830  47.184  12.864  1.00  0.00     0.073 A 
HETATM   29  C2  UNL     1     118.297  48.112  12.013  1.00  0.00     0.071 A 
HETATM   30  C30 UNL     1     118.564  49.478  12.218  1.00  0.00     0.050 A 
BRANCH  27  31
HETATM   31  O2  UNL     1     120.182  46.695  14.799  1.00  0.00    -0.356 OA
HETATM   32  C5  UNL     1     120.081  45.311  14.504  1.00  0.00     0.210 C 
ENDBRANCH  27  31
BRANCH  29  33
HETATM   33  O1  UNL     1     117.505  47.692  10.965  1.00  0.00    -0.356 OA
HETATM   34  C1  UNL     1     118.061  47.027   9.854  1.00  0.00     0.210 C 
ENDBRANCH  29  33
ENDBRANCH   1  25
BRANCH   7  35
HETATM   35  C23 UNL     1     121.718  51.900  12.161  1.00  0.00     0.163 C 
BRANCH  35  36
HETATM   36  C24 UNL     1     123.038  51.879  12.858  1.00  0.00     0.223 C 
HETATM   37  O4  UNL     1     124.030  52.282  12.203  1.00  0.00    -0.273 OA
HETATM   38  N6  UNL     1     123.181  51.430  14.191  1.00  0.00    -0.361 N 
ATOM     39  H6  UNL     1     122.359  51.108  14.703  1.00  0.00     0.162 HD
BRANCH  38  40
HETATM   40  C25 UNL     1     124.463  51.419  14.836  1.00  0.00     0.124 C 
BRANCH  40  41
HETATM   41  C26 UNL     1     124.789  52.655  15.610  1.00  0.00     0.050 C 
BRANCH  41  42
HETATM   42  C27 UNL     1     125.801  53.529  14.905  1.00  0.00     0.273 C 
BRANCH  42  43
HETATM   43  N7  UNL     1     125.414  54.908  14.850  1.00  0.00     0.080 N 
HETATM   44  C28 UNL     1     125.814  55.544  16.092  1.00  0.00     0.309 C 
HETATM   45  C29 UNL     1     123.994  55.102  14.693  1.00  0.00     0.309 C 
ENDBRANCH  42  43
ENDBRANCH  41  42
ENDBRANCH  40  41
ENDBRANCH  38  40
ENDBRANCH  35  36
ENDBRANCH   7  35
TORSDOF 13
ENDMDL
MODEL 3
REMARK VINA RESULT: -8.469968364      3.921      8.335
REMARK  13 active torsions:
REMARK  status: ('A' for Active; 'I' for Inactive)
REMARK    1  A    between atoms: O1_2  and  C2_3 
REMARK    2  A    between atoms: C4_5  and  O2_6 
REMARK    3  A    between atoms: C7_9  and  C8_10 
REMARK    4  A    between atoms: C9_13  and  N2_14 
REMARK    5  A    between atoms: N2_14  and  C10_16 
REMARK    6  A    between atoms: C12_18  and  O3_19 
REMARK    7  A    between atoms: C15_22  and  N3_23 
REMARK    8  A    between atoms: C22_33  and  C23_34 
REMARK    9  A    between atoms: C23_34  and  C24_35 
REMARK       I    between atoms: C24_35  and  N6_37 
REMARK   10  A    between atoms: N6_37  and  C25_39 
REMARK   11  A    between atoms: C25_39  and  C26_40 
REMARK   12  A    between atoms: C26_40  and  C27_41 
REMARK   13  A    between atoms: C27_41  and  N7_42 
ROOT
HETATM    1  C8  UNL     1     119.221  51.290  13.379  1.00  0.00     0.083 A 
HETATM    2  N1  UNL     1     118.284  52.048  14.061  1.00  0.00    -0.189 N 
ATOM      3  H1  UNL     1     117.445  51.673  14.501  1.00  0.00     0.184 HD
HETATM    4  C9  UNL     1     118.630  53.332  14.062  1.00  0.00     0.683 A 
HETATM    5  N5  UNL     1     119.773  53.443  13.397  1.00  0.00    -0.193 N 
ATOM      6  H5  UNL     1     120.283  54.311  13.232  1.00  0.00     0.184 HD
HETATM    7  C22 UNL     1     120.156  52.197  12.969  1.00  0.00     0.063 A 
ENDROOT
BRANCH   4   8
HETATM    8  N2  UNL     1     118.029  54.350  14.589  1.00  0.00    -0.192 N 
ATOM      9  H2  UNL     1     117.079  54.540  14.270  1.00  0.00     0.184 HD
BRANCH   8  10
HETATM   10  C10 UNL     1     118.556  55.215  15.555  1.00  0.00     0.054 A 
HETATM   11  C11 UNL     1     117.766  55.954  16.413  1.00  0.00     0.066 A 
HETATM   12  C12 UNL     1     118.327  56.799  17.351  1.00  0.00     0.072 A 
HETATM   13  C14 UNL     1     119.682  56.890  17.417  1.00  0.00     0.066 A 
HETATM   14  C15 UNL     1     120.548  56.174  16.587  1.00  0.00     0.035 A 
HETATM   15  C21 UNL     1     119.932  55.351  15.673  1.00  0.00     0.059 A 
BRANCH  12  16
HETATM   16  O3  UNL     1     117.477  57.526  18.195  1.00  0.00    -0.356 OA
HETATM   17  C13 UNL     1     118.103  58.258  19.258  1.00  0.00     0.210 C 
ENDBRANCH  12  16
BRANCH  14  18
HETATM   18  N3  UNL     1     121.939  56.299  16.688  1.00  0.00    -0.377 N 
HETATM   19  C16 UNL     1     122.717  57.007  15.689  1.00  0.00     0.153 C 
HETATM   20  C17 UNL     1     123.287  58.229  16.402  1.00  0.00     0.291 C 
HETATM   21  N4  UNL     1     122.990  58.202  17.820  1.00  0.00     0.087 N 
HETATM   22  C18 UNL     1     123.740  59.265  18.457  1.00  0.00     0.310 C 
HETATM   23  C19 UNL     1     123.383  56.947  18.447  1.00  0.00     0.291 C 
HETATM   24  C20 UNL     1     122.679  55.760  17.800  1.00  0.00     0.153 C 
ENDBRANCH  14  18
ENDBRANCH   8  10
ENDBRANCH   4   8
BRANCH   1  25
HETATM   25  C7  UNL     1     119.130  49.845  13.266  1.00  0.00    -0.002 A 
HETATM   26  C6  UNL     1     118.359  49.291  12.225  1.00  0.00     0.050 A 
HETATM   27  C4  UNL     1     118.246  47.940  12.035  1.00  0.00     0.071 A 
HETATM   28  C3  UNL     1     118.889  47.072  12.865  1.00  0.00     0.073 A 
HETATM   29  C2  UNL     1     119.649  47.568  13.888  1.00  0.00     0.071 A 
HETATM   30  C30 UNL     1     119.752  48.959  14.066  1.00  0.00     0.050 A 
BRANCH  27  31
HETATM   31  O2  UNL     1     117.456  47.486  10.971  1.00  0.00    -0.356 OA
HETATM   32  C5  UNL     1     118.106  47.147   9.756  1.00  0.00     0.210 C 
ENDBRANCH  27  31
BRANCH  29  33
HETATM   33  O1  UNL     1     120.301  46.692  14.731  1.00  0.00    -0.356 OA
HETATM   34  C1  UNL     1     121.700  46.532  14.672  1.00  0.00     0.210 C 
ENDBRANCH  29  33
ENDBRANCH   1  25
BRANCH   7  35
HETATM   35  C23 UNL     1     121.403  51.956  12.218  1.00  0.00     0.163 C 
BRANCH  35  36
HETATM   36  C24 UNL     1     122.609  52.092  13.088  1.00  0.00     0.223 C 
HETATM   37  O4  UNL     1     122.469  51.791  14.298  1.00  0.00    -0.273 OA
HETATM   38  N6  UNL     1     123.854  52.538  12.588  1.00  0.00    -0.361 N 
ATOM     39  H6  UNL     1     123.942  52.776  11.600  1.00  0.00     0.162 HD
BRANCH  38  40
HETATM   40  C25 UNL     1     124.996  52.660  13.448  1.00  0.00     0.124 C 
BRANCH  40  41
HETATM   41  C26 UNL     1     125.166  54.001  14.084  1.00  0.00     0.050 C 
BRANCH  41  42
HETATM   42  C27 UNL     1     124.777  54.003  15.545  1.00  0.00     0.273 C 
BRANCH  42  43
HETATM   43  N7  UNL     1     125.853  54.375  16.415  1.00  0.00     0.080 N 
HETATM   44  C28 UNL     1     126.085  55.801  16.270  1.00  0.00     0.309 C 
HETATM   45  C29 UNL     1     127.091  53.696  16.124  1.00  0.00     0.309 C 
ENDBRANCH  42  43
ENDBRANCH  41  42
ENDBRANCH  40  41
ENDBRANCH  38  40
ENDBRANCH  35  36
ENDBRANCH   7  35
TORSDOF 13
ENDMDL
MODEL 4
REMARK VINA RESULT: -8.357730259      0.384      1.956
REMARK  13 active torsions:
REMARK  status: ('A' for Active; 'I' for Inactive)
REMARK    1  A    between atoms: O1_2  and  C2_3 
REMARK    2  A    between atoms: C4_5  and  O2_6 
REMARK    3  A    between atoms: C7_9  and  C8_10 
REMARK    4  A    between atoms: C9_13  and  N2_14 
REMARK    5  A    between atoms: N2_14  and  C10_16 
REMARK    6  A    between atoms: C12_18  and  O3_19 
REMARK    7  A    between atoms: C15_22  and  N3_23 
REMARK    8  A    between atoms: C22_33  and  C23_34 
REMARK    9  A    between atoms: C23_34  and  C24_35 
REMARK       I    between atoms: C24_35  and  N6_37 
REMARK   10  A    between atoms: N6_37  and  C25_39 
REMARK   11  A    between atoms: C25_39  and  C26_40 
REMARK   12  A    between atoms: C26_40  and  C27_41 
REMARK   13  A    between atoms: C27_41  and  N7_42 
ROOT
HETATM    1  C8  UNL     1     122.771  57.792  17.620  1.00  0.00     0.083 A 
HETATM    2  N1  UNL     1     122.986  59.144  17.824  1.00  0.00    -0.189 N 
ATOM      3  H1  UNL     1     122.306  59.876  17.624  1.00  0.00     0.184 HD
HETATM    4  C9  UNL     1     124.202  59.357  18.318  1.00  0.00     0.683 A 
HETATM    5  N5  UNL     1     124.798  58.178  18.445  1.00  0.00    -0.193 N 
ATOM      6  H5  UNL     1     125.743  58.023  18.799  1.00  0.00     0.184 HD
HETATM    7  C22 UNL     1     123.933  57.200  18.022  1.00  0.00     0.063 A 
ENDROOT
BRANCH   4   8
HETATM    8  N2  UNL     1     124.780  60.467  18.646  1.00  0.00    -0.192 N 
ATOM      9  H2  UNL     1     125.387  60.895  17.947  1.00  0.00     0.184 HD
BRANCH   8  10
HETATM   10  C10 UNL     1     124.651  61.140  19.867  1.00  0.00     0.054 A 
HETATM   11  C11 UNL     1     125.670  61.887  20.424  1.00  0.00     0.066 A 
HETATM   12  C12 UNL     1     125.502  62.534  21.633  1.00  0.00     0.072 A 
HETATM   13  C14 UNL     1     124.306  62.423  22.270  1.00  0.00     0.066 A 
HETATM   14  C15 UNL     1     123.228  61.689  21.771  1.00  0.00     0.035 A 
HETATM   15  C21 UNL     1     123.454  61.066  20.565  1.00  0.00     0.059 A 
BRANCH  12  16
HETATM   16  O3  UNL     1     126.571  63.277  22.153  1.00  0.00    -0.356 OA
HETATM   17  C13 UNL     1     126.517  63.584  23.552  1.00  0.00     0.210 C 
ENDBRANCH  12  16
BRANCH  14  18
HETATM   18  N3  UNL     1     122.013  61.599  22.461  1.00  0.00    -0.377 N 
HETATM   19  C16 UNL     1     121.019  60.596  22.133  1.00  0.00     0.153 C 
HETATM   20  C17 UNL     1     120.941  59.680  23.350  1.00  0.00     0.291 C 
HETATM   21  N4  UNL     1     121.750  60.181  24.443  1.00  0.00     0.087 N 
HETATM   22  C18 UNL     1     121.456  59.389  25.620  1.00  0.00     0.310 C 
HETATM   23  C19 UNL     1     121.456  61.572  24.761  1.00  0.00     0.291 C 
HETATM   24  C20 UNL     1     121.687  62.477  23.557  1.00  0.00     0.153 C 
ENDBRANCH  14  18
ENDBRANCH   8  10
ENDBRANCH   4   8
BRANCH   1  25
HETATM   25  C7  UNL     1     121.507  57.262  17.139  1.00  0.00    -0.002 A 
HETATM   26  C6  UNL     1     121.511  56.387  16.035  1.00  0.00     0.050 A 
HETATM   27  C4  UNL     1     120.365  55.826  15.541  1.00  0.00     0.071 A 
HETATM   28  C3  UNL     1     119.159  56.102  16.114  1.00  0.00     0.073 A 
HETATM   29  C2  UNL     1     119.111  56.946  17.187  1.00  0.00     0.071 A 
HETATM   30  C30 UNL     1     120.300  57.513  17.681  1.00  0.00     0.050 A 
BRANCH  27  31
HETATM   31  O2  UNL     1     120.471  54.966  14.439  1.00  0.00    -0.356 OA
HETATM   32  C5  UNL     1     119.587  53.858  14.370  1.00  0.00     0.210 C 
ENDBRANCH  27  31
BRANCH  29  33
HETATM   33  O1  UNL     1     117.893  57.229  17.770  1.00  0.00    -0.356 OA
HETATM   34  C1  UNL     1     117.802  58.083  18.888  1.00  0.00     0.210 C 
ENDBRANCH  29  33
ENDBRANCH   1  25
BRANCH   7  35
HETATM   35  C23 UNL     1     124.270  55.764  18.054  1.00  0.00     0.163 C 
BRANCH  35  36
HETATM   36  C24 UNL     1     125.090  55.360  16.873  1.00  0.00     0.223 C 
HETATM   37  O4  UNL     1     125.921  56.199  16.449  1.00  0.00    -0.273 OA
HETATM   38  N6  UNL     1     124.948  54.098  16.251  1.00  0.00    -0.361 N 
ATOM     39  H6  UNL     1     124.266  53.433  16.615  1.00  0.00     0.162 HD
BRANCH  38  40
HETATM   40  C25 UNL     1     125.749  53.738  15.116  1.00  0.00     0.124 C 
BRANCH  40  41
HETATM   41  C26 UNL     1     124.986  53.184  13.957  1.00  0.00     0.050 C 
BRANCH  41  42
HETATM   42  C27 UNL     1     123.495  53.156  14.205  1.00  0.00     0.273 C 
BRANCH  42  43
HETATM   43  N7  UNL     1     122.903  51.878  13.941  1.00  0.00     0.080 N 
HETATM   44  C28 UNL     1     123.969  50.904  13.786  1.00  0.00     0.309 C 
HETATM   45  C29 UNL     1     122.103  51.850  12.742  1.00  0.00     0.309 C 
ENDBRANCH  42  43
ENDBRANCH  41  42
ENDBRANCH  40  41
ENDBRANCH  38  40
ENDBRANCH  35  36
ENDBRANCH   7  35
TORSDOF 13
ENDMDL
MODEL 5
REMARK VINA RESULT: -8.285968880      2.612      9.670
REMARK  13 active torsions:
REMARK  status: ('A' for Active; 'I' for Inactive)
REMARK    1  A    between atoms: O1_2  and  C2_3 
REMARK    2  A    between atoms: C4_5  and  O2_6 
REMARK    3  A    between atoms: C7_9  and  C8_10 
REMARK    4  A    between atoms: C9_13  and  N2_14 
REMARK    5  A    between atoms: N2_14  and  C10_16 
REMARK    6  A    between atoms: C12_18  and  O3_19 
REMARK    7  A    between atoms: C15_22  and  N3_23 
REMARK    8  A    between atoms: C22_33  and  C23_34 
REMARK    9  A    between atoms: C23_34  and  C24_35 
REMARK       I    between atoms: C24_35  and  N6_37 
REMARK   10  A    between atoms: N6_37  and  C25_39 
REMARK   11  A    between atoms: C25_39  and  C26_40 
REMARK   12  A    between atoms: C26_40  and  C27_41 
REMARK   13  A    between atoms: C27_41  and  N7_42 
ROOT
HETATM    1  C8  UNL     1     122.451  57.184  17.152  1.00  0.00     0.083 A 
HETATM    2  N1  UNL     1     122.449  56.670  15.866  1.00  0.00    -0.189 N 
ATOM      3  H1  UNL     1     121.694  56.795  15.193  1.00  0.00     0.184 HD
HETATM    4  C9  UNL     1     123.567  55.990  15.631  1.00  0.00     0.683 A 
HETATM    5  N5  UNL     1     124.309  56.041  16.730  1.00  0.00    -0.193 N 
ATOM      6  H5  UNL     1     125.225  55.608  16.850  1.00  0.00     0.184 HD
HETATM    7  C22 UNL     1     123.641  56.773  17.679  1.00  0.00     0.063 A 
ENDROOT
BRANCH   4   8
HETATM    8  N2  UNL     1     123.947  55.366  14.563  1.00  0.00    -0.192 N 
ATOM      9  H2  UNL     1     124.558  55.876  13.925  1.00  0.00     0.184 HD
BRANCH   8  10
HETATM   10  C10 UNL     1     123.601  54.060  14.197  1.00  0.00     0.054 A 
HETATM   11  C11 UNL     1     124.520  53.142  13.729  1.00  0.00     0.066 A 
HETATM   12  C12 UNL     1     124.136  51.863  13.377  1.00  0.00     0.072 A 
HETATM   13  C14 UNL     1     122.827  51.519  13.502  1.00  0.00     0.066 A 
HETATM   14  C15 UNL     1     121.839  52.389  13.969  1.00  0.00     0.035 A 
HETATM   15  C21 UNL     1     122.280  53.648  14.302  1.00  0.00     0.059 A 
BRANCH  12  16
HETATM   16  O3  UNL     1     125.111  50.973  12.907  1.00  0.00    -0.356 OA
HETATM   17  C13 UNL     1     125.349  49.804  13.703  1.00  0.00     0.210 C 
ENDBRANCH  12  16
BRANCH  14  18
HETATM   18  N3  UNL     1     120.500  51.994  14.079  1.00  0.00    -0.377 N 
HETATM   19  C16 UNL     1     119.885  51.723  15.365  1.00  0.00     0.153 C 
HETATM   20  C17 UNL     1     118.822  52.801  15.548  1.00  0.00     0.291 C 
HETATM   21  N4  UNL     1     118.687  53.620  14.359  1.00  0.00     0.087 N 
HETATM   22  C18 UNL     1     117.525  54.467  14.527  1.00  0.00     0.310 C 
HETATM   23  C19 UNL     1     118.486  52.824  13.156  1.00  0.00     0.291 C 
HETATM   24  C20 UNL     1     119.642  51.859  12.928  1.00  0.00     0.153 C 
ENDBRANCH  14  18
ENDBRANCH   8  10
ENDBRANCH   4   8
BRANCH   1  25
HETATM   25  C7  UNL     1     121.378  58.019  17.665  1.00  0.00    -0.002 A 
HETATM   26  C6  UNL     1     120.101  57.451  17.847  1.00  0.00     0.050 A 
HETATM   27  C4  UNL     1     119.047  58.164  18.351  1.00  0.00     0.071 A 
HETATM   28  C3  UNL     1     119.204  59.472  18.699  1.00  0.00     0.073 A 
HETATM   29  C2  UNL     1     120.427  60.062  18.540  1.00  0.00     0.071 A 
HETATM   30  C30 UNL     1     121.498  59.312  18.020  1.00  0.00     0.050 A 
BRANCH  27  31
HETATM   31  O2  UNL     1     117.816  57.511  18.495  1.00  0.00    -0.356 OA
HETATM   32  C5  UNL     1     117.331  56.753  17.397  1.00  0.00     0.210 C 
ENDBRANCH  27  31
BRANCH  29  33
HETATM   33  O1  UNL     1     120.590  61.386  18.891  1.00  0.00    -0.356 OA
HETATM   34  C1  UNL     1     121.721  61.812  19.617  1.00  0.00     0.210 C 
ENDBRANCH  29  33
ENDBRANCH   1  25
BRANCH   7  35
HETATM   35  C23 UNL     1     124.198  57.050  19.017  1.00  0.00     0.163 C 
BRANCH  35  36
HETATM   36  C24 UNL     1     125.126  58.221  18.998  1.00  0.00     0.223 C 
HETATM   37  O4  UNL     1     125.680  58.486  17.904  1.00  0.00    -0.273 OA
HETATM   38  N6  UNL     1     125.377  59.003  20.150  1.00  0.00    -0.361 N 
ATOM     39  H6  UNL     1     124.914  58.767  21.027  1.00  0.00     0.162 HD
BRANCH  38  40
HETATM   40  C25 UNL     1     126.275  60.122  20.103  1.00  0.00     0.124 C 
BRANCH  40  41
HETATM   41  C26 UNL     1     125.614  61.453  19.954  1.00  0.00     0.050 C 
BRANCH  41  42
HETATM   42  C27 UNL     1     126.099  62.458  20.975  1.00  0.00     0.273 C 
BRANCH  42  43
HETATM   43  N7  UNL     1     125.693  62.143  22.313  1.00  0.00     0.080 N 
HETATM   44  C28 UNL     1     124.269  62.400  22.432  1.00  0.00     0.309 C 
HETATM   45  C29 UNL     1     126.367  62.926  23.319  1.00  0.00     0.309 C 
ENDBRANCH  42  43
ENDBRANCH  41  42
ENDBRANCH  40  41
ENDBRANCH  38  40
ENDBRANCH  35  36
ENDBRANCH   7  35
TORSDOF 13
ENDMDL
