MODEL 1
REMARK VINA RESULT: -9.251074406      0.000      0.000
REMARK  13 active torsions:
REMARK  status: ('A' for Active; 'I' for Inactive)
REMARK    1  A    between atoms: O1_2  and  C2_3 
REMARK    2  A    between atoms: C5_6  and  C6_7 
REMARK    3  A    between atoms: C6_7  and  C7_8 
REMARK    4  A    between atoms: C7_8  and  N1_9 
REMARK    5  A    between atoms: C7_8  and  C21_32 
REMARK       I    between atoms: N1_9  and  C8_11 
REMARK    6  A    between atoms: C8_11  and  C9_13 
REMARK    7  A    between atoms: C9_13  and  N2_14 
REMARK    8  A    between atoms: C9_13  and  C18_25 
REMARK       I    between atoms: N2_14  and  C10_16 
REMARK    9  A    between atoms: C10_16  and  C11_18 
REMARK   10  A    between atoms: C23_34  and  O4_35 
REMARK   11  A    between atoms: C25_37  and  O5_38 
REMARK   12  A    between atoms: C27_40  and  O6_41 
REMARK   13  A    between atoms: C31_45  and  O7_46 
ROOT
HETATM    1  C7  UNL     1     120.609  53.981  16.074  1.00  0.00     0.122 C 
ENDROOT
BRANCH   1   2
HETATM    2  C6  UNL     1     119.653  52.906  16.402  1.00  0.00     0.068 C 
BRANCH   2   3
HETATM    3  C5  UNL     1     119.106  52.152  15.250  1.00  0.00    -0.053 A 
HETATM    4  C4  UNL     1     118.010  52.700  14.558  1.00  0.00     0.010 A 
HETATM    5  C3  UNL     1     117.448  52.107  13.459  1.00  0.00     0.040 A 
HETATM    6  C2  UNL     1     117.957  50.912  12.980  1.00  0.00     0.101 A 
HETATM    7  C31 UNL     1     119.031  50.362  13.646  1.00  0.00     0.102 A 
HETATM    8  C30 UNL     1     119.602  50.962  14.762  1.00  0.00     0.046 A 
BRANCH   6   9
HETATM    9  O1  UNL     1     117.391  50.294  11.852  1.00  0.00    -0.353 OA
HETATM   10  C1  UNL     1     116.570  49.139  12.012  1.00  0.00     0.210 C 
ENDBRANCH   6   9
BRANCH   7  11
HETATM   11  O7  UNL     1     119.521  49.166  13.146  1.00  0.00    -0.353 OA
HETATM   12  C32 UNL     1     119.592  48.025  13.951  1.00  0.00     0.210 C 
ENDBRANCH   7  11
ENDBRANCH   2   3
ENDBRANCH   1   2
BRANCH   1  13
HETATM   13  N1  UNL     1     121.966  53.487  15.854  1.00  0.00    -0.350 N 
HETATM   14  C8  UNL     1     122.488  53.276  14.574  1.00  0.00     0.248 C 
HETATM   15  O2  UNL     1     121.775  53.511  13.575  1.00  0.00    -0.271 OA
ATOM     16  H1  UNL     1     122.554  53.288  16.664  1.00  0.00     0.163 HD
BRANCH  14  17
HETATM   17  C9  UNL     1     123.864  52.780  14.382  1.00  0.00     0.245 C 
BRANCH  17  18
HETATM   18  N2  UNL     1     123.945  51.364  14.731  1.00  0.00    -0.337 N 
HETATM   19  C10 UNL     1     124.450  50.441  13.804  1.00  0.00     0.252 C 
HETATM   20  O3  UNL     1     124.833  50.884  12.666  1.00  0.00    -0.268 OA
ATOM     21  H2  UNL     1     123.633  51.046  15.649  1.00  0.00     0.164 HD
BRANCH  19  22
HETATM   22  C11 UNL     1     124.579  49.012  14.021  1.00  0.00     0.032 A 
HETATM   23  C12 UNL     1     125.781  48.396  13.752  1.00  0.00     0.017 A 
HETATM   24  C13 UNL     1     125.914  47.020  13.977  1.00  0.00     0.002 A 
HETATM   25  C14 UNL     1     124.876  46.273  14.458  1.00  0.00     0.007 A 
HETATM   26  C15 UNL     1     123.665  46.887  14.729  1.00  0.00    -0.061 A 
HETATM   27  C16 UNL     1     122.522  46.104  15.256  1.00  0.00     0.048 C 
HETATM   28  C17 UNL     1     123.535  48.243  14.509  1.00  0.00     0.023 A 
ENDBRANCH  19  22
ENDBRANCH  17  18
BRANCH  17  29
HETATM   29  C18 UNL     1     124.805  53.599  15.141  1.00  0.00     0.113 A 
HETATM   30  N3  UNL     1     125.530  53.117  16.188  1.00  0.00    -0.352 N 
HETATM   31  C19 UNL     1     126.285  54.111  16.652  1.00  0.00     0.106 A 
ATOM     32  H3  UNL     1     125.499  52.165  16.552  1.00  0.00     0.166 HD
HETATM   33  C20 UNL     1     126.023  55.211  15.886  1.00  0.00     0.106 A 
HETATM   34  N4  UNL     1     125.102  54.888  14.947  1.00  0.00    -0.352 N 
ATOM     35  H4  UNL     1     124.712  55.505  14.235  1.00  0.00     0.166 HD
ENDBRANCH  17  29
ENDBRANCH  14  17
ENDBRANCH   1  13
BRANCH   1  36
HETATM   36  C21 UNL     1     120.722  55.136  16.952  1.00  0.00    -0.030 A 
HETATM   37  C22 UNL     1     119.770  56.118  17.128  1.00  0.00     0.049 A 
HETATM   38  C23 UNL     1     119.973  57.183  17.972  1.00  0.00     0.104 A 
HETATM   39  C25 UNL     1     121.110  57.344  18.690  1.00  0.00     0.135 A 
HETATM   40  C27 UNL     1     122.101  56.367  18.542  1.00  0.00     0.104 A 
HETATM   41  C29 UNL     1     121.901  55.306  17.700  1.00  0.00     0.049 A 
BRANCH  38  42
HETATM   42  O4  UNL     1     118.979  58.148  18.108  1.00  0.00    -0.353 OA
HETATM   43  C24 UNL     1     117.956  58.025  19.088  1.00  0.00     0.210 C 
ENDBRANCH  38  42
BRANCH  39  44
HETATM   44  O5  UNL     1     121.325  58.392  19.530  1.00  0.00    -0.351 OA
HETATM   45  C26 UNL     1     121.825  59.645  19.165  1.00  0.00     0.210 C 
ENDBRANCH  39  44
BRANCH  40  46
HETATM   46  O6  UNL     1     123.274  56.528  19.285  1.00  0.00    -0.353 OA
HETATM   47  C28 UNL     1     124.425  56.968  18.582  1.00  0.00     0.210 C 
ENDBRANCH  40  46
ENDBRANCH   1  36
TORSDOF 13
ENDMDL
MODEL 2
REMARK VINA RESULT: -9.207583006      0.625      2.196
REMARK  13 active torsions:
REMARK  status: ('A' for Active; 'I' for Inactive)
REMARK    1  A    between atoms: O1_2  and  C2_3 
REMARK    2  A    between atoms: C5_6  and  C6_7 
REMARK    3  A    between atoms: C6_7  and  C7_8 
REMARK    4  A    between atoms: C7_8  and  N1_9 
REMARK    5  A    between atoms: C7_8  and  C21_32 
REMARK       I    between atoms: N1_9  and  C8_11 
REMARK    6  A    between atoms: C8_11  and  C9_13 
REMARK    7  A    between atoms: C9_13  and  N2_14 
REMARK    8  A    between atoms: C9_13  and  C18_25 
REMARK       I    between atoms: N2_14  and  C10_16 
REMARK    9  A    between atoms: C10_16  and  C11_18 
REMARK   10  A    between atoms: C23_34  and  O4_35 
REMARK   11  A    between atoms: C25_37  and  O5_38 
REMARK   12  A    between atoms: C27_40  and  O6_41 
REMARK   13  A    between atoms: C31_45  and  O7_46 
ROOT
HETATM    1  C7  UNL     1     120.685  53.860  15.999  1.00  0.00     0.122 C 
ENDROOT
BRANCH   1   2
HETATM    2  C6  UNL     1     119.694  52.822  16.341  1.00  0.00     0.068 C 
BRANCH   2   3
HETATM    3  C5  UNL     1     119.140  52.055  15.202  1.00  0.00    -0.053 A 
HETATM    4  C4  UNL     1     118.021  52.581  14.528  1.00  0.00     0.010 A 
HETATM    5  C3  UNL     1     117.450  51.976  13.442  1.00  0.00     0.040 A 
HETATM    6  C2  UNL     1     117.972  50.789  12.956  1.00  0.00     0.101 A 
HETATM    7  C31 UNL     1     119.068  50.260  13.603  1.00  0.00     0.102 A 
HETATM    8  C30 UNL     1     119.648  50.873  14.708  1.00  0.00     0.046 A 
BRANCH   6   9
HETATM    9  O1  UNL     1     117.396  50.158  11.840  1.00  0.00    -0.353 OA
HETATM   10  C1  UNL     1     116.423  49.131  12.027  1.00  0.00     0.210 C 
ENDBRANCH   6   9
BRANCH   7  11
HETATM   11  O7  UNL     1     119.570  49.071  13.097  1.00  0.00    -0.353 OA
HETATM   12  C32 UNL     1     119.430  47.872  13.804  1.00  0.00     0.210 C 
ENDBRANCH   7  11
ENDBRANCH   2   3
ENDBRANCH   1   2
BRANCH   1  13
HETATM   13  N1  UNL     1     122.000  53.308  15.685  1.00  0.00    -0.350 N 
HETATM   14  C8  UNL     1     122.862  53.906  14.760  1.00  0.00     0.248 C 
HETATM   15  O2  UNL     1     122.502  54.947  14.172  1.00  0.00    -0.271 OA
ATOM     16  H1  UNL     1     122.301  52.455  16.157  1.00  0.00     0.163 HD
BRANCH  14  17
HETATM   17  C9  UNL     1     124.187  53.328  14.465  1.00  0.00     0.245 C 
BRANCH  17  18
HETATM   18  N2  UNL     1     124.182  51.891  14.726  1.00  0.00    -0.337 N 
HETATM   19  C10 UNL     1     124.312  50.985  13.664  1.00  0.00     0.252 C 
HETATM   20  O3  UNL     1     124.436  51.461  12.483  1.00  0.00    -0.268 OA
ATOM     21  H2  UNL     1     124.084  51.546  15.681  1.00  0.00     0.164 HD
BRANCH  19  22
HETATM   22  C11 UNL     1     124.317  49.539  13.785  1.00  0.00     0.032 A 
HETATM   23  C12 UNL     1     123.118  48.864  13.838  1.00  0.00     0.017 A 
HETATM   24  C13 UNL     1     123.119  47.467  13.937  1.00  0.00     0.002 A 
HETATM   25  C14 UNL     1     124.286  46.757  13.981  1.00  0.00     0.007 A 
HETATM   26  C15 UNL     1     125.494  47.430  13.928  1.00  0.00    -0.061 A 
HETATM   27  C16 UNL     1     126.776  46.687  13.969  1.00  0.00     0.048 C 
HETATM   28  C17 UNL     1     125.492  48.806  13.829  1.00  0.00     0.023 A 
ENDBRANCH  19  22
ENDBRANCH  17  18
BRANCH  17  29
HETATM   29  C18 UNL     1     125.222  54.031  15.219  1.00  0.00     0.113 A 
HETATM   30  N3  UNL     1     126.342  53.418  15.688  1.00  0.00    -0.352 N 
HETATM   31  C19 UNL     1     127.073  54.334  16.322  1.00  0.00     0.106 A 
ATOM     32  H3  UNL     1     126.580  52.433  15.575  1.00  0.00     0.166 HD
HETATM   33  C20 UNL     1     126.397  55.518  16.242  1.00  0.00     0.106 A 
HETATM   34  N4  UNL     1     125.246  55.325  15.554  1.00  0.00    -0.352 N 
ATOM     35  H4  UNL     1     124.538  56.026  15.337  1.00  0.00     0.166 HD
ENDBRANCH  17  29
ENDBRANCH  14  17
ENDBRANCH   1  13
BRANCH   1  36
HETATM   36  C21 UNL     1     120.906  54.972  16.912  1.00  0.00    -0.030 A 
HETATM   37  C22 UNL     1     122.017  55.161  17.707  1.00  0.00     0.049 A 
HETATM   38  C23 UNL     1     122.132  56.239  18.551  1.00  0.00     0.104 A 
HETATM   39  C25 UNL     1     121.173  57.188  18.662  1.00  0.00     0.135 A 
HETATM   40  C27 UNL     1     120.030  57.035  17.870  1.00  0.00     0.104 A 
HETATM   41  C29 UNL     1     119.913  55.961  17.029  1.00  0.00     0.049 A 
BRANCH  38  42
HETATM   42  O4  UNL     1     123.275  56.377  19.333  1.00  0.00    -0.353 OA
HETATM   43  C24 UNL     1     124.455  56.983  18.820  1.00  0.00     0.210 C 
ENDBRANCH  38  42
BRANCH  39  44
HETATM   44  O5  UNL     1     121.272  58.261  19.493  1.00  0.00    -0.351 OA
HETATM   45  C26 UNL     1     121.779  59.517  19.151  1.00  0.00     0.210 C 
ENDBRANCH  39  44
BRANCH  40  46
HETATM   46  O6  UNL     1     119.039  58.016  17.979  1.00  0.00    -0.353 OA
HETATM   47  C28 UNL     1     117.939  57.728  18.827  1.00  0.00     0.210 C 
ENDBRANCH  40  46
ENDBRANCH   1  36
TORSDOF 13
ENDMDL
MODEL 3
REMARK VINA RESULT: -9.162886699      0.428      1.081
REMARK  13 active torsions:
REMARK  status: ('A' for Active; 'I' for Inactive)
REMARK    1  A    between atoms: O1_2  and  C2_3 
REMARK    2  A    between atoms: C5_6  and  C6_7 
REMARK    3  A    between atoms: C6_7  and  C7_8 
REMARK    4  A    between atoms: C7_8  and  N1_9 
REMARK    5  A    between atoms: C7_8  and  C21_32 
REMARK       I    between atoms: N1_9  and  C8_11 
REMARK    6  A    between atoms: C8_11  and  C9_13 
REMARK    7  A    between atoms: C9_13  and  N2_14 
REMARK    8  A    between atoms: C9_13  and  C18_25 
REMARK       I    between atoms: N2_14  and  C10_16 
REMARK    9  A    between atoms: C10_16  and  C11_18 
REMARK   10  A    between atoms: C23_34  and  O4_35 
REMARK   11  A    between atoms: C25_37  and  O5_38 
REMARK   12  A    between atoms: C27_40  and  O6_41 
REMARK   13  A    between atoms: C31_45  and  O7_46 
ROOT
HETATM    1  C7  UNL     1     120.647  53.878  16.048  1.00  0.00     0.122 C 
ENDROOT
BRANCH   1   2
HETATM    2  C6  UNL     1     119.707  52.793  16.386  1.00  0.00     0.068 C 
BRANCH   2   3
HETATM    3  C5  UNL     1     119.135  52.050  15.239  1.00  0.00    -0.053 A 
HETATM    4  C4  UNL     1     118.060  52.632  14.541  1.00  0.00     0.010 A 
HETATM    5  C3  UNL     1     117.479  52.052  13.445  1.00  0.00     0.040 A 
HETATM    6  C2  UNL     1     117.946  50.836  12.976  1.00  0.00     0.101 A 
HETATM    7  C31 UNL     1     118.999  50.253  13.647  1.00  0.00     0.102 A 
HETATM    8  C30 UNL     1     119.589  50.840  14.761  1.00  0.00     0.046 A 
BRANCH   6   9
HETATM    9  O1  UNL     1     117.360  50.231  11.850  1.00  0.00    -0.353 OA
HETATM   10  C1  UNL     1     116.530  49.083  12.014  1.00  0.00     0.210 C 
ENDBRANCH   6   9
BRANCH   7  11
HETATM   11  O7  UNL     1     119.446  49.036  13.157  1.00  0.00    -0.353 OA
HETATM   12  C32 UNL     1     120.808  48.806  12.936  1.00  0.00     0.210 C 
ENDBRANCH   7  11
ENDBRANCH   2   3
ENDBRANCH   1   2
BRANCH   1  13
HETATM   13  N1  UNL     1     122.011  53.401  15.835  1.00  0.00    -0.350 N 
HETATM   14  C8  UNL     1     122.519  53.131  14.560  1.00  0.00     0.248 C 
HETATM   15  O2  UNL     1     121.786  53.295  13.562  1.00  0.00    -0.271 OA
ATOM     16  H1  UNL     1     122.615  53.260  16.644  1.00  0.00     0.163 HD
BRANCH  14  17
HETATM   17  C9  UNL     1     123.903  52.654  14.373  1.00  0.00     0.245 C 
BRANCH  17  18
HETATM   18  N2  UNL     1     124.013  51.253  14.770  1.00  0.00    -0.337 N 
HETATM   19  C10 UNL     1     124.601  50.322  13.902  1.00  0.00     0.252 C 
HETATM   20  O3  UNL     1     125.030  50.745  12.773  1.00  0.00    -0.268 OA
ATOM     21  H2  UNL     1     123.662  50.951  15.680  1.00  0.00     0.164 HD
BRANCH  19  22
HETATM   22  C11 UNL     1     124.766  48.906  14.170  1.00  0.00     0.032 A 
HETATM   23  C12 UNL     1     123.907  48.281  15.046  1.00  0.00     0.017 A 
HETATM   24  C13 UNL     1     124.053  46.911  15.294  1.00  0.00     0.002 A 
HETATM   25  C14 UNL     1     125.032  46.177  14.685  1.00  0.00     0.007 A 
HETATM   26  C15 UNL     1     125.899  46.800  13.804  1.00  0.00    -0.061 A 
HETATM   27  C16 UNL     1     126.968  46.030  13.124  1.00  0.00     0.048 C 
HETATM   28  C17 UNL     1     125.753  48.150  13.559  1.00  0.00     0.023 A 
ENDBRANCH  19  22
ENDBRANCH  17  18
BRANCH  17  29
HETATM   29  C18 UNL     1     124.834  53.516  15.097  1.00  0.00     0.113 A 
HETATM   30  N3  UNL     1     125.507  53.112  16.208  1.00  0.00    -0.352 N 
HETATM   31  C19 UNL     1     126.269  54.127  16.615  1.00  0.00     0.106 A 
ATOM     32  H3  UNL     1     125.441  52.196  16.650  1.00  0.00     0.166 HD
HETATM   33  C20 UNL     1     126.061  55.162  15.748  1.00  0.00     0.106 A 
HETATM   34  N4  UNL     1     125.167  54.778  14.805  1.00  0.00    -0.352 N 
ATOM     35  H4  UNL     1     124.819  55.339  14.028  1.00  0.00     0.166 HD
ENDBRANCH  17  29
ENDBRANCH  14  17
ENDBRANCH   1  13
BRANCH   1  36
HETATM   36  C21 UNL     1     120.743  55.043  16.916  1.00  0.00    -0.030 A 
HETATM   37  C22 UNL     1     119.785  56.024  17.065  1.00  0.00     0.049 A 
HETATM   38  C23 UNL     1     119.971  57.099  17.900  1.00  0.00     0.104 A 
HETATM   39  C25 UNL     1     121.096  57.272  18.634  1.00  0.00     0.135 A 
HETATM   40  C27 UNL     1     122.092  56.297  18.513  1.00  0.00     0.104 A 
HETATM   41  C29 UNL     1     121.909  55.225  17.680  1.00  0.00     0.049 A 
BRANCH  38  42
HETATM   42  O4  UNL     1     118.972  58.062  18.009  1.00  0.00    -0.353 OA
HETATM   43  C24 UNL     1     117.966  57.975  19.010  1.00  0.00     0.210 C 
ENDBRANCH  38  42
BRANCH  39  44
HETATM   44  O5  UNL     1     121.294  58.331  19.465  1.00  0.00    -0.351 OA
HETATM   45  C26 UNL     1     121.821  59.572  19.099  1.00  0.00     0.210 C 
ENDBRANCH  39  44
BRANCH  40  46
HETATM   46  O6  UNL     1     123.253  56.469  19.273  1.00  0.00    -0.353 OA
HETATM   47  C28 UNL     1     124.432  56.830  18.572  1.00  0.00     0.210 C 
ENDBRANCH  40  46
ENDBRANCH   1  36
TORSDOF 13
ENDMDL
MODEL 4
REMARK VINA RESULT: -9.129060328      0.562      2.027
REMARK  13 active torsions:
REMARK  status: ('A' for Active; 'I' for Inactive)
REMARK    1  A    between atoms: O1_2  and  C2_3 
REMARK    2  A    between atoms: C5_6  and  C6_7 
REMARK    3  A    between atoms: C6_7  and  C7_8 
REMARK    4  A    between atoms: C7_8  and  N1_9 
REMARK    5  A    between atoms: C7_8  and  C21_32 
REMARK       I    between atoms: N1_9  and  C8_11 
REMARK    6  A    between atoms: C8_11  and  C9_13 
REMARK    7  A    between atoms: C9_13  and  N2_14 
REMARK    8  A    between atoms: C9_13  and  C18_25 
REMARK       I    between atoms: N2_14  and  C10_16 
REMARK    9  A    between atoms: C10_16  and  C11_18 
REMARK   10  A    between atoms: C23_34  and  O4_35 
REMARK   11  A    between atoms: C25_37  and  O5_38 
REMARK   12  A    between atoms: C27_40  and  O6_41 
REMARK   13  A    between atoms: C31_45  and  O7_46 
ROOT
HETATM    1  C7  UNL     1     120.737  53.683  15.953  1.00  0.00     0.122 C 
ENDROOT
BRANCH   1   2
HETATM    2  C6  UNL     1     119.741  52.655  16.308  1.00  0.00     0.068 C 
BRANCH   2   3
HETATM    3  C5  UNL     1     119.143  51.913  15.173  1.00  0.00    -0.053 A 
HETATM    4  C4  UNL     1     118.007  52.460  14.547  1.00  0.00     0.010 A 
HETATM    5  C3  UNL     1     117.395  51.879  13.469  1.00  0.00     0.040 A 
HETATM    6  C2  UNL     1     117.892  50.698  12.945  1.00  0.00     0.101 A 
HETATM    7  C31 UNL     1     119.005  50.149  13.545  1.00  0.00     0.102 A 
HETATM    8  C30 UNL     1     119.626  50.738  14.641  1.00  0.00     0.046 A 
BRANCH   6   9
HETATM    9  O1  UNL     1     117.275  50.092  11.836  1.00  0.00    -0.353 OA
HETATM   10  C1  UNL     1     116.301  49.069  12.037  1.00  0.00     0.210 C 
ENDBRANCH   6   9
BRANCH   7  11
HETATM   11  O7  UNL     1     119.481  48.967  13.000  1.00  0.00    -0.353 OA
HETATM   12  C32 UNL     1     119.354  47.756  13.688  1.00  0.00     0.210 C 
ENDBRANCH   7  11
ENDBRANCH   2   3
ENDBRANCH   1   2
BRANCH   1  13
HETATM   13  N1  UNL     1     122.064  53.126  15.706  1.00  0.00    -0.350 N 
HETATM   14  C8  UNL     1     122.906  53.616  14.702  1.00  0.00     0.248 C 
HETATM   15  O2  UNL     1     122.518  54.559  13.982  1.00  0.00    -0.271 OA
ATOM     16  H1  UNL     1     122.389  52.352  16.285  1.00  0.00     0.163 HD
BRANCH  14  17
HETATM   17  C9  UNL     1     124.245  53.036  14.477  1.00  0.00     0.245 C 
BRANCH  17  18
HETATM   18  N2  UNL     1     124.240  51.611  14.801  1.00  0.00    -0.337 N 
HETATM   19  C10 UNL     1     124.596  50.669  13.826  1.00  0.00     0.252 C 
HETATM   20  O3  UNL     1     124.922  51.102  12.666  1.00  0.00    -0.268 OA
ATOM     21  H2  UNL     1     123.978  51.303  15.737  1.00  0.00     0.164 HD
BRANCH  19  22
HETATM   22  C11 UNL     1     124.628  49.231  14.015  1.00  0.00     0.032 A 
HETATM   23  C12 UNL     1     125.761  48.531  13.664  1.00  0.00     0.017 A 
HETATM   24  C13 UNL     1     125.802  47.145  13.860  1.00  0.00     0.002 A 
HETATM   25  C14 UNL     1     124.741  46.470  14.394  1.00  0.00     0.007 A 
HETATM   26  C15 UNL     1     123.599  47.168  14.748  1.00  0.00    -0.061 A 
HETATM   27  C16 UNL     1     122.434  46.464  15.333  1.00  0.00     0.048 C 
HETATM   28  C17 UNL     1     123.561  48.534  14.555  1.00  0.00     0.023 A 
ENDBRANCH  19  22
ENDBRANCH  17  18
BRANCH  17  29
HETATM   29  C18 UNL     1     125.249  53.780  15.233  1.00  0.00     0.113 A 
HETATM   30  N3  UNL     1     125.144  55.111  15.494  1.00  0.00    -0.352 N 
HETATM   31  C19 UNL     1     126.214  55.474  16.200  1.00  0.00     0.106 A 
ATOM     32  H3  UNL     1     124.382  55.722  15.200  1.00  0.00     0.166 HD
HETATM   33  C20 UNL     1     126.981  54.358  16.374  1.00  0.00     0.106 A 
HETATM   34  N4  UNL     1     126.377  53.306  15.771  1.00  0.00    -0.352 N 
ATOM     35  H4  UNL     1     126.716  52.345  15.734  1.00  0.00     0.166 HD
ENDBRANCH  17  29
ENDBRANCH  14  17
ENDBRANCH   1  13
BRANCH   1  36
HETATM   36  C21 UNL     1     120.923  54.835  16.823  1.00  0.00    -0.030 A 
HETATM   37  C22 UNL     1     122.000  55.059  17.654  1.00  0.00     0.049 A 
HETATM   38  C23 UNL     1     122.083  56.174  18.453  1.00  0.00     0.104 A 
HETATM   39  C25 UNL     1     121.122  57.128  18.481  1.00  0.00     0.135 A 
HETATM   40  C27 UNL     1     120.013  56.940  17.650  1.00  0.00     0.104 A 
HETATM   41  C29 UNL     1     119.929  55.829  16.854  1.00  0.00     0.049 A 
BRANCH  38  42
HETATM   42  O4  UNL     1     123.193  56.345  19.276  1.00  0.00    -0.353 OA
HETATM   43  C24 UNL     1     124.331  57.078  18.840  1.00  0.00     0.210 C 
ENDBRANCH  38  42
BRANCH  39  44
HETATM   44  O5  UNL     1     121.190  58.237  19.266  1.00  0.00    -0.351 OA
HETATM   45  C26 UNL     1     120.582  58.395  20.515  1.00  0.00     0.210 C 
ENDBRANCH  39  44
BRANCH  40  46
HETATM   46  O6  UNL     1     119.022  57.926  17.673  1.00  0.00    -0.353 OA
HETATM   47  C28 UNL     1     117.781  57.577  18.266  1.00  0.00     0.210 C 
ENDBRANCH  40  46
ENDBRANCH   1  36
TORSDOF 13
ENDMDL
MODEL 5
REMARK VINA RESULT: -9.069136724      2.502      9.087
REMARK  13 active torsions:
REMARK  status: ('A' for Active; 'I' for Inactive)
REMARK    1  A    between atoms: O1_2  and  C2_3 
REMARK    2  A    between atoms: C5_6  and  C6_7 
REMARK    3  A    between atoms: C6_7  and  C7_8 
REMARK    4  A    between atoms: C7_8  and  N1_9 
REMARK    5  A    between atoms: C7_8  and  C21_32 
REMARK       I    between atoms: N1_9  and  C8_11 
REMARK    6  A    between atoms: C8_11  and  C9_13 
REMARK    7  A    between atoms: C9_13  and  N2_14 
REMARK    8  A    between atoms: C9_13  and  C18_25 
REMARK       I    between atoms: N2_14  and  C10_16 
REMARK    9  A    between atoms: C10_16  and  C11_18 
REMARK   10  A    between atoms: C23_34  and  O4_35 
REMARK   11  A    between atoms: C25_37  and  O5_38 
REMARK   12  A    between atoms: C27_40  and  O6_41 
REMARK   13  A    between atoms: C31_45  and  O7_46 
ROOT
HETATM    1  C7  UNL     1     120.356  55.361  16.498  1.00  0.00     0.122 C 
ENDROOT
BRANCH   1   2
HETATM    2  C6  UNL     1     119.961  56.765  16.274  1.00  0.00     0.068 C 
BRANCH   2   3
HETATM    3  C5  UNL     1     119.926  57.628  17.477  1.00  0.00    -0.053 A 
HETATM    4  C4  UNL     1     119.092  57.246  18.544  1.00  0.00     0.010 A 
HETATM    5  C3  UNL     1     119.008  57.949  19.716  1.00  0.00     0.040 A 
HETATM    6  C2  UNL     1     119.767  59.093  19.893  1.00  0.00     0.101 A 
HETATM    7  C31 UNL     1     120.590  59.481  18.859  1.00  0.00     0.102 A 
HETATM    8  C30 UNL     1     120.675  58.769  17.667  1.00  0.00     0.046 A 
BRANCH   6   9
HETATM    9  O1  UNL     1     119.692  59.823  21.093  1.00  0.00    -0.353 OA
HETATM   10  C1  UNL     1     120.644  59.585  22.128  1.00  0.00     0.210 C 
ENDBRANCH   6   9
BRANCH   7  11
HETATM   11  O7  UNL     1     121.338  60.630  19.062  1.00  0.00    -0.353 OA
HETATM   12  C32 UNL     1     120.784  61.896  18.847  1.00  0.00     0.210 C 
ENDBRANCH   7  11
ENDBRANCH   2   3
ENDBRANCH   1   2
BRANCH   1  13
HETATM   13  N1  UNL     1     121.711  55.230  17.028  1.00  0.00    -0.350 N 
HETATM   14  C8  UNL     1     122.790  55.956  16.513  1.00  0.00     0.248 C 
HETATM   15  O2  UNL     1     122.600  56.744  15.563  1.00  0.00    -0.271 OA
ATOM     16  H1  UNL     1     121.876  54.585  17.801  1.00  0.00     0.163 HD
BRANCH  14  17
HETATM   17  C9  UNL     1     124.148  55.805  17.071  1.00  0.00     0.245 C 
BRANCH  17  18
HETATM   18  N2  UNL     1     124.751  57.117  17.295  1.00  0.00    -0.337 N 
HETATM   19  C10 UNL     1     124.921  57.597  18.601  1.00  0.00     0.252 C 
HETATM   20  O3  UNL     1     124.535  56.852  19.567  1.00  0.00    -0.268 OA
ATOM     21  H2  UNL     1     125.049  57.683  16.500  1.00  0.00     0.164 HD
BRANCH  19  22
HETATM   22  C11 UNL     1     125.498  58.879  18.960  1.00  0.00     0.032 A 
HETATM   23  C12 UNL     1     126.833  59.109  18.711  1.00  0.00     0.017 A 
HETATM   24  C13 UNL     1     127.390  60.351  19.041  1.00  0.00     0.002 A 
HETATM   25  C14 UNL     1     126.637  61.342  19.605  1.00  0.00     0.007 A 
HETATM   26  C15 UNL     1     125.295  61.116  19.858  1.00  0.00    -0.061 A 
HETATM   27  C16 UNL     1     124.452  62.173  20.465  1.00  0.00     0.048 C 
HETATM   28  C17 UNL     1     124.747  59.892  19.531  1.00  0.00     0.023 A 
ENDBRANCH  19  22
ENDBRANCH  17  18
BRANCH  17  29
HETATM   29  C18 UNL     1     124.958  54.957  16.201  1.00  0.00     0.113 A 
HETATM   30  N3  UNL     1     124.887  55.007  14.843  1.00  0.00    -0.352 N 
HETATM   31  C19 UNL     1     125.750  54.116  14.357  1.00  0.00     0.106 A 
ATOM     32  H3  UNL     1     124.282  55.618  14.295  1.00  0.00     0.166 HD
HETATM   33  C20 UNL     1     126.354  53.514  15.423  1.00  0.00     0.106 A 
HETATM   34  N4  UNL     1     125.859  54.040  16.569  1.00  0.00    -0.352 N 
ATOM     35  H4  UNL     1     126.120  53.787  17.521  1.00  0.00     0.166 HD
ENDBRANCH  17  29
ENDBRANCH  14  17
ENDBRANCH   1  13
BRANCH   1  36
HETATM   36  C21 UNL     1     120.237  54.398  15.414  1.00  0.00    -0.030 A 
HETATM   37  C22 UNL     1     119.065  54.008  14.800  1.00  0.00     0.049 A 
HETATM   38  C23 UNL     1     119.049  53.078  13.789  1.00  0.00     0.104 A 
HETATM   39  C25 UNL     1     120.172  52.482  13.323  1.00  0.00     0.135 A 
HETATM   40  C27 UNL     1     121.383  52.852  13.918  1.00  0.00     0.104 A 
HETATM   41  C29 UNL     1     121.401  53.778  14.926  1.00  0.00     0.049 A 
BRANCH  38  42
HETATM   42  O4  UNL     1     117.836  52.719  13.208  1.00  0.00    -0.353 OA
HETATM   43  C24 UNL     1     117.091  51.603  13.677  1.00  0.00     0.210 C 
ENDBRANCH  38  42
BRANCH  39  44
HETATM   44  O5  UNL     1     120.172  51.560  12.323  1.00  0.00    -0.351 OA
HETATM   45  C26 UNL     1     120.182  50.172  12.488  1.00  0.00     0.210 C 
ENDBRANCH  39  44
BRANCH  40  46
HETATM   46  O6  UNL     1     122.546  52.242  13.436  1.00  0.00    -0.353 OA
HETATM   47  C28 UNL     1     123.329  51.521  14.373  1.00  0.00     0.210 C 
ENDBRANCH  40  46
ENDBRANCH   1  36
TORSDOF 13
ENDMDL
