MODEL 1
REMARK VINA RESULT: -7.981575265      0.000      0.000
REMARK  16 active torsions:
REMARK  status: ('A' for Active; 'I' for Inactive)
REMARK    1  A    between atoms: C2_2  and  C3_3 
REMARK    2  A    between atoms: C3_3  and  O1_4 
REMARK    3  A    between atoms: C3_3  and  C4_6 
REMARK    4  A    between atoms: C4_6  and  N1_7 
REMARK    5  A    between atoms: N2_9  and  C6_10 
REMARK    6  A    between atoms: C6_10  and  O2_11 
REMARK    7  A    between atoms: C6_10  and  C7_13 
REMARK    8  A    between atoms: C7_13  and  N3_14 
REMARK    9  A    between atoms: N3_14  and  C8_16 
REMARK   10  A    between atoms: C8_16  and  C9_17 
REMARK   11  A    between atoms: C9_17  and  C10_18 
REMARK   12  A    between atoms: C10_18  and  O4_20 
REMARK   13  A    between atoms: O4_20  and  C11_21 
REMARK   14  A    between atoms: C22_32  and  N4_33 
REMARK       I    between atoms: N4_33  and  C23_35 
REMARK   15  A    between atoms: C23_35  and  O6_37 
REMARK   16  A    between atoms: O6_37  and  C24_38 
ROOT
HETATM    1  N1  UNL     1      69.748  57.415  18.269  1.00  0.00    -0.331 N 
HETATM    2  C5  UNL     1      69.467  56.035  17.830  1.00  0.00     0.255 C 
HETATM    3  N2  UNL     1      69.750  55.941  16.402  1.00  0.00    -0.335 N 
HETATM    4  C13 UNL     1      71.131  55.603  15.980  1.00  0.00     0.038 C 
HETATM    5  C14 UNL     1      71.371  54.221  16.621  1.00  0.00     0.032 C 
HETATM    6  C15 UNL     1      71.792  53.195  15.614  1.00  0.00     0.011 C 
HETATM    7  C16 UNL     1      72.999  53.589  14.831  1.00  0.00    -0.048 C 
HETATM    8  C17 UNL     1      74.267  53.593  15.647  1.00  0.00     0.015 C 
HETATM    9  C18 UNL     1      73.195  52.527  13.743  1.00  0.00     0.015 C 
HETATM   10  C19 UNL     1      72.777  54.943  14.251  1.00  0.00     0.011 C 
HETATM   11  C20 UNL     1      71.368  55.483  14.546  1.00  0.00     0.032 C 
HETATM   12  C21 UNL     1      72.085  56.539  16.707  1.00  0.00     0.066 C 
HETATM   13  C22 UNL     1      71.658  57.979  16.615  1.00  0.00     0.181 C 
HETATM   14  C28 UNL     1      70.635  58.322  17.640  1.00  0.00     0.244 C 
HETATM   15  O7  UNL     1      70.578  59.538  17.953  1.00  0.00    -0.271 OA
ENDROOT
BRANCH   3  16
HETATM   16  C6  UNL     1      68.738  56.176  15.504  1.00  0.00     0.155 C 
BRANCH  16  17
HETATM   17  O2  UNL     1      68.560  57.417  15.060  1.00  0.00    -0.345 OA
ATOM     18  H2  UNL     1      67.687  57.791  15.097  1.00  0.00     0.219 HD
ENDBRANCH  16  17
BRANCH  16  19
HETATM   19  C7  UNL     1      67.741  55.315  14.884  1.00  0.00     0.139 C 
BRANCH  19  20
HETATM   20  N3  UNL     1      68.086  54.131  14.208  1.00  0.00    -0.395 N 
ATOM     21  H3  UNL     1      68.385  54.074  13.235  1.00  0.00     0.159 HD
BRANCH  20  22
HETATM   22  C8  UNL     1      67.948  52.985  15.125  1.00  0.00     0.129 C 
BRANCH  22  23
HETATM   23  C9  UNL     1      68.054  51.706  14.366  1.00  0.00     0.130 C 
BRANCH  23  24
HETATM   24  C10 UNL     1      67.944  51.976  12.895  1.00  0.00     0.260 C 
HETATM   25  O3  UNL     1      68.982  51.974  12.184  1.00  0.00    -0.265 OA
BRANCH  24  26
HETATM   26  O4  UNL     1      66.675  52.216  12.401  1.00  0.00    -0.322 OA
BRANCH  26  27
HETATM   27  C11 UNL     1      65.592  51.388  12.758  1.00  0.00     0.174 C 
HETATM   28  C12 UNL     1      65.656  50.096  11.993  1.00  0.00     0.034 C 
ENDBRANCH  26  27
ENDBRANCH  24  26
ENDBRANCH  23  24
ENDBRANCH  22  23
ENDBRANCH  20  22
ENDBRANCH  19  20
ENDBRANCH  16  19
ENDBRANCH   3  16
BRANCH   1  29
HETATM   29  C4  UNL     1      69.070  57.857  19.431  1.00  0.00     0.163 C 
BRANCH  29  30
HETATM   30  C3  UNL     1      67.779  58.592  19.198  1.00  0.00     0.158 C 
BRANCH  30  31
HETATM   31  C2  UNL     1      67.720  59.853  19.982  1.00  0.00    -0.004 C 
HETATM   32  C1  UNL     1      68.737  60.178  20.747  1.00  0.00     0.009 C 
ENDBRANCH  30  31
BRANCH  30  33
HETATM   33  O1  UNL     1      66.761  57.753  19.720  1.00  0.00    -0.390 OA
ATOM     34  H1  UNL     1      66.847  56.921  19.269  1.00  0.00     0.210 HD
ENDBRANCH  30  33
ENDBRANCH  29  30
ENDBRANCH   1  29
BRANCH  13  35
HETATM   35  N4  UNL     1      72.830  58.775  16.909  1.00  0.00    -0.324 N 
HETATM   36  C23 UNL     1      73.701  58.582  17.981  1.00  0.00     0.362 C 
HETATM   37  O5  UNL     1      73.467  57.632  18.781  1.00  0.00    -0.238 OA
ATOM     38  H4  UNL     1      73.038  59.547  16.275  1.00  0.00     0.165 HD
BRANCH  36  39
HETATM   39  O6  UNL     1      74.807  59.364  18.224  1.00  0.00    -0.294 OA
BRANCH  39  40
HETATM   40  C24 UNL     1      75.001  59.926  19.491  1.00  0.00     0.061 C 
HETATM   41  C25 UNL     1      73.822  60.802  19.902  1.00  0.00     0.046 C 
HETATM   42  C26 UNL     1      76.205  60.870  19.355  1.00  0.00     0.046 C 
HETATM   43  C27 UNL     1      75.295  58.937  20.574  1.00  0.00     0.046 C 
ENDBRANCH  39  40
ENDBRANCH  36  39
ENDBRANCH  13  35
TORSDOF 16
ENDMDL
MODEL 2
REMARK VINA RESULT: -7.839039641      1.951      9.404
REMARK  16 active torsions:
REMARK  status: ('A' for Active; 'I' for Inactive)
REMARK    1  A    between atoms: C2_2  and  C3_3 
REMARK    2  A    between atoms: C3_3  and  O1_4 
REMARK    3  A    between atoms: C3_3  and  C4_6 
REMARK    4  A    between atoms: C4_6  and  N1_7 
REMARK    5  A    between atoms: N2_9  and  C6_10 
REMARK    6  A    between atoms: C6_10  and  O2_11 
REMARK    7  A    between atoms: C6_10  and  C7_13 
REMARK    8  A    between atoms: C7_13  and  N3_14 
REMARK    9  A    between atoms: N3_14  and  C8_16 
REMARK   10  A    between atoms: C8_16  and  C9_17 
REMARK   11  A    between atoms: C9_17  and  C10_18 
REMARK   12  A    between atoms: C10_18  and  O4_20 
REMARK   13  A    between atoms: O4_20  and  C11_21 
REMARK   14  A    between atoms: C22_32  and  N4_33 
REMARK       I    between atoms: N4_33  and  C23_35 
REMARK   15  A    between atoms: C23_35  and  O6_37 
REMARK   16  A    between atoms: O6_37  and  C24_38 
ROOT
HETATM    1  N1  UNL     1      71.830  55.238  16.468  1.00  0.00    -0.331 N 
HETATM    2  C5  UNL     1      72.082  56.109  17.633  1.00  0.00     0.255 C 
HETATM    3  N2  UNL     1      71.601  57.449  17.318  1.00  0.00    -0.335 N 
HETATM    4  C13 UNL     1      70.183  57.772  17.610  1.00  0.00     0.038 C 
HETATM    5  C14 UNL     1      70.074  57.556  19.132  1.00  0.00     0.032 C 
HETATM    6  C15 UNL     1      69.541  58.764  19.840  1.00  0.00     0.011 C 
HETATM    7  C16 UNL     1      68.225  59.230  19.314  1.00  0.00    -0.048 C 
HETATM    8  C17 UNL     1      67.086  58.295  19.639  1.00  0.00     0.015 C 
HETATM    9  C18 UNL     1      67.904  60.554  20.016  1.00  0.00     0.015 C 
HETATM   10  C19 UNL     1      68.325  59.394  17.837  1.00  0.00     0.011 C 
HETATM   11  C20 UNL     1      69.747  59.132  17.314  1.00  0.00     0.032 C 
HETATM   12  C21 UNL     1      69.318  56.680  16.998  1.00  0.00     0.066 C 
HETATM   13  C22 UNL     1      69.689  56.385  15.571  1.00  0.00     0.181 C 
HETATM   14  C28 UNL     1      70.839  55.443  15.478  1.00  0.00     0.244 C 
HETATM   15  O7  UNL     1      70.908  54.787  14.409  1.00  0.00    -0.271 OA
ENDROOT
BRANCH   3  16
HETATM   16  C6  UNL     1      72.468  58.354  16.758  1.00  0.00     0.155 C 
BRANCH  16  17
HETATM   17  O2  UNL     1      72.193  58.830  15.547  1.00  0.00    -0.345 OA
ATOM     18  H2  UNL     1      72.728  59.538  15.206  1.00  0.00     0.219 HD
ENDBRANCH  16  17
BRANCH  16  19
HETATM   19  C7  UNL     1      73.711  58.955  17.221  1.00  0.00     0.139 C 
BRANCH  19  20
HETATM   20  N3  UNL     1      73.865  59.456  18.526  1.00  0.00    -0.395 N 
ATOM     21  H3  UNL     1      73.384  60.272  18.904  1.00  0.00     0.159 HD
BRANCH  20  22
HETATM   22  C8  UNL     1      74.828  58.618  19.262  1.00  0.00     0.129 C 
BRANCH  22  23
HETATM   23  C9  UNL     1      75.915  59.466  19.831  1.00  0.00     0.130 C 
BRANCH  23  24
HETATM   24  C10 UNL     1      75.439  60.881  19.965  1.00  0.00     0.260 C 
HETATM   25  O3  UNL     1      75.862  61.757  19.167  1.00  0.00    -0.265 OA
BRANCH  24  26
HETATM   26  O4  UNL     1      74.540  61.140  20.983  1.00  0.00    -0.322 OA
BRANCH  26  27
HETATM   27  C11 UNL     1      73.696  62.267  20.934  1.00  0.00     0.174 C 
HETATM   28  C12 UNL     1      73.623  62.916  22.287  1.00  0.00     0.034 C 
ENDBRANCH  26  27
ENDBRANCH  24  26
ENDBRANCH  23  24
ENDBRANCH  22  23
ENDBRANCH  20  22
ENDBRANCH  19  20
ENDBRANCH  16  19
ENDBRANCH   3  16
BRANCH   1  29
HETATM   29  C4  UNL     1      72.655  54.095  16.345  1.00  0.00     0.163 C 
BRANCH  29  30
HETATM   30  C3  UNL     1      73.878  54.256  15.484  1.00  0.00     0.158 C 
BRANCH  30  31
HETATM   31  C2  UNL     1      73.998  53.153  14.496  1.00  0.00    -0.004 C 
HETATM   32  C1  UNL     1      73.226  52.097  14.619  1.00  0.00     0.009 C 
ENDBRANCH  30  31
BRANCH  30  33
HETATM   33  O1  UNL     1      74.984  54.123  16.362  1.00  0.00    -0.390 OA
ATOM     34  H1  UNL     1      75.288  55.005  16.541  1.00  0.00     0.210 HD
ENDBRANCH  30  33
ENDBRANCH  29  30
ENDBRANCH   1  29
BRANCH  13  35
HETATM   35  N4  UNL     1      68.551  55.715  14.979  1.00  0.00    -0.324 N 
HETATM   36  C23 UNL     1      67.926  54.572  15.478  1.00  0.00     0.362 C 
HETATM   37  O5  UNL     1      68.376  54.056  16.540  1.00  0.00    -0.238 OA
ATOM     38  H4  UNL     1      68.170  56.115  14.122  1.00  0.00     0.165 HD
BRANCH  36  39
HETATM   39  O6  UNL     1      66.842  53.967  14.883  1.00  0.00    -0.294 OA
BRANCH  39  40
HETATM   40  C24 UNL     1      66.995  52.730  14.247  1.00  0.00     0.061 C 
HETATM   41  C25 UNL     1      67.609  51.691  15.180  1.00  0.00     0.046 C 
HETATM   42  C26 UNL     1      68.023  52.955  13.127  1.00  0.00     0.046 C 
HETATM   43  C27 UNL     1      65.744  52.182  13.637  1.00  0.00     0.046 C 
ENDBRANCH  39  40
ENDBRANCH  36  39
ENDBRANCH  13  35
TORSDOF 16
ENDMDL
MODEL 3
REMARK VINA RESULT: -7.629364512      2.370      7.583
REMARK  16 active torsions:
REMARK  status: ('A' for Active; 'I' for Inactive)
REMARK    1  A    between atoms: C2_2  and  C3_3 
REMARK    2  A    between atoms: C3_3  and  O1_4 
REMARK    3  A    between atoms: C3_3  and  C4_6 
REMARK    4  A    between atoms: C4_6  and  N1_7 
REMARK    5  A    between atoms: N2_9  and  C6_10 
REMARK    6  A    between atoms: C6_10  and  O2_11 
REMARK    7  A    between atoms: C6_10  and  C7_13 
REMARK    8  A    between atoms: C7_13  and  N3_14 
REMARK    9  A    between atoms: N3_14  and  C8_16 
REMARK   10  A    between atoms: C8_16  and  C9_17 
REMARK   11  A    between atoms: C9_17  and  C10_18 
REMARK   12  A    between atoms: C10_18  and  O4_20 
REMARK   13  A    between atoms: O4_20  and  C11_21 
REMARK   14  A    between atoms: C22_32  and  N4_33 
REMARK       I    between atoms: N4_33  and  C23_35 
REMARK   15  A    between atoms: C23_35  and  O6_37 
REMARK   16  A    between atoms: O6_37  and  C24_38 
ROOT
HETATM    1  N1  UNL     1      72.152  56.892  18.093  1.00  0.00    -0.331 N 
HETATM    2  C5  UNL     1      70.705  57.129  18.268  1.00  0.00     0.255 C 
HETATM    3  N2  UNL     1      70.094  57.233  16.948  1.00  0.00    -0.335 N 
HETATM    4  C13 UNL     1      69.629  55.989  16.289  1.00  0.00     0.038 C 
HETATM    5  C14 UNL     1      68.580  55.434  17.273  1.00  0.00     0.032 C 
HETATM    6  C15 UNL     1      67.257  55.192  16.614  1.00  0.00     0.011 C 
HETATM    7  C16 UNL     1      67.340  54.292  15.426  1.00  0.00    -0.048 C 
HETATM    8  C17 UNL     1      67.647  52.859  15.782  1.00  0.00     0.015 C 
HETATM    9  C18 UNL     1      65.953  54.282  14.773  1.00  0.00     0.015 C 
HETATM   10  C19 UNL     1      68.386  54.809  14.501  1.00  0.00     0.011 C 
HETATM   11  C20 UNL     1      68.992  56.136  14.985  1.00  0.00     0.032 C 
HETATM   12  C21 UNL     1      70.770  54.982  16.329  1.00  0.00     0.066 C 
HETATM   13  C22 UNL     1      72.074  55.574  15.867  1.00  0.00     0.181 C 
HETATM   14  C28 UNL     1      72.767  56.313  16.958  1.00  0.00     0.244 C 
HETATM   15  O7  UNL     1      74.012  56.417  16.826  1.00  0.00    -0.271 OA
ENDROOT
BRANCH   3  16
HETATM   16  C6  UNL     1      69.981  58.470  16.361  1.00  0.00     0.155 C 
BRANCH  16  17
HETATM   17  O2  UNL     1      70.847  58.802  15.409  1.00  0.00    -0.345 OA
ATOM     18  H2  UNL     1      70.573  58.735  14.502  1.00  0.00     0.219 HD
ENDBRANCH  16  17
BRANCH  16  19
HETATM   19  C7  UNL     1      69.062  59.582  16.560  1.00  0.00     0.139 C 
BRANCH  19  20
HETATM   20  N3  UNL     1      69.283  60.576  17.529  1.00  0.00    -0.395 N 
ATOM     21  H3  UNL     1      70.161  61.074  17.673  1.00  0.00     0.159 HD
BRANCH  20  22
HETATM   22  C8  UNL     1      68.048  60.788  18.305  1.00  0.00     0.129 C 
BRANCH  22  23
HETATM   23  C9  UNL     1      68.355  61.522  19.566  1.00  0.00     0.130 C 
BRANCH  23  24
HETATM   24  C10 UNL     1      69.812  61.387  19.893  1.00  0.00     0.260 C 
HETATM   25  O3  UNL     1      70.592  62.346  19.661  1.00  0.00    -0.265 OA
BRANCH  24  26
HETATM   26  O4  UNL     1      70.215  60.184  20.443  1.00  0.00    -0.322 OA
BRANCH  26  27
HETATM   27  C11 UNL     1      69.418  59.523  21.399  1.00  0.00     0.174 C 
HETATM   28  C12 UNL     1      69.622  60.138  22.754  1.00  0.00     0.034 C 
ENDBRANCH  26  27
ENDBRANCH  24  26
ENDBRANCH  23  24
ENDBRANCH  22  23
ENDBRANCH  20  22
ENDBRANCH  19  20
ENDBRANCH  16  19
ENDBRANCH   3  16
BRANCH   1  29
HETATM   29  C4  UNL     1      72.987  57.276  19.170  1.00  0.00     0.163 C 
BRANCH  29  30
HETATM   30  C3  UNL     1      73.489  58.693  19.140  1.00  0.00     0.158 C 
BRANCH  30  31
HETATM   31  C2  UNL     1      74.953  58.758  19.387  1.00  0.00    -0.004 C 
HETATM   32  C1  UNL     1      75.603  59.858  19.082  1.00  0.00     0.009 C 
ENDBRANCH  30  31
BRANCH  30  33
HETATM   33  O1  UNL     1      72.872  59.342  20.240  1.00  0.00    -0.390 OA
ATOM     34  H1  UNL     1      72.621  60.205  19.932  1.00  0.00     0.210 HD
ENDBRANCH  30  33
ENDBRANCH  29  30
ENDBRANCH   1  29
BRANCH  13  35
HETATM   35  N4  UNL     1      72.926  54.461  15.508  1.00  0.00    -0.324 N 
HETATM   36  C23 UNL     1      72.499  53.162  15.228  1.00  0.00     0.362 C 
HETATM   37  O5  UNL     1      71.262  52.911  15.287  1.00  0.00    -0.238 OA
ATOM     38  H4  UNL     1      73.929  54.642  15.454  1.00  0.00     0.165 HD
BRANCH  36  39
HETATM   39  O6  UNL     1      73.346  52.132  14.889  1.00  0.00    -0.294 OA
BRANCH  39  40
HETATM   40  C24 UNL     1      73.129  51.409  13.711  1.00  0.00     0.061 C 
HETATM   41  C25 UNL     1      74.121  50.259  13.567  1.00  0.00     0.046 C 
HETATM   42  C26 UNL     1      73.431  52.378  12.558  1.00  0.00     0.046 C 
HETATM   43  C27 UNL     1      71.734  50.894  13.541  1.00  0.00     0.046 C 
ENDBRANCH  39  40
ENDBRANCH  36  39
ENDBRANCH  13  35
TORSDOF 16
ENDMDL
MODEL 4
REMARK VINA RESULT: -7.608218973      2.200      7.394
REMARK  16 active torsions:
REMARK  status: ('A' for Active; 'I' for Inactive)
REMARK    1  A    between atoms: C2_2  and  C3_3 
REMARK    2  A    between atoms: C3_3  and  O1_4 
REMARK    3  A    between atoms: C3_3  and  C4_6 
REMARK    4  A    between atoms: C4_6  and  N1_7 
REMARK    5  A    between atoms: N2_9  and  C6_10 
REMARK    6  A    between atoms: C6_10  and  O2_11 
REMARK    7  A    between atoms: C6_10  and  C7_13 
REMARK    8  A    between atoms: C7_13  and  N3_14 
REMARK    9  A    between atoms: N3_14  and  C8_16 
REMARK   10  A    between atoms: C8_16  and  C9_17 
REMARK   11  A    between atoms: C9_17  and  C10_18 
REMARK   12  A    between atoms: C10_18  and  O4_20 
REMARK   13  A    between atoms: O4_20  and  C11_21 
REMARK   14  A    between atoms: C22_32  and  N4_33 
REMARK       I    between atoms: N4_33  and  C23_35 
REMARK   15  A    between atoms: C23_35  and  O6_37 
REMARK   16  A    between atoms: O6_37  and  C24_38 
ROOT
HETATM    1  N1  UNL     1      72.524  56.672  17.719  1.00  0.00    -0.331 N 
HETATM    2  C5  UNL     1      71.093  56.908  17.997  1.00  0.00     0.255 C 
HETATM    3  N2  UNL     1      70.391  57.023  16.723  1.00  0.00    -0.335 N 
HETATM    4  C13 UNL     1      69.880  55.784  16.089  1.00  0.00     0.038 C 
HETATM    5  C14 UNL     1      68.901  55.223  17.140  1.00  0.00     0.032 C 
HETATM    6  C15 UNL     1      67.535  54.987  16.574  1.00  0.00     0.011 C 
HETATM    7  C16 UNL     1      67.533  54.096  15.377  1.00  0.00    -0.048 C 
HETATM    8  C17 UNL     1      67.863  52.660  15.699  1.00  0.00     0.015 C 
HETATM    9  C18 UNL     1      66.104  54.091  14.823  1.00  0.00     0.015 C 
HETATM   10  C19 UNL     1      68.512  54.619  14.384  1.00  0.00     0.011 C 
HETATM   11  C20 UNL     1      69.152  55.942  14.835  1.00  0.00     0.032 C 
HETATM   12  C21 UNL     1      71.019  54.777  16.042  1.00  0.00     0.066 C 
HETATM   13  C22 UNL     1      72.288  55.371  15.494  1.00  0.00     0.181 C 
HETATM   14  C28 UNL     1      73.057  56.101  16.538  1.00  0.00     0.244 C 
HETATM   15  O7  UNL     1      74.290  56.205  16.320  1.00  0.00    -0.271 OA
ENDROOT
BRANCH   3  16
HETATM   16  C6  UNL     1      70.239  58.264  16.156  1.00  0.00     0.155 C 
BRANCH  16  17
HETATM   17  O2  UNL     1      70.996  58.581  15.110  1.00  0.00    -0.345 OA
ATOM     18  H2  UNL     1      70.701  59.272  14.528  1.00  0.00     0.219 HD
ENDBRANCH  16  17
BRANCH  16  19
HETATM   19  C7  UNL     1      69.374  59.396  16.461  1.00  0.00     0.139 C 
BRANCH  19  20
HETATM   20  N3  UNL     1      69.459  60.101  17.674  1.00  0.00    -0.395 N 
ATOM     21  H3  UNL     1      70.320  60.291  18.187  1.00  0.00     0.159 HD
BRANCH  20  22
HETATM   22  C8  UNL     1      68.110  60.524  18.091  1.00  0.00     0.129 C 
BRANCH  22  23
HETATM   23  C9  UNL     1      67.895  60.205  19.532  1.00  0.00     0.130 C 
BRANCH  23  24
HETATM   24  C10 UNL     1      68.738  59.028  19.924  1.00  0.00     0.260 C 
HETATM   25  O3  UNL     1      68.333  57.864  19.676  1.00  0.00    -0.265 OA
BRANCH  24  26
HETATM   26  O4  UNL     1      69.939  59.307  20.549  1.00  0.00    -0.322 OA
BRANCH  26  27
HETATM   27  C11 UNL     1      70.050  60.377  21.459  1.00  0.00     0.174 C 
HETATM   28  C12 UNL     1      69.604  59.940  22.826  1.00  0.00     0.034 C 
ENDBRANCH  26  27
ENDBRANCH  24  26
ENDBRANCH  23  24
ENDBRANCH  22  23
ENDBRANCH  20  22
ENDBRANCH  19  20
ENDBRANCH  16  19
ENDBRANCH   3  16
BRANCH   1  29
HETATM   29  C4  UNL     1      73.433  57.047  18.737  1.00  0.00     0.163 C 
BRANCH  29  30
HETATM   30  C3  UNL     1      73.669  58.524  18.896  1.00  0.00     0.158 C 
BRANCH  30  31
HETATM   31  C2  UNL     1      75.097  58.821  19.178  1.00  0.00    -0.004 C 
HETATM   32  C1  UNL     1      75.563  58.627  20.392  1.00  0.00     0.009 C 
ENDBRANCH  30  31
BRANCH  30  33
HETATM   33  O1  UNL     1      72.949  58.903  20.058  1.00  0.00    -0.390 OA
ATOM     34  H1  UNL     1      72.176  59.363  19.752  1.00  0.00     0.210 HD
ENDBRANCH  30  33
ENDBRANCH  29  30
ENDBRANCH   1  29
BRANCH  13  35
HETATM   35  N4  UNL     1      73.112  54.260  15.067  1.00  0.00    -0.324 N 
HETATM   36  C23 UNL     1      72.821  53.382  14.023  1.00  0.00     0.362 C 
HETATM   37  O5  UNL     1      71.748  53.551  13.377  1.00  0.00    -0.238 OA
ATOM     38  H4  UNL     1      73.983  54.106  15.574  1.00  0.00     0.165 HD
BRANCH  36  39
HETATM   39  O6  UNL     1      73.634  52.336  13.649  1.00  0.00    -0.294 OA
BRANCH  39  40
HETATM   40  C24 UNL     1      73.217  51.017  13.860  1.00  0.00     0.061 C 
HETATM   41  C25 UNL     1      71.848  50.755  13.240  1.00  0.00     0.046 C 
HETATM   42  C26 UNL     1      73.031  50.870  15.378  1.00  0.00     0.046 C 
HETATM   43  C27 UNL     1      74.187  49.975  13.400  1.00  0.00     0.046 C 
ENDBRANCH  39  40
ENDBRANCH  36  39
ENDBRANCH  13  35
TORSDOF 16
ENDMDL
MODEL 5
REMARK VINA RESULT: -7.606090015      2.412      7.777
REMARK  16 active torsions:
REMARK  status: ('A' for Active; 'I' for Inactive)
REMARK    1  A    between atoms: C2_2  and  C3_3 
REMARK    2  A    between atoms: C3_3  and  O1_4 
REMARK    3  A    between atoms: C3_3  and  C4_6 
REMARK    4  A    between atoms: C4_6  and  N1_7 
REMARK    5  A    between atoms: N2_9  and  C6_10 
REMARK    6  A    between atoms: C6_10  and  O2_11 
REMARK    7  A    between atoms: C6_10  and  C7_13 
REMARK    8  A    between atoms: C7_13  and  N3_14 
REMARK    9  A    between atoms: N3_14  and  C8_16 
REMARK   10  A    between atoms: C8_16  and  C9_17 
REMARK   11  A    between atoms: C9_17  and  C10_18 
REMARK   12  A    between atoms: C10_18  and  O4_20 
REMARK   13  A    between atoms: O4_20  and  C11_21 
REMARK   14  A    between atoms: C22_32  and  N4_33 
REMARK       I    between atoms: N4_33  and  C23_35 
REMARK   15  A    between atoms: C23_35  and  O6_37 
REMARK   16  A    between atoms: O6_37  and  C24_38 
ROOT
HETATM    1  N1  UNL     1      72.270  56.809  17.942  1.00  0.00    -0.331 N 
HETATM    2  C5  UNL     1      70.830  57.087  18.109  1.00  0.00     0.255 C 
HETATM    3  N2  UNL     1      70.216  57.143  16.787  1.00  0.00    -0.335 N 
HETATM    4  C13 UNL     1      69.720  55.880  16.190  1.00  0.00     0.038 C 
HETATM    5  C14 UNL     1      68.662  55.398  17.202  1.00  0.00     0.032 C 
HETATM    6  C15 UNL     1      67.331  55.155  16.560  1.00  0.00     0.011 C 
HETATM    7  C16 UNL     1      67.388  54.198  15.416  1.00  0.00    -0.048 C 
HETATM    8  C17 UNL     1      67.664  52.776  15.839  1.00  0.00     0.015 C 
HETATM    9  C18 UNL     1      65.999  54.189  14.769  1.00  0.00     0.015 C 
HETATM   10  C19 UNL     1      68.442  54.646  14.464  1.00  0.00     0.011 C 
HETATM   11  C20 UNL     1      69.081  55.980  14.883  1.00  0.00     0.032 C 
HETATM   12  C21 UNL     1      70.837  54.850  16.275  1.00  0.00     0.066 C 
HETATM   13  C22 UNL     1      72.153  55.388  15.781  1.00  0.00     0.181 C 
HETATM   14  C28 UNL     1      72.867  56.162  16.833  1.00  0.00     0.244 C 
HETATM   15  O7  UNL     1      74.114  56.230  16.693  1.00  0.00    -0.271 OA
ENDROOT
BRANCH   3  16
HETATM   16  C6  UNL     1      70.130  58.352  16.143  1.00  0.00     0.155 C 
BRANCH  16  17
HETATM   17  O2  UNL     1      70.991  58.613  15.164  1.00  0.00    -0.345 OA
ATOM     18  H2  UNL     1      70.722  58.453  14.268  1.00  0.00     0.219 HD
ENDBRANCH  16  17
BRANCH  16  19
HETATM   19  C7  UNL     1      69.245  59.499  16.299  1.00  0.00     0.139 C 
BRANCH  19  20
HETATM   20  N3  UNL     1      69.337  60.375  17.395  1.00  0.00    -0.395 N 
ATOM     21  H3  UNL     1      69.946  61.192  17.448  1.00  0.00     0.159 HD
BRANCH  20  22
HETATM   22  C8  UNL     1      68.415  59.931  18.456  1.00  0.00     0.129 C 
BRANCH  22  23
HETATM   23  C9  UNL     1      68.845  60.484  19.773  1.00  0.00     0.130 C 
BRANCH  23  24
HETATM   24  C10 UNL     1      69.790  61.629  19.560  1.00  0.00     0.260 C 
HETATM   25  O3  UNL     1      69.338  62.752  19.219  1.00  0.00    -0.265 OA
BRANCH  24  26
HETATM   26  O4  UNL     1      71.133  61.369  19.759  1.00  0.00    -0.322 OA
BRANCH  26  27
HETATM   27  C11 UNL     1      72.105  62.359  19.514  1.00  0.00     0.174 C 
HETATM   28  C12 UNL     1      73.097  62.399  20.642  1.00  0.00     0.034 C 
ENDBRANCH  26  27
ENDBRANCH  24  26
ENDBRANCH  23  24
ENDBRANCH  22  23
ENDBRANCH  20  22
ENDBRANCH  19  20
ENDBRANCH  16  19
ENDBRANCH   3  16
BRANCH   1  29
HETATM   29  C4  UNL     1      73.119  57.223  18.996  1.00  0.00     0.163 C 
BRANCH  29  30
HETATM   30  C3  UNL     1      73.401  58.699  19.071  1.00  0.00     0.158 C 
BRANCH  30  31
HETATM   31  C2  UNL     1      74.857  58.981  18.979  1.00  0.00    -0.004 C 
HETATM   32  C1  UNL     1      75.626  58.715  20.010  1.00  0.00     0.009 C 
ENDBRANCH  30  31
BRANCH  30  33
HETATM   33  O1  UNL     1      73.001  59.100  20.372  1.00  0.00    -0.390 OA
ATOM     34  H1  UNL     1      72.488  59.891  20.259  1.00  0.00     0.210 HD
ENDBRANCH  30  33
ENDBRANCH  29  30
ENDBRANCH   1  29
BRANCH  13  35
HETATM   35  N4  UNL     1      72.977  54.240  15.473  1.00  0.00    -0.324 N 
HETATM   36  C23 UNL     1      72.513  52.965  15.146  1.00  0.00     0.362 C 
HETATM   37  O5  UNL     1      71.265  52.771  15.110  1.00  0.00    -0.238 OA
ATOM     38  H4  UNL     1      73.988  54.374  15.495  1.00  0.00     0.165 HD
BRANCH  36  39
HETATM   39  O6  UNL     1      73.334  51.899  14.859  1.00  0.00    -0.294 OA
BRANCH  39  40
HETATM   40  C24 UNL     1      73.148  51.173  13.677  1.00  0.00     0.061 C 
HETATM   41  C25 UNL     1      74.216  50.097  13.505  1.00  0.00     0.046 C 
HETATM   42  C26 UNL     1      73.361  52.171  12.529  1.00  0.00     0.046 C 
HETATM   43  C27 UNL     1      71.790  50.562  13.526  1.00  0.00     0.046 C 
ENDBRANCH  39  40
ENDBRANCH  36  39
ENDBRANCH  13  35
TORSDOF 16
ENDMDL
