MODEL 1
REMARK VINA RESULT: -9.169624201      0.000      0.000
REMARK  15 active torsions:
REMARK  status: ('A' for Active; 'I' for Inactive)
REMARK    1  A    between atoms: O1_2  and  C2_3 
REMARK    2  A    between atoms: C4_5  and  C5_6 
REMARK    3  A    between atoms: C5_6  and  N1_7 
REMARK    4  A    between atoms: C5_6  and  N4_26 
REMARK       I    between atoms: N1_7  and  C6_8 
REMARK    5  A    between atoms: C6_8  and  C7_10 
REMARK    6  A    between atoms: C7_10  and  C8_11 
REMARK    7  A    between atoms: C8_11  and  C9_12 
REMARK    8  A    between atoms: C12_15  and  O3_16 
REMARK    9  A    between atoms: O3_16  and  C13_17 
REMARK   10  A    between atoms: C13_17  and  C14_18 
REMARK   11  A    between atoms: C14_18  and  N2_19 
REMARK   12  A    between atoms: N4_26  and  C19_28 
REMARK   13  A    between atoms: C23_34  and  N6_35 
REMARK   14  A    between atoms: C25_41  and  O4_42 
REMARK   15  A    between atoms: C27_44  and  O5_45 
ROOT
HETATM    1  C5  UNL     1      71.883  58.315  18.538  1.00  0.00     0.195 C 
ENDROOT
BRANCH   1   2
HETATM    2  C4  UNL     1      72.262  59.559  19.255  1.00  0.00     0.028 A 
HETATM    3  C3  UNL     1      73.491  60.149  19.110  1.00  0.00     0.056 A 
HETATM    4  C2  UNL     1      73.811  61.332  19.797  1.00  0.00     0.105 A 
HETATM    5  C27 UNL     1      72.911  61.947  20.636  1.00  0.00     0.135 A 
HETATM    6  C25 UNL     1      71.671  61.355  20.785  1.00  0.00     0.105 A 
HETATM    7  C24 UNL     1      71.361  60.188  20.106  1.00  0.00     0.056 A 
BRANCH   4   8
HETATM    8  O1  UNL     1      75.054  61.936  19.655  1.00  0.00    -0.353 OA
HETATM    9  C1  UNL     1      76.194  61.098  19.668  1.00  0.00     0.210 C 
ENDBRANCH   4   8
BRANCH   5  10
HETATM   10  O5  UNL     1      73.205  63.118  21.324  1.00  0.00    -0.351 OA
HETATM   11  C28 UNL     1      73.761  63.105  22.631  1.00  0.00     0.210 C 
ENDBRANCH   5  10
BRANCH   6  12
HETATM   12  O4  UNL     1      70.771  61.967  21.624  1.00  0.00    -0.353 OA
HETATM   13  C26 UNL     1      69.690  61.383  22.278  1.00  0.00     0.210 C 
ENDBRANCH   6  12
ENDBRANCH   1   2
BRANCH   1  14
HETATM   14  N1  UNL     1      70.834  57.752  18.454  1.00  0.00    -0.351 NA
HETATM   15  C6  UNL     1      69.547  57.469  18.533  1.00  0.00     0.293 C 
HETATM   16  O2  UNL     1      68.834  57.746  19.565  1.00  0.00    -0.257 OA
BRANCH  15  17
HETATM   17  C7  UNL     1      68.831  56.782  17.378  1.00  0.00     0.125 C 
BRANCH  17  18
HETATM   18  C8  UNL     1      69.444  55.435  17.165  1.00  0.00     0.067 C 
BRANCH  18  19
HETATM   19  C9  UNL     1      68.697  54.752  16.084  1.00  0.00     0.010 A 
HETATM   20  C10 UNL     1      67.323  54.805  15.980  1.00  0.00     0.028 A 
HETATM   21  C11 UNL     1      66.653  54.156  14.958  1.00  0.00     0.040 A 
HETATM   22  C12 UNL     1      67.371  53.444  14.024  1.00  0.00     0.090 A 
HETATM   23  C17 UNL     1      68.736  53.405  14.147  1.00  0.00     0.039 A 
HETATM   24  C18 UNL     1      69.537  52.640  13.150  1.00  0.00     0.071 C 
HETATM   25  N3  UNL     1      69.357  54.048  15.154  1.00  0.00    -0.361 N 
ATOM     26  H3  UNL     1      70.373  53.997  15.212  1.00  0.00     0.165 HD
BRANCH  22  27
HETATM   27  O3  UNL     1      66.665  52.805  13.010  1.00  0.00    -0.347 OA
BRANCH  27  28
HETATM   28  C13 UNL     1      65.896  51.644  13.258  1.00  0.00     0.206 C 
BRANCH  28  29
HETATM   29  C14 UNL     1      66.069  50.710  12.080  1.00  0.00     0.297 C 
BRANCH  29  30
HETATM   30  N2  UNL     1      66.413  49.376  12.491  1.00  0.00     0.082 N 
HETATM   31  C15 UNL     1      66.383  48.401  11.440  1.00  0.00     0.309 C 
HETATM   32  C16 UNL     1      67.767  49.397  13.025  1.00  0.00     0.309 C 
ENDBRANCH  29  30
ENDBRANCH  28  29
ENDBRANCH  27  28
ENDBRANCH  22  27
ENDBRANCH  18  19
ENDBRANCH  17  18
ENDBRANCH  15  17
ENDBRANCH   1  14
BRANCH   1  33
HETATM   33  N4  UNL     1      73.009  57.694  17.829  1.00  0.00    -0.316 N 
ATOM     34  H4  UNL     1      73.957  57.793  18.193  1.00  0.00     0.170 HD
BRANCH  33  35
HETATM   35  C19 UNL     1      72.800  57.022  16.741  1.00  0.00     0.125 A 
HETATM   36  C20 UNL     1      73.508  55.838  16.629  1.00  0.00     0.074 A 
HETATM   37  C21 UNL     1      73.315  55.085  15.478  1.00  0.00     0.026 A 
HETATM   38  C22 UNL     1      74.046  53.794  15.293  1.00  0.00     0.069 C 
HETATM   39  N5  UNL     1      72.467  55.521  14.532  1.00  0.00    -0.196 N 
HETATM   40  C23 UNL     1      71.782  56.672  14.644  1.00  0.00     0.677 A 
ATOM     41  H5  UNL     1      72.337  54.954  13.693  1.00  0.00     0.184 HD
HETATM   42  N7  UNL     1      71.982  57.387  15.764  1.00  0.00    -0.177 N 
ATOM     43  H7  UNL     1      71.472  58.265  15.869  1.00  0.00     0.185 HD
BRANCH  40  44
HETATM   44  N6  UNL     1      70.979  57.048  13.709  1.00  0.00    -0.234 N 
ATOM     45  H62 UNL     1      71.271  57.146  12.736  1.00  0.00     0.174 HD
ATOM     46  H61 UNL     1      70.005  57.265  13.919  1.00  0.00     0.174 HD
ENDBRANCH  40  44
ENDBRANCH  33  35
ENDBRANCH   1  33
TORSDOF 15
ENDMDL
MODEL 2
REMARK VINA RESULT: -9.097650602      0.386      2.048
REMARK  15 active torsions:
REMARK  status: ('A' for Active; 'I' for Inactive)
REMARK    1  A    between atoms: O1_2  and  C2_3 
REMARK    2  A    between atoms: C4_5  and  C5_6 
REMARK    3  A    between atoms: C5_6  and  N1_7 
REMARK    4  A    between atoms: C5_6  and  N4_26 
REMARK       I    between atoms: N1_7  and  C6_8 
REMARK    5  A    between atoms: C6_8  and  C7_10 
REMARK    6  A    between atoms: C7_10  and  C8_11 
REMARK    7  A    between atoms: C8_11  and  C9_12 
REMARK    8  A    between atoms: C12_15  and  O3_16 
REMARK    9  A    between atoms: O3_16  and  C13_17 
REMARK   10  A    between atoms: C13_17  and  C14_18 
REMARK   11  A    between atoms: C14_18  and  N2_19 
REMARK   12  A    between atoms: N4_26  and  C19_28 
REMARK   13  A    between atoms: C23_34  and  N6_35 
REMARK   14  A    between atoms: C25_41  and  O4_42 
REMARK   15  A    between atoms: C27_44  and  O5_45 
ROOT
HETATM    1  C5  UNL     1      71.648  58.301  18.560  1.00  0.00     0.195 C 
ENDROOT
BRANCH   1   2
HETATM    2  C4  UNL     1      71.963  59.541  19.316  1.00  0.00     0.028 A 
HETATM    3  C3  UNL     1      71.065  60.140  20.161  1.00  0.00     0.056 A 
HETATM    4  C2  UNL     1      71.402  61.305  20.867  1.00  0.00     0.105 A 
HETATM    5  C27 UNL     1      72.641  61.892  20.745  1.00  0.00     0.135 A 
HETATM    6  C25 UNL     1      73.549  61.292  19.894  1.00  0.00     0.105 A 
HETATM    7  C24 UNL     1      73.211  60.143  19.199  1.00  0.00     0.056 A 
BRANCH   4   8
HETATM    8  O1  UNL     1      70.497  61.918  21.725  1.00  0.00    -0.353 OA
HETATM    9  C1  UNL     1      69.941  61.130  22.760  1.00  0.00     0.210 C 
ENDBRANCH   4   8
BRANCH   5  10
HETATM   10  O5  UNL     1      72.996  63.045  21.435  1.00  0.00    -0.351 OA
HETATM   11  C28 UNL     1      73.589  62.999  22.724  1.00  0.00     0.210 C 
ENDBRANCH   5  10
BRANCH   6  12
HETATM   12  O4  UNL     1      74.787  61.877  19.771  1.00  0.00    -0.353 OA
HETATM   13  C26 UNL     1      76.019  61.238  19.663  1.00  0.00     0.210 C 
ENDBRANCH   6  12
ENDBRANCH   1   2
BRANCH   1  14
HETATM   14  N1  UNL     1      70.621  57.711  18.425  1.00  0.00    -0.351 NA
HETATM   15  C6  UNL     1      69.339  57.394  18.439  1.00  0.00     0.293 C 
HETATM   16  O2  UNL     1      68.565  57.657  19.430  1.00  0.00    -0.257 OA
BRANCH  15  17
HETATM   17  C7  UNL     1      68.704  56.682  17.252  1.00  0.00     0.125 C 
BRANCH  17  18
HETATM   18  C8  UNL     1      69.361  55.350  17.081  1.00  0.00     0.067 C 
BRANCH  18  19
HETATM   19  C9  UNL     1      68.711  54.655  15.946  1.00  0.00     0.010 A 
HETATM   20  C10 UNL     1      67.350  54.694  15.732  1.00  0.00     0.028 A 
HETATM   21  C11 UNL     1      66.771  54.033  14.662  1.00  0.00     0.040 A 
HETATM   22  C12 UNL     1      67.569  53.325  13.792  1.00  0.00     0.090 A 
HETATM   23  C17 UNL     1      68.920  53.301  14.026  1.00  0.00     0.039 A 
HETATM   24  C18 UNL     1      69.807  52.539  13.101  1.00  0.00     0.071 C 
HETATM   25  N3  UNL     1      69.451  53.954  15.076  1.00  0.00    -0.361 N 
ATOM     26  H3  UNL     1      70.460  53.914  15.216  1.00  0.00     0.165 HD
BRANCH  22  27
HETATM   27  O3  UNL     1      66.953  52.674  12.728  1.00  0.00    -0.347 OA
BRANCH  27  28
HETATM   28  C13 UNL     1      66.204  51.489  12.915  1.00  0.00     0.206 C 
BRANCH  28  29
HETATM   29  C14 UNL     1      66.895  50.377  12.157  1.00  0.00     0.297 C 
BRANCH  29  30
HETATM   30  N2  UNL     1      67.011  49.176  12.939  1.00  0.00     0.082 N 
HETATM   31  C15 UNL     1      67.116  47.970  12.171  1.00  0.00     0.309 C 
HETATM   32  C16 UNL     1      68.212  49.277  13.755  1.00  0.00     0.309 C 
ENDBRANCH  29  30
ENDBRANCH  28  29
ENDBRANCH  27  28
ENDBRANCH  22  27
ENDBRANCH  18  19
ENDBRANCH  17  18
ENDBRANCH  15  17
ENDBRANCH   1  14
BRANCH   1  33
HETATM   33  N4  UNL     1      72.819  57.728  17.884  1.00  0.00    -0.316 N 
ATOM     34  H4  UNL     1      73.750  57.857  18.281  1.00  0.00     0.170 HD
BRANCH  33  35
HETATM   35  C19 UNL     1      72.670  57.061  16.784  1.00  0.00     0.125 A 
HETATM   36  C20 UNL     1      73.409  55.894  16.691  1.00  0.00     0.074 A 
HETATM   37  C21 UNL     1      73.279  55.146  15.528  1.00  0.00     0.026 A 
HETATM   38  C22 UNL     1      74.047  53.874  15.364  1.00  0.00     0.069 C 
HETATM   39  N5  UNL     1      72.461  55.571  14.552  1.00  0.00    -0.196 N 
HETATM   40  C23 UNL     1      71.746  56.705  14.644  1.00  0.00     0.677 A 
ATOM     41  H5  UNL     1      72.378  55.008  13.704  1.00  0.00     0.184 HD
HETATM   42  N7  UNL     1      71.884  57.415  15.777  1.00  0.00    -0.177 N 
ATOM     43  H7  UNL     1      71.350  58.280  15.868  1.00  0.00     0.185 HD
BRANCH  40  44
HETATM   44  N6  UNL     1      70.974  57.071  13.680  1.00  0.00    -0.234 N 
ATOM     45  H62 UNL     1      69.970  56.884  13.674  1.00  0.00     0.174 HD
ATOM     46  H61 UNL     1      71.351  57.570  12.875  1.00  0.00     0.174 HD
ENDBRANCH  40  44
ENDBRANCH  33  35
ENDBRANCH   1  33
TORSDOF 15
ENDMDL
MODEL 3
REMARK VINA RESULT: -8.796779536      0.803      1.273
REMARK  15 active torsions:
REMARK  status: ('A' for Active; 'I' for Inactive)
REMARK    1  A    between atoms: O1_2  and  C2_3 
REMARK    2  A    between atoms: C4_5  and  C5_6 
REMARK    3  A    between atoms: C5_6  and  N1_7 
REMARK    4  A    between atoms: C5_6  and  N4_26 
REMARK       I    between atoms: N1_7  and  C6_8 
REMARK    5  A    between atoms: C6_8  and  C7_10 
REMARK    6  A    between atoms: C7_10  and  C8_11 
REMARK    7  A    between atoms: C8_11  and  C9_12 
REMARK    8  A    between atoms: C12_15  and  O3_16 
REMARK    9  A    between atoms: O3_16  and  C13_17 
REMARK   10  A    between atoms: C13_17  and  C14_18 
REMARK   11  A    between atoms: C14_18  and  N2_19 
REMARK   12  A    between atoms: N4_26  and  C19_28 
REMARK   13  A    between atoms: C23_34  and  N6_35 
REMARK   14  A    between atoms: C25_41  and  O4_42 
REMARK   15  A    between atoms: C27_44  and  O5_45 
ROOT
HETATM    1  C5  UNL     1      71.870  58.269  18.553  1.00  0.00     0.195 C 
ENDROOT
BRANCH   1   2
HETATM    2  C4  UNL     1      72.207  59.513  19.291  1.00  0.00     0.028 A 
HETATM    3  C3  UNL     1      73.445  60.098  19.226  1.00  0.00     0.056 A 
HETATM    4  C2  UNL     1      73.724  61.282  19.929  1.00  0.00     0.105 A 
HETATM    5  C27 UNL     1      72.773  61.902  20.708  1.00  0.00     0.135 A 
HETATM    6  C25 UNL     1      71.525  61.315  20.776  1.00  0.00     0.105 A 
HETATM    7  C24 UNL     1      71.255  60.147  20.081  1.00  0.00     0.056 A 
BRANCH   4   8
HETATM    8  O1  UNL     1      74.975  61.880  19.868  1.00  0.00    -0.353 OA
HETATM    9  C1  UNL     1      76.083  61.052  19.568  1.00  0.00     0.210 C 
ENDBRANCH   4   8
BRANCH   5  10
HETATM   10  O5  UNL     1      73.026  63.073  21.411  1.00  0.00    -0.351 OA
HETATM   11  C28 UNL     1      73.465  63.062  22.761  1.00  0.00     0.210 C 
ENDBRANCH   5  10
BRANCH   6  12
HETATM   12  O4  UNL     1      70.573  61.933  21.553  1.00  0.00    -0.353 OA
HETATM   13  C26 UNL     1      69.268  61.511  21.788  1.00  0.00     0.210 C 
ENDBRANCH   6  12
ENDBRANCH   1   2
BRANCH   1  14
HETATM   14  N1  UNL     1      70.848  57.660  18.478  1.00  0.00    -0.351 NA
HETATM   15  C6  UNL     1      69.567  57.340  18.511  1.00  0.00     0.293 C 
HETATM   16  O2  UNL     1      68.776  57.723  19.447  1.00  0.00    -0.257 OA
BRANCH  15  17
HETATM   17  C7  UNL     1      68.955  56.477  17.415  1.00  0.00     0.125 C 
BRANCH  17  18
HETATM   18  C8  UNL     1      69.766  55.229  17.275  1.00  0.00     0.067 C 
BRANCH  18  19
HETATM   19  C9  UNL     1      69.243  54.465  16.119  1.00  0.00     0.010 A 
HETATM   20  C10 UNL     1      69.981  53.499  15.470  1.00  0.00     0.028 A 
HETATM   21  C11 UNL     1      69.465  52.801  14.392  1.00  0.00     0.040 A 
HETATM   22  C12 UNL     1      68.187  53.075  13.959  1.00  0.00     0.090 A 
HETATM   23  C17 UNL     1      67.471  54.039  14.620  1.00  0.00     0.039 A 
HETATM   24  C18 UNL     1      66.086  54.357  14.169  1.00  0.00     0.071 C 
HETATM   25  N3  UNL     1      68.004  54.700  15.665  1.00  0.00    -0.361 N 
ATOM     26  H3  UNL     1      67.440  55.410  16.131  1.00  0.00     0.165 HD
BRANCH  22  27
HETATM   27  O3  UNL     1      67.700  52.354  12.873  1.00  0.00    -0.347 OA
BRANCH  27  28
HETATM   28  C13 UNL     1      66.939  51.174  13.047  1.00  0.00     0.206 C 
BRANCH  28  29
HETATM   29  C14 UNL     1      67.744  50.016  12.499  1.00  0.00     0.297 C 
BRANCH  29  30
HETATM   30  N2  UNL     1      68.371  49.249  13.541  1.00  0.00     0.082 N 
HETATM   31  C15 UNL     1      67.937  47.885  13.623  1.00  0.00     0.309 C 
HETATM   32  C16 UNL     1      69.806  49.234  13.296  1.00  0.00     0.309 C 
ENDBRANCH  29  30
ENDBRANCH  28  29
ENDBRANCH  27  28
ENDBRANCH  22  27
ENDBRANCH  18  19
ENDBRANCH  17  18
ENDBRANCH  15  17
ENDBRANCH   1  14
BRANCH   1  33
HETATM   33  N4  UNL     1      73.009  57.718  17.807  1.00  0.00    -0.316 N 
ATOM     34  H4  UNL     1      73.959  57.859  18.151  1.00  0.00     0.170 HD
BRANCH  33  35
HETATM   35  C19 UNL     1      72.808  57.054  16.714  1.00  0.00     0.125 A 
HETATM   36  C20 UNL     1      73.534  55.882  16.586  1.00  0.00     0.074 A 
HETATM   37  C21 UNL     1      73.349  55.139  15.428  1.00  0.00     0.026 A 
HETATM   38  C22 UNL     1      74.100  53.861  15.228  1.00  0.00     0.069 C 
HETATM   39  N5  UNL     1      72.491  55.571  14.489  1.00  0.00    -0.196 N 
HETATM   40  C23 UNL     1      71.789  56.709  14.615  1.00  0.00     0.677 A 
ATOM     41  H5  UNL     1      72.368  55.011  13.645  1.00  0.00     0.184 HD
HETATM   42  N7  UNL     1      71.981  57.416  15.743  1.00  0.00    -0.177 N 
ATOM     43  H7  UNL     1      71.458  58.285  15.858  1.00  0.00     0.185 HD
BRANCH  40  44
HETATM   44  N6  UNL     1      70.978  57.083  13.687  1.00  0.00    -0.234 N 
ATOM     45  H62 UNL     1      70.976  58.028  13.302  1.00  0.00     0.174 HD
ATOM     46  H61 UNL     1      70.296  56.430  13.300  1.00  0.00     0.174 HD
ENDBRANCH  40  44
ENDBRANCH  33  35
ENDBRANCH   1  33
TORSDOF 15
ENDMDL
MODEL 4
REMARK VINA RESULT: -8.739645419      0.829      2.452
REMARK  15 active torsions:
REMARK  status: ('A' for Active; 'I' for Inactive)
REMARK    1  A    between atoms: O1_2  and  C2_3 
REMARK    2  A    between atoms: C4_5  and  C5_6 
REMARK    3  A    between atoms: C5_6  and  N1_7 
REMARK    4  A    between atoms: C5_6  and  N4_26 
REMARK       I    between atoms: N1_7  and  C6_8 
REMARK    5  A    between atoms: C6_8  and  C7_10 
REMARK    6  A    between atoms: C7_10  and  C8_11 
REMARK    7  A    between atoms: C8_11  and  C9_12 
REMARK    8  A    between atoms: C12_15  and  O3_16 
REMARK    9  A    between atoms: O3_16  and  C13_17 
REMARK   10  A    between atoms: C13_17  and  C14_18 
REMARK   11  A    between atoms: C14_18  and  N2_19 
REMARK   12  A    between atoms: N4_26  and  C19_28 
REMARK   13  A    between atoms: C23_34  and  N6_35 
REMARK   14  A    between atoms: C25_41  and  O4_42 
REMARK   15  A    between atoms: C27_44  and  O5_45 
ROOT
HETATM    1  C5  UNL     1      71.540  58.062  18.580  1.00  0.00     0.195 C 
ENDROOT
BRANCH   1   2
HETATM    2  C4  UNL     1      71.878  59.339  19.260  1.00  0.00     0.028 A 
HETATM    3  C3  UNL     1      71.002  59.988  20.091  1.00  0.00     0.056 A 
HETATM    4  C2  UNL     1      71.361  61.188  20.726  1.00  0.00     0.105 A 
HETATM    5  C27 UNL     1      72.599  61.759  20.545  1.00  0.00     0.135 A 
HETATM    6  C25 UNL     1      73.485  61.108  19.709  1.00  0.00     0.105 A 
HETATM    7  C24 UNL     1      73.126  59.925  19.084  1.00  0.00     0.056 A 
BRANCH   4   8
HETATM    8  O1  UNL     1      70.478  61.851  21.569  1.00  0.00    -0.353 OA
HETATM    9  C1  UNL     1      69.102  61.545  21.447  1.00  0.00     0.210 C 
ENDBRANCH   4   8
BRANCH   5  10
HETATM   10  O5  UNL     1      72.976  62.945  21.165  1.00  0.00    -0.351 OA
HETATM   11  C28 UNL     1      73.705  62.960  22.383  1.00  0.00     0.210 C 
ENDBRANCH   5  10
BRANCH   6  12
HETATM   12  O4  UNL     1      74.723  61.678  19.527  1.00  0.00    -0.353 OA
HETATM   13  C26 UNL     1      75.949  61.026  19.429  1.00  0.00     0.210 C 
ENDBRANCH   6  12
ENDBRANCH   1   2
BRANCH   1  14
HETATM   14  N1  UNL     1      70.493  57.510  18.434  1.00  0.00    -0.351 NA
HETATM   15  C6  UNL     1      69.198  57.271  18.337  1.00  0.00     0.293 C 
HETATM   16  O2  UNL     1      68.330  57.793  19.127  1.00  0.00    -0.257 OA
BRANCH  15  17
HETATM   17  C7  UNL     1      68.660  56.340  17.259  1.00  0.00     0.125 C 
BRANCH  17  18
HETATM   18  C8  UNL     1      69.541  55.135  17.180  1.00  0.00     0.067 C 
BRANCH  18  19
HETATM   19  C9  UNL     1      69.148  54.350  15.987  1.00  0.00     0.010 A 
HETATM   20  C10 UNL     1      70.047  53.600  15.260  1.00  0.00     0.028 A 
HETATM   21  C11 UNL     1      69.649  52.877  14.149  1.00  0.00     0.040 A 
HETATM   22  C12 UNL     1      68.328  52.906  13.761  1.00  0.00     0.090 A 
HETATM   23  C17 UNL     1      67.452  53.658  14.499  1.00  0.00     0.039 A 
HETATM   24  C18 UNL     1      66.017  53.708  14.100  1.00  0.00     0.071 C 
HETATM   25  N3  UNL     1      67.873  54.350  15.575  1.00  0.00    -0.361 N 
ATOM     26  H3  UNL     1      67.191  54.898  16.100  1.00  0.00     0.165 HD
BRANCH  22  27
HETATM   27  O3  UNL     1      67.964  52.167  12.640  1.00  0.00    -0.347 OA
BRANCH  27  28
HETATM   28  C13 UNL     1      68.414  50.840  12.447  1.00  0.00     0.206 C 
BRANCH  28  29
HETATM   29  C14 UNL     1      67.369  49.906  13.017  1.00  0.00     0.297 C 
BRANCH  29  30
HETATM   30  N2  UNL     1      67.613  48.535  12.662  1.00  0.00     0.082 N 
HETATM   31  C15 UNL     1      67.998  47.693  13.757  1.00  0.00     0.309 C 
HETATM   32  C16 UNL     1      66.389  47.983  12.100  1.00  0.00     0.309 C 
ENDBRANCH  29  30
ENDBRANCH  28  29
ENDBRANCH  27  28
ENDBRANCH  22  27
ENDBRANCH  18  19
ENDBRANCH  17  18
ENDBRANCH  15  17
ENDBRANCH   1  14
BRANCH   1  33
HETATM   33  N4  UNL     1      72.712  57.390  18.006  1.00  0.00    -0.316 N 
ATOM     34  H4  UNL     1      73.586  57.355  18.531  1.00  0.00     0.170 HD
BRANCH  33  35
HETATM   35  C19 UNL     1      72.637  56.841  16.835  1.00  0.00     0.125 A 
HETATM   36  C20 UNL     1      73.443  55.731  16.645  1.00  0.00     0.074 A 
HETATM   37  C21 UNL     1      73.394  55.112  15.403  1.00  0.00     0.026 A 
HETATM   38  C22 UNL     1      74.237  53.907  15.132  1.00  0.00     0.069 C 
HETATM   39  N5  UNL     1      72.585  55.598  14.448  1.00  0.00    -0.196 N 
HETATM   40  C23 UNL     1      71.805  56.676  14.635  1.00  0.00     0.677 A 
ATOM     41  H5  UNL     1      72.562  55.130  13.542  1.00  0.00     0.184 HD
HETATM   42  N7  UNL     1      71.866  57.263  15.843  1.00  0.00    -0.177 N 
ATOM     43  H7  UNL     1      71.282  58.084  16.007  1.00  0.00     0.185 HD
BRANCH  40  44
HETATM   44  N6  UNL     1      71.045  57.106  13.688  1.00  0.00    -0.234 N 
ATOM     45  H62 UNL     1      70.101  56.753  13.533  1.00  0.00     0.174 HD
ATOM     46  H61 UNL     1      71.374  57.830  13.049  1.00  0.00     0.174 HD
ENDBRANCH  40  44
ENDBRANCH  33  35
ENDBRANCH   1  33
TORSDOF 15
ENDMDL
MODEL 5
REMARK VINA RESULT: -8.548694309      2.359     10.793
REMARK  15 active torsions:
REMARK  status: ('A' for Active; 'I' for Inactive)
REMARK    1  A    between atoms: O1_2  and  C2_3 
REMARK    2  A    between atoms: C4_5  and  C5_6 
REMARK    3  A    between atoms: C5_6  and  N1_7 
REMARK    4  A    between atoms: C5_6  and  N4_26 
REMARK       I    between atoms: N1_7  and  C6_8 
REMARK    5  A    between atoms: C6_8  and  C7_10 
REMARK    6  A    between atoms: C7_10  and  C8_11 
REMARK    7  A    between atoms: C8_11  and  C9_12 
REMARK    8  A    between atoms: C12_15  and  O3_16 
REMARK    9  A    between atoms: O3_16  and  C13_17 
REMARK   10  A    between atoms: C13_17  and  C14_18 
REMARK   11  A    between atoms: C14_18  and  N2_19 
REMARK   12  A    between atoms: N4_26  and  C19_28 
REMARK   13  A    between atoms: C23_34  and  N6_35 
REMARK   14  A    between atoms: C25_41  and  O4_42 
REMARK   15  A    between atoms: C27_44  and  O5_45 
ROOT
HETATM    1  C5  UNL     1      69.376  52.874  13.670  1.00  0.00     0.195 C 
ENDROOT
BRANCH   1   2
HETATM    2  C4  UNL     1      69.050  51.477  13.284  1.00  0.00     0.028 A 
HETATM    3  C3  UNL     1      67.786  51.086  12.927  1.00  0.00     0.056 A 
HETATM    4  C2  UNL     1      67.517  49.758  12.557  1.00  0.00     0.105 A 
HETATM    5  C27 UNL     1      68.503  48.799  12.536  1.00  0.00     0.135 A 
HETATM    6  C25 UNL     1      69.779  49.190  12.896  1.00  0.00     0.105 A 
HETATM    7  C24 UNL     1      70.039  50.500  13.260  1.00  0.00     0.056 A 
BRANCH   4   8
HETATM    8  O1  UNL     1      66.238  49.355  12.193  1.00  0.00    -0.353 OA
HETATM    9  C1  UNL     1      65.224  50.341  12.163  1.00  0.00     0.210 C 
ENDBRANCH   4   8
BRANCH   5  10
HETATM   10  O5  UNL     1      68.260  47.481  12.172  1.00  0.00    -0.351 OA
HETATM   11  C28 UNL     1      67.813  46.511  13.108  1.00  0.00     0.210 C 
ENDBRANCH   5  10
BRANCH   6  12
HETATM   12  O4  UNL     1      70.766  48.233  12.875  1.00  0.00    -0.353 OA
HETATM   13  C26 UNL     1      71.415  47.662  13.966  1.00  0.00     0.210 C 
ENDBRANCH   6  12
ENDBRANCH   1   2
BRANCH   1  14
HETATM   14  N1  UNL     1      68.719  53.706  14.216  1.00  0.00    -0.351 NA
HETATM   15  C6  UNL     1      67.724  54.327  14.823  1.00  0.00     0.293 C 
HETATM   16  O2  UNL     1      66.499  54.207  14.457  1.00  0.00    -0.257 OA
BRANCH  15  17
HETATM   17  C7  UNL     1      67.990  55.240  16.012  1.00  0.00     0.125 C 
BRANCH  17  18
HETATM   18  C8  UNL     1      69.054  54.624  16.863  1.00  0.00     0.067 C 
BRANCH  18  19
HETATM   19  C9  UNL     1      69.819  55.716  17.510  1.00  0.00     0.010 A 
HETATM   20  C10 UNL     1      71.016  55.502  18.158  1.00  0.00     0.028 A 
HETATM   21  C11 UNL     1      71.708  56.542  18.754  1.00  0.00     0.040 A 
HETATM   22  C12 UNL     1      71.191  57.818  18.697  1.00  0.00     0.090 A 
HETATM   23  C17 UNL     1      70.000  58.006  18.047  1.00  0.00     0.039 A 
HETATM   24  C18 UNL     1      69.417  59.376  17.973  1.00  0.00     0.071 C 
HETATM   25  N3  UNL     1      69.352  56.972  17.479  1.00  0.00    -0.361 N 
ATOM     26  H3  UNL     1      68.468  57.151  17.003  1.00  0.00     0.165 HD
BRANCH  22  27
HETATM   27  O3  UNL     1      71.914  58.839  19.306  1.00  0.00    -0.347 OA
BRANCH  27  28
HETATM   28  C13 UNL     1      73.291  58.702  19.599  1.00  0.00     0.206 C 
BRANCH  28  29
HETATM   29  C14 UNL     1      74.024  59.850  18.941  1.00  0.00     0.297 C 
BRANCH  29  30
HETATM   30  N2  UNL     1      75.452  59.711  19.038  1.00  0.00     0.082 N 
HETATM   31  C15 UNL     1      76.138  60.887  19.486  1.00  0.00     0.309 C 
HETATM   32  C16 UNL     1      75.743  58.649  19.990  1.00  0.00     0.309 C 
ENDBRANCH  29  30
ENDBRANCH  28  29
ENDBRANCH  27  28
ENDBRANCH  22  27
ENDBRANCH  18  19
ENDBRANCH  17  18
ENDBRANCH  15  17
ENDBRANCH   1  14
BRANCH   1  33
HETATM   33  N4  UNL     1      70.741  53.268  13.298  1.00  0.00    -0.316 N 
ATOM     34  H4  UNL     1      71.217  52.794  12.531  1.00  0.00     0.170 HD
BRANCH  33  35
HETATM   35  C19 UNL     1      71.341  54.217  13.944  1.00  0.00     0.125 A 
HETATM   36  C20 UNL     1      72.456  53.832  14.668  1.00  0.00     0.074 A 
HETATM   37  C21 UNL     1      73.130  54.818  15.376  1.00  0.00     0.026 A 
HETATM   38  C22 UNL     1      74.344  54.470  16.177  1.00  0.00     0.069 C 
HETATM   39  N5  UNL     1      72.688  56.086  15.338  1.00  0.00    -0.196 N 
HETATM   40  C23 UNL     1      71.604  56.457  14.635  1.00  0.00     0.677 A 
ATOM     41  H5  UNL     1      73.196  56.797  15.864  1.00  0.00     0.184 HD
HETATM   42  N7  UNL     1      70.965  55.488  13.956  1.00  0.00    -0.177 N 
ATOM     43  H7  UNL     1      70.138  55.748  13.416  1.00  0.00     0.185 HD
BRANCH  40  44
HETATM   44  N6  UNL     1      71.218  57.685  14.629  1.00  0.00    -0.234 N 
ATOM     45  H62 UNL     1      71.804  58.448  14.288  1.00  0.00     0.174 HD
ATOM     46  H61 UNL     1      70.293  57.939  14.974  1.00  0.00     0.174 HD
ENDBRANCH  40  44
ENDBRANCH  33  35
ENDBRANCH   1  33
TORSDOF 15
ENDMDL
