MODEL 1
REMARK VINA RESULT: -8.264016374      0.000      0.000
REMARK  17 active torsions:
REMARK  status: ('A' for Active; 'I' for Inactive)
REMARK    1  A    between atoms: C2_2  and  C3_3 
REMARK    2  A    between atoms: C3_3  and  C4_4 
REMARK    3  A    between atoms: C4_4  and  C5_5 
REMARK    4  A    between atoms: C5_5  and  C6_6 
REMARK    5  A    between atoms: C6_6  and  C7_7 
REMARK    6  A    between atoms: C7_7  and  C8_8 
REMARK    7  A    between atoms: C8_8  and  C9_9 
REMARK    8  A    between atoms: C8_8  and  N1_12 
REMARK    9  A    between atoms: C9_9  and  O1_10 
REMARK   10  A    between atoms: N1_12  and  C10_14 
REMARK   11  A    between atoms: C12_20  and  N4_21 
REMARK   12  A    between atoms: N5_24  and  C15_25 
REMARK   13  A    between atoms: C15_25  and  O2_26 
REMARK   14  A    between atoms: C15_25  and  N6_28 
REMARK   15  A    between atoms: C22_38  and  N8_39 
REMARK   16  A    between atoms: N8_39  and  C23_40 
REMARK   17  A    between atoms: C23_40  and  C24_41 
ROOT
HETATM    1  C10 UNL     1      70.690  58.792  19.370  1.00  0.00     0.679 A 
HETATM    2  N2  UNL     1      69.776  57.972  18.770  1.00  0.00    -0.175 N 
ATOM      3  H2  UNL     1      68.787  58.133  18.960  1.00  0.00     0.186 HD
HETATM    4  C11 UNL     1      70.106  56.970  17.948  1.00  0.00     0.153 A 
HETATM    5  N3  UNL     1      69.181  56.180  17.372  1.00  0.00    -0.175 N 
ATOM      6  H3  UNL     1      68.198  56.360  17.578  1.00  0.00     0.186 HD
HETATM    7  C12 UNL     1      69.480  55.165  16.540  1.00  0.00     0.684 A 
HETATM    8  N7  UNL     1      70.786  54.950  16.286  1.00  0.00    -0.163 N 
ATOM      9  H7  UNL     1      71.040  54.187  15.659  1.00  0.00     0.187 HD
HETATM   10  C22 UNL     1      71.776  55.700  16.825  1.00  0.00     0.207 A 
HETATM   11  C26 UNL     1      71.422  56.748  17.689  1.00  0.00     0.084 A 
HETATM   12  C27 UNL     1      72.376  57.547  18.269  1.00  0.00     0.126 A 
HETATM   13  N9  UNL     1      71.975  58.559  19.104  1.00  0.00    -0.201 N 
ATOM     14  H9  UNL     1      72.684  59.153  19.534  1.00  0.00     0.183 HD
ENDROOT
BRANCH   7  15
HETATM   15  N4  UNL     1      68.471  54.351  15.956  1.00  0.00    -0.214 N 
HETATM   16  C13 UNL     1      67.787  54.846  14.769  1.00  0.00     0.161 C 
HETATM   17  C14 UNL     1      66.602  53.945  14.469  1.00  0.00     0.147 C 
HETATM   18  N5  UNL     1      66.993  52.537  14.424  1.00  0.00    -0.344 N 
HETATM   19  C20 UNL     1      67.988  52.082  15.339  1.00  0.00     0.147 C 
HETATM   20  C21 UNL     1      68.105  53.077  16.500  1.00  0.00     0.161 C 
BRANCH  18  21
HETATM   21  C15 UNL     1      66.313  51.759  13.447  1.00  0.00     0.217 C 
BRANCH  21  22
HETATM   22  O2  UNL     1      65.214  52.266  12.962  1.00  0.00    -0.333 OA
ATOM     23  H2  UNL     1      64.698  51.700  12.400  1.00  0.00     0.220 HD
ENDBRANCH  21  22
BRANCH  21  24
HETATM   24  N6  UNL     1      66.650  50.517  12.919  1.00  0.00    -0.344 N 
HETATM   25  C16 UNL     1      65.829  49.993  11.801  1.00  0.00     0.152 C 
HETATM   26  C17 UNL     1      65.797  48.503  11.819  1.00  0.00     0.187 C 
HETATM   27  O3  UNL     1      66.935  47.859  12.212  1.00  0.00    -0.388 OA
HETATM   28  C18 UNL     1      68.010  48.732  12.216  1.00  0.00     0.187 C 
HETATM   29  C19 UNL     1      67.755  49.728  13.384  1.00  0.00     0.152 C 
ENDBRANCH  21  24
ENDBRANCH  18  21
ENDBRANCH   7  15
BRANCH  10  30
HETATM   30  N8  UNL     1      72.920  55.484  16.573  1.00  0.00    -0.402 NA
BRANCH  30  31
HETATM   31  C23 UNL     1      74.194  55.239  16.262  1.00  0.00     0.157 C 
BRANCH  31  32
HETATM   32  C24 UNL     1      74.551  53.804  15.868  1.00  0.00     0.055 C 
HETATM   33  C25 UNL     1      73.702  53.464  14.659  1.00  0.00     0.011 C 
ENDBRANCH  31  32
ENDBRANCH  30  31
ENDBRANCH  10  30
BRANCH   1  34
HETATM   34  N1  UNL     1      70.303  59.734  20.142  1.00  0.00    -0.219 N 
ATOM     35  H1  UNL     1      69.718  59.487  20.940  1.00  0.00     0.178 HD
BRANCH  34  36
HETATM   36  C8  UNL     1      70.647  61.155  19.955  1.00  0.00     0.122 C 
BRANCH  36  37
HETATM   37  C7  UNL     1      71.372  61.522  21.198  1.00  0.00     0.028 C 
BRANCH  37  38
HETATM   38  C6  UNL     1      72.760  62.013  21.130  1.00  0.00     0.002 C 
BRANCH  38  39
HETATM   39  C5  UNL     1      73.606  61.743  19.974  1.00  0.00     0.000 C 
BRANCH  39  40
HETATM   40  C4  UNL     1      75.065  61.810  20.190  1.00  0.00     0.000 C 
BRANCH  40  41
HETATM   41  C3  UNL     1      75.963  60.936  19.461  1.00  0.00    -0.000 C 
BRANCH  41  42
HETATM   42  C2  UNL     1      75.521  59.625  18.989  1.00  0.00    -0.005 C 
HETATM   43  C1  UNL     1      75.584  58.655  20.206  1.00  0.00     0.005 C 
ENDBRANCH  41  42
ENDBRANCH  40  41
ENDBRANCH  39  40
ENDBRANCH  38  39
ENDBRANCH  37  38
ENDBRANCH  36  37
BRANCH  36  44
HETATM   44  C9  UNL     1      69.377  61.875  19.744  1.00  0.00     0.189 C 
BRANCH  44  45
HETATM   45  O1  UNL     1      68.867  62.316  20.957  1.00  0.00    -0.399 OA
ATOM     46  H1  UNL     1      68.145  62.916  20.812  1.00  0.00     0.209 HD
ENDBRANCH  44  45
ENDBRANCH  36  44
ENDBRANCH  34  36
ENDBRANCH   1  34
TORSDOF 17
ENDMDL
MODEL 2
REMARK VINA RESULT: -8.052953888      3.090     10.676
REMARK  17 active torsions:
REMARK  status: ('A' for Active; 'I' for Inactive)
REMARK    1  A    between atoms: C2_2  and  C3_3 
REMARK    2  A    between atoms: C3_3  and  C4_4 
REMARK    3  A    between atoms: C4_4  and  C5_5 
REMARK    4  A    between atoms: C5_5  and  C6_6 
REMARK    5  A    between atoms: C6_6  and  C7_7 
REMARK    6  A    between atoms: C7_7  and  C8_8 
REMARK    7  A    between atoms: C8_8  and  C9_9 
REMARK    8  A    between atoms: C8_8  and  N1_12 
REMARK    9  A    between atoms: C9_9  and  O1_10 
REMARK   10  A    between atoms: N1_12  and  C10_14 
REMARK   11  A    between atoms: C12_20  and  N4_21 
REMARK   12  A    between atoms: N5_24  and  C15_25 
REMARK   13  A    between atoms: C15_25  and  O2_26 
REMARK   14  A    between atoms: C15_25  and  N6_28 
REMARK   15  A    between atoms: C22_38  and  N8_39 
REMARK   16  A    between atoms: N8_39  and  C23_40 
REMARK   17  A    between atoms: C23_40  and  C24_41 
ROOT
HETATM    1  C10 UNL     1      68.910  48.898  13.527  1.00  0.00     0.679 A 
HETATM    2  N2  UNL     1      69.082  50.233  13.760  1.00  0.00    -0.175 N 
ATOM      3  H2  UNL     1      68.250  50.814  13.870  1.00  0.00     0.186 HD
HETATM    4  C11 UNL     1      70.279  50.821  13.854  1.00  0.00     0.153 A 
HETATM    5  N3  UNL     1      70.415  52.140  14.084  1.00  0.00    -0.175 N 
ATOM      6  H3  UNL     1      69.569  52.701  14.188  1.00  0.00     0.186 HD
HETATM    7  C12 UNL     1      71.604  52.761  14.184  1.00  0.00     0.684 A 
HETATM    8  N7  UNL     1      72.705  51.997  14.042  1.00  0.00    -0.163 N 
ATOM      9  H7  UNL     1      73.620  52.443  14.114  1.00  0.00     0.187 HD
HETATM   10  C22 UNL     1      72.653  50.664  13.809  1.00  0.00     0.207 A 
HETATM   11  C26 UNL     1      71.393  50.055  13.710  1.00  0.00     0.084 A 
HETATM   12  C27 UNL     1      71.269  48.708  13.476  1.00  0.00     0.126 A 
HETATM   13  N9  UNL     1      70.013  48.162  13.390  1.00  0.00    -0.201 N 
ATOM     14  H9  UNL     1      69.921  47.161  13.216  1.00  0.00     0.183 HD
ENDROOT
BRANCH   7  15
HETATM   15  N4  UNL     1      71.703  54.160  14.424  1.00  0.00    -0.214 N 
HETATM   16  C13 UNL     1      70.476  54.945  14.444  1.00  0.00     0.161 C 
HETATM   17  C14 UNL     1      70.832  56.420  14.467  1.00  0.00     0.147 C 
HETATM   18  N5  UNL     1      71.788  56.727  15.530  1.00  0.00    -0.344 N 
HETATM   19  C20 UNL     1      72.804  55.770  15.823  1.00  0.00     0.147 C 
HETATM   20  C21 UNL     1      72.961  54.814  14.635  1.00  0.00     0.161 C 
BRANCH  18  21
HETATM   21  C15 UNL     1      71.592  57.983  16.165  1.00  0.00     0.217 C 
BRANCH  21  22
HETATM   22  O2  UNL     1      72.289  58.984  15.702  1.00  0.00    -0.333 OA
ATOM     23  H2  UNL     1      73.232  58.924  15.798  1.00  0.00     0.220 HD
ENDBRANCH  21  22
BRANCH  21  24
HETATM   24  N6  UNL     1      70.753  58.315  17.224  1.00  0.00    -0.344 N 
HETATM   25  C16 UNL     1      69.485  59.017  16.912  1.00  0.00     0.152 C 
HETATM   26  C17 UNL     1      69.077  59.902  18.040  1.00  0.00     0.187 C 
HETATM   27  O3  UNL     1      69.337  59.459  19.306  1.00  0.00    -0.388 OA
HETATM   28  C18 UNL     1      69.654  58.112  19.293  1.00  0.00     0.187 C 
HETATM   29  C19 UNL     1      71.039  57.998  18.595  1.00  0.00     0.152 C 
ENDBRANCH  21  24
ENDBRANCH  18  21
ENDBRANCH   7  15
BRANCH  10  30
HETATM   30  N8  UNL     1      73.648  50.019  13.695  1.00  0.00    -0.402 NA
BRANCH  30  31
HETATM   31  C23 UNL     1      74.749  49.279  13.548  1.00  0.00     0.157 C 
BRANCH  31  32
HETATM   32  C24 UNL     1      74.654  48.067  12.618  1.00  0.00     0.055 C 
HETATM   33  C25 UNL     1      76.036  47.865  12.031  1.00  0.00     0.011 C 
ENDBRANCH  31  32
ENDBRANCH  30  31
ENDBRANCH  10  30
BRANCH   1  34
HETATM   34  N1  UNL     1      67.734  48.401  13.455  1.00  0.00    -0.219 N 
ATOM     35  H1  UNL     1      67.212  48.284  14.323  1.00  0.00     0.178 HD
BRANCH  34  36
HETATM   36  C8  UNL     1      67.083  47.988  12.199  1.00  0.00     0.122 C 
BRANCH  36  37
HETATM   37  C7  UNL     1      65.870  48.841  12.118  1.00  0.00     0.028 C 
BRANCH  37  38
HETATM   38  C6  UNL     1      65.996  50.289  11.873  1.00  0.00     0.002 C 
BRANCH  38  39
HETATM   39  C5  UNL     1      65.547  51.268  12.856  1.00  0.00     0.000 C 
BRANCH  39  40
HETATM   40  C4  UNL     1      66.389  52.469  13.027  1.00  0.00     0.000 C 
BRANCH  40  41
HETATM   41  C3  UNL     1      66.742  52.944  14.351  1.00  0.00    -0.000 C 
BRANCH  41  42
HETATM   42  C2  UNL     1      66.624  54.357  14.701  1.00  0.00    -0.005 C 
HETATM   43  C1  UNL     1      66.950  54.481  16.219  1.00  0.00     0.005 C 
ENDBRANCH  41  42
ENDBRANCH  40  41
ENDBRANCH  39  40
ENDBRANCH  38  39
ENDBRANCH  37  38
ENDBRANCH  36  37
BRANCH  36  44
HETATM   44  C9  UNL     1      66.815  46.542  12.314  1.00  0.00     0.189 C 
BRANCH  44  45
HETATM   45  O1  UNL     1      66.349  46.239  13.586  1.00  0.00    -0.399 OA
ATOM     46  H1  UNL     1      65.518  45.783  13.532  1.00  0.00     0.209 HD
ENDBRANCH  44  45
ENDBRANCH  36  44
ENDBRANCH  34  36
ENDBRANCH   1  34
TORSDOF 17
ENDMDL
MODEL 3
REMARK VINA RESULT: -7.983622081      3.512     11.326
REMARK  17 active torsions:
REMARK  status: ('A' for Active; 'I' for Inactive)
REMARK    1  A    between atoms: C2_2  and  C3_3 
REMARK    2  A    between atoms: C3_3  and  C4_4 
REMARK    3  A    between atoms: C4_4  and  C5_5 
REMARK    4  A    between atoms: C5_5  and  C6_6 
REMARK    5  A    between atoms: C6_6  and  C7_7 
REMARK    6  A    between atoms: C7_7  and  C8_8 
REMARK    7  A    between atoms: C8_8  and  C9_9 
REMARK    8  A    between atoms: C8_8  and  N1_12 
REMARK    9  A    between atoms: C9_9  and  O1_10 
REMARK   10  A    between atoms: N1_12  and  C10_14 
REMARK   11  A    between atoms: C12_20  and  N4_21 
REMARK   12  A    between atoms: N5_24  and  C15_25 
REMARK   13  A    between atoms: C15_25  and  O2_26 
REMARK   14  A    between atoms: C15_25  and  N6_28 
REMARK   15  A    between atoms: C22_38  and  N8_39 
REMARK   16  A    between atoms: N8_39  and  C23_40 
REMARK   17  A    between atoms: C23_40  and  C24_41 
ROOT
HETATM    1  C10 UNL     1      71.461  58.140  15.910  1.00  0.00     0.679 A 
HETATM    2  N2  UNL     1      70.783  58.698  16.956  1.00  0.00    -0.175 N 
ATOM      3  H2  UNL     1      69.774  58.818  16.867  1.00  0.00     0.186 HD
HETATM    4  C11 UNL     1      71.368  59.096  18.091  1.00  0.00     0.153 A 
HETATM    5  N3  UNL     1      70.671  59.643  19.104  1.00  0.00    -0.175 N 
ATOM      6  H3  UNL     1      69.663  59.754  18.991  1.00  0.00     0.186 HD
HETATM    7  C12 UNL     1      71.228  60.052  20.258  1.00  0.00     0.684 A 
HETATM    8  N7  UNL     1      72.561  59.895  20.380  1.00  0.00    -0.163 N 
ATOM      9  H7  UNL     1      73.009  60.197  21.246  1.00  0.00     0.187 HD
HETATM   10  C22 UNL     1      73.333  59.354  19.408  1.00  0.00     0.207 A 
HETATM   11  C26 UNL     1      72.712  58.940  18.219  1.00  0.00     0.084 A 
HETATM   12  C27 UNL     1      73.435  58.384  17.194  1.00  0.00     0.126 A 
HETATM   13  N9  UNL     1      72.778  57.995  16.054  1.00  0.00    -0.201 N 
ATOM     14  H9  UNL     1      73.316  57.581  15.292  1.00  0.00     0.183 HD
ENDROOT
BRANCH   7  15
HETATM   15  N4  UNL     1      70.455  60.630  21.303  1.00  0.00    -0.214 N 
HETATM   16  C13 UNL     1      71.101  61.589  22.190  1.00  0.00     0.161 C 
HETATM   17  C14 UNL     1      70.179  61.881  23.359  1.00  0.00     0.147 C 
HETATM   18  N5  UNL     1      68.838  62.251  22.908  1.00  0.00    -0.344 N 
HETATM   19  C20 UNL     1      68.305  61.593  21.760  1.00  0.00     0.147 C 
HETATM   20  C21 UNL     1      69.078  60.293  21.514  1.00  0.00     0.161 C 
BRANCH  18  21
HETATM   21  C15 UNL     1      68.198  63.250  23.692  1.00  0.00     0.217 C 
BRANCH  21  22
HETATM   22  O2  UNL     1      68.564  64.483  23.475  1.00  0.00    -0.333 OA
ATOM     23  H2  UNL     1      69.223  64.839  24.060  1.00  0.00     0.220 HD
ENDBRANCH  21  22
BRANCH  21  24
HETATM   24  N6  UNL     1      67.221  63.110  24.673  1.00  0.00    -0.344 N 
HETATM   25  C16 UNL     1      65.837  63.520  24.337  1.00  0.00     0.152 C 
HETATM   26  C17 UNL     1      65.114  63.994  25.551  1.00  0.00     0.187 C 
HETATM   27  O3  UNL     1      65.388  63.357  26.728  1.00  0.00    -0.388 OA
HETATM   28  C18 UNL     1      66.065  62.172  26.493  1.00  0.00     0.187 C 
HETATM   29  C19 UNL     1      67.478  62.574  25.980  1.00  0.00     0.152 C 
ENDBRANCH  21  24
ENDBRANCH  18  21
ENDBRANCH   7  15
BRANCH  10  30
HETATM   30  N8  UNL     1      74.508  59.224  19.554  1.00  0.00    -0.402 NA
BRANCH  30  31
HETATM   31  C23 UNL     1      75.825  59.106  19.729  1.00  0.00     0.157 C 
BRANCH  31  32
HETATM   32  C24 UNL     1      76.669  60.368  19.539  1.00  0.00     0.055 C 
HETATM   33  C25 UNL     1      75.781  61.541  19.903  1.00  0.00     0.011 C 
ENDBRANCH  31  32
ENDBRANCH  30  31
ENDBRANCH  10  30
BRANCH   1  34
HETATM   34  N1  UNL     1      70.836  57.778  14.855  1.00  0.00    -0.219 N 
ATOM     35  H1  UNL     1      70.578  58.500  14.182  1.00  0.00     0.178 HD
BRANCH  34  36
HETATM   36  C8  UNL     1      70.466  56.385  14.546  1.00  0.00     0.122 C 
BRANCH  36  37
HETATM   37  C7  UNL     1      69.252  56.140  15.366  1.00  0.00     0.028 C 
BRANCH  37  38
HETATM   38  C6  UNL     1      69.215  55.015  16.318  1.00  0.00     0.002 C 
BRANCH  38  39
HETATM   39  C5  UNL     1      68.082  54.098  16.367  1.00  0.00     0.000 C 
BRANCH  39  40
HETATM   40  C4  UNL     1      66.828  54.560  15.739  1.00  0.00     0.000 C 
BRANCH  40  41
HETATM   41  C3  UNL     1      66.367  53.980  14.492  1.00  0.00    -0.000 C 
BRANCH  41  42
HETATM   42  C2  UNL     1      66.846  52.674  14.045  1.00  0.00    -0.005 C 
HETATM   43  C1  UNL     1      65.631  51.934  13.410  1.00  0.00     0.005 C 
ENDBRANCH  41  42
ENDBRANCH  40  41
ENDBRANCH  39  40
ENDBRANCH  38  39
ENDBRANCH  37  38
ENDBRANCH  36  37
BRANCH  36  44
HETATM   44  C9  UNL     1      71.629  55.548  14.898  1.00  0.00     0.189 C 
BRANCH  44  45
HETATM   45  O1  UNL     1      72.573  55.586  13.883  1.00  0.00    -0.399 OA
ATOM     46  H1  UNL     1      73.422  55.828  14.232  1.00  0.00     0.209 HD
ENDBRANCH  44  45
ENDBRANCH  36  44
ENDBRANCH  34  36
ENDBRANCH   1  34
TORSDOF 17
ENDMDL
MODEL 4
REMARK VINA RESULT: -7.957367436      3.731      5.562
REMARK  17 active torsions:
REMARK  status: ('A' for Active; 'I' for Inactive)
REMARK    1  A    between atoms: C2_2  and  C3_3 
REMARK    2  A    between atoms: C3_3  and  C4_4 
REMARK    3  A    between atoms: C4_4  and  C5_5 
REMARK    4  A    between atoms: C5_5  and  C6_6 
REMARK    5  A    between atoms: C6_6  and  C7_7 
REMARK    6  A    between atoms: C7_7  and  C8_8 
REMARK    7  A    between atoms: C8_8  and  C9_9 
REMARK    8  A    between atoms: C8_8  and  N1_12 
REMARK    9  A    between atoms: C9_9  and  O1_10 
REMARK   10  A    between atoms: N1_12  and  C10_14 
REMARK   11  A    between atoms: C12_20  and  N4_21 
REMARK   12  A    between atoms: N5_24  and  C15_25 
REMARK   13  A    between atoms: C15_25  and  O2_26 
REMARK   14  A    between atoms: C15_25  and  N6_28 
REMARK   15  A    between atoms: C22_38  and  N8_39 
REMARK   16  A    between atoms: N8_39  and  C23_40 
REMARK   17  A    between atoms: C23_40  and  C24_41 
ROOT
HETATM    1  C10 UNL     1      71.527  58.020  16.282  1.00  0.00     0.679 A 
HETATM    2  N2  UNL     1      72.100  56.868  15.822  1.00  0.00    -0.175 N 
ATOM      3  H2  UNL     1      73.118  56.803  15.821  1.00  0.00     0.186 HD
HETATM    4  C11 UNL     1      71.400  55.820  15.373  1.00  0.00     0.153 A 
HETATM    5  N3  UNL     1      71.995  54.698  14.926  1.00  0.00    -0.175 N 
ATOM      6  H3  UNL     1      73.015  54.658  14.933  1.00  0.00     0.186 HD
HETATM    7  C12 UNL     1      71.321  53.627  14.470  1.00  0.00     0.684 A 
HETATM    8  N7  UNL     1      69.976  53.708  14.471  1.00  0.00    -0.163 N 
ATOM      9  H7  UNL     1      69.440  52.909  14.130  1.00  0.00     0.187 HD
HETATM   10  C22 UNL     1      69.302  54.800  14.905  1.00  0.00     0.207 A 
HETATM   11  C26 UNL     1      70.043  55.896  15.372  1.00  0.00     0.084 A 
HETATM   12  C27 UNL     1      69.424  57.033  15.826  1.00  0.00     0.126 A 
HETATM   13  N9  UNL     1      70.195  58.076  16.274  1.00  0.00    -0.201 N 
ATOM     14  H9  UNL     1      69.735  58.921  16.612  1.00  0.00     0.183 HD
ENDROOT
BRANCH   7  15
HETATM   15  N4  UNL     1      71.989  52.463  14.001  1.00  0.00    -0.214 N 
HETATM   16  C13 UNL     1      73.085  51.928  14.799  1.00  0.00     0.161 C 
HETATM   17  C14 UNL     1      73.800  50.853  14.001  1.00  0.00     0.147 C 
HETATM   18  N5  UNL     1      72.865  49.859  13.478  1.00  0.00    -0.344 N 
HETATM   19  C20 UNL     1      71.582  50.301  13.038  1.00  0.00     0.147 C 
HETATM   20  C21 UNL     1      71.628  51.811  12.777  1.00  0.00     0.161 C 
BRANCH  18  21
HETATM   21  C15 UNL     1      73.358  48.526  13.461  1.00  0.00     0.217 C 
BRANCH  21  22
HETATM   22  O2  UNL     1      73.707  48.048  12.299  1.00  0.00    -0.333 OA
ATOM     23  H2  UNL     1      73.245  47.272  12.003  1.00  0.00     0.220 HD
ENDBRANCH  21  22
BRANCH  21  24
HETATM   24  N6  UNL     1      73.531  47.636  14.517  1.00  0.00    -0.344 N 
HETATM   25  C16 UNL     1      72.412  47.473  15.477  1.00  0.00     0.152 C 
HETATM   26  C17 UNL     1      72.923  47.124  16.833  1.00  0.00     0.187 C 
HETATM   27  O3  UNL     1      74.021  46.314  16.896  1.00  0.00    -0.388 OA
HETATM   28  C18 UNL     1      74.257  45.719  15.669  1.00  0.00     0.187 C 
HETATM   29  C19 UNL     1      74.720  46.857  14.715  1.00  0.00     0.152 C 
ENDBRANCH  21  24
ENDBRANCH  18  21
ENDBRANCH   7  15
BRANCH  10  30
HETATM   30  N8  UNL     1      68.111  54.833  14.897  1.00  0.00    -0.402 NA
BRANCH  30  31
HETATM   31  C23 UNL     1      66.778  54.882  14.916  1.00  0.00     0.157 C 
BRANCH  31  32
HETATM   32  C24 UNL     1      66.029  53.586  14.593  1.00  0.00     0.055 C 
HETATM   33  C25 UNL     1      66.592  53.078  13.281  1.00  0.00     0.011 C 
ENDBRANCH  31  32
ENDBRANCH  30  31
ENDBRANCH  10  30
BRANCH   1  34
HETATM   34  N1  UNL     1      72.257  58.981  16.701  1.00  0.00    -0.219 N 
ATOM     35  H1  UNL     1      72.729  59.560  16.006  1.00  0.00     0.178 HD
BRANCH  34  36
HETATM   36  C8  UNL     1      72.463  59.309  18.123  1.00  0.00     0.122 C 
BRANCH  36  37
HETATM   37  C7  UNL     1      73.463  58.314  18.587  1.00  0.00     0.028 C 
BRANCH  37  38
HETATM   38  C6  UNL     1      74.274  58.581  19.788  1.00  0.00     0.002 C 
BRANCH  38  39
HETATM   39  C5  UNL     1      75.726  58.701  19.714  1.00  0.00     0.000 C 
BRANCH  39  40
HETATM   40  C4  UNL     1      76.276  60.070  19.681  1.00  0.00     0.000 C 
BRANCH  40  41
HETATM   41  C3  UNL     1      75.426  61.203  19.371  1.00  0.00    -0.000 C 
BRANCH  41  42
HETATM   42  C2  UNL     1      74.961  62.107  20.421  1.00  0.00    -0.005 C 
HETATM   43  C1  UNL     1      73.406  62.136  20.343  1.00  0.00     0.005 C 
ENDBRANCH  41  42
ENDBRANCH  40  41
ENDBRANCH  39  40
ENDBRANCH  38  39
ENDBRANCH  37  38
ENDBRANCH  36  37
BRANCH  36  44
HETATM   44  C9  UNL     1      71.145  59.211  18.777  1.00  0.00     0.189 C 
BRANCH  44  45
HETATM   45  O1  UNL     1      70.370  60.320  18.468  1.00  0.00    -0.399 OA
ATOM     46  H1  UNL     1      70.825  61.117  18.710  1.00  0.00     0.209 HD
ENDBRANCH  44  45
ENDBRANCH  36  44
ENDBRANCH  34  36
ENDBRANCH   1  34
TORSDOF 17
ENDMDL
MODEL 5
REMARK VINA RESULT: -7.823270296      1.568      2.875
REMARK  17 active torsions:
REMARK  status: ('A' for Active; 'I' for Inactive)
REMARK    1  A    between atoms: C2_2  and  C3_3 
REMARK    2  A    between atoms: C3_3  and  C4_4 
REMARK    3  A    between atoms: C4_4  and  C5_5 
REMARK    4  A    between atoms: C5_5  and  C6_6 
REMARK    5  A    between atoms: C6_6  and  C7_7 
REMARK    6  A    between atoms: C7_7  and  C8_8 
REMARK    7  A    between atoms: C8_8  and  C9_9 
REMARK    8  A    between atoms: C8_8  and  N1_12 
REMARK    9  A    between atoms: C9_9  and  O1_10 
REMARK   10  A    between atoms: N1_12  and  C10_14 
REMARK   11  A    between atoms: C12_20  and  N4_21 
REMARK   12  A    between atoms: N5_24  and  C15_25 
REMARK   13  A    between atoms: C15_25  and  O2_26 
REMARK   14  A    between atoms: C15_25  and  N6_28 
REMARK   15  A    between atoms: C22_38  and  N8_39 
REMARK   16  A    between atoms: N8_39  and  C23_40 
REMARK   17  A    between atoms: C23_40  and  C24_41 
ROOT
HETATM    1  C10 UNL     1      72.092  59.360  18.168  1.00  0.00     0.679 A 
HETATM    2  N2  UNL     1      71.019  58.638  17.728  1.00  0.00    -0.175 N 
ATOM      3  H2  UNL     1      70.094  59.065  17.789  1.00  0.00     0.186 HD
HETATM    4  C11 UNL     1      71.113  57.404  17.220  1.00  0.00     0.153 A 
HETATM    5  N3  UNL     1      70.035  56.719  16.795  1.00  0.00    -0.175 N 
ATOM      6  H3  UNL     1      69.120  57.166  16.868  1.00  0.00     0.186 HD
HETATM    7  C12 UNL     1      70.095  55.478  16.280  1.00  0.00     0.684 A 
HETATM    8  N7  UNL     1      71.315  54.912  16.196  1.00  0.00    -0.163 N 
ATOM      9  H7  UNL     1      71.389  53.971  15.808  1.00  0.00     0.187 HD
HETATM   10  C22 UNL     1      72.448  55.534  16.601  1.00  0.00     0.207 A 
HETATM   11  C26 UNL     1      72.341  56.828  17.134  1.00  0.00     0.084 A 
HETATM   12  C27 UNL     1      73.448  57.516  17.563  1.00  0.00     0.126 A 
HETATM   13  N9  UNL     1      73.288  58.779  18.074  1.00  0.00    -0.201 N 
ATOM     14  H9  UNL     1      74.111  59.290  18.393  1.00  0.00     0.183 HD
ENDROOT
BRANCH   7  15
HETATM   15  N4  UNL     1      68.930  54.787  15.846  1.00  0.00    -0.214 N 
HETATM   16  C13 UNL     1      68.390  55.104  14.530  1.00  0.00     0.161 C 
HETATM   17  C14 UNL     1      67.032  54.443  14.381  1.00  0.00     0.147 C 
HETATM   18  N5  UNL     1      67.086  53.019  14.708  1.00  0.00    -0.344 N 
HETATM   19  C20 UNL     1      67.940  52.601  15.771  1.00  0.00     0.147 C 
HETATM   20  C21 UNL     1      68.274  53.806  16.659  1.00  0.00     0.161 C 
BRANCH  18  21
HETATM   21  C15 UNL     1      66.253  52.190  13.908  1.00  0.00     0.217 C 
BRANCH  21  22
HETATM   22  O2  UNL     1      65.013  52.569  13.773  1.00  0.00    -0.333 OA
ATOM     23  H2  UNL     1      64.605  52.397  12.932  1.00  0.00     0.220 HD
ENDBRANCH  21  22
BRANCH  21  24
HETATM   24  N6  UNL     1      66.567  51.015  13.232  1.00  0.00    -0.344 N 
HETATM   25  C16 UNL     1      65.673  50.589  12.129  1.00  0.00     0.152 C 
HETATM   26  C17 UNL     1      65.662  49.105  11.997  1.00  0.00     0.187 C 
HETATM   27  O3  UNL     1      66.835  48.449  12.238  1.00  0.00    -0.388 OA
HETATM   28  C18 UNL     1      67.895  49.339  12.255  1.00  0.00     0.187 C 
HETATM   29  C19 UNL     1      67.714  50.206  13.533  1.00  0.00     0.152 C 
ENDBRANCH  21  24
ENDBRANCH  18  21
ENDBRANCH   7  15
BRANCH  10  30
HETATM   30  N8  UNL     1      73.510  55.005  16.506  1.00  0.00    -0.402 NA
BRANCH  30  31
HETATM   31  C23 UNL     1      74.690  54.395  16.378  1.00  0.00     0.157 C 
BRANCH  31  32
HETATM   32  C24 UNL     1      74.771  53.238  15.379  1.00  0.00     0.055 C 
HETATM   33  C25 UNL     1      73.937  53.642  14.181  1.00  0.00     0.011 C 
ENDBRANCH  31  32
ENDBRANCH  30  31
ENDBRANCH  10  30
BRANCH   1  34
HETATM   34  N1  UNL     1      71.930  60.538  18.637  1.00  0.00    -0.219 N 
ATOM     35  H1  UNL     1      71.537  61.247  18.018  1.00  0.00     0.178 HD
BRANCH  34  36
HETATM   36  C8  UNL     1      72.272  60.938  20.013  1.00  0.00     0.122 C 
BRANCH  36  37
HETATM   37  C7  UNL     1      71.100  60.513  20.820  1.00  0.00     0.028 C 
BRANCH  37  38
HETATM   38  C6  UNL     1      70.189  61.520  21.394  1.00  0.00     0.002 C 
BRANCH  38  39
HETATM   39  C5  UNL     1      68.815  61.658  20.926  1.00  0.00     0.000 C 
BRANCH  39  40
HETATM   40  C4  UNL     1      68.608  61.639  19.464  1.00  0.00     0.000 C 
BRANCH  40  41
HETATM   41  C3  UNL     1      68.016  60.486  18.814  1.00  0.00    -0.000 C 
BRANCH  41  42
HETATM   42  C2  UNL     1      67.211  59.527  19.567  1.00  0.00    -0.005 C 
HETATM   43  C1  UNL     1      68.072  58.240  19.737  1.00  0.00     0.005 C 
ENDBRANCH  41  42
ENDBRANCH  40  41
ENDBRANCH  39  40
ENDBRANCH  38  39
ENDBRANCH  37  38
ENDBRANCH  36  37
BRANCH  36  44
HETATM   44  C9  UNL     1      72.509  62.393  19.987  1.00  0.00     0.189 C 
BRANCH  44  45
HETATM   45  O1  UNL     1      71.940  62.953  18.852  1.00  0.00    -0.399 OA
ATOM     46  H1  UNL     1      72.313  63.810  18.685  1.00  0.00     0.209 HD
ENDBRANCH  44  45
ENDBRANCH  36  44
ENDBRANCH  34  36
ENDBRANCH   1  34
TORSDOF 17
ENDMDL
