MODEL 1
REMARK VINA RESULT: -7.755128737      0.000      0.000
REMARK  21 active torsions:
REMARK  status: ('A' for Active; 'I' for Inactive)
REMARK    1  A    between atoms: C2_2  and  C3_3 
REMARK    2  A    between atoms: C3_3  and  C4_4 
REMARK    3  A    between atoms: C4_4  and  C5_5 
REMARK    4  A    between atoms: C5_5  and  N1_6 
REMARK    5  A    between atoms: C5_5  and  C21_39 
REMARK    6  A    between atoms: N1_6  and  C6_8 
REMARK    7  A    between atoms: C6_8  and  O1_9 
REMARK    8  A    between atoms: C6_8  and  C7_11 
REMARK    9  A    between atoms: C9_15  and  N3_16 
REMARK   10  A    between atoms: N3_16  and  C10_17 
REMARK   11  A    between atoms: C10_17  and  O2_18 
REMARK   12  A    between atoms: C10_17  and  C11_20 
REMARK   13  A    between atoms: C11_20  and  N4_21 
REMARK   14  A    between atoms: N4_21  and  C12_22 
REMARK   15  A    between atoms: N4_21  and  C14_24 
REMARK   16  A    between atoms: C16_28  and  N6_29 
REMARK   17  A    between atoms: N6_29  and  C17_30 
REMARK   18  A    between atoms: C17_30  and  O3_31 
REMARK   19  A    between atoms: C17_30  and  C18_33 
REMARK   20  A    between atoms: C21_39  and  O5_41 
REMARK   21  A    between atoms: O5_41  and  C22_42 
ROOT
HETATM    1  C7  UNL     1      71.259  55.475  15.951  1.00  0.00     0.128 A 
HETATM    2  N2  UNL     1      70.842  56.565  16.499  1.00  0.00    -0.341 N 
ATOM      3  H2  UNL     1      69.840  56.758  16.509  1.00  0.00     0.167 HD
HETATM    4  C8  UNL     1      71.678  57.456  17.058  1.00  0.00     0.126 A 
HETATM    5  C9  UNL     1      71.223  58.604  17.692  1.00  0.00     0.215 A 
HETATM    6  N5  UNL     1      72.227  59.384  18.292  1.00  0.00    -0.289 N 
ATOM      7  H5  UNL     1      71.932  60.227  18.785  1.00  0.00     0.172 HD
HETATM    8  C16 UNL     1      73.543  59.113  18.272  1.00  0.00     0.264 A 
HETATM    9  N7  UNL     1      73.906  58.018  17.622  1.00  0.00    -0.308 N 
ATOM     10  H7  UNL     1      74.896  57.781  17.560  1.00  0.00     0.170 HD
HETATM   11  C20 UNL     1      72.971  57.185  17.023  1.00  0.00     0.111 A 
HETATM   12  S1  UNL     1      73.022  55.691  16.215  1.00  0.00    -0.048 SA
ENDROOT
BRANCH   1  13
HETATM   13  C6  UNL     1      70.755  54.265  15.302  1.00  0.00     0.175 C 
BRANCH  13  14
HETATM   14  N1  UNL     1      70.662  53.969  13.900  1.00  0.00    -0.333 N 
ATOM     15  H1  UNL     1      70.324  54.635  13.206  1.00  0.00     0.168 HD
BRANCH  14  16
HETATM   16  C5  UNL     1      71.093  52.641  13.575  1.00  0.00     0.087 C 
BRANCH  16  17
HETATM   17  C4  UNL     1      72.450  52.299  13.296  1.00  0.00     0.063 C 
BRANCH  17  18
HETATM   18  C3  UNL     1      73.130  51.345  14.263  1.00  0.00     0.006 C 
BRANCH  18  19
HETATM   19  C2  UNL     1      72.946  49.866  13.811  1.00  0.00    -0.004 C 
HETATM   20  C1  UNL     1      74.380  49.340  13.589  1.00  0.00     0.005 C 
ENDBRANCH  18  19
ENDBRANCH  17  18
ENDBRANCH  16  17
BRANCH  16  21
HETATM   21  C21 UNL     1      70.032  51.998  12.621  1.00  0.00     0.306 C 
HETATM   22  O4  UNL     1      70.278  51.169  11.840  1.00  0.00    -0.258 OA
BRANCH  21  23
HETATM   23  O5  UNL     1      68.794  52.527  12.790  1.00  0.00    -0.306 OA
BRANCH  23  24
HETATM   24  C22 UNL     1      67.691  52.205  13.482  1.00  0.00     0.060 C 
HETATM   25  C23 UNL     1      67.942  51.186  14.570  1.00  0.00     0.046 C 
HETATM   26  C24 UNL     1      66.636  51.538  12.568  1.00  0.00     0.046 C 
HETATM   27  C25 UNL     1      67.034  53.456  14.021  1.00  0.00     0.046 C 
ENDBRANCH  23  24
ENDBRANCH  21  23
ENDBRANCH  16  21
ENDBRANCH  14  16
ENDBRANCH  13  14
BRANCH  13  28
HETATM   28  O1  UNL     1      70.306  53.388  16.152  1.00  0.00    -0.344 OA
ATOM     29  H1  UNL     1      70.170  53.660  17.052  1.00  0.00     0.219 HD
ENDBRANCH  13  28
ENDBRANCH   1  13
BRANCH   5  30
HETATM   30  N3  UNL     1      70.237  59.283  17.625  1.00  0.00    -0.363 NA
BRANCH  30  31
HETATM   31  C10 UNL     1      69.182  60.013  17.619  1.00  0.00     0.210 C 
BRANCH  31  32
HETATM   32  O2  UNL     1      68.871  60.052  16.182  1.00  0.00    -0.338 OA
ATOM     33  H2  UNL     1      69.229  60.897  15.939  1.00  0.00     0.220 HD
ENDBRANCH  31  32
BRANCH  31  34
HETATM   34  C11 UNL     1      68.165  60.817  18.227  1.00  0.00     0.221 C 
BRANCH  34  35
HETATM   35  N4  UNL     1      68.001  60.225  19.584  1.00  0.00    -0.386 N 
BRANCH  35  36
HETATM   36  C12 UNL     1      66.910  59.334  19.718  1.00  0.00     0.118 C 
HETATM   37  C13 UNL     1      67.366  57.918  19.689  1.00  0.00     0.026 C 
ENDBRANCH  35  36
BRANCH  35  38
HETATM   38  C14 UNL     1      68.622  60.782  20.672  1.00  0.00     0.054 C 
HETATM   39  C15 UNL     1      69.878  60.234  21.225  1.00  0.00     0.054 C 
ENDBRANCH  35  38
ENDBRANCH  34  35
ENDBRANCH  31  34
ENDBRANCH  30  31
ENDBRANCH   5  30
BRANCH   8  40
HETATM   40  N6  UNL     1      74.332  59.827  18.868  1.00  0.00    -0.350 NA
BRANCH  40  41
HETATM   41  C17 UNL     1      74.936  60.849  19.360  1.00  0.00     0.193 C 
BRANCH  41  42
HETATM   42  O3  UNL     1      75.976  61.436  18.821  1.00  0.00    -0.339 OA
ATOM     43  H3  UNL     1      75.974  62.311  18.451  1.00  0.00     0.220 HD
ENDBRANCH  41  42
BRANCH  41  44
HETATM   44  C18 UNL     1      74.453  61.471  20.652  1.00  0.00     0.096 C 
HETATM   45  C19 UNL     1      73.174  62.258  20.299  1.00  0.00     0.014 C 
ENDBRANCH  41  44
ENDBRANCH  40  41
ENDBRANCH   8  40
TORSDOF 21
ENDMDL
MODEL 2
REMARK VINA RESULT: -7.693100310      1.753      2.874
REMARK  21 active torsions:
REMARK  status: ('A' for Active; 'I' for Inactive)
REMARK    1  A    between atoms: C2_2  and  C3_3 
REMARK    2  A    between atoms: C3_3  and  C4_4 
REMARK    3  A    between atoms: C4_4  and  C5_5 
REMARK    4  A    between atoms: C5_5  and  N1_6 
REMARK    5  A    between atoms: C5_5  and  C21_39 
REMARK    6  A    between atoms: N1_6  and  C6_8 
REMARK    7  A    between atoms: C6_8  and  O1_9 
REMARK    8  A    between atoms: C6_8  and  C7_11 
REMARK    9  A    between atoms: C9_15  and  N3_16 
REMARK   10  A    between atoms: N3_16  and  C10_17 
REMARK   11  A    between atoms: C10_17  and  O2_18 
REMARK   12  A    between atoms: C10_17  and  C11_20 
REMARK   13  A    between atoms: C11_20  and  N4_21 
REMARK   14  A    between atoms: N4_21  and  C12_22 
REMARK   15  A    between atoms: N4_21  and  C14_24 
REMARK   16  A    between atoms: C16_28  and  N6_29 
REMARK   17  A    between atoms: N6_29  and  C17_30 
REMARK   18  A    between atoms: C17_30  and  O3_31 
REMARK   19  A    between atoms: C17_30  and  C18_33 
REMARK   20  A    between atoms: C21_39  and  O5_41 
REMARK   21  A    between atoms: O5_41  and  C22_42 
ROOT
HETATM    1  C7  UNL     1      72.149  54.585  16.051  1.00  0.00     0.128 A 
HETATM    2  N2  UNL     1      71.564  55.372  16.887  1.00  0.00    -0.341 N 
ATOM      3  H2  UNL     1      70.609  55.158  17.177  1.00  0.00     0.167 HD
HETATM    4  C8  UNL     1      72.163  56.463  17.392  1.00  0.00     0.126 A 
HETATM    5  C9  UNL     1      71.548  57.281  18.332  1.00  0.00     0.215 A 
HETATM    6  N5  UNL     1      72.348  58.332  18.813  1.00  0.00    -0.289 N 
ATOM      7  H5  UNL     1      71.939  58.944  19.519  1.00  0.00     0.172 HD
HETATM    8  C16 UNL     1      73.606  58.597  18.421  1.00  0.00     0.264 A 
HETATM    9  N7  UNL     1      74.116  57.795  17.500  1.00  0.00    -0.308 N 
ATOM     10  H7  UNL     1      75.060  57.969  17.155  1.00  0.00     0.170 HD
HETATM   11  C20 UNL     1      73.396  56.722  16.993  1.00  0.00     0.111 A 
HETATM   12  S1  UNL     1      73.720  55.446  15.918  1.00  0.00    -0.048 SA
ENDROOT
BRANCH   1  13
HETATM   13  C6  UNL     1      71.929  53.339  15.318  1.00  0.00     0.175 C 
BRANCH  13  14
HETATM   14  N1  UNL     1      70.688  52.691  14.999  1.00  0.00    -0.333 N 
ATOM     15  H1  UNL     1      70.447  51.752  15.317  1.00  0.00     0.168 HD
BRANCH  14  16
HETATM   16  C5  UNL     1      69.824  53.497  14.189  1.00  0.00     0.087 C 
BRANCH  16  17
HETATM   17  C4  UNL     1      68.820  54.359  14.723  1.00  0.00     0.063 C 
BRANCH  17  18
HETATM   18  C3  UNL     1      68.275  54.009  16.097  1.00  0.00     0.006 C 
BRANCH  18  19
HETATM   19  C2  UNL     1      66.789  54.454  16.238  1.00  0.00    -0.004 C 
HETATM   20  C1  UNL     1      66.472  55.193  14.920  1.00  0.00     0.005 C 
ENDBRANCH  18  19
ENDBRANCH  17  18
ENDBRANCH  16  17
BRANCH  16  21
HETATM   21  C21 UNL     1      69.387  52.654  12.945  1.00  0.00     0.306 C 
HETATM   22  O4  UNL     1      70.125  52.278  12.124  1.00  0.00    -0.258 OA
BRANCH  21  23
HETATM   23  O5  UNL     1      68.051  52.425  12.915  1.00  0.00    -0.306 OA
BRANCH  23  24
HETATM   24  C22 UNL     1      67.233  51.427  13.282  1.00  0.00     0.060 C 
HETATM   25  C23 UNL     1      67.732  50.652  14.479  1.00  0.00     0.046 C 
HETATM   26  C24 UNL     1      67.110  50.368  12.161  1.00  0.00     0.046 C 
HETATM   27  C25 UNL     1      65.833  51.958  13.497  1.00  0.00     0.046 C 
ENDBRANCH  23  24
ENDBRANCH  21  23
ENDBRANCH  16  21
ENDBRANCH  14  16
ENDBRANCH  13  14
BRANCH  13  28
HETATM   28  O1  UNL     1      73.039  52.760  14.965  1.00  0.00    -0.344 OA
ATOM     29  H1  UNL     1      73.787  53.306  14.754  1.00  0.00     0.219 HD
ENDBRANCH  13  28
ENDBRANCH   1  13
BRANCH   5  30
HETATM   30  N3  UNL     1      70.416  57.525  18.640  1.00  0.00    -0.363 NA
BRANCH  30  31
HETATM   31  C10 UNL     1      69.200  57.727  18.996  1.00  0.00     0.210 C 
BRANCH  31  32
HETATM   32  O2  UNL     1      68.474  56.938  17.990  1.00  0.00    -0.338 OA
ATOM     33  H2  UNL     1      68.978  56.132  17.989  1.00  0.00     0.220 HD
ENDBRANCH  31  32
BRANCH  31  34
HETATM   34  C11 UNL     1      68.172  58.305  19.808  1.00  0.00     0.221 C 
BRANCH  34  35
HETATM   35  N4  UNL     1      68.565  59.737  19.922  1.00  0.00    -0.386 N 
BRANCH  35  36
HETATM   36  C12 UNL     1      68.090  60.572  18.882  1.00  0.00     0.118 C 
HETATM   37  C13 UNL     1      68.600  61.961  19.034  1.00  0.00     0.026 C 
ENDBRANCH  35  36
BRANCH  35  38
HETATM   38  C14 UNL     1      69.591  60.118  20.747  1.00  0.00     0.054 C 
HETATM   39  C15 UNL     1      69.515  59.968  22.215  1.00  0.00     0.054 C 
ENDBRANCH  35  38
ENDBRANCH  34  35
ENDBRANCH  31  34
ENDBRANCH  30  31
ENDBRANCH   5  30
BRANCH   8  40
HETATM   40  N6  UNL     1      74.236  59.505  18.938  1.00  0.00    -0.350 NA
BRANCH  40  41
HETATM   41  C17 UNL     1      74.611  60.664  19.348  1.00  0.00     0.193 C 
BRANCH  41  42
HETATM   42  O3  UNL     1      75.673  61.303  18.921  1.00  0.00    -0.339 OA
ATOM     43  H3  UNL     1      76.533  61.255  19.321  1.00  0.00     0.220 HD
ENDBRANCH  41  42
BRANCH  41  44
HETATM   44  C18 UNL     1      73.805  61.399  20.396  1.00  0.00     0.096 C 
HETATM   45  C19 UNL     1      72.622  62.049  19.650  1.00  0.00     0.014 C 
ENDBRANCH  41  44
ENDBRANCH  40  41
ENDBRANCH   8  40
TORSDOF 21
ENDMDL
MODEL 3
REMARK VINA RESULT: -7.668549436      1.765      3.028
REMARK  21 active torsions:
REMARK  status: ('A' for Active; 'I' for Inactive)
REMARK    1  A    between atoms: C2_2  and  C3_3 
REMARK    2  A    between atoms: C3_3  and  C4_4 
REMARK    3  A    between atoms: C4_4  and  C5_5 
REMARK    4  A    between atoms: C5_5  and  N1_6 
REMARK    5  A    between atoms: C5_5  and  C21_39 
REMARK    6  A    between atoms: N1_6  and  C6_8 
REMARK    7  A    between atoms: C6_8  and  O1_9 
REMARK    8  A    between atoms: C6_8  and  C7_11 
REMARK    9  A    between atoms: C9_15  and  N3_16 
REMARK   10  A    between atoms: N3_16  and  C10_17 
REMARK   11  A    between atoms: C10_17  and  O2_18 
REMARK   12  A    between atoms: C10_17  and  C11_20 
REMARK   13  A    between atoms: C11_20  and  N4_21 
REMARK   14  A    between atoms: N4_21  and  C12_22 
REMARK   15  A    between atoms: N4_21  and  C14_24 
REMARK   16  A    between atoms: C16_28  and  N6_29 
REMARK   17  A    between atoms: N6_29  and  C17_30 
REMARK   18  A    between atoms: C17_30  and  O3_31 
REMARK   19  A    between atoms: C17_30  and  C18_33 
REMARK   20  A    between atoms: C21_39  and  O5_41 
REMARK   21  A    between atoms: O5_41  and  C22_42 
ROOT
HETATM    1  C7  UNL     1      72.259  54.627  16.202  1.00  0.00     0.128 A 
HETATM    2  N2  UNL     1      71.657  55.398  17.041  1.00  0.00    -0.341 N 
ATOM      3  H2  UNL     1      70.716  55.151  17.348  1.00  0.00     0.167 HD
HETATM    4  C8  UNL     1      72.223  56.515  17.528  1.00  0.00     0.126 A 
HETATM    5  C9  UNL     1      71.593  57.317  18.470  1.00  0.00     0.215 A 
HETATM    6  N5  UNL     1      72.360  58.401  18.931  1.00  0.00    -0.289 N 
ATOM      7  H5  UNL     1      71.940  59.004  19.638  1.00  0.00     0.172 HD
HETATM    8  C16 UNL     1      73.601  58.710  18.518  1.00  0.00     0.264 A 
HETATM    9  N7  UNL     1      74.126  57.919  17.595  1.00  0.00    -0.308 N 
ATOM     10  H7  UNL     1      75.058  58.125  17.234  1.00  0.00     0.170 HD
HETATM   11  C20 UNL     1      73.440  56.816  17.107  1.00  0.00     0.111 A 
HETATM   12  S1  UNL     1      73.794  55.544  16.038  1.00  0.00    -0.048 SA
ENDROOT
BRANCH   1  13
HETATM   13  C6  UNL     1      72.074  53.367  15.482  1.00  0.00     0.175 C 
BRANCH  13  14
HETATM   14  N1  UNL     1      70.851  52.695  15.147  1.00  0.00    -0.333 N 
ATOM     15  H1  UNL     1      70.608  51.765  15.490  1.00  0.00     0.168 HD
BRANCH  14  16
HETATM   16  C5  UNL     1      70.005  53.462  14.280  1.00  0.00     0.087 C 
BRANCH  16  17
HETATM   17  C4  UNL     1      68.970  54.323  14.750  1.00  0.00     0.063 C 
BRANCH  17  18
HETATM   18  C3  UNL     1      68.407  54.030  16.130  1.00  0.00     0.006 C 
BRANCH  18  19
HETATM   19  C2  UNL     1      66.917  54.475  16.232  1.00  0.00    -0.004 C 
HETATM   20  C1  UNL     1      66.635  55.214  14.907  1.00  0.00     0.005 C 
ENDBRANCH  18  19
ENDBRANCH  17  18
ENDBRANCH  16  17
BRANCH  16  21
HETATM   21  C21 UNL     1      69.630  52.575  13.047  1.00  0.00     0.306 C 
HETATM   22  O4  UNL     1      70.412  52.116  12.314  1.00  0.00    -0.258 OA
BRANCH  21  23
HETATM   23  O5  UNL     1      68.290  52.414  12.911  1.00  0.00    -0.306 OA
BRANCH  23  24
HETATM   24  C22 UNL     1      67.393  51.467  13.223  1.00  0.00     0.060 C 
HETATM   25  C23 UNL     1      66.010  52.016  13.491  1.00  0.00     0.046 C 
HETATM   26  C24 UNL     1      67.781  50.744  14.534  1.00  0.00     0.046 C 
HETATM   27  C25 UNL     1      67.378  50.396  12.155  1.00  0.00     0.046 C 
ENDBRANCH  23  24
ENDBRANCH  21  23
ENDBRANCH  16  21
ENDBRANCH  14  16
ENDBRANCH  13  14
BRANCH  13  28
HETATM   28  O1  UNL     1      73.200  52.801  15.161  1.00  0.00    -0.344 OA
ATOM     29  H1  UNL     1      74.003  53.150  15.531  1.00  0.00     0.219 HD
ENDBRANCH  13  28
ENDBRANCH   1  13
BRANCH   5  30
HETATM   30  N3  UNL     1      70.457  57.522  18.795  1.00  0.00    -0.363 NA
BRANCH  30  31
HETATM   31  C10 UNL     1      69.249  57.803  19.123  1.00  0.00     0.210 C 
BRANCH  31  32
HETATM   32  O2  UNL     1      68.495  57.053  18.108  1.00  0.00    -0.338 OA
ATOM     33  H2  UNL     1      67.814  56.658  18.639  1.00  0.00     0.220 HD
ENDBRANCH  31  32
BRANCH  31  34
HETATM   34  C11 UNL     1      68.243  58.452  19.909  1.00  0.00     0.221 C 
BRANCH  34  35
HETATM   35  N4  UNL     1      68.864  59.753  20.285  1.00  0.00    -0.386 N 
BRANCH  35  36
HETATM   36  C12 UNL     1      69.480  59.775  21.559  1.00  0.00     0.118 C 
HETATM   37  C13 UNL     1      69.474  61.147  22.135  1.00  0.00     0.026 C 
ENDBRANCH  35  36
BRANCH  35  38
HETATM   38  C14 UNL     1      68.537  60.904  19.617  1.00  0.00     0.054 C 
HETATM   39  C15 UNL     1      67.824  60.886  18.323  1.00  0.00     0.054 C 
ENDBRANCH  35  38
ENDBRANCH  34  35
ENDBRANCH  31  34
ENDBRANCH  30  31
ENDBRANCH   5  30
BRANCH   8  40
HETATM   40  N6  UNL     1      74.205  59.644  19.017  1.00  0.00    -0.350 NA
BRANCH  40  41
HETATM   41  C17 UNL     1      74.550  60.822  19.400  1.00  0.00     0.193 C 
BRANCH  41  42
HETATM   42  O3  UNL     1      75.625  61.455  19.000  1.00  0.00    -0.339 OA
ATOM     43  H3  UNL     1      75.743  62.397  19.030  1.00  0.00     0.220 HD
ENDBRANCH  41  42
BRANCH  41  44
HETATM   44  C18 UNL     1      73.688  61.588  20.379  1.00  0.00     0.096 C 
HETATM   45  C19 UNL     1      72.453  62.061  19.586  1.00  0.00     0.014 C 
ENDBRANCH  41  44
ENDBRANCH  40  41
ENDBRANCH   8  40
TORSDOF 21
ENDMDL
MODEL 4
REMARK VINA RESULT: -7.479230076      3.019      9.748
REMARK  21 active torsions:
REMARK  status: ('A' for Active; 'I' for Inactive)
REMARK    1  A    between atoms: C2_2  and  C3_3 
REMARK    2  A    between atoms: C3_3  and  C4_4 
REMARK    3  A    between atoms: C4_4  and  C5_5 
REMARK    4  A    between atoms: C5_5  and  N1_6 
REMARK    5  A    between atoms: C5_5  and  C21_39 
REMARK    6  A    between atoms: N1_6  and  C6_8 
REMARK    7  A    between atoms: C6_8  and  O1_9 
REMARK    8  A    between atoms: C6_8  and  C7_11 
REMARK    9  A    between atoms: C9_15  and  N3_16 
REMARK   10  A    between atoms: N3_16  and  C10_17 
REMARK   11  A    between atoms: C10_17  and  O2_18 
REMARK   12  A    between atoms: C10_17  and  C11_20 
REMARK   13  A    between atoms: C11_20  and  N4_21 
REMARK   14  A    between atoms: N4_21  and  C12_22 
REMARK   15  A    between atoms: N4_21  and  C14_24 
REMARK   16  A    between atoms: C16_28  and  N6_29 
REMARK   17  A    between atoms: N6_29  and  C17_30 
REMARK   18  A    between atoms: C17_30  and  O3_31 
REMARK   19  A    between atoms: C17_30  and  C18_33 
REMARK   20  A    between atoms: C21_39  and  O5_41 
REMARK   21  A    between atoms: O5_41  and  C22_42 
ROOT
HETATM    1  C7  UNL     1      70.982  55.214  14.525  1.00  0.00     0.128 A 
HETATM    2  N2  UNL     1      70.569  54.093  14.041  1.00  0.00    -0.341 N 
ATOM      3  H2  UNL     1      69.619  54.036  13.674  1.00  0.00     0.167 HD
HETATM    4  C8  UNL     1      71.343  52.995  14.002  1.00  0.00     0.126 A 
HETATM    5  C9  UNL     1      70.913  51.803  13.435  1.00  0.00     0.215 A 
HETATM    6  N5  UNL     1      71.878  50.781  13.406  1.00  0.00    -0.289 N 
ATOM      7  H5  UNL     1      71.607  49.895  12.980  1.00  0.00     0.172 HD
HETATM    8  C16 UNL     1      73.127  50.874  13.892  1.00  0.00     0.264 A 
HETATM    9  N7  UNL     1      73.457  52.030  14.447  1.00  0.00    -0.308 N 
ATOM     10  H7  UNL     1      74.388  52.142  14.850  1.00  0.00     0.170 HD
HETATM   11  C20 UNL     1      72.566  53.094  14.493  1.00  0.00     0.111 A 
HETATM   12  S1  UNL     1      72.638  54.712  15.005  1.00  0.00    -0.048 SA
ENDROOT
BRANCH   1  13
HETATM   13  C6  UNL     1      70.546  56.596  14.722  1.00  0.00     0.175 C 
BRANCH  13  14
HETATM   14  N1  UNL     1      69.544  57.102  15.618  1.00  0.00    -0.333 N 
ATOM     15  H1  UNL     1      69.063  57.991  15.478  1.00  0.00     0.168 HD
BRANCH  14  16
HETATM   16  C5  UNL     1      69.290  56.233  16.729  1.00  0.00     0.087 C 
BRANCH  16  17
HETATM   17  C4  UNL     1      68.030  55.607  16.966  1.00  0.00     0.063 C 
BRANCH  17  18
HETATM   18  C3  UNL     1      67.688  54.404  16.104  1.00  0.00     0.006 C 
BRANCH  18  19
HETATM   19  C2  UNL     1      66.823  54.824  14.879  1.00  0.00    -0.004 C 
HETATM   20  C1  UNL     1      66.201  53.507  14.365  1.00  0.00     0.005 C 
ENDBRANCH  18  19
ENDBRANCH  17  18
ENDBRANCH  16  17
BRANCH  16  21
HETATM   21  C21 UNL     1      69.988  56.833  17.994  1.00  0.00     0.306 C 
HETATM   22  O4  UNL     1      70.638  56.210  18.734  1.00  0.00    -0.258 OA
BRANCH  21  23
HETATM   23  O5  UNL     1      69.738  58.157  18.147  1.00  0.00    -0.306 OA
BRANCH  23  24
HETATM   24  C22 UNL     1      69.085  58.922  19.034  1.00  0.00     0.060 C 
HETATM   25  C23 UNL     1      69.930  59.314  20.224  1.00  0.00     0.046 C 
HETATM   26  C24 UNL     1      67.886  58.161  19.649  1.00  0.00     0.046 C 
HETATM   27  C25 UNL     1      68.491  60.129  18.341  1.00  0.00     0.046 C 
ENDBRANCH  23  24
ENDBRANCH  21  23
ENDBRANCH  16  21
ENDBRANCH  14  16
ENDBRANCH  13  14
BRANCH  13  28
HETATM   28  O1  UNL     1      71.147  57.432  13.928  1.00  0.00    -0.344 OA
ATOM     29  H1  UNL     1      72.057  57.271  13.707  1.00  0.00     0.219 HD
ENDBRANCH  13  28
ENDBRANCH   1  13
BRANCH   5  30
HETATM   30  N3  UNL     1      69.849  51.294  13.222  1.00  0.00    -0.363 NA
BRANCH  30  31
HETATM   31  C10 UNL     1      68.689  50.773  13.051  1.00  0.00     0.210 C 
BRANCH  31  32
HETATM   32  O2  UNL     1      68.072  51.746  12.137  1.00  0.00    -0.338 OA
ATOM     33  H2  UNL     1      67.160  51.479  12.172  1.00  0.00     0.220 HD
ENDBRANCH  31  32
BRANCH  31  34
HETATM   34  C11 UNL     1      67.669  49.792  13.271  1.00  0.00     0.221 C 
BRANCH  34  35
HETATM   35  N4  UNL     1      68.030  48.682  12.346  1.00  0.00    -0.386 N 
BRANCH  35  36
HETATM   36  C12 UNL     1      67.013  48.307  11.437  1.00  0.00     0.118 C 
HETATM   37  C13 UNL     1      65.705  48.904  11.819  1.00  0.00     0.026 C 
ENDBRANCH  35  36
BRANCH  35  38
HETATM   38  C14 UNL     1      69.103  47.871  12.612  1.00  0.00     0.054 C 
HETATM   39  C15 UNL     1      69.287  47.216  13.923  1.00  0.00     0.054 C 
ENDBRANCH  35  38
ENDBRANCH  34  35
ENDBRANCH  31  34
ENDBRANCH  30  31
ENDBRANCH   5  30
BRANCH   8  40
HETATM   40  N6  UNL     1      73.909  49.945  13.773  1.00  0.00    -0.350 NA
BRANCH  40  41
HETATM   41  C17 UNL     1      74.505  48.885  13.356  1.00  0.00     0.193 C 
BRANCH  41  42
HETATM   42  O3  UNL     1      75.205  48.805  12.251  1.00  0.00    -0.339 OA
ATOM     43  H3  UNL     1      76.144  48.931  12.193  1.00  0.00     0.220 HD
ENDBRANCH  41  42
BRANCH  41  44
HETATM   44  C18 UNL     1      74.438  47.606  14.161  1.00  0.00     0.096 C 
HETATM   45  C19 UNL     1      73.075  46.963  13.835  1.00  0.00     0.014 C 
ENDBRANCH  41  44
ENDBRANCH  40  41
ENDBRANCH   8  40
TORSDOF 21
ENDMDL
MODEL 5
REMARK VINA RESULT: -7.444271392      1.081      1.520
REMARK  21 active torsions:
REMARK  status: ('A' for Active; 'I' for Inactive)
REMARK    1  A    between atoms: C2_2  and  C3_3 
REMARK    2  A    between atoms: C3_3  and  C4_4 
REMARK    3  A    between atoms: C4_4  and  C5_5 
REMARK    4  A    between atoms: C5_5  and  N1_6 
REMARK    5  A    between atoms: C5_5  and  C21_39 
REMARK    6  A    between atoms: N1_6  and  C6_8 
REMARK    7  A    between atoms: C6_8  and  O1_9 
REMARK    8  A    between atoms: C6_8  and  C7_11 
REMARK    9  A    between atoms: C9_15  and  N3_16 
REMARK   10  A    between atoms: N3_16  and  C10_17 
REMARK   11  A    between atoms: C10_17  and  O2_18 
REMARK   12  A    between atoms: C10_17  and  C11_20 
REMARK   13  A    between atoms: C11_20  and  N4_21 
REMARK   14  A    between atoms: N4_21  and  C12_22 
REMARK   15  A    between atoms: N4_21  and  C14_24 
REMARK   16  A    between atoms: C16_28  and  N6_29 
REMARK   17  A    between atoms: N6_29  and  C17_30 
REMARK   18  A    between atoms: C17_30  and  O3_31 
REMARK   19  A    between atoms: C17_30  and  C18_33 
REMARK   20  A    between atoms: C21_39  and  O5_41 
REMARK   21  A    between atoms: O5_41  and  C22_42 
ROOT
HETATM    1  C7  UNL     1      71.573  55.274  16.123  1.00  0.00     0.128 A 
HETATM    2  N2  UNL     1      71.102  56.055  17.034  1.00  0.00    -0.341 N 
ATOM      3  H2  UNL     1      70.149  55.904  17.366  1.00  0.00     0.167 HD
HETATM    4  C8  UNL     1      71.819  57.060  17.564  1.00  0.00     0.126 A 
HETATM    5  C9  UNL     1      71.328  57.867  18.581  1.00  0.00     0.215 A 
HETATM    6  N5  UNL     1      72.240  58.817  19.074  1.00  0.00    -0.289 N 
ATOM      7  H5  UNL     1      71.923  59.417  19.835  1.00  0.00     0.172 HD
HETATM    8  C16 UNL     1      73.494  58.999  18.627  1.00  0.00     0.264 A 
HETATM    9  N7  UNL     1      73.884  58.214  17.634  1.00  0.00    -0.308 N 
ATOM     10  H7  UNL     1      74.820  58.330  17.246  1.00  0.00     0.170 HD
HETATM   11  C20 UNL     1      73.048  57.238  17.110  1.00  0.00     0.111 A 
HETATM   12  S1  UNL     1      73.203  56.008  15.949  1.00  0.00    -0.048 SA
ENDROOT
BRANCH   1  13
HETATM   13  C6  UNL     1      71.208  54.098  15.335  1.00  0.00     0.175 C 
BRANCH  13  14
HETATM   14  N1  UNL     1      71.440  53.842  13.941  1.00  0.00    -0.333 N 
ATOM     15  H1  UNL     1      71.677  54.571  13.268  1.00  0.00     0.168 HD
BRANCH  14  16
HETATM   16  C5  UNL     1      71.305  52.458  13.592  1.00  0.00     0.087 C 
BRANCH  16  17
HETATM   17  C4  UNL     1      72.406  51.624  13.238  1.00  0.00     0.063 C 
BRANCH  17  18
HETATM   18  C3  UNL     1      73.219  51.039  14.380  1.00  0.00     0.006 C 
BRANCH  18  19
HETATM   19  C2  UNL     1      73.243  49.483  14.309  1.00  0.00    -0.004 C 
HETATM   20  C1  UNL     1      74.541  49.143  13.545  1.00  0.00     0.005 C 
ENDBRANCH  18  19
ENDBRANCH  17  18
ENDBRANCH  16  17
BRANCH  16  21
HETATM   21  C21 UNL     1      70.030  52.298  12.699  1.00  0.00     0.306 C 
HETATM   22  O4  UNL     1      70.008  51.701  11.698  1.00  0.00    -0.258 OA
BRANCH  21  23
HETATM   23  O5  UNL     1      68.953  52.947  13.208  1.00  0.00    -0.306 OA
BRANCH  23  24
HETATM   24  C22 UNL     1      67.813  52.597  13.822  1.00  0.00     0.060 C 
HETATM   25  C23 UNL     1      67.923  51.304  14.598  1.00  0.00     0.046 C 
HETATM   26  C24 UNL     1      66.687  52.333  12.795  1.00  0.00     0.046 C 
HETATM   27  C25 UNL     1      67.320  53.735  14.688  1.00  0.00     0.046 C 
ENDBRANCH  23  24
ENDBRANCH  21  23
ENDBRANCH  16  21
ENDBRANCH  14  16
ENDBRANCH  13  14
BRANCH  13  28
HETATM   28  O1  UNL     1      70.552  53.213  16.027  1.00  0.00    -0.344 OA
ATOM     29  H1  UNL     1      70.585  52.305  15.748  1.00  0.00     0.219 HD
ENDBRANCH  13  28
ENDBRANCH   1  13
BRANCH   5  30
HETATM   30  N3  UNL     1      70.239  58.186  18.967  1.00  0.00    -0.363 NA
BRANCH  30  31
HETATM   31  C10 UNL     1      69.101  58.578  19.412  1.00  0.00     0.210 C 
BRANCH  31  32
HETATM   32  O2  UNL     1      68.221  57.505  18.927  1.00  0.00    -0.338 OA
ATOM     33  H2  UNL     1      67.703  57.969  18.280  1.00  0.00     0.220 HD
ENDBRANCH  31  32
BRANCH  31  34
HETATM   34  C11 UNL     1      68.222  59.481  20.093  1.00  0.00     0.221 C 
BRANCH  34  35
HETATM   35  N4  UNL     1      69.141  60.465  20.730  1.00  0.00    -0.386 N 
BRANCH  35  36
HETATM   36  C12 UNL     1      69.735  60.032  21.939  1.00  0.00     0.118 C 
HETATM   37  C13 UNL     1      69.251  60.836  23.093  1.00  0.00     0.026 C 
ENDBRANCH  35  36
BRANCH  35  38
HETATM   38  C14 UNL     1      69.112  61.787  20.368  1.00  0.00     0.054 C 
HETATM   39  C15 UNL     1      68.927  62.214  18.965  1.00  0.00     0.054 C 
ENDBRANCH  35  38
ENDBRANCH  34  35
ENDBRANCH  31  34
ENDBRANCH  30  31
ENDBRANCH   5  30
BRANCH   8  40
HETATM   40  N6  UNL     1      74.227  59.818  19.156  1.00  0.00    -0.350 NA
BRANCH  40  41
HETATM   41  C17 UNL     1      74.911  60.878  19.404  1.00  0.00     0.193 C 
BRANCH  41  42
HETATM   42  O3  UNL     1      75.978  61.252  18.742  1.00  0.00    -0.339 OA
ATOM     43  H3  UNL     1      76.821  60.815  18.778  1.00  0.00     0.220 HD
ENDBRANCH  41  42
BRANCH  41  44
HETATM   44  C18 UNL     1      74.501  61.805  20.527  1.00  0.00     0.096 C 
HETATM   45  C19 UNL     1      73.047  62.225  20.228  1.00  0.00     0.014 C 
ENDBRANCH  41  44
ENDBRANCH  40  41
ENDBRANCH   8  40
TORSDOF 21
ENDMDL
