MODEL 1
REMARK VINA RESULT: -8.831598589      0.000      0.000
REMARK  12 active torsions:
REMARK  status: ('A' for Active; 'I' for Inactive)
REMARK    1  A    between atoms: C2_2  and  C3_3 
REMARK    2  A    between atoms: C4_4  and  O1_5 
REMARK    3  A    between atoms: C8_11  and  C9_12 
REMARK    4  A    between atoms: C9_12  and  N2_13 
REMARK    5  A    between atoms: N2_13  and  C10_15 
REMARK    6  A    between atoms: C13_22  and  C14_23 
REMARK       I    between atoms: C14_23  and  N5_25 
REMARK    7  A    between atoms: N5_25  and  C15_27 
REMARK    8  A    between atoms: C15_27  and  C16_28 
REMARK    9  A    between atoms: C16_28  and  C17_29 
REMARK   10  A    between atoms: C17_29  and  N6_30 
REMARK   11  A    between atoms: N7_33  and  C20_34 
REMARK   12  A    between atoms: C25_39  and  C26_40 
ROOT
HETATM    1  C10 UNL     1      72.692  55.116  14.851  1.00  0.00     0.119 A 
HETATM    2  N3  UNL     1      73.710  54.784  14.032  1.00  0.00    -0.338 N 
ATOM      3  H3  UNL     1      74.556  55.353  13.994  1.00  0.00     0.168 HD
HETATM    4  C11 UNL     1      73.583  53.676  13.262  1.00  0.00     0.181 A 
HETATM    5  N4  UNL     1      72.453  52.954  13.339  1.00  0.00    -0.361 N 
ATOM      6  H4  UNL     1      72.377  52.126  12.749  1.00  0.00     0.166 HD
HETATM    7  C12 UNL     1      71.433  53.245  14.128  1.00  0.00     0.109 A 
HETATM    8  C13 UNL     1      71.524  54.384  14.947  1.00  0.00     0.091 A 
ENDROOT
BRANCH   1   9
HETATM    9  N2  UNL     1      72.746  56.205  15.528  1.00  0.00    -0.370 N 
ATOM     10  H2  UNL     1      72.143  56.984  15.265  1.00  0.00     0.161 HD
BRANCH   9  11
HETATM   11  C9  UNL     1      73.637  56.357  16.650  1.00  0.00     0.178 C 
BRANCH  11  12
HETATM   12  C8  UNL     1      73.025  57.392  17.574  1.00  0.00     0.028 A 
HETATM   13  N1  UNL     1      71.721  57.375  17.873  1.00  0.00    -0.357 N 
HETATM   14  C7  UNL     1      71.180  58.311  18.709  1.00  0.00     0.047 A 
ATOM     15  H1  UNL     1      71.123  56.653  17.472  1.00  0.00     0.166 HD
HETATM   16  C6  UNL     1      69.829  58.238  18.969  1.00  0.00     0.067 A 
HETATM   17  C27 UNL     1      71.968  59.318  19.277  1.00  0.00     0.014 A 
HETATM   18  C4  UNL     1      69.288  59.173  19.793  1.00  0.00     0.077 A 
HETATM   19  C3  UNL     1      70.037  60.172  20.365  1.00  0.00    -0.018 A 
HETATM   20  C28 UNL     1      71.416  60.274  20.115  1.00  0.00    -0.039 A 
HETATM   21  C29 UNL     1      72.120  61.420  20.704  1.00  0.00     0.050 C 
HETATM   22  C25 UNL     1      73.287  59.324  18.970  1.00  0.00     0.055 A 
HETATM   23  C24 UNL     1      73.842  58.347  18.099  1.00  0.00     0.046 A 
BRANCH  18  24
HETATM   24  O1  UNL     1      67.907  59.133  20.087  1.00  0.00    -0.355 OA
HETATM   25  C5  UNL     1      67.106  58.037  19.678  1.00  0.00     0.210 C 
ENDBRANCH  18  24
BRANCH  19  26
HETATM   26  C2  UNL     1      69.369  61.165  21.299  1.00  0.00     0.037 C 
HETATM   27  C1  UNL     1      69.307  60.678  22.704  1.00  0.00     0.010 C 
ENDBRANCH  19  26
BRANCH  22  28
HETATM   28  C26 UNL     1      74.248  60.213  19.574  1.00  0.00     0.210 C 
HETATM   29  O3  UNL     1      74.538  61.277  18.993  1.00  0.00    -0.644 OA
HETATM   30  O4  UNL     1      74.861  59.915  20.756  1.00  0.00    -0.644 OA
ENDBRANCH  22  28
ENDBRANCH  11  12
ENDBRANCH   9  11
ENDBRANCH   1   9
BRANCH   8  31
HETATM   31  C14 UNL     1      70.431  54.695  15.857  1.00  0.00     0.256 C 
HETATM   32  O2  UNL     1      70.641  54.504  17.098  1.00  0.00    -0.267 OA
HETATM   33  N5  UNL     1      69.201  55.189  15.378  1.00  0.00    -0.356 N 
ATOM     34  H5  UNL     1      69.046  55.360  14.384  1.00  0.00     0.162 HD
BRANCH  33  35
HETATM   35  C15 UNL     1      68.168  55.441  16.360  1.00  0.00     0.128 C 
BRANCH  35  36
HETATM   36  C16 UNL     1      66.970  54.563  16.241  1.00  0.00     0.064 C 
BRANCH  36  37
HETATM   37  C17 UNL     1      66.907  54.054  14.797  1.00  0.00     0.065 C 
BRANCH  37  38
HETATM   38  N6  UNL     1      66.824  52.688  14.639  1.00  0.00    -0.370 N 
HETATM   39  C18 UNL     1      67.839  51.808  14.984  1.00  0.00     0.093 C 
HETATM   40  C19 UNL     1      68.502  51.213  13.747  1.00  0.00     0.317 C 
HETATM   41  N7  UNL     1      67.583  50.839  12.720  1.00  0.00     0.094 N 
HETATM   42  C22 UNL     1      66.519  51.782  12.478  1.00  0.00     0.293 C 
HETATM   43  C23 UNL     1      65.830  52.131  13.802  1.00  0.00     0.157 C 
BRANCH  41  44
HETATM   44  C20 UNL     1      67.102  49.479  12.821  1.00  0.00     0.268 C 
HETATM   45  C21 UNL     1      66.110  49.147  11.714  1.00  0.00     0.037 C 
ENDBRANCH  41  44
ENDBRANCH  37  38
ENDBRANCH  36  37
ENDBRANCH  35  36
ENDBRANCH  33  35
ENDBRANCH   8  31
TORSDOF 12
ENDMDL
MODEL 2
REMARK VINA RESULT: -8.612404514      1.360      3.318
REMARK  12 active torsions:
REMARK  status: ('A' for Active; 'I' for Inactive)
REMARK    1  A    between atoms: C2_2  and  C3_3 
REMARK    2  A    between atoms: C4_4  and  O1_5 
REMARK    3  A    between atoms: C8_11  and  C9_12 
REMARK    4  A    between atoms: C9_12  and  N2_13 
REMARK    5  A    between atoms: N2_13  and  C10_15 
REMARK    6  A    between atoms: C13_22  and  C14_23 
REMARK       I    between atoms: C14_23  and  N5_25 
REMARK    7  A    between atoms: N5_25  and  C15_27 
REMARK    8  A    between atoms: C15_27  and  C16_28 
REMARK    9  A    between atoms: C16_28  and  C17_29 
REMARK   10  A    between atoms: C17_29  and  N6_30 
REMARK   11  A    between atoms: N7_33  and  C20_34 
REMARK   12  A    between atoms: C25_39  and  C26_40 
ROOT
HETATM    1  C10 UNL     1      72.218  54.112  14.698  1.00  0.00     0.119 A 
HETATM    2  N3  UNL     1      73.369  53.757  14.092  1.00  0.00    -0.338 N 
ATOM      3  H3  UNL     1      74.242  54.236  14.308  1.00  0.00     0.168 HD
HETATM    4  C11 UNL     1      73.335  52.746  13.190  1.00  0.00     0.181 A 
HETATM    5  N4  UNL     1      72.165  52.140  12.931  1.00  0.00    -0.361 N 
ATOM      6  H4  UNL     1      72.162  51.383  12.247  1.00  0.00     0.166 HD
HETATM    7  C12 UNL     1      71.017  52.458  13.503  1.00  0.00     0.109 A 
HETATM    8  C13 UNL     1      71.005  53.499  14.447  1.00  0.00     0.091 A 
ENDROOT
BRANCH   1   9
HETATM    9  N2  UNL     1      72.200  55.121  15.492  1.00  0.00    -0.370 N 
ATOM     10  H2  UNL     1      71.795  56.000  15.169  1.00  0.00     0.161 HD
BRANCH   9  11
HETATM   11  C9  UNL     1      72.736  55.046  16.826  1.00  0.00     0.178 C 
BRANCH  11  12
HETATM   12  C8  UNL     1      72.521  56.398  17.476  1.00  0.00     0.028 A 
HETATM   13  N1  UNL     1      73.541  57.237  17.692  1.00  0.00    -0.357 N 
HETATM   14  C7  UNL     1      73.337  58.456  18.276  1.00  0.00     0.047 A 
ATOM     15  H1  UNL     1      74.485  56.963  17.417  1.00  0.00     0.166 HD
HETATM   16  C6  UNL     1      74.433  59.267  18.475  1.00  0.00     0.067 A 
HETATM   17  C27 UNL     1      72.058  58.866  18.670  1.00  0.00     0.014 A 
HETATM   18  C4  UNL     1      74.232  60.474  19.063  1.00  0.00     0.077 A 
HETATM   19  C3  UNL     1      72.989  60.903  19.459  1.00  0.00    -0.018 A 
HETATM   20  C28 UNL     1      71.853  60.097  19.273  1.00  0.00    -0.039 A 
HETATM   21  C29 UNL     1      70.579  60.602  19.799  1.00  0.00     0.050 C 
HETATM   22  C25 UNL     1      71.032  58.011  18.443  1.00  0.00     0.055 A 
HETATM   23  C24 UNL     1      71.254  56.745  17.836  1.00  0.00     0.046 A 
BRANCH  18  24
HETATM   24  O1  UNL     1      75.328  61.337  19.284  1.00  0.00    -0.355 OA
HETATM   25  C5  UNL     1      76.600  60.823  19.643  1.00  0.00     0.210 C 
ENDBRANCH  18  24
BRANCH  19  26
HETATM   26  C2  UNL     1      72.837  62.279  20.084  1.00  0.00     0.037 C 
HETATM   27  C1  UNL     1      73.247  62.308  21.514  1.00  0.00     0.010 C 
ENDBRANCH  19  26
BRANCH  22  28
HETATM   28  C26 UNL     1      69.648  58.339  18.671  1.00  0.00     0.210 C 
HETATM   29  O3  UNL     1      69.083  57.907  19.695  1.00  0.00    -0.644 OA
HETATM   30  O4  UNL     1      68.932  59.096  17.790  1.00  0.00    -0.644 OA
ENDBRANCH  22  28
ENDBRANCH  11  12
ENDBRANCH   9  11
ENDBRANCH   1   9
BRANCH   8  31
HETATM   31  C14 UNL     1      69.759  53.834  15.122  1.00  0.00     0.256 C 
HETATM   32  O2  UNL     1      69.656  53.493  16.345  1.00  0.00    -0.267 OA
HETATM   33  N5  UNL     1      68.723  54.508  14.448  1.00  0.00    -0.356 N 
ATOM     34  H5  UNL     1      68.820  54.798  13.474  1.00  0.00     0.162 HD
BRANCH  33  35
HETATM   35  C15 UNL     1      67.513  54.771  15.198  1.00  0.00     0.128 C 
BRANCH  35  36
HETATM   36  C16 UNL     1      66.303  54.063  14.694  1.00  0.00     0.064 C 
BRANCH  36  37
HETATM   37  C17 UNL     1      66.735  53.182  13.517  1.00  0.00     0.065 C 
BRANCH  37  38
HETATM   38  N6  UNL     1      66.597  51.823  13.694  1.00  0.00    -0.370 N 
HETATM   39  C18 UNL     1      67.589  51.007  14.216  1.00  0.00     0.093 C 
HETATM   40  C19 UNL     1      68.188  50.105  13.142  1.00  0.00     0.317 C 
HETATM   41  N7  UNL     1      67.221  49.537  12.258  1.00  0.00     0.094 N 
HETATM   42  C22 UNL     1      66.184  50.441  11.822  1.00  0.00     0.293 C 
HETATM   43  C23 UNL     1      65.555  51.126  13.039  1.00  0.00     0.157 C 
BRANCH  41  44
HETATM   44  C20 UNL     1      66.693  48.263  12.695  1.00  0.00     0.268 C 
HETATM   45  C21 UNL     1      67.750  47.428  13.404  1.00  0.00     0.037 C 
ENDBRANCH  41  44
ENDBRANCH  37  38
ENDBRANCH  36  37
ENDBRANCH  35  36
ENDBRANCH  33  35
ENDBRANCH   8  31
TORSDOF 12
ENDMDL
MODEL 3
REMARK VINA RESULT: -8.457232789      2.571      8.986
REMARK  12 active torsions:
REMARK  status: ('A' for Active; 'I' for Inactive)
REMARK    1  A    between atoms: C2_2  and  C3_3 
REMARK    2  A    between atoms: C4_4  and  O1_5 
REMARK    3  A    between atoms: C8_11  and  C9_12 
REMARK    4  A    between atoms: C9_12  and  N2_13 
REMARK    5  A    between atoms: N2_13  and  C10_15 
REMARK    6  A    between atoms: C13_22  and  C14_23 
REMARK       I    between atoms: C14_23  and  N5_25 
REMARK    7  A    between atoms: N5_25  and  C15_27 
REMARK    8  A    between atoms: C15_27  and  C16_28 
REMARK    9  A    between atoms: C16_28  and  C17_29 
REMARK   10  A    between atoms: C17_29  and  N6_30 
REMARK   11  A    between atoms: N7_33  and  C20_34 
REMARK   12  A    between atoms: C25_39  and  C26_40 
ROOT
HETATM    1  C10 UNL     1      73.479  58.021  17.851  1.00  0.00     0.119 A 
HETATM    2  N3  UNL     1      74.730  58.075  18.348  1.00  0.00    -0.338 N 
ATOM      3  H3  UNL     1      75.512  57.661  17.840  1.00  0.00     0.168 HD
HETATM    4  C11 UNL     1      74.924  58.693  19.539  1.00  0.00     0.181 A 
HETATM    5  N4  UNL     1      73.869  59.223  20.178  1.00  0.00    -0.361 N 
ATOM      6  H4  UNL     1      74.037  59.682  21.074  1.00  0.00     0.166 HD
HETATM    7  C12 UNL     1      72.628  59.192  19.725  1.00  0.00     0.109 A 
HETATM    8  C13 UNL     1      72.381  58.564  18.492  1.00  0.00     0.091 A 
ENDROOT
BRANCH   1   9
HETATM    9  N2  UNL     1      73.249  57.369  16.769  1.00  0.00    -0.370 N 
ATOM     10  H2  UNL     1      72.591  57.751  16.089  1.00  0.00     0.161 HD
BRANCH   9  11
HETATM   11  C9  UNL     1      73.895  56.113  16.489  1.00  0.00     0.178 C 
BRANCH  11  12
HETATM   12  C8  UNL     1      72.892  55.243  15.759  1.00  0.00     0.028 A 
HETATM   13  N1  UNL     1      71.579  55.502  15.806  1.00  0.00    -0.357 N 
HETATM   14  C7  UNL     1      70.683  54.712  15.141  1.00  0.00     0.047 A 
ATOM     15  H1  UNL     1      71.244  56.300  16.345  1.00  0.00     0.166 HD
HETATM   16  C6  UNL     1      69.347  55.034  15.239  1.00  0.00     0.067 A 
HETATM   17  C27 UNL     1      71.105  53.607  14.393  1.00  0.00     0.014 A 
HETATM   18  C4  UNL     1      68.454  54.245  14.586  1.00  0.00     0.077 A 
HETATM   19  C3  UNL     1      68.839  53.155  13.844  1.00  0.00    -0.018 A 
HETATM   20  C28 UNL     1      70.194  52.800  13.730  1.00  0.00    -0.039 A 
HETATM   21  C29 UNL     1      70.505  51.575  12.984  1.00  0.00     0.050 C 
HETATM   22  C25 UNL     1      72.435  53.356  14.350  1.00  0.00     0.055 A 
HETATM   23  C24 UNL     1      73.360  54.182  15.044  1.00  0.00     0.046 A 
BRANCH  18  24
HETATM   24  O1  UNL     1      67.075  54.539  14.658  1.00  0.00    -0.355 OA
HETATM   25  C5  UNL     1      66.411  54.618  15.908  1.00  0.00     0.210 C 
ENDBRANCH  18  24
BRANCH  19  26
HETATM   26  C2  UNL     1      67.787  52.336  13.118  1.00  0.00     0.037 C 
HETATM   27  C1  UNL     1      67.178  51.289  13.981  1.00  0.00     0.010 C 
ENDBRANCH  19  26
BRANCH  22  28
HETATM   28  C26 UNL     1      73.033  52.339  13.522  1.00  0.00     0.210 C 
HETATM   29  O3  UNL     1      73.359  51.252  14.037  1.00  0.00    -0.644 OA
HETATM   30  O4  UNL     1      73.268  52.538  12.192  1.00  0.00    -0.644 OA
ENDBRANCH  22  28
ENDBRANCH  11  12
ENDBRANCH   9  11
ENDBRANCH   1   9
BRANCH   8  31
HETATM   31  C14 UNL     1      71.028  58.560  17.953  1.00  0.00     0.256 C 
HETATM   32  O2  UNL     1      70.488  57.424  17.760  1.00  0.00    -0.267 OA
HETATM   33  N5  UNL     1      70.353  59.763  17.667  1.00  0.00    -0.356 N 
ATOM     34  H5  UNL     1      70.784  60.671  17.845  1.00  0.00     0.162 HD
BRANCH  33  35
HETATM   35  C15 UNL     1      69.023  59.653  17.110  1.00  0.00     0.128 C 
BRANCH  35  36
HETATM   36  C16 UNL     1      67.983  60.450  17.820  1.00  0.00     0.064 C 
BRANCH  36  37
HETATM   37  C17 UNL     1      68.705  61.453  18.727  1.00  0.00     0.065 C 
BRANCH  37  38
HETATM   38  N6  UNL     1      68.561  61.257  20.082  1.00  0.00    -0.370 N 
HETATM   39  C18 UNL     1      69.167  62.048  21.046  1.00  0.00     0.093 C 
HETATM   40  C19 UNL     1      70.286  61.297  21.759  1.00  0.00     0.317 C 
HETATM   41  N7  UNL     1      69.962  59.944  22.081  1.00  0.00     0.094 N 
HETATM   42  C22 UNL     1      69.268  59.218  21.045  1.00  0.00     0.293 C 
HETATM   43  C23 UNL     1      68.058  60.028  20.571  1.00  0.00     0.157 C 
BRANCH  41  44
HETATM   44  C20 UNL     1      69.347  59.774  23.379  1.00  0.00     0.268 C 
HETATM   45  C21 UNL     1      69.938  60.723  24.413  1.00  0.00     0.037 C 
ENDBRANCH  41  44
ENDBRANCH  37  38
ENDBRANCH  36  37
ENDBRANCH  35  36
ENDBRANCH  33  35
ENDBRANCH   8  31
TORSDOF 12
ENDMDL
MODEL 4
REMARK VINA RESULT: -8.377253165      1.379      1.715
REMARK  12 active torsions:
REMARK  status: ('A' for Active; 'I' for Inactive)
REMARK    1  A    between atoms: C2_2  and  C3_3 
REMARK    2  A    between atoms: C4_4  and  O1_5 
REMARK    3  A    between atoms: C8_11  and  C9_12 
REMARK    4  A    between atoms: C9_12  and  N2_13 
REMARK    5  A    between atoms: N2_13  and  C10_15 
REMARK    6  A    between atoms: C13_22  and  C14_23 
REMARK       I    between atoms: C14_23  and  N5_25 
REMARK    7  A    between atoms: N5_25  and  C15_27 
REMARK    8  A    between atoms: C15_27  and  C16_28 
REMARK    9  A    between atoms: C16_28  and  C17_29 
REMARK   10  A    between atoms: C17_29  and  N6_30 
REMARK   11  A    between atoms: N7_33  and  C20_34 
REMARK   12  A    between atoms: C25_39  and  C26_40 
ROOT
HETATM    1  C10 UNL     1      72.565  55.351  15.421  1.00  0.00     0.119 A 
HETATM    2  N3  UNL     1      73.646  55.183  14.634  1.00  0.00    -0.338 N 
ATOM      3  H3  UNL     1      74.478  55.758  14.761  1.00  0.00     0.168 HD
HETATM    4  C11 UNL     1      73.599  54.232  13.669  1.00  0.00     0.181 A 
HETATM    5  N4  UNL     1      72.483  53.497  13.531  1.00  0.00    -0.361 N 
ATOM      6  H4  UNL     1      72.468  52.788  12.798  1.00  0.00     0.166 HD
HETATM    7  C12 UNL     1      71.404  53.629  14.282  1.00  0.00     0.109 A 
HETATM    8  C13 UNL     1      71.410  54.602  15.297  1.00  0.00     0.091 A 
ENDROOT
BRANCH   1   9
HETATM    9  N2  UNL     1      72.545  56.300  16.285  1.00  0.00    -0.370 N 
ATOM     10  H2  UNL     1      72.945  56.138  17.210  1.00  0.00     0.161 HD
BRANCH   9  11
HETATM   11  C9  UNL     1      71.975  57.588  15.985  1.00  0.00     0.178 C 
BRANCH  11  12
HETATM   12  C8  UNL     1      72.292  58.504  17.150  1.00  0.00     0.028 A 
HETATM   13  N1  UNL     1      71.334  59.214  17.759  1.00  0.00    -0.357 N 
HETATM   14  C7  UNL     1      71.630  60.036  18.810  1.00  0.00     0.047 A 
ATOM     15  H1  UNL     1      70.371  59.141  17.433  1.00  0.00     0.166 HD
HETATM   16  C6  UNL     1      70.596  60.743  19.385  1.00  0.00     0.067 A 
HETATM   17  C27 UNL     1      72.941  60.164  19.284  1.00  0.00     0.014 A 
HETATM   18  C4  UNL     1      70.891  61.566  20.424  1.00  0.00     0.077 A 
HETATM   19  C3  UNL     1      72.166  61.712  20.910  1.00  0.00    -0.018 A 
HETATM   20  C28 UNL     1      73.241  61.007  20.342  1.00  0.00    -0.039 A 
HETATM   21  C29 UNL     1      74.581  61.286  20.873  1.00  0.00     0.050 C 
HETATM   22  C25 UNL     1      73.901  59.439  18.663  1.00  0.00     0.055 A 
HETATM   23  C24 UNL     1      73.585  58.587  17.569  1.00  0.00     0.046 A 
BRANCH  18  24
HETATM   24  O1  UNL     1      69.861  62.308  21.044  1.00  0.00    -0.355 OA
HETATM   25  C5  UNL     1      68.760  61.657  21.656  1.00  0.00     0.210 C 
ENDBRANCH  18  24
BRANCH  19  26
HETATM   26  C2  UNL     1      72.415  62.629  22.095  1.00  0.00     0.037 C 
HETATM   27  C1  UNL     1      71.971  62.034  23.384  1.00  0.00     0.010 C 
ENDBRANCH  19  26
BRANCH  22  28
HETATM   28  C26 UNL     1      75.268  59.363  19.114  1.00  0.00     0.210 C 
HETATM   29  O3  UNL     1      76.117  60.117  18.601  1.00  0.00    -0.644 OA
HETATM   30  O4  UNL     1      75.662  58.479  20.076  1.00  0.00    -0.644 OA
ENDBRANCH  22  28
ENDBRANCH  11  12
ENDBRANCH   9  11
ENDBRANCH   1   9
BRANCH   8  31
HETATM   31  C14 UNL     1      70.247  54.732  16.164  1.00  0.00     0.256 C 
HETATM   32  O2  UNL     1      70.414  54.458  17.396  1.00  0.00    -0.267 OA
HETATM   33  N5  UNL     1      69.001  55.148  15.656  1.00  0.00    -0.356 N 
ATOM     34  H5  UNL     1      68.879  55.387  14.672  1.00  0.00     0.162 HD
BRANCH  33  35
HETATM   35  C15 UNL     1      67.901  55.220  16.594  1.00  0.00     0.128 C 
BRANCH  35  36
HETATM   36  C16 UNL     1      66.662  54.520  16.153  1.00  0.00     0.064 C 
BRANCH  36  37
HETATM   37  C17 UNL     1      66.899  54.005  14.729  1.00  0.00     0.065 C 
BRANCH  37  38
HETATM   38  N6  UNL     1      66.878  52.638  14.568  1.00  0.00    -0.370 N 
HETATM   39  C18 UNL     1      67.946  51.807  14.873  1.00  0.00     0.093 C 
HETATM   40  C19 UNL     1      68.594  51.249  13.610  1.00  0.00     0.317 C 
HETATM   41  N7  UNL     1      67.658  50.834  12.615  1.00  0.00     0.094 N 
HETATM   42  C22 UNL     1      66.541  51.724  12.415  1.00  0.00     0.293 C 
HETATM   43  C23 UNL     1      65.883  52.035  13.763  1.00  0.00     0.157 C 
BRANCH  41  44
HETATM   44  C20 UNL     1      67.248  49.451  12.726  1.00  0.00     0.268 C 
HETATM   45  C21 UNL     1      66.137  49.110  11.742  1.00  0.00     0.037 C 
ENDBRANCH  41  44
ENDBRANCH  37  38
ENDBRANCH  36  37
ENDBRANCH  35  36
ENDBRANCH  33  35
ENDBRANCH   8  31
TORSDOF 12
ENDMDL
MODEL 5
REMARK VINA RESULT: -8.308903094      2.223      4.719
REMARK  12 active torsions:
REMARK  status: ('A' for Active; 'I' for Inactive)
REMARK    1  A    between atoms: C2_2  and  C3_3 
REMARK    2  A    between atoms: C4_4  and  O1_5 
REMARK    3  A    between atoms: C8_11  and  C9_12 
REMARK    4  A    between atoms: C9_12  and  N2_13 
REMARK    5  A    between atoms: N2_13  and  C10_15 
REMARK    6  A    between atoms: C13_22  and  C14_23 
REMARK       I    between atoms: C14_23  and  N5_25 
REMARK    7  A    between atoms: N5_25  and  C15_27 
REMARK    8  A    between atoms: C15_27  and  C16_28 
REMARK    9  A    between atoms: C16_28  and  C17_29 
REMARK   10  A    between atoms: C17_29  and  N6_30 
REMARK   11  A    between atoms: N7_33  and  C20_34 
REMARK   12  A    between atoms: C25_39  and  C26_40 
ROOT
HETATM    1  C10 UNL     1      72.438  51.945  13.469  1.00  0.00     0.119 A 
HETATM    2  N3  UNL     1      73.583  51.376  13.896  1.00  0.00    -0.338 N 
ATOM      3  H3  UNL     1      74.434  51.929  13.999  1.00  0.00     0.168 HD
HETATM    4  C11 UNL     1      73.575  50.052  14.184  1.00  0.00     0.181 A 
HETATM    5  N4  UNL     1      72.435  49.357  14.033  1.00  0.00    -0.361 N 
ATOM      6  H4  UNL     1      72.451  48.362  14.253  1.00  0.00     0.166 HD
HETATM    7  C12 UNL     1      71.293  49.878  13.619  1.00  0.00     0.109 A 
HETATM    8  C13 UNL     1      71.255  51.249  13.311  1.00  0.00     0.091 A 
ENDROOT
BRANCH   1   9
HETATM    9  N2  UNL     1      72.434  53.177  13.106  1.00  0.00    -0.370 N 
ATOM     10  H2  UNL     1      71.771  53.483  12.394  1.00  0.00     0.161 HD
BRANCH   9  11
HETATM   11  C9  UNL     1      73.341  54.139  13.678  1.00  0.00     0.178 C 
BRANCH  11  12
HETATM   12  C8  UNL     1      72.567  54.924  14.719  1.00  0.00     0.028 A 
HETATM   13  N1  UNL     1      73.180  55.782  15.542  1.00  0.00    -0.357 N 
HETATM   14  C7  UNL     1      72.473  56.486  16.476  1.00  0.00     0.047 A 
ATOM     15  H1  UNL     1      74.190  55.911  15.472  1.00  0.00     0.166 HD
HETATM   16  C6  UNL     1      73.170  57.347  17.296  1.00  0.00     0.067 A 
HETATM   17  C27 UNL     1      71.088  56.334  16.604  1.00  0.00     0.014 A 
HETATM   18  C4  UNL     1      72.470  58.042  18.230  1.00  0.00     0.077 A 
HETATM   19  C3  UNL     1      71.111  57.913  18.378  1.00  0.00    -0.018 A 
HETATM   20  C28 UNL     1      70.374  57.040  17.560  1.00  0.00    -0.039 A 
HETATM   21  C29 UNL     1      68.940  56.906  17.842  1.00  0.00     0.050 C 
HETATM   22  C25 UNL     1      70.477  55.465  15.763  1.00  0.00     0.055 A 
HETATM   23  C24 UNL     1      71.220  54.735  14.796  1.00  0.00     0.046 A 
BRANCH  18  24
HETATM   24  O1  UNL     1      73.144  58.937  19.090  1.00  0.00    -0.355 OA
HETATM   25  C5  UNL     1      74.173  58.482  19.952  1.00  0.00     0.210 C 
ENDBRANCH  18  24
BRANCH  19  26
HETATM   26  C2  UNL     1      70.391  58.744  19.425  1.00  0.00     0.037 C 
HETATM   27  C1  UNL     1      69.992  60.085  18.919  1.00  0.00     0.010 C 
ENDBRANCH  19  26
BRANCH  22  28
HETATM   28  C26 UNL     1      69.048  55.296  15.684  1.00  0.00     0.210 C 
HETATM   29  O3  UNL     1      68.379  56.103  15.010  1.00  0.00    -0.644 OA
HETATM   30  O4  UNL     1      68.405  54.286  16.339  1.00  0.00    -0.644 OA
ENDBRANCH  22  28
ENDBRANCH  11  12
ENDBRANCH   9  11
ENDBRANCH   1   9
BRANCH   8  31
HETATM   31  C14 UNL     1      69.995  51.851  12.897  1.00  0.00     0.256 C 
HETATM   32  O2  UNL     1      69.884  52.170  11.670  1.00  0.00    -0.267 OA
HETATM   33  N5  UNL     1      68.950  52.061  13.818  1.00  0.00    -0.356 N 
ATOM     34  H5  UNL     1      69.037  51.783  14.796  1.00  0.00     0.162 HD
BRANCH  33  35
HETATM   35  C15 UNL     1      67.748  52.690  13.315  1.00  0.00     0.128 C 
BRANCH  35  36
HETATM   36  C16 UNL     1      66.514  51.865  13.445  1.00  0.00     0.064 C 
BRANCH  36  37
HETATM   37  C17 UNL     1      66.446  50.932  12.232  1.00  0.00     0.065 C 
BRANCH  37  38
HETATM   38  N6  UNL     1      66.529  49.583  12.500  1.00  0.00    -0.370 N 
HETATM   39  C18 UNL     1      67.585  48.993  13.178  1.00  0.00     0.093 C 
HETATM   40  C19 UNL     1      68.447  48.154  12.241  1.00  0.00     0.317 C 
HETATM   41  N7  UNL     1      67.698  47.369  11.313  1.00  0.00     0.094 N 
HETATM   42  C22 UNL     1      66.573  48.041  10.709  1.00  0.00     0.293 C 
HETATM   43  C23 UNL     1      65.703  48.671  11.802  1.00  0.00     0.157 C 
BRANCH  41  44
HETATM   44  C20 UNL     1      67.356  46.047  11.794  1.00  0.00     0.268 C 
HETATM   45  C21 UNL     1      68.531  45.380  12.495  1.00  0.00     0.037 C 
ENDBRANCH  41  44
ENDBRANCH  37  38
ENDBRANCH  36  37
ENDBRANCH  35  36
ENDBRANCH  33  35
ENDBRANCH   8  31
TORSDOF 12
ENDMDL
