MODEL 1
REMARK VINA RESULT: -7.350220894      0.000      0.000
REMARK  16 active torsions:
REMARK  status: ('A' for Active; 'I' for Inactive)
REMARK    1  A    between atoms: C2_2  and  N1_3 
REMARK    2  A    between atoms: N1_3  and  C3_4 
REMARK    3  A    between atoms: N1_3  and  C5_6 
REMARK    4  A    between atoms: C5_6  and  C6_7 
REMARK    5  A    between atoms: C6_7  and  N2_8 
REMARK    6  A    between atoms: N2_8  and  C7_9 
REMARK    7  A    between atoms: N2_8  and  C26_44 
REMARK    8  A    between atoms: N3_10  and  C8_12 
REMARK    9  A    between atoms: C8_12  and  O1_13 
REMARK   10  A    between atoms: N4_15  and  C9_17 
REMARK   11  A    between atoms: C16_27  and  O2_29 
REMARK   12  A    between atoms: C20_33  and  O3_34 
REMARK   13  A    between atoms: C23_38  and  O4_39 
REMARK   14  A    between atoms: C26_44  and  C27_45 
REMARK   15  A    between atoms: C27_45  and  C28_46 
REMARK   16  A    between atoms: C28_46  and  N8_47 
ROOT
HETATM    1  C9  UNL     1      71.704  59.094  18.896  1.00  0.00     0.138 C 
HETATM    2  C10 UNL     1      72.913  59.833  18.318  1.00  0.00     0.032 C 
HETATM    3  C11 UNL     1      74.076  59.921  19.246  1.00  0.00     0.004 C 
HETATM    4  C12 UNL     1      74.284  61.386  19.612  1.00  0.00     0.027 C 
HETATM    5  C13 UNL     1      74.956  61.479  20.957  1.00  0.00     0.233 C 
HETATM    6  N5  UNL     1      74.280  62.463  21.744  1.00  0.00    -0.068 N 
ATOM      7  H51 UNL     1      73.384  62.706  21.321  1.00  0.00     0.277 HD
ATOM      8  H52 UNL     1      74.753  63.364  21.675  1.00  0.00     0.277 HD
HETATM    9  C14 UNL     1      74.100  62.090  23.136  1.00  0.00     0.222 C 
HETATM   10  C15 UNL     1      75.426  61.554  23.624  1.00  0.00     0.043 C 
HETATM   11  C16 UNL     1      73.646  63.263  23.997  1.00  0.00     0.128 C 
HETATM   12  C17 UNL     1      74.582  64.418  23.639  1.00  0.00     0.055 C 
HETATM   13  C19 UNL     1      72.209  63.654  23.660  1.00  0.00     0.198 C 
HETATM   14  N6  UNL     1      71.465  62.792  23.312  1.00  0.00    -0.392 NA
HETATM   15  C20 UNL     1      70.470  61.973  22.899  1.00  0.00     0.240 C 
HETATM   16  C21 UNL     1      70.454  61.169  21.614  1.00  0.00     0.101 A 
HETATM   17  C22 UNL     1      69.393  61.316  20.701  1.00  0.00     0.074 A 
HETATM   18  C23 UNL     1      69.711  60.551  19.615  1.00  0.00     0.095 A 
HETATM   19  C25 UNL     1      70.963  59.957  19.899  1.00  0.00     0.066 A 
HETATM   20  N7  UNL     1      71.377  60.348  21.116  1.00  0.00    -0.351 N 
ATOM     21  H7  UNL     1      72.243  60.067  21.575  1.00  0.00     0.166 HD
ENDROOT
BRANCH   1  22
HETATM   22  N4  UNL     1      71.943  57.755  19.276  1.00  0.00    -0.346 N 
HETATM   23  C8  UNL     1      71.656  56.668  18.712  1.00  0.00     0.218 C 
ATOM     24  H4  UNL     1      72.435  57.651  20.163  1.00  0.00     0.163 HD
BRANCH  23  25
HETATM   25  N3  UNL     1      70.968  56.633  17.460  1.00  0.00    -0.319 N 
HETATM   26  C7  UNL     1      70.341  55.544  17.087  1.00  0.00     0.181 C 
ATOM     27  H3  UNL     1      70.965  57.455  16.856  1.00  0.00     0.170 HD
BRANCH  26  28
HETATM   28  N2  UNL     1      69.646  55.472  15.855  1.00  0.00    -0.375 N 
BRANCH  28  29
HETATM   29  C6  UNL     1      70.396  55.324  14.592  1.00  0.00     0.154 C 
BRANCH  29  30
HETATM   30  C5  UNL     1      71.424  54.234  14.844  1.00  0.00     0.292 C 
BRANCH  30  31
HETATM   31  N1  UNL     1      72.740  54.557  14.395  1.00  0.00     0.089 N 
BRANCH  31  32
HETATM   32  C2  UNL     1      73.439  53.530  13.689  1.00  0.00     0.268 C 
HETATM   33  C1  UNL     1      72.595  52.365  13.254  1.00  0.00     0.037 C 
ENDBRANCH  31  32
BRANCH  31  34
HETATM   34  C3  UNL     1      73.572  55.053  15.478  1.00  0.00     0.268 C 
HETATM   35  C4  UNL     1      73.766  53.925  16.470  1.00  0.00     0.037 C 
ENDBRANCH  31  34
ENDBRANCH  30  31
ENDBRANCH  29  30
ENDBRANCH  28  29
BRANCH  28  36
HETATM   36  C26 UNL     1      68.221  55.599  15.770  1.00  0.00     0.125 C 
BRANCH  36  37
HETATM   37  C27 UNL     1      67.412  54.512  16.397  1.00  0.00     0.047 C 
BRANCH  37  38
HETATM   38  C28 UNL     1      67.500  53.236  15.634  1.00  0.00     0.231 C 
BRANCH  38  39
HETATM   39  N8  UNL     1      68.222  52.214  16.428  1.00  0.00    -0.079 N 
ATOM     40  H83 UNL     1      68.234  52.443  17.423  1.00  0.00     0.274 HD
ATOM     41  H82 UNL     1      67.704  51.338  16.482  1.00  0.00     0.274 HD
ATOM     42  H81 UNL     1      69.162  52.080  16.056  1.00  0.00     0.274 HD
ENDBRANCH  38  39
ENDBRANCH  37  38
ENDBRANCH  36  37
ENDBRANCH  28  36
ENDBRANCH  26  28
ENDBRANCH  23  25
BRANCH  23  43
HETATM   43  O1  UNL     1      72.001  55.441  19.289  1.00  0.00    -0.333 OA
ATOM     44  H1  UNL     1      72.210  55.439  20.216  1.00  0.00     0.220 HD
ENDBRANCH  23  43
ENDBRANCH   1  22
BRANCH  18  45
HETATM   45  O4  UNL     1      68.939  60.394  18.453  1.00  0.00    -0.354 OA
HETATM   46  C24 UNL     1      68.396  59.126  18.188  1.00  0.00     0.210 C 
ENDBRANCH  18  45
BRANCH  15  47
HETATM   47  O3  UNL     1      69.410  61.850  23.668  1.00  0.00    -0.334 OA
ATOM     48  H3  UNL     1      68.588  61.607  23.259  1.00  0.00     0.220 HD
ENDBRANCH  15  47
BRANCH  11  49
HETATM   49  O2  UNL     1      73.848  62.955  25.296  1.00  0.00    -0.377 OA
HETATM   50  C18 UNL     1      73.540  63.869  26.245  1.00  0.00     0.203 C 
ENDBRANCH  11  49
TORSDOF 16
ENDMDL
MODEL 2
REMARK VINA RESULT: -7.283023167      0.789      1.262
REMARK  16 active torsions:
REMARK  status: ('A' for Active; 'I' for Inactive)
REMARK    1  A    between atoms: C2_2  and  N1_3 
REMARK    2  A    between atoms: N1_3  and  C3_4 
REMARK    3  A    between atoms: N1_3  and  C5_6 
REMARK    4  A    between atoms: C5_6  and  C6_7 
REMARK    5  A    between atoms: C6_7  and  N2_8 
REMARK    6  A    between atoms: N2_8  and  C7_9 
REMARK    7  A    between atoms: N2_8  and  C26_44 
REMARK    8  A    between atoms: N3_10  and  C8_12 
REMARK    9  A    between atoms: C8_12  and  O1_13 
REMARK   10  A    between atoms: N4_15  and  C9_17 
REMARK   11  A    between atoms: C16_27  and  O2_29 
REMARK   12  A    between atoms: C20_33  and  O3_34 
REMARK   13  A    between atoms: C23_38  and  O4_39 
REMARK   14  A    between atoms: C26_44  and  C27_45 
REMARK   15  A    between atoms: C27_45  and  C28_46 
REMARK   16  A    between atoms: C28_46  and  N8_47 
ROOT
HETATM    1  C9  UNL     1      71.597  58.864  18.798  1.00  0.00     0.138 C 
HETATM    2  C10 UNL     1      72.806  59.560  18.170  1.00  0.00     0.032 C 
HETATM    3  C11 UNL     1      73.994  59.649  19.067  1.00  0.00     0.004 C 
HETATM    4  C12 UNL     1      74.242  61.119  19.385  1.00  0.00     0.027 C 
HETATM    5  C13 UNL     1      74.950  61.235  20.710  1.00  0.00     0.233 C 
HETATM    6  N5  UNL     1      74.314  62.256  21.485  1.00  0.00    -0.068 N 
ATOM      7  H51 UNL     1      73.413  62.506  21.077  1.00  0.00     0.277 HD
ATOM      8  H52 UNL     1      74.805  63.144  21.378  1.00  0.00     0.277 HD
HETATM    9  C14 UNL     1      74.161  61.926  22.892  1.00  0.00     0.222 C 
HETATM   10  C15 UNL     1      75.487  61.375  23.362  1.00  0.00     0.043 C 
HETATM   11  C16 UNL     1      73.753  63.132  23.729  1.00  0.00     0.128 C 
HETATM   12  C17 UNL     1      74.704  64.256  23.315  1.00  0.00     0.055 C 
HETATM   13  C19 UNL     1      72.317  63.545  23.415  1.00  0.00     0.198 C 
HETATM   14  N6  UNL     1      71.547  62.690  23.111  1.00  0.00    -0.392 NA
HETATM   15  C20 UNL     1      70.524  61.881  22.745  1.00  0.00     0.240 C 
HETATM   16  C21 UNL     1      70.460  61.042  21.486  1.00  0.00     0.101 A 
HETATM   17  C22 UNL     1      69.379  61.187  20.594  1.00  0.00     0.074 A 
HETATM   18  C23 UNL     1      69.654  60.384  19.524  1.00  0.00     0.095 A 
HETATM   19  C25 UNL     1      70.900  59.771  19.795  1.00  0.00     0.066 A 
HETATM   20  N7  UNL     1      71.352  60.188  20.989  1.00  0.00    -0.351 N 
ATOM     21  H7  UNL     1      72.223  59.901  21.435  1.00  0.00     0.166 HD
ENDROOT
BRANCH   1  22
HETATM   22  N4  UNL     1      71.817  57.531  19.211  1.00  0.00    -0.346 N 
HETATM   23  C8  UNL     1      71.604  56.436  18.630  1.00  0.00     0.218 C 
ATOM     24  H4  UNL     1      72.220  57.441  20.144  1.00  0.00     0.163 HD
BRANCH  23  25
HETATM   25  N3  UNL     1      71.045  56.383  17.316  1.00  0.00    -0.319 N 
HETATM   26  C7  UNL     1      70.167  55.458  17.015  1.00  0.00     0.181 C 
ATOM     27  H3  UNL     1      71.330  57.064  16.612  1.00  0.00     0.170 HD
BRANCH  26  28
HETATM   28  N2  UNL     1      69.589  55.374  15.725  1.00  0.00    -0.375 N 
BRANCH  28  29
HETATM   29  C6  UNL     1      70.418  54.985  14.568  1.00  0.00     0.154 C 
BRANCH  29  30
HETATM   30  C5  UNL     1      70.750  53.516  14.769  1.00  0.00     0.292 C 
BRANCH  30  31
HETATM   31  N1  UNL     1      72.133  53.257  15.011  1.00  0.00     0.089 N 
BRANCH  31  32
HETATM   32  C2  UNL     1      73.038  54.321  14.711  1.00  0.00     0.268 C 
HETATM   33  C1  UNL     1      73.969  54.703  15.827  1.00  0.00     0.037 C 
ENDBRANCH  31  32
BRANCH  31  34
HETATM   34  C3  UNL     1      72.577  52.042  14.350  1.00  0.00     0.268 C 
HETATM   35  C4  UNL     1      73.065  52.416  12.965  1.00  0.00     0.037 C 
ENDBRANCH  31  34
ENDBRANCH  30  31
ENDBRANCH  29  30
ENDBRANCH  28  29
BRANCH  28  36
HETATM   36  C26 UNL     1      68.218  55.715  15.475  1.00  0.00     0.125 C 
BRANCH  36  37
HETATM   37  C27 UNL     1      67.193  54.708  15.877  1.00  0.00     0.047 C 
BRANCH  37  38
HETATM   38  C28 UNL     1      66.998  53.660  14.835  1.00  0.00     0.231 C 
BRANCH  38  39
HETATM   39  N8  UNL     1      65.694  53.852  14.157  1.00  0.00    -0.079 N 
ATOM     40  H83 UNL     1      64.964  54.140  14.808  1.00  0.00     0.274 HD
ATOM     41  H82 UNL     1      65.695  54.676  13.557  1.00  0.00     0.274 HD
ATOM     42  H81 UNL     1      65.438  53.008  13.645  1.00  0.00     0.274 HD
ENDBRANCH  38  39
ENDBRANCH  37  38
ENDBRANCH  36  37
ENDBRANCH  28  36
ENDBRANCH  26  28
ENDBRANCH  23  25
BRANCH  23  43
HETATM   43  O1  UNL     1      71.908  55.219  19.248  1.00  0.00    -0.333 OA
ATOM     44  H1  UNL     1      72.809  55.078  19.513  1.00  0.00     0.220 HD
ENDBRANCH  23  43
ENDBRANCH   1  22
BRANCH  18  45
HETATM   45  O4  UNL     1      68.850  60.212  18.385  1.00  0.00    -0.354 OA
HETATM   46  C24 UNL     1      68.318  58.934  18.141  1.00  0.00     0.210 C 
ENDBRANCH  18  45
BRANCH  15  47
HETATM   47  O3  UNL     1      69.482  61.804  23.543  1.00  0.00    -0.334 OA
ATOM     48  H3  UNL     1      69.136  60.942  23.743  1.00  0.00     0.220 HD
ENDBRANCH  15  47
BRANCH  11  49
HETATM   49  O2  UNL     1      73.982  62.857  25.031  1.00  0.00    -0.377 OA
HETATM   50  C18 UNL     1      73.829  63.840  25.948  1.00  0.00     0.203 C 
ENDBRANCH  11  49
TORSDOF 16
ENDMDL
MODEL 3
REMARK VINA RESULT: -7.156302125      2.206      5.033
REMARK  16 active torsions:
REMARK  status: ('A' for Active; 'I' for Inactive)
REMARK    1  A    between atoms: C2_2  and  N1_3 
REMARK    2  A    between atoms: N1_3  and  C3_4 
REMARK    3  A    between atoms: N1_3  and  C5_6 
REMARK    4  A    between atoms: C5_6  and  C6_7 
REMARK    5  A    between atoms: C6_7  and  N2_8 
REMARK    6  A    between atoms: N2_8  and  C7_9 
REMARK    7  A    between atoms: N2_8  and  C26_44 
REMARK    8  A    between atoms: N3_10  and  C8_12 
REMARK    9  A    between atoms: C8_12  and  O1_13 
REMARK   10  A    between atoms: N4_15  and  C9_17 
REMARK   11  A    between atoms: C16_27  and  O2_29 
REMARK   12  A    between atoms: C20_33  and  O3_34 
REMARK   13  A    between atoms: C23_38  and  O4_39 
REMARK   14  A    between atoms: C26_44  and  C27_45 
REMARK   15  A    between atoms: C27_45  and  C28_46 
REMARK   16  A    between atoms: C28_46  and  N8_47 
ROOT
HETATM    1  C9  UNL     1      71.838  58.415  18.319  1.00  0.00     0.138 C 
HETATM    2  C10 UNL     1      70.796  57.528  19.005  1.00  0.00     0.032 C 
HETATM    3  C11 UNL     1      69.487  58.200  19.246  1.00  0.00     0.004 C 
HETATM    4  C12 UNL     1      69.288  58.329  20.752  1.00  0.00     0.027 C 
HETATM    5  C13 UNL     1      68.384  59.499  21.041  1.00  0.00     0.233 C 
HETATM    6  N5  UNL     1      68.952  60.269  22.106  1.00  0.00    -0.068 N 
ATOM      7  H51 UNL     1      69.921  59.997  22.267  1.00  0.00     0.277 HD
ATOM      8  H52 UNL     1      68.545  59.997  23.001  1.00  0.00     0.277 HD
HETATM    9  C14 UNL     1      68.852  61.706  21.918  1.00  0.00     0.222 C 
HETATM   10  C15 UNL     1      67.433  61.996  21.486  1.00  0.00     0.043 C 
HETATM   11  C16 UNL     1      69.197  62.481  23.185  1.00  0.00     0.128 C 
HETATM   12  C17 UNL     1      68.403  61.807  24.305  1.00  0.00     0.055 C 
HETATM   13  C19 UNL     1      70.690  62.376  23.490  1.00  0.00     0.198 C 
HETATM   14  N6  UNL     1      71.441  62.289  22.571  1.00  0.00    -0.392 NA
HETATM   15  C20 UNL     1      72.453  62.180  21.678  1.00  0.00     0.240 C 
HETATM   16  C21 UNL     1      72.665  61.035  20.709  1.00  0.00     0.101 A 
HETATM   17  C22 UNL     1      73.884  60.328  20.705  1.00  0.00     0.074 A 
HETATM   18  C23 UNL     1      73.734  59.309  19.809  1.00  0.00     0.095 A 
HETATM   19  C25 UNL     1      72.423  59.423  19.290  1.00  0.00     0.066 A 
HETATM   20  N7  UNL     1      71.811  60.478  19.852  1.00  0.00    -0.351 N 
ATOM     21  H7  UNL     1      70.862  60.797  19.657  1.00  0.00     0.166 HD
ENDROOT
BRANCH   1  22
HETATM   22  N4  UNL     1      71.465  58.910  17.050  1.00  0.00    -0.346 N 
HETATM   23  C8  UNL     1      71.497  58.379  15.910  1.00  0.00     0.218 C 
ATOM     24  H4  UNL     1      71.109  59.865  17.059  1.00  0.00     0.163 HD
BRANCH  23  25
HETATM   25  N3  UNL     1      71.967  57.043  15.719  1.00  0.00    -0.319 N 
HETATM   26  C7  UNL     1      71.276  56.203  14.988  1.00  0.00     0.181 C 
ATOM     27  H3  UNL     1      72.841  56.743  16.151  1.00  0.00     0.170 HD
BRANCH  26  28
HETATM   28  N2  UNL     1      71.711  54.873  14.774  1.00  0.00    -0.375 N 
BRANCH  28  29
HETATM   29  C6  UNL     1      70.813  53.743  15.083  1.00  0.00     0.154 C 
BRANCH  29  30
HETATM   30  C5  UNL     1      69.586  53.935  14.208  1.00  0.00     0.292 C 
BRANCH  30  31
HETATM   31  N1  UNL     1      68.367  54.091  14.935  1.00  0.00     0.089 N 
BRANCH  31  32
HETATM   32  C2  UNL     1      68.485  54.176  16.356  1.00  0.00     0.268 C 
HETATM   33  C1  UNL     1      68.169  55.522  16.945  1.00  0.00     0.037 C 
ENDBRANCH  31  32
BRANCH  31  34
HETATM   34  C3  UNL     1      67.399  53.065  14.589  1.00  0.00     0.268 C 
HETATM   35  C4  UNL     1      66.046  53.730  14.446  1.00  0.00     0.037 C 
ENDBRANCH  31  34
ENDBRANCH  30  31
ENDBRANCH  29  30
ENDBRANCH  28  29
BRANCH  28  36
HETATM   36  C26 UNL     1      73.034  54.563  14.315  1.00  0.00     0.125 C 
BRANCH  36  37
HETATM   37  C27 UNL     1      73.807  53.570  15.116  1.00  0.00     0.047 C 
BRANCH  37  38
HETATM   38  C28 UNL     1      74.440  54.187  16.316  1.00  0.00     0.231 C 
BRANCH  38  39
HETATM   39  N8  UNL     1      75.880  53.842  16.368  1.00  0.00    -0.079 N 
ATOM     40  H83 UNL     1      76.278  53.723  15.436  1.00  0.00     0.274 HD
ATOM     41  H82 UNL     1      76.450  54.630  16.674  1.00  0.00     0.274 HD
ATOM     42  H81 UNL     1      76.022  53.018  16.952  1.00  0.00     0.274 HD
ENDBRANCH  38  39
ENDBRANCH  37  38
ENDBRANCH  36  37
ENDBRANCH  28  36
ENDBRANCH  26  28
ENDBRANCH  23  25
BRANCH  23  43
HETATM   43  O1  UNL     1      71.069  59.077  14.776  1.00  0.00    -0.333 OA
ATOM     44  H1  UNL     1      70.301  59.629  14.868  1.00  0.00     0.220 HD
ENDBRANCH  23  43
ENDBRANCH   1  22
BRANCH  18  45
HETATM   45  O4  UNL     1      74.699  58.344  19.478  1.00  0.00    -0.354 OA
HETATM   46  C24 UNL     1      76.044  58.631  19.764  1.00  0.00     0.210 C 
ENDBRANCH  18  45
BRANCH  15  47
HETATM   47  O3  UNL     1      73.344  63.145  21.633  1.00  0.00    -0.334 OA
ATOM     48  H3  UNL     1      74.098  63.031  21.067  1.00  0.00     0.220 HD
ENDBRANCH  15  47
BRANCH  11  49
HETATM   49  O2  UNL     1      68.743  63.746  23.059  1.00  0.00    -0.377 OA
HETATM   50  C18 UNL     1      68.561  64.493  24.173  1.00  0.00     0.203 C 
ENDBRANCH  11  49
TORSDOF 16
ENDMDL
MODEL 4
REMARK VINA RESULT: -7.150725616      1.936      4.425
REMARK  16 active torsions:
REMARK  status: ('A' for Active; 'I' for Inactive)
REMARK    1  A    between atoms: C2_2  and  N1_3 
REMARK    2  A    between atoms: N1_3  and  C3_4 
REMARK    3  A    between atoms: N1_3  and  C5_6 
REMARK    4  A    between atoms: C5_6  and  C6_7 
REMARK    5  A    between atoms: C6_7  and  N2_8 
REMARK    6  A    between atoms: N2_8  and  C7_9 
REMARK    7  A    between atoms: N2_8  and  C26_44 
REMARK    8  A    between atoms: N3_10  and  C8_12 
REMARK    9  A    between atoms: C8_12  and  O1_13 
REMARK   10  A    between atoms: N4_15  and  C9_17 
REMARK   11  A    between atoms: C16_27  and  O2_29 
REMARK   12  A    between atoms: C20_33  and  O3_34 
REMARK   13  A    between atoms: C23_38  and  O4_39 
REMARK   14  A    between atoms: C26_44  and  C27_45 
REMARK   15  A    between atoms: C27_45  and  C28_46 
REMARK   16  A    between atoms: C28_46  and  N8_47 
ROOT
HETATM    1  C9  UNL     1      70.611  59.090  19.032  1.00  0.00     0.138 C 
HETATM    2  C10 UNL     1      69.745  58.443  20.116  1.00  0.00     0.032 C 
HETATM    3  C11 UNL     1      68.867  59.400  20.848  1.00  0.00     0.004 C 
HETATM    4  C12 UNL     1      69.335  59.464  22.297  1.00  0.00     0.027 C 
HETATM    5  C13 UNL     1      68.959  60.797  22.889  1.00  0.00     0.233 C 
HETATM    6  N5  UNL     1      70.086  61.321  23.599  1.00  0.00    -0.068 N 
ATOM      7  H51 UNL     1      70.932  60.804  23.358  1.00  0.00     0.277 HD
ATOM      8  H52 UNL     1      70.021  61.093  24.591  1.00  0.00     0.277 HD
HETATM    9  C14 UNL     1      70.292  62.747  23.416  1.00  0.00     0.222 C 
HETATM   10  C15 UNL     1      68.947  63.413  23.593  1.00  0.00     0.043 C 
HETATM   11  C16 UNL     1      71.307  63.316  24.401  1.00  0.00     0.128 C 
HETATM   12  C17 UNL     1      70.889  62.781  25.772  1.00  0.00     0.055 C 
HETATM   13  C19 UNL     1      72.713  62.821  24.072  1.00  0.00     0.198 C 
HETATM   14  N6  UNL     1      72.978  62.617  22.930  1.00  0.00    -0.392 NA
HETATM   15  C20 UNL     1      73.477  62.325  21.706  1.00  0.00     0.240 C 
HETATM   16  C21 UNL     1      72.977  61.238  20.777  1.00  0.00     0.101 A 
HETATM   17  C22 UNL     1      73.863  60.252  20.300  1.00  0.00     0.074 A 
HETATM   18  C23 UNL     1      73.107  59.371  19.581  1.00  0.00     0.095 A 
HETATM   19  C25 UNL     1      71.776  59.846  19.641  1.00  0.00     0.066 A 
HETATM   20  N7  UNL     1      71.738  60.976  20.366  1.00  0.00    -0.351 N 
ATOM     21  H7  UNL     1      70.908  61.534  20.565  1.00  0.00     0.166 HD
ENDROOT
BRANCH   1  22
HETATM   22  N4  UNL     1      69.897  59.754  18.010  1.00  0.00    -0.346 N 
HETATM   23  C8  UNL     1      69.358  59.322  16.959  1.00  0.00     0.218 C 
ATOM     24  H4  UNL     1      69.804  60.760  18.147  1.00  0.00     0.163 HD
BRANCH  23  25
HETATM   25  N3  UNL     1      69.394  57.936  16.614  1.00  0.00    -0.319 N 
HETATM   26  C7  UNL     1      70.414  57.452  15.949  1.00  0.00     0.181 C 
ATOM     27  H3  UNL     1      68.625  57.322  16.885  1.00  0.00     0.170 HD
BRANCH  26  28
HETATM   28  N2  UNL     1      70.487  56.084  15.591  1.00  0.00    -0.375 N 
BRANCH  28  29
HETATM   29  C6  UNL     1      69.592  55.544  14.549  1.00  0.00     0.154 C 
BRANCH  29  30
HETATM   30  C5  UNL     1      69.424  54.068  14.868  1.00  0.00     0.292 C 
BRANCH  30  31
HETATM   31  N1  UNL     1      68.070  53.618  14.853  1.00  0.00     0.089 N 
BRANCH  31  32
HETATM   32  C2  UNL     1      67.659  52.883  13.699  1.00  0.00     0.268 C 
HETATM   33  C1  UNL     1      66.265  52.324  13.759  1.00  0.00     0.037 C 
ENDBRANCH  31  32
BRANCH  31  34
HETATM   34  C3  UNL     1      67.138  54.706  15.093  1.00  0.00     0.268 C 
HETATM   35  C4  UNL     1      66.696  54.631  16.540  1.00  0.00     0.037 C 
ENDBRANCH  31  34
ENDBRANCH  30  31
ENDBRANCH  29  30
ENDBRANCH  28  29
BRANCH  28  36
HETATM   36  C26 UNL     1      71.369  55.165  16.251  1.00  0.00     0.125 C 
BRANCH  36  37
HETATM   37  C27 UNL     1      72.817  55.261  15.906  1.00  0.00     0.047 C 
BRANCH  37  38
HETATM   38  C28 UNL     1      73.188  54.353  14.784  1.00  0.00     0.231 C 
BRANCH  38  39
HETATM   39  N8  UNL     1      73.103  55.076  13.494  1.00  0.00    -0.079 N 
ATOM     40  H83 UNL     1      72.491  54.600  12.830  1.00  0.00     0.274 HD
ATOM     41  H82 UNL     1      72.582  55.948  13.579  1.00  0.00     0.274 HD
ATOM     42  H81 UNL     1      74.037  55.226  13.113  1.00  0.00     0.274 HD
ENDBRANCH  38  39
ENDBRANCH  37  38
ENDBRANCH  36  37
ENDBRANCH  28  36
ENDBRANCH  26  28
ENDBRANCH  23  25
BRANCH  23  43
HETATM   43  O1  UNL     1      68.695  60.185  16.080  1.00  0.00    -0.333 OA
ATOM     44  H1  UNL     1      69.208  60.574  15.381  1.00  0.00     0.220 HD
ENDBRANCH  23  43
ENDBRANCH   1  22
BRANCH  18  45
HETATM   45  O4  UNL     1      73.572  58.223  18.920  1.00  0.00    -0.354 OA
HETATM   46  C24 UNL     1      73.731  58.285  17.525  1.00  0.00     0.210 C 
ENDBRANCH  18  45
BRANCH  15  47
HETATM   47  O3  UNL     1      74.490  63.039  21.265  1.00  0.00    -0.334 OA
ATOM     48  H3  UNL     1      74.886  62.789  20.439  1.00  0.00     0.220 HD
ENDBRANCH  15  47
BRANCH  11  49
HETATM   49  O2  UNL     1      71.182  64.660  24.427  1.00  0.00    -0.377 OA
HETATM   50  C18 UNL     1      71.910  65.371  25.320  1.00  0.00     0.203 C 
ENDBRANCH  11  49
TORSDOF 16
ENDMDL
MODEL 5
REMARK VINA RESULT: -7.043274288      1.310      2.600
REMARK  16 active torsions:
REMARK  status: ('A' for Active; 'I' for Inactive)
REMARK    1  A    between atoms: C2_2  and  N1_3 
REMARK    2  A    between atoms: N1_3  and  C3_4 
REMARK    3  A    between atoms: N1_3  and  C5_6 
REMARK    4  A    between atoms: C5_6  and  C6_7 
REMARK    5  A    between atoms: C6_7  and  N2_8 
REMARK    6  A    between atoms: N2_8  and  C7_9 
REMARK    7  A    between atoms: N2_8  and  C26_44 
REMARK    8  A    between atoms: N3_10  and  C8_12 
REMARK    9  A    between atoms: C8_12  and  O1_13 
REMARK   10  A    between atoms: N4_15  and  C9_17 
REMARK   11  A    between atoms: C16_27  and  O2_29 
REMARK   12  A    between atoms: C20_33  and  O3_34 
REMARK   13  A    between atoms: C23_38  and  O4_39 
REMARK   14  A    between atoms: C26_44  and  C27_45 
REMARK   15  A    between atoms: C27_45  and  C28_46 
REMARK   16  A    between atoms: C28_46  and  N8_47 
ROOT
HETATM    1  C9  UNL     1      71.820  59.046  18.884  1.00  0.00     0.138 C 
HETATM    2  C10 UNL     1      73.016  59.806  18.306  1.00  0.00     0.032 C 
HETATM    3  C11 UNL     1      74.174  59.923  19.239  1.00  0.00     0.004 C 
HETATM    4  C12 UNL     1      74.351  61.395  19.595  1.00  0.00     0.027 C 
HETATM    5  C13 UNL     1      75.016  61.510  20.942  1.00  0.00     0.233 C 
HETATM    6  N5  UNL     1      74.317  62.486  21.720  1.00  0.00    -0.068 N 
ATOM      7  H51 UNL     1      73.418  62.708  21.292  1.00  0.00     0.277 HD
ATOM      8  H52 UNL     1      74.772  63.396  21.646  1.00  0.00     0.277 HD
HETATM    9  C14 UNL     1      74.139  62.119  23.114  1.00  0.00     0.222 C 
HETATM   10  C15 UNL     1      75.474  61.613  23.610  1.00  0.00     0.043 C 
HETATM   11  C16 UNL     1      73.658  63.288  23.964  1.00  0.00     0.128 C 
HETATM   12  C17 UNL     1      74.572  64.460  23.602  1.00  0.00     0.055 C 
HETATM   13  C19 UNL     1      72.215  63.648  23.619  1.00  0.00     0.198 C 
HETATM   14  N6  UNL     1      71.490  62.769  23.274  1.00  0.00    -0.392 NA
HETATM   15  C20 UNL     1      70.512  61.927  22.862  1.00  0.00     0.240 C 
HETATM   16  C21 UNL     1      70.519  61.115  21.584  1.00  0.00     0.101 A 
HETATM   17  C22 UNL     1      69.458  61.234  20.665  1.00  0.00     0.074 A 
HETATM   18  C23 UNL     1      69.795  60.468  19.586  1.00  0.00     0.095 A 
HETATM   19  C25 UNL     1      71.058  59.901  19.879  1.00  0.00     0.066 A 
HETATM   20  N7  UNL     1      71.459  60.309  21.094  1.00  0.00    -0.351 N 
ATOM     21  H7  UNL     1      72.329  60.048  21.559  1.00  0.00     0.166 HD
ENDROOT
BRANCH   1  22
HETATM   22  N4  UNL     1      72.085  57.715  19.275  1.00  0.00    -0.346 N 
HETATM   23  C8  UNL     1      71.618  56.621  18.865  1.00  0.00     0.218 C 
ATOM     24  H4  UNL     1      72.775  57.624  20.020  1.00  0.00     0.163 HD
BRANCH  23  25
HETATM   25  N3  UNL     1      70.642  56.568  17.823  1.00  0.00    -0.319 N 
HETATM   26  C7  UNL     1      69.945  55.474  17.634  1.00  0.00     0.181 C 
ATOM     27  H3  UNL     1      70.487  57.381  17.226  1.00  0.00     0.170 HD
BRANCH  26  28
HETATM   28  N2  UNL     1      68.966  55.384  16.614  1.00  0.00    -0.375 N 
BRANCH  28  29
HETATM   29  C6  UNL     1      68.011  54.259  16.604  1.00  0.00     0.154 C 
BRANCH  29  30
HETATM   30  C5  UNL     1      68.782  53.062  16.074  1.00  0.00     0.292 C 
BRANCH  30  31
HETATM   31  N1  UNL     1      68.230  52.490  14.889  1.00  0.00     0.089 N 
BRANCH  31  32
HETATM   32  C2  UNL     1      69.068  52.500  13.731  1.00  0.00     0.268 C 
HETATM   33  C1  UNL     1      70.543  52.428  14.009  1.00  0.00     0.037 C 
ENDBRANCH  31  32
BRANCH  31  34
HETATM   34  C3  UNL     1      66.941  53.073  14.559  1.00  0.00     0.268 C 
HETATM   35  C4  UNL     1      66.325  52.245  13.450  1.00  0.00     0.037 C 
ENDBRANCH  31  34
ENDBRANCH  30  31
ENDBRANCH  29  30
ENDBRANCH  28  29
BRANCH  28  36
HETATM   36  C26 UNL     1      68.897  56.324  15.533  1.00  0.00     0.125 C 
BRANCH  36  37
HETATM   37  C27 UNL     1      69.702  56.008  14.316  1.00  0.00     0.047 C 
BRANCH  37  38
HETATM   38  C28 UNL     1      71.107  56.490  14.434  1.00  0.00     0.231 C 
BRANCH  38  39
HETATM   39  N8  UNL     1      71.126  57.933  14.768  1.00  0.00    -0.079 N 
ATOM     40  H83 UNL     1      71.608  58.483  14.057  1.00  0.00     0.274 HD
ATOM     41  H82 UNL     1      70.202  58.356  14.684  1.00  0.00     0.274 HD
ATOM     42  H81 UNL     1      71.526  58.073  15.696  1.00  0.00     0.274 HD
ENDBRANCH  38  39
ENDBRANCH  37  38
ENDBRANCH  36  37
ENDBRANCH  28  36
ENDBRANCH  26  28
ENDBRANCH  23  25
BRANCH  23  43
HETATM   43  O1  UNL     1      72.039  55.405  19.414  1.00  0.00    -0.333 OA
ATOM     44  H1  UNL     1      72.973  55.280  19.531  1.00  0.00     0.220 HD
ENDBRANCH  23  43
ENDBRANCH   1  22
BRANCH  18  45
HETATM   45  O4  UNL     1      69.032  60.288  18.422  1.00  0.00    -0.354 OA
HETATM   46  C24 UNL     1      68.300  59.096  18.291  1.00  0.00     0.210 C 
ENDBRANCH  18  45
BRANCH  15  47
HETATM   47  O3  UNL     1      69.453  61.789  23.628  1.00  0.00    -0.334 OA
ATOM     48  H3  UNL     1      68.737  62.402  23.515  1.00  0.00     0.220 HD
ENDBRANCH  15  47
BRANCH  11  49
HETATM   49  O2  UNL     1      73.861  62.993  25.266  1.00  0.00    -0.377 OA
HETATM   50  C18 UNL     1      73.472  63.881  26.211  1.00  0.00     0.203 C 
ENDBRANCH  11  49
TORSDOF 16
ENDMDL
