MODEL 1
REMARK VINA RESULT: -8.100977581      0.000      0.000
REMARK  16 active torsions:
REMARK  status: ('A' for Active; 'I' for Inactive)
REMARK    1  A    between atoms: C2_2  and  C3_3 
REMARK    2  A    between atoms: C3_3  and  N1_4 
REMARK    3  A    between atoms: C3_3  and  C5_7 
REMARK    4  A    between atoms: C5_7  and  O1_8 
REMARK    5  A    between atoms: C5_7  and  N2_10 
REMARK    6  A    between atoms: N2_10  and  C6_11 
REMARK    7  A    between atoms: C7_14  and  C8_15 
REMARK    8  A    between atoms: C8_15  and  C10_17 
REMARK    9  A    between atoms: C10_17  and  C11_18 
REMARK   10  A    between atoms: C11_18  and  C12_20 
REMARK       I    between atoms: C12_20  and  N4_22 
REMARK   11  A    between atoms: N4_22  and  C13_23 
REMARK   12  A    between atoms: N4_22  and  C20_33 
REMARK   13  A    between atoms: C13_23  and  C14_24 
REMARK       I    between atoms: C14_24  and  N5_26 
REMARK   14  A    between atoms: N5_26  and  C15_28 
REMARK   15  A    between atoms: C15_28  and  C16_29 
REMARK   16  A    between atoms: C20_33  and  C21_34 
ROOT
HETATM    1  C11 UNL     1      70.431  56.120  18.109  1.00  0.00     0.217 C 
HETATM    2  O2  UNL     1      71.261  55.513  18.903  1.00  0.00    -0.287 OA
ENDROOT
BRANCH   1   3
HETATM    3  C10 UNL     1      70.200  55.401  16.834  1.00  0.00     0.099 C 
BRANCH   3   4
HETATM    4  C8  UNL     1      71.314  55.503  15.858  1.00  0.00     0.040 C 
HETATM    5  C9  UNL     1      70.993  56.513  14.764  1.00  0.00     0.017 C 
BRANCH   4   6
HETATM    6  C7  UNL     1      71.491  54.129  15.171  1.00  0.00     0.029 A 
HETATM    7  N3  UNL     1      70.571  53.486  14.570  1.00  0.00    -0.327 N 
HETATM    8  C6  UNL     1      70.848  52.248  14.039  1.00  0.00     0.225 A 
ATOM      9  H3  UNL     1      69.636  53.885  14.484  1.00  0.00     0.169 HD
HETATM   10  S2  UNL     1      72.523  52.101  14.473  1.00  0.00    -0.042 SA
HETATM   11  C25 UNL     1      72.743  53.571  15.273  1.00  0.00     0.006 A 
HETATM   12  C26 UNL     1      73.992  54.088  15.913  1.00  0.00     0.058 C 
BRANCH   8  13
HETATM   13  N2  UNL     1      70.062  51.493  13.468  1.00  0.00    -0.358 NA
BRANCH  13  14
HETATM   14  C5  UNL     1      69.239  50.700  12.872  1.00  0.00     0.215 C 
BRANCH  14  15
HETATM   15  C3  UNL     1      67.784  50.930  12.681  1.00  0.00     0.166 C 
BRANCH  15  16
HETATM   16  C2  UNL     1      67.109  51.497  13.905  1.00  0.00     0.030 C 
HETATM   17  C1  UNL     1      66.660  52.912  13.736  1.00  0.00     0.007 C 
ENDBRANCH  15  16
BRANCH  15  18
HETATM   18  N1  UNL     1      67.075  49.691  12.397  1.00  0.00    -0.414 N 
HETATM   19  C4  UNL     1      65.729  49.794  12.004  1.00  0.00     0.140 C 
ATOM     20  H1  UNL     1      67.536  48.784  12.479  1.00  0.00     0.153 HD
ENDBRANCH  15  18
ENDBRANCH  14  15
BRANCH  14  21
HETATM   21  O1  UNL     1      69.656  49.578  12.356  1.00  0.00    -0.337 OA
ATOM     22  H1  UNL     1      68.997  49.139  11.830  1.00  0.00     0.220 HD
ENDBRANCH  14  21
ENDBRANCH  13  14
ENDBRANCH   8  13
ENDBRANCH   4   6
ENDBRANCH   3   4
ENDBRANCH   1   3
BRANCH   1  23
HETATM   23  C12 UNL     1      69.815  57.370  18.483  1.00  0.00     0.290 C 
HETATM   24  O3  UNL     1      68.791  57.322  19.214  1.00  0.00    -0.264 OA
HETATM   25  N4  UNL     1      70.243  58.660  18.111  1.00  0.00    -0.331 N 
BRANCH  25  26
HETATM   26  C13 UNL     1      71.442  58.851  17.358  1.00  0.00     0.229 C 
BRANCH  26  27
HETATM   27  C14 UNL     1      72.658  58.413  18.061  1.00  0.00     0.235 C 
HETATM   28  O4  UNL     1      73.457  57.564  17.661  1.00  0.00    -0.272 OA
HETATM   29  N5  UNL     1      72.954  59.022  19.341  1.00  0.00    -0.359 N 
ATOM     30  H5  UNL     1      72.324  59.730  19.715  1.00  0.00     0.162 HD
BRANCH  29  31
HETATM   31  C15 UNL     1      74.122  58.645  20.094  1.00  0.00     0.131 C 
BRANCH  31  32
HETATM   32  C16 UNL     1      75.075  59.817  20.121  1.00  0.00    -0.035 C 
HETATM   33  C17 UNL     1      74.295  61.078  19.831  1.00  0.00     0.016 C 
HETATM   34  C18 UNL     1      75.818  59.920  21.427  1.00  0.00     0.016 C 
HETATM   35  C19 UNL     1      76.076  59.570  18.983  1.00  0.00     0.016 C 
ENDBRANCH  31  32
ENDBRANCH  29  31
ENDBRANCH  26  27
ENDBRANCH  25  26
BRANCH  25  36
HETATM   36  C20 UNL     1      69.474  59.843  18.530  1.00  0.00     0.184 C 
BRANCH  36  37
HETATM   37  C21 UNL     1      69.863  60.301  19.915  1.00  0.00     0.034 A 
HETATM   38  C22 UNL     1      70.684  61.401  20.094  1.00  0.00     0.078 A 
HETATM   39  S1  UNL     1      70.801  61.471  21.797  1.00  0.00    -0.087 SA
HETATM   40  C23 UNL     1      69.823  60.131  22.178  1.00  0.00     0.047 A 
HETATM   41  C24 UNL     1      69.456  59.574  23.532  1.00  0.00     0.076 C 
HETATM   42  N6  UNL     1      69.458  59.698  20.984  1.00  0.00    -0.356 N 
ATOM     43  H6  UNL     1      68.852  58.881  20.905  1.00  0.00     0.166 HD
ENDBRANCH  36  37
ENDBRANCH  25  36
ENDBRANCH   1  23
TORSDOF 16
ENDMDL
MODEL 2
REMARK VINA RESULT: -8.032891013      1.447      3.374
REMARK  16 active torsions:
REMARK  status: ('A' for Active; 'I' for Inactive)
REMARK    1  A    between atoms: C2_2  and  C3_3 
REMARK    2  A    between atoms: C3_3  and  N1_4 
REMARK    3  A    between atoms: C3_3  and  C5_7 
REMARK    4  A    between atoms: C5_7  and  O1_8 
REMARK    5  A    between atoms: C5_7  and  N2_10 
REMARK    6  A    between atoms: N2_10  and  C6_11 
REMARK    7  A    between atoms: C7_14  and  C8_15 
REMARK    8  A    between atoms: C8_15  and  C10_17 
REMARK    9  A    between atoms: C10_17  and  C11_18 
REMARK   10  A    between atoms: C11_18  and  C12_20 
REMARK       I    between atoms: C12_20  and  N4_22 
REMARK   11  A    between atoms: N4_22  and  C13_23 
REMARK   12  A    between atoms: N4_22  and  C20_33 
REMARK   13  A    between atoms: C13_23  and  C14_24 
REMARK       I    between atoms: C14_24  and  N5_26 
REMARK   14  A    between atoms: N5_26  and  C15_28 
REMARK   15  A    between atoms: C15_28  and  C16_29 
REMARK   16  A    between atoms: C20_33  and  C21_34 
ROOT
HETATM    1  C11 UNL     1      71.322  55.256  17.750  1.00  0.00     0.217 C 
HETATM    2  O2  UNL     1      71.177  54.793  18.956  1.00  0.00    -0.287 OA
ENDROOT
BRANCH   1   3
HETATM    3  C10 UNL     1      70.551  54.504  16.732  1.00  0.00     0.099 C 
BRANCH   3   4
HETATM    4  C8  UNL     1      70.839  54.892  15.328  1.00  0.00     0.040 C 
HETATM    5  C9  UNL     1      69.626  55.549  14.683  1.00  0.00     0.017 C 
BRANCH   4   6
HETATM    6  C7  UNL     1      71.147  53.610  14.519  1.00  0.00     0.029 A 
HETATM    7  N3  UNL     1      70.285  52.748  14.155  1.00  0.00    -0.327 N 
HETATM    8  C6  UNL     1      70.697  51.625  13.477  1.00  0.00     0.225 A 
ATOM      9  H3  UNL     1      69.296  52.889  14.365  1.00  0.00     0.169 HD
HETATM   10  S2  UNL     1      72.407  51.923  13.410  1.00  0.00    -0.042 SA
HETATM   11  C25 UNL     1      72.473  53.401  14.223  1.00  0.00     0.006 A 
HETATM   12  C26 UNL     1      73.682  54.227  14.523  1.00  0.00     0.058 C 
BRANCH   8  13
HETATM   13  N2  UNL     1      69.994  50.690  13.095  1.00  0.00    -0.358 NA
BRANCH  13  14
HETATM   14  C5  UNL     1      69.258  49.710  12.698  1.00  0.00     0.215 C 
BRANCH  14  15
HETATM   15  C3  UNL     1      67.772  49.690  12.660  1.00  0.00     0.166 C 
BRANCH  15  16
HETATM   16  C2  UNL     1      67.144  50.716  13.569  1.00  0.00     0.030 C 
HETATM   17  C1  UNL     1      65.972  51.415  12.959  1.00  0.00     0.007 C 
ENDBRANCH  15  16
BRANCH  15  18
HETATM   18  N1  UNL     1      67.238  48.411  13.105  1.00  0.00    -0.414 N 
HETATM   19  C4  UNL     1      66.382  47.729  12.224  1.00  0.00     0.140 C 
ATOM     20  H1  UNL     1      67.476  48.026  14.020  1.00  0.00     0.153 HD
ENDBRANCH  15  18
ENDBRANCH  14  15
BRANCH  14  21
HETATM   21  O1  UNL     1      69.799  48.605  12.268  1.00  0.00    -0.337 OA
ATOM     22  H1  UNL     1      70.654  48.434  12.644  1.00  0.00     0.220 HD
ENDBRANCH  14  21
ENDBRANCH  13  14
ENDBRANCH   8  13
ENDBRANCH   4   6
ENDBRANCH   3   4
ENDBRANCH   1   3
BRANCH   1  23
HETATM   23  C12 UNL     1      72.162  56.397  17.481  1.00  0.00     0.290 C 
HETATM   24  O3  UNL     1      73.400  56.199  17.370  1.00  0.00    -0.264 OA
HETATM   25  N4  UNL     1      71.739  57.733  17.327  1.00  0.00    -0.331 N 
BRANCH  25  26
HETATM   26  C13 UNL     1      70.352  58.073  17.342  1.00  0.00     0.229 C 
BRANCH  26  27
HETATM   27  C14 UNL     1      69.790  58.204  18.696  1.00  0.00     0.235 C 
HETATM   28  O4  UNL     1      69.210  57.318  19.326  1.00  0.00    -0.272 OA
HETATM   29  N5  UNL     1      69.919  59.485  19.359  1.00  0.00    -0.359 N 
ATOM     30  H5  UNL     1      70.391  60.251  18.879  1.00  0.00     0.162 HD
BRANCH  29  31
HETATM   31  C15 UNL     1      69.392  59.696  20.682  1.00  0.00     0.131 C 
BRANCH  31  32
HETATM   32  C16 UNL     1      69.447  61.173  20.992  1.00  0.00    -0.035 C 
HETATM   33  C17 UNL     1      68.161  61.569  21.678  1.00  0.00     0.016 C 
HETATM   34  C18 UNL     1      70.647  61.539  21.824  1.00  0.00     0.016 C 
HETATM   35  C19 UNL     1      69.533  61.883  19.633  1.00  0.00     0.016 C 
ENDBRANCH  31  32
ENDBRANCH  29  31
ENDBRANCH  26  27
ENDBRANCH  25  26
BRANCH  25  36
HETATM   36  C20 UNL     1      72.727  58.801  17.108  1.00  0.00     0.184 C 
BRANCH  36  37
HETATM   37  C21 UNL     1      73.318  59.290  18.408  1.00  0.00     0.034 A 
HETATM   38  C22 UNL     1      72.999  60.542  18.906  1.00  0.00     0.078 A 
HETATM   39  S1  UNL     1      73.915  60.585  20.347  1.00  0.00    -0.087 SA
HETATM   40  C23 UNL     1      74.636  59.047  20.240  1.00  0.00     0.047 A 
HETATM   41  C24 UNL     1      75.595  58.376  21.193  1.00  0.00     0.076 C 
HETATM   42  N6  UNL     1      74.141  58.580  19.108  1.00  0.00    -0.356 N 
ATOM     43  H6  UNL     1      74.409  57.651  18.783  1.00  0.00     0.166 HD
ENDBRANCH  36  37
ENDBRANCH  25  36
ENDBRANCH   1  23
TORSDOF 16
ENDMDL
MODEL 3
REMARK VINA RESULT: -8.025336629      2.251     10.373
REMARK  16 active torsions:
REMARK  status: ('A' for Active; 'I' for Inactive)
REMARK    1  A    between atoms: C2_2  and  C3_3 
REMARK    2  A    between atoms: C3_3  and  N1_4 
REMARK    3  A    between atoms: C3_3  and  C5_7 
REMARK    4  A    between atoms: C5_7  and  O1_8 
REMARK    5  A    between atoms: C5_7  and  N2_10 
REMARK    6  A    between atoms: N2_10  and  C6_11 
REMARK    7  A    between atoms: C7_14  and  C8_15 
REMARK    8  A    between atoms: C8_15  and  C10_17 
REMARK    9  A    between atoms: C10_17  and  C11_18 
REMARK   10  A    between atoms: C11_18  and  C12_20 
REMARK       I    between atoms: C12_20  and  N4_22 
REMARK   11  A    between atoms: N4_22  and  C13_23 
REMARK   12  A    between atoms: N4_22  and  C20_33 
REMARK   13  A    between atoms: C13_23  and  C14_24 
REMARK       I    between atoms: C14_24  and  N5_26 
REMARK   14  A    between atoms: N5_26  and  C15_28 
REMARK   15  A    between atoms: C15_28  and  C16_29 
REMARK   16  A    between atoms: C20_33  and  C21_34 
ROOT
HETATM    1  C11 UNL     1      69.432  57.349  18.561  1.00  0.00     0.217 C 
HETATM    2  O2  UNL     1      68.595  57.457  19.549  1.00  0.00    -0.287 OA
ENDROOT
BRANCH   1   3
HETATM    3  C10 UNL     1      69.825  58.653  17.975  1.00  0.00     0.099 C 
BRANCH   3   4
HETATM    4  C8  UNL     1      69.186  59.833  18.611  1.00  0.00     0.040 C 
HETATM    5  C9  UNL     1      68.810  60.879  17.569  1.00  0.00     0.017 C 
BRANCH   4   6
HETATM    6  C7  UNL     1      70.210  60.489  19.566  1.00  0.00     0.029 A 
HETATM    7  N3  UNL     1      71.471  60.505  19.391  1.00  0.00    -0.327 N 
HETATM    8  C6  UNL     1      72.278  61.084  20.341  1.00  0.00     0.225 A 
ATOM      9  H3  UNL     1      71.879  60.092  18.551  1.00  0.00     0.169 HD
HETATM   10  S2  UNL     1      71.077  61.596  21.487  1.00  0.00    -0.042 SA
HETATM   11  C25 UNL     1      69.683  61.054  20.703  1.00  0.00     0.006 A 
HETATM   12  C26 UNL     1      68.267  61.176  21.165  1.00  0.00     0.058 C 
BRANCH   8  13
HETATM   13  N2  UNL     1      73.507  61.144  20.334  1.00  0.00    -0.358 NA
BRANCH  13  14
HETATM   14  C5  UNL     1      74.794  61.207  20.330  1.00  0.00     0.215 C 
BRANCH  14  15
HETATM   15  C3  UNL     1      75.710  60.486  21.251  1.00  0.00     0.166 C 
BRANCH  15  16
HETATM   16  C2  UNL     1      75.708  58.993  21.038  1.00  0.00     0.030 C 
HETATM   17  C1  UNL     1      75.856  58.595  19.605  1.00  0.00     0.007 C 
ENDBRANCH  15  16
BRANCH  15  18
HETATM   18  N1  UNL     1      75.330  60.671  22.644  1.00  0.00    -0.414 N 
HETATM   19  C4  UNL     1      75.338  61.985  23.145  1.00  0.00     0.140 C 
ATOM     20  H1  UNL     1      75.068  59.880  23.232  1.00  0.00     0.153 HD
ENDBRANCH  15  18
ENDBRANCH  14  15
BRANCH  14  21
HETATM   21  O1  UNL     1      75.419  61.947  19.457  1.00  0.00    -0.337 OA
ATOM     22  H1  UNL     1      74.935  62.727  19.211  1.00  0.00     0.220 HD
ENDBRANCH  14  21
ENDBRANCH  13  14
ENDBRANCH   8  13
ENDBRANCH   4   6
ENDBRANCH   3   4
ENDBRANCH   1   3
BRANCH   1  23
HETATM   23  C12 UNL     1      69.906  56.062  18.117  1.00  0.00     0.290 C 
HETATM   24  O3  UNL     1      70.814  55.509  18.792  1.00  0.00    -0.264 OA
HETATM   25  N4  UNL     1      69.455  55.344  16.991  1.00  0.00    -0.331 N 
BRANCH  25  26
HETATM   26  C13 UNL     1      68.368  55.823  16.198  1.00  0.00     0.229 C 
BRANCH  26  27
HETATM   27  C14 UNL     1      67.397  54.780  15.832  1.00  0.00     0.235 C 
HETATM   28  O4  UNL     1      66.493  54.350  16.551  1.00  0.00    -0.272 OA
HETATM   29  N5  UNL     1      67.503  54.192  14.513  1.00  0.00    -0.359 N 
ATOM     30  H5  UNL     1      68.235  54.514  13.880  1.00  0.00     0.162 HD
BRANCH  29  31
HETATM   31  C15 UNL     1      66.595  53.163  14.079  1.00  0.00     0.131 C 
BRANCH  31  32
HETATM   32  C16 UNL     1      67.396  51.932  13.725  1.00  0.00    -0.035 C 
HETATM   33  C17 UNL     1      67.665  51.153  14.991  1.00  0.00     0.016 C 
HETATM   34  C18 UNL     1      66.707  51.080  12.693  1.00  0.00     0.016 C 
HETATM   35  C19 UNL     1      68.726  52.448  13.157  1.00  0.00     0.016 C 
ENDBRANCH  31  32
ENDBRANCH  29  31
ENDBRANCH  26  27
ENDBRANCH  25  26
BRANCH  25  36
HETATM   36  C20 UNL     1      70.078  54.059  16.636  1.00  0.00     0.184 C 
BRANCH  36  37
HETATM   37  C21 UNL     1      71.387  54.255  15.908  1.00  0.00     0.034 A 
HETATM   38  C22 UNL     1      71.408  54.662  14.585  1.00  0.00     0.078 A 
HETATM   39  S1  UNL     1      73.086  54.720  14.269  1.00  0.00    -0.087 SA
HETATM   40  C23 UNL     1      73.654  54.234  15.799  1.00  0.00     0.047 A 
HETATM   41  C24 UNL     1      75.075  54.058  16.275  1.00  0.00     0.076 C 
HETATM   42  N6  UNL     1      72.531  54.052  16.472  1.00  0.00    -0.356 N 
ATOM     43  H6  UNL     1      72.569  53.749  17.446  1.00  0.00     0.166 HD
ENDBRANCH  36  37
ENDBRANCH  25  36
ENDBRANCH   1  23
TORSDOF 16
ENDMDL
MODEL 4
REMARK VINA RESULT: -7.982091487      1.807      2.332
REMARK  16 active torsions:
REMARK  status: ('A' for Active; 'I' for Inactive)
REMARK    1  A    between atoms: C2_2  and  C3_3 
REMARK    2  A    between atoms: C3_3  and  N1_4 
REMARK    3  A    between atoms: C3_3  and  C5_7 
REMARK    4  A    between atoms: C5_7  and  O1_8 
REMARK    5  A    between atoms: C5_7  and  N2_10 
REMARK    6  A    between atoms: N2_10  and  C6_11 
REMARK    7  A    between atoms: C7_14  and  C8_15 
REMARK    8  A    between atoms: C8_15  and  C10_17 
REMARK    9  A    between atoms: C10_17  and  C11_18 
REMARK   10  A    between atoms: C11_18  and  C12_20 
REMARK       I    between atoms: C12_20  and  N4_22 
REMARK   11  A    between atoms: N4_22  and  C13_23 
REMARK   12  A    between atoms: N4_22  and  C20_33 
REMARK   13  A    between atoms: C13_23  and  C14_24 
REMARK       I    between atoms: C14_24  and  N5_26 
REMARK   14  A    between atoms: N5_26  and  C15_28 
REMARK   15  A    between atoms: C15_28  and  C16_29 
REMARK   16  A    between atoms: C20_33  and  C21_34 
ROOT
HETATM    1  C11 UNL     1      69.019  57.887  18.059  1.00  0.00     0.217 C 
HETATM    2  O2  UNL     1      68.539  56.996  18.874  1.00  0.00    -0.287 OA
ENDROOT
BRANCH   1   3
HETATM    3  C10 UNL     1      69.332  57.348  16.714  1.00  0.00     0.099 C 
BRANCH   3   4
HETATM    4  C8  UNL     1      70.779  57.141  16.452  1.00  0.00     0.040 C 
HETATM    5  C9  UNL     1      71.317  58.196  15.494  1.00  0.00     0.017 C 
BRANCH   4   6
HETATM    6  C7  UNL     1      70.961  55.768  15.767  1.00  0.00     0.029 A 
HETATM    7  N3  UNL     1      70.068  55.159  15.095  1.00  0.00    -0.327 N 
HETATM    8  C6  UNL     1      70.343  53.917  14.574  1.00  0.00     0.225 A 
ATOM      9  H3  UNL     1      69.154  55.588  14.946  1.00  0.00     0.169 HD
HETATM   10  S2  UNL     1      71.978  53.713  15.125  1.00  0.00    -0.042 SA
HETATM   11  C25 UNL     1      72.185  55.170  15.953  1.00  0.00     0.006 A 
HETATM   12  C26 UNL     1      73.400  55.642  16.686  1.00  0.00     0.058 C 
BRANCH   8  13
HETATM   13  N2  UNL     1      69.577  53.191  13.940  1.00  0.00    -0.358 NA
BRANCH  13  14
HETATM   14  C5  UNL     1      68.777  52.429  13.277  1.00  0.00     0.215 C 
BRANCH  14  15
HETATM   15  C3  UNL     1      67.373  52.105  13.642  1.00  0.00     0.166 C 
BRANCH  15  16
HETATM   16  C2  UNL     1      66.757  51.058  12.749  1.00  0.00     0.030 C 
HETATM   17  C1  UNL     1      65.265  51.022  12.815  1.00  0.00     0.007 C 
ENDBRANCH  15  16
BRANCH  15  18
HETATM   18  N1  UNL     1      66.503  53.266  13.522  1.00  0.00    -0.414 N 
HETATM   19  C4  UNL     1      66.319  54.054  14.672  1.00  0.00     0.140 C 
ATOM     20  H1  UNL     1      66.046  53.498  12.640  1.00  0.00     0.153 HD
ENDBRANCH  15  18
ENDBRANCH  14  15
BRANCH  14  21
HETATM   21  O1  UNL     1      69.165  51.863  12.170  1.00  0.00    -0.337 OA
ATOM     22  H1  UNL     1      68.849  52.306  11.391  1.00  0.00     0.220 HD
ENDBRANCH  14  21
ENDBRANCH  13  14
ENDBRANCH   8  13
ENDBRANCH   4   6
ENDBRANCH   3   4
ENDBRANCH   1   3
BRANCH   1  23
HETATM   23  C12 UNL     1      69.207  59.256  18.470  1.00  0.00     0.290 C 
HETATM   24  O3  UNL     1      68.299  60.082  18.186  1.00  0.00    -0.264 OA
HETATM   25  N4  UNL     1      70.314  59.779  19.168  1.00  0.00    -0.331 N 
BRANCH  25  26
HETATM   26  C13 UNL     1      71.366  58.928  19.625  1.00  0.00     0.229 C 
BRANCH  26  27
HETATM   27  C14 UNL     1      72.709  59.383  19.232  1.00  0.00     0.235 C 
HETATM   28  O4  UNL     1      73.207  59.281  18.110  1.00  0.00    -0.272 OA
HETATM   29  N5  UNL     1      73.533  60.007  20.246  1.00  0.00    -0.359 N 
ATOM     30  H5  UNL     1      73.166  60.116  21.192  1.00  0.00     0.162 HD
BRANCH  29  31
HETATM   31  C15 UNL     1      74.860  60.476  19.944  1.00  0.00     0.131 C 
BRANCH  31  32
HETATM   32  C16 UNL     1      75.754  60.185  21.127  1.00  0.00    -0.035 C 
HETATM   33  C17 UNL     1      77.187  60.427  20.717  1.00  0.00     0.016 C 
HETATM   34  C18 UNL     1      75.385  61.000  22.337  1.00  0.00     0.016 C 
HETATM   35  C19 UNL     1      75.564  58.694  21.438  1.00  0.00     0.016 C 
ENDBRANCH  31  32
ENDBRANCH  29  31
ENDBRANCH  26  27
ENDBRANCH  25  26
BRANCH  25  36
HETATM   36  C20 UNL     1      70.385  61.217  19.471  1.00  0.00     0.184 C 
BRANCH  36  37
HETATM   37  C21 UNL     1      69.758  61.538  20.807  1.00  0.00     0.034 A 
HETATM   38  C22 UNL     1      70.490  61.436  21.977  1.00  0.00     0.078 A 
HETATM   39  S1  UNL     1      69.335  61.896  23.149  1.00  0.00    -0.087 SA
HETATM   40  C23 UNL     1      68.017  62.185  22.111  1.00  0.00     0.047 A 
HETATM   41  C24 UNL     1      66.619  62.640  22.452  1.00  0.00     0.076 C 
HETATM   42  N6  UNL     1      68.527  61.915  20.922  1.00  0.00    -0.356 N 
ATOM     43  H6  UNL     1      67.944  62.003  20.090  1.00  0.00     0.166 HD
ENDBRANCH  36  37
ENDBRANCH  25  36
ENDBRANCH   1  23
TORSDOF 16
ENDMDL
MODEL 5
REMARK VINA RESULT: -7.975144580      0.583      1.276
REMARK  16 active torsions:
REMARK  status: ('A' for Active; 'I' for Inactive)
REMARK    1  A    between atoms: C2_2  and  C3_3 
REMARK    2  A    between atoms: C3_3  and  N1_4 
REMARK    3  A    between atoms: C3_3  and  C5_7 
REMARK    4  A    between atoms: C5_7  and  O1_8 
REMARK    5  A    between atoms: C5_7  and  N2_10 
REMARK    6  A    between atoms: N2_10  and  C6_11 
REMARK    7  A    between atoms: C7_14  and  C8_15 
REMARK    8  A    between atoms: C8_15  and  C10_17 
REMARK    9  A    between atoms: C10_17  and  C11_18 
REMARK   10  A    between atoms: C11_18  and  C12_20 
REMARK       I    between atoms: C12_20  and  N4_22 
REMARK   11  A    between atoms: N4_22  and  C13_23 
REMARK   12  A    between atoms: N4_22  and  C20_33 
REMARK   13  A    between atoms: C13_23  and  C14_24 
REMARK       I    between atoms: C14_24  and  N5_26 
REMARK   14  A    between atoms: N5_26  and  C15_28 
REMARK   15  A    between atoms: C15_28  and  C16_29 
REMARK   16  A    between atoms: C20_33  and  C21_34 
ROOT
HETATM    1  C11 UNL     1      70.629  55.942  18.192  1.00  0.00     0.217 C 
HETATM    2  O2  UNL     1      71.518  55.437  18.995  1.00  0.00    -0.287 OA
ENDROOT
BRANCH   1   3
HETATM    3  C10 UNL     1      70.347  55.090  17.013  1.00  0.00     0.099 C 
BRANCH   3   4
HETATM    4  C8  UNL     1      71.209  55.360  15.834  1.00  0.00     0.040 C 
HETATM    5  C9  UNL     1      70.567  56.387  14.911  1.00  0.00     0.017 C 
BRANCH   4   6
HETATM    6  C7  UNL     1      71.359  54.051  15.026  1.00  0.00     0.029 A 
HETATM    7  N3  UNL     1      70.394  53.329  14.615  1.00  0.00    -0.327 N 
HETATM    8  C6  UNL     1      70.664  52.160  13.943  1.00  0.00     0.225 A 
ATOM      9  H3  UNL     1      69.429  53.615  14.783  1.00  0.00     0.169 HD
HETATM   10  S2  UNL     1      72.401  52.198  13.954  1.00  0.00    -0.042 SA
HETATM   11  C25 UNL     1      72.651  53.647  14.786  1.00  0.00     0.006 A 
HETATM   12  C26 UNL     1      73.955  54.282  15.147  1.00  0.00     0.058 C 
BRANCH   8  13
HETATM   13  N2  UNL     1      69.848  51.342  13.521  1.00  0.00    -0.358 NA
BRANCH  13  14
HETATM   14  C5  UNL     1      68.996  50.482  13.078  1.00  0.00     0.215 C 
BRANCH  14  15
HETATM   15  C3  UNL     1      67.550  50.427  13.418  1.00  0.00     0.166 C 
BRANCH  15  16
HETATM   16  C2  UNL     1      66.654  50.528  12.210  1.00  0.00     0.030 C 
HETATM   17  C1  UNL     1      65.822  49.308  11.981  1.00  0.00     0.007 C 
ENDBRANCH  15  16
BRANCH  15  18
HETATM   18  N1  UNL     1      67.155  51.534  14.277  1.00  0.00    -0.414 N 
HETATM   19  C4  UNL     1      66.514  52.626  13.666  1.00  0.00     0.140 C 
ATOM     20  H1  UNL     1      67.336  51.518  15.281  1.00  0.00     0.153 HD
ENDBRANCH  15  18
ENDBRANCH  14  15
BRANCH  14  21
HETATM   21  O1  UNL     1      69.364  49.551  12.244  1.00  0.00    -0.337 OA
ATOM     22  H1  UNL     1      70.289  49.585  12.028  1.00  0.00     0.220 HD
ENDBRANCH  14  21
ENDBRANCH  13  14
ENDBRANCH   8  13
ENDBRANCH   4   6
ENDBRANCH   3   4
ENDBRANCH   1   3
BRANCH   1  23
HETATM   23  C12 UNL     1      70.004  57.211  18.469  1.00  0.00     0.290 C 
HETATM   24  O3  UNL     1      68.957  57.207  19.170  1.00  0.00    -0.264 OA
HETATM   25  N4  UNL     1      70.444  58.477  18.034  1.00  0.00    -0.331 N 
BRANCH  25  26
HETATM   26  C13 UNL     1      71.666  58.623  17.309  1.00  0.00     0.229 C 
BRANCH  26  27
HETATM   27  C14 UNL     1      72.863  58.271  18.089  1.00  0.00     0.235 C 
HETATM   28  O4  UNL     1      73.683  57.398  17.797  1.00  0.00    -0.272 OA
HETATM   29  N5  UNL     1      73.110  59.003  19.313  1.00  0.00    -0.359 N 
ATOM     30  H5  UNL     1      72.461  59.735  19.598  1.00  0.00     0.162 HD
BRANCH  29  31
HETATM   31  C15 UNL     1      74.257  58.715  20.135  1.00  0.00     0.131 C 
BRANCH  31  32
HETATM   32  C16 UNL     1      75.212  59.882  20.053  1.00  0.00    -0.035 C 
HETATM   33  C17 UNL     1      75.922  60.016  21.379  1.00  0.00     0.016 C 
HETATM   34  C18 UNL     1      76.192  59.740  18.919  1.00  0.00     0.016 C 
HETATM   35  C19 UNL     1      74.339  61.123  19.820  1.00  0.00     0.016 C 
ENDBRANCH  31  32
ENDBRANCH  29  31
ENDBRANCH  26  27
ENDBRANCH  25  26
BRANCH  25  36
HETATM   36  C20 UNL     1      69.663  59.683  18.356  1.00  0.00     0.184 C 
BRANCH  36  37
HETATM   37  C21 UNL     1      69.997  60.215  19.729  1.00  0.00     0.034 A 
HETATM   38  C22 UNL     1      70.780  61.346  19.880  1.00  0.00     0.078 A 
HETATM   39  S1  UNL     1      70.845  61.497  21.580  1.00  0.00    -0.087 SA
HETATM   40  C23 UNL     1      69.896  60.146  21.995  1.00  0.00     0.047 A 
HETATM   41  C24 UNL     1      69.506  59.640  23.363  1.00  0.00     0.076 C 
HETATM   42  N6  UNL     1      69.579  59.649  20.813  1.00  0.00    -0.356 N 
ATOM     43  H6  UNL     1      69.000  58.810  20.755  1.00  0.00     0.166 HD
ENDBRANCH  36  37
ENDBRANCH  25  36
ENDBRANCH   1  23
TORSDOF 16
ENDMDL
