MODEL 1
REMARK VINA RESULT: -9.659290258      0.000      0.000
REMARK  15 active torsions:
REMARK  status: ('A' for Active; 'I' for Inactive)
REMARK    1  A    between atoms: C1_2  and  C2_3 
REMARK       I    between atoms: C1_2  and  N5_40 
REMARK    2  A    between atoms: C2_3  and  C3_4 
REMARK    3  A    between atoms: C3_4  and  N1_5 
REMARK    4  A    between atoms: C3_4  and  C22_31 
REMARK    5  A    between atoms: N1_5  and  N2_7 
REMARK       I    between atoms: N2_7  and  C4_9 
REMARK    6  A    between atoms: C4_9  and  C5_11 
REMARK    7  A    between atoms: C5_11  and  C6_12 
REMARK    8  A    between atoms: C6_12  and  C7_13 
REMARK    9  A    between atoms: C7_13  and  C8_14 
REMARK   10  A    between atoms: C8_14  and  C9_15 
REMARK       I    between atoms: C9_15  and  N3_17 
REMARK   11  A    between atoms: N3_17  and  C10_19 
REMARK   12  A    between atoms: C10_19  and  C11_20 
REMARK   13  A    between atoms: C11_20  and  C12_21 
REMARK   14  A    between atoms: C25_34  and  N4_35 
REMARK   15  A    between atoms: N5_40  and  C28_42 
ROOT
HETATM    1  N1  UNL     1      70.064 109.067  13.528  1.00  0.00    -0.301 N 
ATOM      2  H1  UNL     1      69.848 109.025  12.531  1.00  0.00     0.186 HD
ENDROOT
BRANCH   1   3
HETATM    3  C3  UNL     1      69.138 109.313  14.385  1.00  0.00     0.044 C 
BRANCH   3   4
HETATM    4  C2  UNL     1      67.800 108.677  14.324  1.00  0.00     0.162 C 
BRANCH   4   5
HETATM    5  C1  UNL     1      67.815 107.348  13.687  1.00  0.00     0.229 C 
HETATM    6  O1  UNL     1      67.434 107.239  12.500  1.00  0.00    -0.273 OA
HETATM    7  N5  UNL     1      68.251 106.180  14.381  1.00  0.00    -0.306 N 
ATOM      8  H5  UNL     1      68.459 106.219  15.378  1.00  0.00     0.171 HD
BRANCH   7   9
HETATM    9  C28 UNL     1      68.378 105.055  13.719  1.00  0.00     0.167 A 
HETATM   10  N6  UNL     1      69.270 104.761  12.768  1.00  0.00    -0.279 N 
HETATM   11  N7  UNL     1      69.235 103.609  12.241  1.00  0.00    -0.303 N 
ATOM     12  H6  UNL     1      69.962 105.449  12.472  1.00  0.00     0.189 HD
HETATM   13  C29 UNL     1      68.336 102.717  12.628  1.00  0.00     0.160 A 
ATOM     14  H7  UNL     1      69.907 103.366  11.514  1.00  0.00     0.186 HD
HETATM   15  S1  UNL     1      67.489 103.600  13.823  1.00  0.00    -0.046 SA
ENDBRANCH   7   9
ENDBRANCH   4   5
ENDBRANCH   3   4
BRANCH   3  16
HETATM   16  C22 UNL     1      69.478 110.254  15.471  1.00  0.00    -0.012 A 
HETATM   17  C23 UNL     1      69.611 109.873  16.786  1.00  0.00     0.016 A 
HETATM   18  C24 UNL     1      69.943 110.779  17.785  1.00  0.00     0.037 A 
HETATM   19  C25 UNL     1      70.149 112.107  17.482  1.00  0.00     0.102 A 
HETATM   20  C26 UNL     1      70.017 112.511  16.152  1.00  0.00     0.037 A 
HETATM   21  C27 UNL     1      69.686 111.584  15.180  1.00  0.00     0.016 A 
BRANCH  19  22
HETATM   22  N4  UNL     1      70.487 113.071  18.460  1.00  0.00    -0.116 N 
HETATM   23  O4  UNL     1      71.130 112.773  19.475  1.00  0.00    -0.532 OA
HETATM   24  O5  UNL     1      70.094 114.367  18.279  1.00  0.00    -0.532 OA
ENDBRANCH  19  22
ENDBRANCH   3  16
ENDBRANCH   1   3
BRANCH   1  25
HETATM   25  N2  UNL     1      71.364 108.861  13.977  1.00  0.00    -0.270 N 
HETATM   26  C4  UNL     1      71.971 107.576  13.933  1.00  0.00     0.235 C 
HETATM   27  O2  UNL     1      71.345 106.586  13.488  1.00  0.00    -0.272 OA
ATOM     28  H2  UNL     1      71.894 109.650  14.346  1.00  0.00     0.190 HD
BRANCH  26  29
HETATM   29  C5  UNL     1      73.374 107.367  14.418  1.00  0.00     0.104 C 
BRANCH  29  30
HETATM   30  C6  UNL     1      74.345 108.147  13.547  1.00  0.00     0.010 C 
BRANCH  30  31
HETATM   31  C7  UNL     1      75.099 109.141  14.370  1.00  0.00     0.010 C 
BRANCH  31  32
HETATM   32  C8  UNL     1      74.548 110.531  14.297  1.00  0.00     0.103 C 
BRANCH  32  33
HETATM   33  C9  UNL     1      73.969 111.000  15.565  1.00  0.00     0.217 C 
HETATM   34  O3  UNL     1      72.993 110.411  16.124  1.00  0.00    -0.274 OA
HETATM   35  N3  UNL     1      74.535 112.173  16.190  1.00  0.00    -0.361 N 
ATOM     36  H3  UNL     1      75.320 112.653  15.749  1.00  0.00     0.162 HD
BRANCH  35  37
HETATM   37  C10 UNL     1      73.997 112.670  17.437  1.00  0.00     0.127 C 
BRANCH  37  38
HETATM   38  C11 UNL     1      75.102 113.209  18.312  1.00  0.00     0.059 C 
BRANCH  38  39
HETATM   39  C12 UNL     1      74.758 114.593  18.713  1.00  0.00    -0.045 A 
HETATM   40  C13 UNL     1      73.520 115.151  18.412  1.00  0.00     0.008 A 
HETATM   41  C14 UNL     1      73.176 116.442  18.743  1.00  0.00     0.001 A 
HETATM   42  C15 UNL     1      74.133 117.180  19.403  1.00  0.00     0.012 A 
HETATM   43  C16 UNL     1      75.385 116.644  19.718  1.00  0.00    -0.025 A 
HETATM   44  C17 UNL     1      76.298 117.438  20.388  1.00  0.00     0.012 A 
HETATM   45  C21 UNL     1      75.702 115.350  19.375  1.00  0.00    -0.020 A 
HETATM   46  C18 UNL     1      77.532 116.914  20.708  1.00  0.00     0.001 A 
HETATM   47  C19 UNL     1      77.850 115.618  20.365  1.00  0.00     0.001 A 
HETATM   48  C20 UNL     1      76.937 114.835  19.700  1.00  0.00     0.013 A 
ENDBRANCH  38  39
ENDBRANCH  37  38
ENDBRANCH  35  37
ENDBRANCH  32  33
ENDBRANCH  31  32
ENDBRANCH  30  31
ENDBRANCH  29  30
ENDBRANCH  26  29
ENDBRANCH   1  25
TORSDOF 15
ENDMDL
MODEL 2
REMARK VINA RESULT: -9.511826162      2.520      5.891
REMARK  15 active torsions:
REMARK  status: ('A' for Active; 'I' for Inactive)
REMARK    1  A    between atoms: C1_2  and  C2_3 
REMARK       I    between atoms: C1_2  and  N5_40 
REMARK    2  A    between atoms: C2_3  and  C3_4 
REMARK    3  A    between atoms: C3_4  and  N1_5 
REMARK    4  A    between atoms: C3_4  and  C22_31 
REMARK    5  A    between atoms: N1_5  and  N2_7 
REMARK       I    between atoms: N2_7  and  C4_9 
REMARK    6  A    between atoms: C4_9  and  C5_11 
REMARK    7  A    between atoms: C5_11  and  C6_12 
REMARK    8  A    between atoms: C6_12  and  C7_13 
REMARK    9  A    between atoms: C7_13  and  C8_14 
REMARK   10  A    between atoms: C8_14  and  C9_15 
REMARK       I    between atoms: C9_15  and  N3_17 
REMARK   11  A    between atoms: N3_17  and  C10_19 
REMARK   12  A    between atoms: C10_19  and  C11_20 
REMARK   13  A    between atoms: C11_20  and  C12_21 
REMARK   14  A    between atoms: C25_34  and  N4_35 
REMARK   15  A    between atoms: N5_40  and  C28_42 
ROOT
HETATM    1  N1  UNL     1      70.656 109.714  14.299  1.00  0.00    -0.301 N 
ATOM      2  H1  UNL     1      70.466 110.201  13.423  1.00  0.00     0.186 HD
ENDROOT
BRANCH   1   3
HETATM    3  C3  UNL     1      69.689 109.264  15.018  1.00  0.00     0.044 C 
BRANCH   3   4
HETATM    4  C2  UNL     1      69.257 109.916  16.277  1.00  0.00     0.162 C 
BRANCH   4   5
HETATM    5  C1  UNL     1      69.382 111.384  16.247  1.00  0.00     0.229 C 
HETATM    6  O1  UNL     1      68.837 112.022  15.319  1.00  0.00    -0.273 OA
HETATM    7  N5  UNL     1      70.105 112.104  17.245  1.00  0.00    -0.306 N 
ATOM      8  H5  UNL     1      70.651 111.606  17.948  1.00  0.00     0.171 HD
BRANCH   7   9
HETATM    9  C28 UNL     1      70.059 113.414  17.246  1.00  0.00     0.167 A 
HETATM   10  N6  UNL     1      70.476 114.249  16.289  1.00  0.00    -0.279 N 
HETATM   11  N7  UNL     1      70.345 115.496  16.474  1.00  0.00    -0.303 N 
ATOM     12  H6  UNL     1      70.890 113.890  15.429  1.00  0.00     0.189 HD
HETATM   13  C29 UNL     1      69.807 115.959  17.592  1.00  0.00     0.160 A 
ATOM     14  H7  UNL     1      70.658 116.148  15.756  1.00  0.00     0.186 HD
HETATM   15  S1  UNL     1      69.470 114.503  18.424  1.00  0.00    -0.046 SA
ENDBRANCH   7   9
ENDBRANCH   4   5
ENDBRANCH   3   4
BRANCH   3  16
HETATM   16  C22 UNL     1      68.997 108.061  14.514  1.00  0.00    -0.012 A 
HETATM   17  C23 UNL     1      67.916 108.113  13.663  1.00  0.00     0.016 A 
HETATM   18  C24 UNL     1      67.292 106.964  13.196  1.00  0.00     0.037 A 
HETATM   19  C25 UNL     1      67.743 105.721  13.579  1.00  0.00     0.102 A 
HETATM   20  C26 UNL     1      68.839 105.649  14.442  1.00  0.00     0.037 A 
HETATM   21  C27 UNL     1      69.439 106.812  14.889  1.00  0.00     0.016 A 
BRANCH  19  22
HETATM   22  N4  UNL     1      67.144 104.519  13.134  1.00  0.00    -0.116 N 
HETATM   23  O4  UNL     1      66.707 104.395  11.982  1.00  0.00    -0.532 OA
HETATM   24  O5  UNL     1      67.045 103.465  13.998  1.00  0.00    -0.532 OA
ENDBRANCH  19  22
ENDBRANCH   3  16
ENDBRANCH   1   3
BRANCH   1  25
HETATM   25  N2  UNL     1      71.964 109.528  14.733  1.00  0.00    -0.270 N 
HETATM   26  C4  UNL     1      72.797 108.520  14.175  1.00  0.00     0.235 C 
HETATM   27  O2  UNL     1      72.371 107.765  13.271  1.00  0.00    -0.272 OA
ATOM     28  H2  UNL     1      72.334 110.129  15.470  1.00  0.00     0.190 HD
BRANCH  26  29
HETATM   29  C5  UNL     1      74.206 108.331  14.649  1.00  0.00     0.104 C 
BRANCH  29  30
HETATM   30  C6  UNL     1      74.921 109.672  14.699  1.00  0.00     0.010 C 
BRANCH  30  31
HETATM   31  C7  UNL     1      75.684 109.809  15.976  1.00  0.00     0.010 C 
BRANCH  31  32
HETATM   32  C8  UNL     1      74.830 109.744  17.203  1.00  0.00     0.103 C 
BRANCH  32  33
HETATM   33  C9  UNL     1      73.972 110.924  17.383  1.00  0.00     0.217 C 
HETATM   34  O3  UNL     1      72.705 110.850  17.376  1.00  0.00    -0.274 OA
HETATM   35  N3  UNL     1      74.601 112.211  17.573  1.00  0.00    -0.361 N 
ATOM     36  H3  UNL     1      75.619 112.282  17.580  1.00  0.00     0.162 HD
BRANCH  35  37
HETATM   37  C10 UNL     1      73.796 113.400  17.753  1.00  0.00     0.127 C 
BRANCH  37  38
HETATM   38  C11 UNL     1      73.691 113.749  19.218  1.00  0.00     0.059 C 
BRANCH  38  39
HETATM   39  C12 UNL     1      73.939 115.200  19.379  1.00  0.00    -0.045 A 
HETATM   40  C13 UNL     1      72.917 116.133  19.238  1.00  0.00     0.008 A 
HETATM   41  C14 UNL     1      73.116 117.490  19.353  1.00  0.00     0.001 A 
HETATM   42  C15 UNL     1      74.403 117.899  19.620  1.00  0.00     0.012 A 
HETATM   43  C16 UNL     1      75.449 116.984  19.767  1.00  0.00    -0.025 A 
HETATM   44  C17 UNL     1      76.718 117.462  20.041  1.00  0.00     0.012 A 
HETATM   45  C21 UNL     1      75.221 115.632  19.647  1.00  0.00    -0.020 A 
HETATM   46  C18 UNL     1      77.752 116.564  20.194  1.00  0.00     0.001 A 
HETATM   47  C19 UNL     1      77.524 115.210  20.075  1.00  0.00     0.001 A 
HETATM   48  C20 UNL     1      76.261 114.742  19.802  1.00  0.00     0.013 A 
ENDBRANCH  38  39
ENDBRANCH  37  38
ENDBRANCH  35  37
ENDBRANCH  32  33
ENDBRANCH  31  32
ENDBRANCH  30  31
ENDBRANCH  29  30
ENDBRANCH  26  29
ENDBRANCH   1  25
TORSDOF 15
ENDMDL
MODEL 3
REMARK VINA RESULT: -9.497466668      0.879      1.766
REMARK  15 active torsions:
REMARK  status: ('A' for Active; 'I' for Inactive)
REMARK    1  A    between atoms: C1_2  and  C2_3 
REMARK       I    between atoms: C1_2  and  N5_40 
REMARK    2  A    between atoms: C2_3  and  C3_4 
REMARK    3  A    between atoms: C3_4  and  N1_5 
REMARK    4  A    between atoms: C3_4  and  C22_31 
REMARK    5  A    between atoms: N1_5  and  N2_7 
REMARK       I    between atoms: N2_7  and  C4_9 
REMARK    6  A    between atoms: C4_9  and  C5_11 
REMARK    7  A    between atoms: C5_11  and  C6_12 
REMARK    8  A    between atoms: C6_12  and  C7_13 
REMARK    9  A    between atoms: C7_13  and  C8_14 
REMARK   10  A    between atoms: C8_14  and  C9_15 
REMARK       I    between atoms: C9_15  and  N3_17 
REMARK   11  A    between atoms: N3_17  and  C10_19 
REMARK   12  A    between atoms: C10_19  and  C11_20 
REMARK   13  A    between atoms: C11_20  and  C12_21 
REMARK   14  A    between atoms: C25_34  and  N4_35 
REMARK   15  A    between atoms: N5_40  and  C28_42 
ROOT
HETATM    1  N1  UNL     1      70.488 109.462  13.934  1.00  0.00    -0.301 N 
ATOM      2  H1  UNL     1      70.248 109.549  12.946  1.00  0.00     0.186 HD
ENDROOT
BRANCH   1   3
HETATM    3  C3  UNL     1      69.591 109.625  14.840  1.00  0.00     0.044 C 
BRANCH   3   4
HETATM    4  C2  UNL     1      68.360 108.800  14.905  1.00  0.00     0.162 C 
BRANCH   4   5
HETATM    5  C1  UNL     1      68.466 107.534  14.159  1.00  0.00     0.229 C 
HETATM    6  O1  UNL     1      68.490 107.565  12.908  1.00  0.00    -0.273 OA
HETATM    7  N5  UNL     1      68.544 106.271  14.818  1.00  0.00    -0.306 N 
ATOM      8  H5  UNL     1      68.416 106.205  15.827  1.00  0.00     0.171 HD
BRANCH   7   9
HETATM    9  C28 UNL     1      68.783 105.194  14.108  1.00  0.00     0.167 A 
HETATM   10  N6  UNL     1      69.785 104.986  13.248  1.00  0.00    -0.279 N 
HETATM   11  N7  UNL     1      69.849 103.869  12.653  1.00  0.00    -0.303 N 
ATOM     12  H6  UNL     1      70.483 105.709  13.076  1.00  0.00     0.189 HD
HETATM   13  C29 UNL     1      68.942 102.930  12.878  1.00  0.00     0.160 A 
ATOM     14  H7  UNL     1      70.606 103.691  11.993  1.00  0.00     0.186 HD
HETATM   15  S1  UNL     1      67.937 103.713  14.021  1.00  0.00    -0.046 SA
ENDBRANCH   7   9
ENDBRANCH   4   5
ENDBRANCH   3   4
BRANCH   3  16
HETATM   16  C22 UNL     1      69.853 110.671  15.848  1.00  0.00    -0.012 A 
HETATM   17  C23 UNL     1      70.250 110.395  17.136  1.00  0.00     0.016 A 
HETATM   18  C24 UNL     1      70.501 111.401  18.060  1.00  0.00     0.037 A 
HETATM   19  C25 UNL     1      70.355 112.724  17.708  1.00  0.00     0.102 A 
HETATM   20  C26 UNL     1      69.952 113.022  16.405  1.00  0.00     0.037 A 
HETATM   21  C27 UNL     1      69.711 111.998  15.507  1.00  0.00     0.016 A 
BRANCH  19  22
HETATM   22  N4  UNL     1      70.596 113.787  18.610  1.00  0.00    -0.116 N 
HETATM   23  O4  UNL     1      70.959 113.584  19.776  1.00  0.00    -0.532 OA
HETATM   24  O5  UNL     1      70.426 115.073  18.182  1.00  0.00    -0.532 OA
ENDBRANCH  19  22
ENDBRANCH   3  16
ENDBRANCH   1   3
BRANCH   1  25
HETATM   25  N2  UNL     1      71.791 109.166  14.319  1.00  0.00    -0.270 N 
HETATM   26  C4  UNL     1      72.441 107.974  13.894  1.00  0.00     0.235 C 
HETATM   27  O2  UNL     1      71.850 107.151  13.157  1.00  0.00    -0.272 OA
ATOM     28  H2  UNL     1      72.293 109.819  14.921  1.00  0.00     0.190 HD
BRANCH  26  29
HETATM   29  C5  UNL     1      73.846 107.667  14.314  1.00  0.00     0.104 C 
BRANCH  29  30
HETATM   30  C6  UNL     1      74.748 108.854  14.014  1.00  0.00     0.010 C 
BRANCH  30  31
HETATM   31  C7  UNL     1      75.510 109.251  15.236  1.00  0.00     0.010 C 
BRANCH  31  32
HETATM   32  C8  UNL     1      74.643 109.602  16.404  1.00  0.00     0.103 C 
BRANCH  32  33
HETATM   33  C9  UNL     1      74.261 111.022  16.445  1.00  0.00     0.217 C 
HETATM   34  O3  UNL     1      73.302 111.487  15.755  1.00  0.00    -0.274 OA
HETATM   35  N3  UNL     1      75.009 111.912  17.302  1.00  0.00    -0.361 N 
ATOM     36  H3  UNL     1      75.781 111.549  17.860  1.00  0.00     0.162 HD
BRANCH  35  37
HETATM   37  C10 UNL     1      74.669 113.317  17.374  1.00  0.00     0.127 C 
BRANCH  37  38
HETATM   38  C11 UNL     1      74.246 113.687  18.774  1.00  0.00     0.059 C 
BRANCH  38  39
HETATM   39  C12 UNL     1      75.179 114.711  19.297  1.00  0.00    -0.045 A 
HETATM   40  C13 UNL     1      76.511 114.413  19.562  1.00  0.00     0.008 A 
HETATM   41  C14 UNL     1      77.401 115.331  20.075  1.00  0.00     0.001 A 
HETATM   42  C15 UNL     1      76.903 116.591  20.322  1.00  0.00     0.012 A 
HETATM   43  C16 UNL     1      75.569 116.918  20.064  1.00  0.00    -0.025 A 
HETATM   44  C17 UNL     1      75.137 118.205  20.329  1.00  0.00     0.012 A 
HETATM   45  C21 UNL     1      74.703 115.980  19.551  1.00  0.00    -0.020 A 
HETATM   46  C18 UNL     1      73.824 118.536  20.071  1.00  0.00     0.001 A 
HETATM   47  C19 UNL     1      72.957 117.597  19.557  1.00  0.00     0.001 A 
HETATM   48  C20 UNL     1      73.393 116.321  19.296  1.00  0.00     0.013 A 
ENDBRANCH  38  39
ENDBRANCH  37  38
ENDBRANCH  35  37
ENDBRANCH  32  33
ENDBRANCH  31  32
ENDBRANCH  30  31
ENDBRANCH  29  30
ENDBRANCH  26  29
ENDBRANCH   1  25
TORSDOF 15
ENDMDL
MODEL 4
REMARK VINA RESULT: -9.402567785      3.712      9.238
REMARK  15 active torsions:
REMARK  status: ('A' for Active; 'I' for Inactive)
REMARK    1  A    between atoms: C1_2  and  C2_3 
REMARK       I    between atoms: C1_2  and  N5_40 
REMARK    2  A    between atoms: C2_3  and  C3_4 
REMARK    3  A    between atoms: C3_4  and  N1_5 
REMARK    4  A    between atoms: C3_4  and  C22_31 
REMARK    5  A    between atoms: N1_5  and  N2_7 
REMARK       I    between atoms: N2_7  and  C4_9 
REMARK    6  A    between atoms: C4_9  and  C5_11 
REMARK    7  A    between atoms: C5_11  and  C6_12 
REMARK    8  A    between atoms: C6_12  and  C7_13 
REMARK    9  A    between atoms: C7_13  and  C8_14 
REMARK   10  A    between atoms: C8_14  and  C9_15 
REMARK       I    between atoms: C9_15  and  N3_17 
REMARK   11  A    between atoms: N3_17  and  C10_19 
REMARK   12  A    between atoms: C10_19  and  C11_20 
REMARK   13  A    between atoms: C11_20  and  C12_21 
REMARK   14  A    between atoms: C25_34  and  N4_35 
REMARK   15  A    between atoms: N5_40  and  C28_42 
ROOT
HETATM    1  N1  UNL     1      72.983 112.420  16.229  1.00  0.00    -0.301 N 
ATOM      2  H1  UNL     1      72.075 112.045  15.955  1.00  0.00     0.186 HD
ENDROOT
BRANCH   1   3
HETATM    3  C3  UNL     1      73.066 113.560  16.819  1.00  0.00     0.044 C 
BRANCH   3   4
HETATM    4  C2  UNL     1      74.269 114.422  16.729  1.00  0.00     0.162 C 
BRANCH   4   5
HETATM    5  C1  UNL     1      74.864 114.733  18.041  1.00  0.00     0.229 C 
HETATM    6  O1  UNL     1      75.515 113.848  18.639  1.00  0.00    -0.273 OA
HETATM    7  N5  UNL     1      74.722 116.014  18.653  1.00  0.00    -0.306 N 
ATOM      8  H5  UNL     1      74.106 116.717  18.244  1.00  0.00     0.171 HD
BRANCH   7   9
HETATM    9  C28 UNL     1      75.393 116.276  19.749  1.00  0.00     0.167 A 
HETATM   10  N6  UNL     1      75.444 115.552  20.871  1.00  0.00    -0.279 N 
HETATM   11  N7  UNL     1      76.156 115.973  21.831  1.00  0.00    -0.303 N 
ATOM     12  H6  UNL     1      74.921 114.680  20.952  1.00  0.00     0.189 HD
HETATM   13  C29 UNL     1      76.834 117.105  21.723  1.00  0.00     0.160 A 
ATOM     14  H7  UNL     1      76.207 115.434  22.695  1.00  0.00     0.186 HD
HETATM   15  S1  UNL     1      76.415 117.589  20.136  1.00  0.00    -0.046 SA
ENDBRANCH   7   9
ENDBRANCH   4   5
ENDBRANCH   3   4
BRANCH   3  16
HETATM   16  C22 UNL     1      71.881 113.994  17.585  1.00  0.00    -0.012 A 
HETATM   17  C23 UNL     1      71.625 113.589  18.875  1.00  0.00     0.016 A 
HETATM   18  C24 UNL     1      70.507 114.024  19.574  1.00  0.00     0.037 A 
HETATM   19  C25 UNL     1      69.607 114.883  18.986  1.00  0.00     0.102 A 
HETATM   20  C26 UNL     1      69.850 115.304  17.677  1.00  0.00     0.037 A 
HETATM   21  C27 UNL     1      70.973 114.854  17.007  1.00  0.00     0.016 A 
BRANCH  19  22
HETATM   22  N4  UNL     1      68.452 115.355  19.653  1.00  0.00    -0.116 N 
HETATM   23  O4  UNL     1      67.381 114.735  19.622  1.00  0.00    -0.532 OA
HETATM   24  O5  UNL     1      68.520 116.527  20.352  1.00  0.00    -0.532 OA
ENDBRANCH  19  22
ENDBRANCH   3  16
ENDBRANCH   1   3
BRANCH   1  25
HETATM   25  N2  UNL     1      74.149 111.707  15.970  1.00  0.00    -0.270 N 
HETATM   26  C4  UNL     1      74.696 110.803  16.921  1.00  0.00     0.235 C 
HETATM   27  O2  UNL     1      74.140 110.626  18.029  1.00  0.00    -0.272 OA
ATOM     28  H2  UNL     1      74.622 111.836  15.075  1.00  0.00     0.190 HD
BRANCH  26  29
HETATM   29  C5  UNL     1      75.952 110.039  16.629  1.00  0.00     0.104 C 
BRANCH  29  30
HETATM   30  C6  UNL     1      75.914 109.507  15.205  1.00  0.00     0.010 C 
BRANCH  30  31
HETATM   31  C7  UNL     1      74.840 108.478  15.062  1.00  0.00     0.010 C 
BRANCH  31  32
HETATM   32  C8  UNL     1      74.122 108.529  13.750  1.00  0.00     0.103 C 
BRANCH  32  33
HETATM   33  C9  UNL     1      72.972 107.616  13.675  1.00  0.00     0.217 C 
HETATM   34  O3  UNL     1      73.095 106.357  13.784  1.00  0.00    -0.274 OA
HETATM   35  N3  UNL     1      71.657 108.180  13.470  1.00  0.00    -0.361 N 
ATOM     36  H3  UNL     1      71.547 109.190  13.382  1.00  0.00     0.162 HD
BRANCH  35  37
HETATM   37  C10 UNL     1      70.496 107.320  13.390  1.00  0.00     0.127 C 
BRANCH  37  38
HETATM   38  C11 UNL     1      69.875 107.144  14.753  1.00  0.00     0.059 C 
BRANCH  38  39
HETATM   39  C12 UNL     1      68.657 107.983  14.832  1.00  0.00    -0.045 A 
HETATM   40  C13 UNL     1      67.494 107.644  14.150  1.00  0.00     0.008 A 
HETATM   41  C14 UNL     1      66.353 108.414  14.177  1.00  0.00     0.001 A 
HETATM   42  C15 UNL     1      66.412 109.567  14.928  1.00  0.00     0.012 A 
HETATM   43  C16 UNL     1      67.567 109.932  15.624  1.00  0.00    -0.025 A 
HETATM   44  C17 UNL     1      67.556 111.100  16.365  1.00  0.00     0.012 A 
HETATM   45  C21 UNL     1      68.693 109.143  15.579  1.00  0.00    -0.020 A 
HETATM   46  C18 UNL     1      68.690 111.462  17.059  1.00  0.00     0.001 A 
HETATM   47  C19 UNL     1      69.817 110.672  17.015  1.00  0.00     0.001 A 
HETATM   48  C20 UNL     1      69.821 109.513  16.277  1.00  0.00     0.013 A 
ENDBRANCH  38  39
ENDBRANCH  37  38
ENDBRANCH  35  37
ENDBRANCH  32  33
ENDBRANCH  31  32
ENDBRANCH  30  31
ENDBRANCH  29  30
ENDBRANCH  26  29
ENDBRANCH   1  25
TORSDOF 15
ENDMDL
MODEL 5
REMARK VINA RESULT: -9.267076562      3.157      8.979
REMARK  15 active torsions:
REMARK  status: ('A' for Active; 'I' for Inactive)
REMARK    1  A    between atoms: C1_2  and  C2_3 
REMARK       I    between atoms: C1_2  and  N5_40 
REMARK    2  A    between atoms: C2_3  and  C3_4 
REMARK    3  A    between atoms: C3_4  and  N1_5 
REMARK    4  A    between atoms: C3_4  and  C22_31 
REMARK    5  A    between atoms: N1_5  and  N2_7 
REMARK       I    between atoms: N2_7  and  C4_9 
REMARK    6  A    between atoms: C4_9  and  C5_11 
REMARK    7  A    between atoms: C5_11  and  C6_12 
REMARK    8  A    between atoms: C6_12  and  C7_13 
REMARK    9  A    between atoms: C7_13  and  C8_14 
REMARK   10  A    between atoms: C8_14  and  C9_15 
REMARK       I    between atoms: C9_15  and  N3_17 
REMARK   11  A    between atoms: N3_17  and  C10_19 
REMARK   12  A    between atoms: C10_19  and  C11_20 
REMARK   13  A    between atoms: C11_20  and  C12_21 
REMARK   14  A    between atoms: C25_34  and  N4_35 
REMARK   15  A    between atoms: N5_40  and  C28_42 
ROOT
HETATM    1  N1  UNL     1      74.499 112.716  16.222  1.00  0.00    -0.301 N 
ATOM      2  H1  UNL     1      74.318 113.510  15.608  1.00  0.00     0.186 HD
ENDROOT
BRANCH   1   3
HETATM    3  C3  UNL     1      74.290 112.810  17.487  1.00  0.00     0.044 C 
BRANCH   3   4
HETATM    4  C2  UNL     1      73.418 111.866  18.227  1.00  0.00     0.162 C 
BRANCH   4   5
HETATM    5  C1  UNL     1      72.273 112.520  18.882  1.00  0.00     0.229 C 
HETATM    6  O1  UNL     1      71.963 112.183  20.047  1.00  0.00    -0.273 OA
HETATM    7  N5  UNL     1      71.503 113.531  18.231  1.00  0.00    -0.306 N 
ATOM      8  H5  UNL     1      71.661 113.747  17.247  1.00  0.00     0.171 HD
BRANCH   7   9
HETATM    9  C28 UNL     1      70.590 114.178  18.915  1.00  0.00     0.167 A 
HETATM   10  N6  UNL     1      70.731 114.789  20.096  1.00  0.00    -0.279 N 
HETATM   11  N7  UNL     1      69.723 115.367  20.601  1.00  0.00    -0.303 N 
ATOM     12  H6  UNL     1      71.629 114.790  20.578  1.00  0.00     0.189 HD
HETATM   13  C29 UNL     1      68.557 115.365  19.973  1.00  0.00     0.160 A 
ATOM     14  H7  UNL     1      69.810 115.838  21.501  1.00  0.00     0.186 HD
HETATM   15  S1  UNL     1      68.944 114.472  18.565  1.00  0.00    -0.046 SA
ENDBRANCH   7   9
ENDBRANCH   4   5
ENDBRANCH   3   4
BRANCH   3  16
HETATM   16  C22 UNL     1      74.989 113.903  18.192  1.00  0.00    -0.012 A 
HETATM   17  C23 UNL     1      76.138 113.715  18.925  1.00  0.00     0.016 A 
HETATM   18  C24 UNL     1      76.780 114.765  19.569  1.00  0.00     0.037 A 
HETATM   19  C25 UNL     1      76.276 116.044  19.491  1.00  0.00     0.102 A 
HETATM   20  C26 UNL     1      75.110 116.252  18.751  1.00  0.00     0.037 A 
HETATM   21  C27 UNL     1      74.494 115.186  18.122  1.00  0.00     0.016 A 
BRANCH  19  22
HETATM   22  N4  UNL     1      76.889 117.148  20.127  1.00  0.00    -0.116 N 
HETATM   23  O4  UNL     1      76.614 118.315  19.819  1.00  0.00    -0.532 OA
HETATM   24  O5  UNL     1      77.811 116.921  21.110  1.00  0.00    -0.532 OA
ENDBRANCH  19  22
ENDBRANCH   3  16
ENDBRANCH   1   3
BRANCH   1  25
HETATM   25  N2  UNL     1      74.975 111.517  15.703  1.00  0.00    -0.270 N 
HETATM   26  C4  UNL     1      74.222 110.761  14.763  1.00  0.00     0.235 C 
HETATM   27  O2  UNL     1      73.099 111.157  14.376  1.00  0.00    -0.272 OA
ATOM     28  H2  UNL     1      75.887 111.171  16.005  1.00  0.00     0.190 HD
BRANCH  26  29
HETATM   29  C5  UNL     1      74.748 109.471  14.209  1.00  0.00     0.104 C 
BRANCH  29  30
HETATM   30  C6  UNL     1      75.191 108.563  15.344  1.00  0.00     0.010 C 
BRANCH  30  31
HETATM   31  C7  UNL     1      74.046 107.730  15.822  1.00  0.00     0.010 C 
BRANCH  31  32
HETATM   32  C8  UNL     1      74.080 106.315  15.334  1.00  0.00     0.103 C 
BRANCH  32  33
HETATM   33  C9  UNL     1      72.880 105.927  14.578  1.00  0.00     0.217 C 
HETATM   34  O3  UNL     1      72.824 104.859  13.895  1.00  0.00    -0.274 OA
HETATM   35  N3  UNL     1      71.728 106.799  14.618  1.00  0.00    -0.361 N 
ATOM     36  H3  UNL     1      71.763 107.660  15.163  1.00  0.00     0.162 HD
BRANCH  35  37
HETATM   37  C10 UNL     1      70.526 106.458  13.888  1.00  0.00     0.127 C 
BRANCH  37  38
HETATM   38  C11 UNL     1      70.042 107.641  13.087  1.00  0.00     0.059 C 
BRANCH  38  39
HETATM   39  C12 UNL     1      68.719 108.057  13.607  1.00  0.00    -0.045 A 
HETATM   40  C13 UNL     1      67.558 107.366  13.278  1.00  0.00     0.008 A 
HETATM   41  C14 UNL     1      66.308 107.740  13.720  1.00  0.00     0.001 A 
HETATM   42  C15 UNL     1      66.253 108.858  14.523  1.00  0.00     0.012 A 
HETATM   43  C16 UNL     1      67.404 109.571  14.869  1.00  0.00    -0.025 A 
HETATM   44  C17 UNL     1      67.278 110.681  15.685  1.00  0.00     0.012 A 
HETATM   45  C21 UNL     1      68.640 109.174  14.413  1.00  0.00    -0.020 A 
HETATM   46  C18 UNL     1      68.410 111.385  16.036  1.00  0.00     0.001 A 
HETATM   47  C19 UNL     1      69.648 110.987  15.580  1.00  0.00     0.001 A 
HETATM   48  C20 UNL     1      69.766 109.883  14.770  1.00  0.00     0.013 A 
ENDBRANCH  38  39
ENDBRANCH  37  38
ENDBRANCH  35  37
ENDBRANCH  32  33
ENDBRANCH  31  32
ENDBRANCH  30  31
ENDBRANCH  29  30
ENDBRANCH  26  29
ENDBRANCH   1  25
TORSDOF 15
ENDMDL
