MODEL 1
REMARK VINA RESULT: -9.229577641      0.000      0.000
REMARK  15 active torsions:
REMARK  status: ('A' for Active; 'I' for Inactive)
REMARK    1  A    between atoms: C3_3  and  N1_4 
REMARK    2  A    between atoms: N1_4  and  C4_5 
REMARK    3  A    between atoms: N1_4  and  C26_37 
REMARK    4  A    between atoms: C4_5  and  C5_6 
REMARK    5  A    between atoms: C8_9  and  O1_10 
REMARK    6  A    between atoms: O1_10  and  C9_11 
REMARK    7  A    between atoms: C12_14  and  C13_15 
REMARK    8  A    between atoms: C13_15  and  N2_16 
REMARK    9  A    between atoms: C16_22  and  O2_23 
REMARK   10  A    between atoms: O2_23  and  C17_24 
REMARK   11  A    between atoms: C17_24  and  C18_25 
REMARK   12  A    between atoms: C18_25  and  N5_26 
REMARK   13  A    between atoms: N5_26  and  C19_28 
REMARK   14  A    between atoms: C28_39  and  C29_40 
REMARK   15  A    between atoms: C29_40  and  O3_43 
ROOT
HETATM    1  C1  UNL     1      69.531 117.393  19.586  1.00  0.00     0.014 C 
HETATM    2  C2  UNL     1      69.655 116.677  18.631  1.00  0.00    -0.098 C 
HETATM    3  C3  UNL     1      69.788 115.780  17.466  1.00  0.00     0.218 C 
ENDROOT
BRANCH   3   4
HETATM    4  N1  UNL     1      70.594 114.643  17.851  1.00  0.00    -0.345 N 
BRANCH   4   5
HETATM    5  C4  UNL     1      70.013 113.401  18.366  1.00  0.00     0.164 C 
BRANCH   5   6
HETATM    6  C5  UNL     1      70.117 112.377  17.284  1.00  0.00    -0.040 A 
HETATM    7  C6  UNL     1      70.306 111.054  17.605  1.00  0.00     0.011 A 
HETATM    8  C7  UNL     1      70.367 110.086  16.612  1.00  0.00     0.038 A 
HETATM    9  C8  UNL     1      70.244 110.405  15.311  1.00  0.00     0.076 A 
HETATM   10  C24 UNL     1      70.052 111.758  14.961  1.00  0.00     0.038 A 
HETATM   11  C25 UNL     1      69.996 112.679  15.951  1.00  0.00     0.011 A 
BRANCH   9  12
HETATM   12  O1  UNL     1      70.278 109.559  14.242  1.00  0.00    -0.308 OA
BRANCH  12  13
HETATM   13  C9  UNL     1      69.378 108.607  13.894  1.00  0.00     0.109 A 
HETATM   14  C10 UNL     1      68.011 108.974  14.070  1.00  0.00     0.041 A 
HETATM   15  C11 UNL     1      67.008 108.093  13.759  1.00  0.00     0.012 A 
HETATM   16  C12 UNL     1      67.317 106.846  13.273  1.00  0.00    -0.038 A 
HETATM   17  C15 UNL     1      68.632 106.520  13.114  1.00  0.00     0.048 A 
HETATM   18  C16 UNL     1      69.688 107.362  13.410  1.00  0.00     0.103 A 
BRANCH  16  19
HETATM   19  C13 UNL     1      66.268 105.831  12.906  1.00  0.00     0.160 C 
BRANCH  19  20
HETATM   20  N2  UNL     1      66.664 105.140  11.682  1.00  0.00    -0.363 N 
HETATM   21  C14 UNL     1      67.061 103.924  11.640  1.00  0.00     0.197 C 
HETATM   22  N3  UNL     1      67.131 103.169  12.835  1.00  0.00    -0.067 NA
HETATM   23  N4  UNL     1      67.425 103.317  10.413  1.00  0.00    -0.067 NA
ATOM     24  H2  UNL     1      66.621 105.659  10.805  1.00  0.00     0.162 HD
ENDBRANCH  19  20
ENDBRANCH  16  19
BRANCH  18  25
HETATM   25  O2  UNL     1      70.991 106.962  13.244  1.00  0.00    -0.347 OA
BRANCH  25  26
HETATM   26  C17 UNL     1      71.749 106.268  14.227  1.00  0.00     0.195 C 
BRANCH  26  27
HETATM   27  C18 UNL     1      73.203 106.722  14.180  1.00  0.00     0.148 C 
BRANCH  27  28
HETATM   28  N5  UNL     1      73.599 107.244  15.460  1.00  0.00    -0.374 N 
ATOM     29  H5  UNL     1      73.795 106.593  16.221  1.00  0.00     0.161 HD
BRANCH  28  30
HETATM   30  C19 UNL     1      73.717 108.525  15.678  1.00  0.00     0.100 A 
HETATM   31  C20 UNL     1      73.767 109.360  14.580  1.00  0.00     0.048 A 
HETATM   32  C21 UNL     1      73.886 110.727  14.783  1.00  0.00     0.005 A 
HETATM   33  C22 UNL     1      73.954 111.226  16.072  1.00  0.00     0.017 A 
HETATM   34  C23 UNL     1      73.901 110.368  17.163  1.00  0.00     0.089 A 
HETATM   35  N6  UNL     1      73.784 109.045  16.931  1.00  0.00    -0.353 N 
ATOM     36  H6  UNL     1      73.745 108.410  17.728  1.00  0.00     0.166 HD
ENDBRANCH  28  30
ENDBRANCH  27  28
ENDBRANCH  26  27
ENDBRANCH  25  26
ENDBRANCH  18  25
ENDBRANCH  12  13
ENDBRANCH   9  12
ENDBRANCH   5   6
ENDBRANCH   4   5
BRANCH   4  37
HETATM   37  C26 UNL     1      72.021 114.685  17.768  1.00  0.00     0.171 A 
HETATM   38  C27 UNL     1      72.907 114.886  18.805  1.00  0.00     0.088 A 
HETATM   39  C28 UNL     1      74.185 114.851  18.277  1.00  0.00     0.070 A 
HETATM   40  N7  UNL     1      74.006 114.629  16.936  1.00  0.00    -0.260 N 
HETATM   41  O4  UNL     1      72.732 114.540  16.693  1.00  0.00    -0.220 OA
ATOM     42  H7  UNL     1      74.750 114.548  16.243  1.00  0.00     0.194 HD
BRANCH  39  43
HETATM   43  C29 UNL     1      75.464 115.031  18.999  1.00  0.00     0.097 C 
HETATM   44  C30 UNL     1      76.280 113.756  18.853  1.00  0.00     0.052 C 
HETATM   45  C31 UNL     1      75.176 115.217  20.491  1.00  0.00     0.052 C 
BRANCH  43  46
HETATM   46  O3  UNL     1      76.162 116.136  18.594  1.00  0.00    -0.379 OA
HETATM   47  C32 UNL     1      77.274 116.476  19.311  1.00  0.00     0.203 C 
ENDBRANCH  43  46
ENDBRANCH  39  43
ENDBRANCH   4  37
ENDBRANCH   3   4
TORSDOF 15
ENDMDL
MODEL 2
REMARK VINA RESULT: -9.163406398      1.360      1.881
REMARK  15 active torsions:
REMARK  status: ('A' for Active; 'I' for Inactive)
REMARK    1  A    between atoms: C3_3  and  N1_4 
REMARK    2  A    between atoms: N1_4  and  C4_5 
REMARK    3  A    between atoms: N1_4  and  C26_37 
REMARK    4  A    between atoms: C4_5  and  C5_6 
REMARK    5  A    between atoms: C8_9  and  O1_10 
REMARK    6  A    between atoms: O1_10  and  C9_11 
REMARK    7  A    between atoms: C12_14  and  C13_15 
REMARK    8  A    between atoms: C13_15  and  N2_16 
REMARK    9  A    between atoms: C16_22  and  O2_23 
REMARK   10  A    between atoms: O2_23  and  C17_24 
REMARK   11  A    between atoms: C17_24  and  C18_25 
REMARK   12  A    between atoms: C18_25  and  N5_26 
REMARK   13  A    between atoms: N5_26  and  C19_28 
REMARK   14  A    between atoms: C28_39  and  C29_40 
REMARK   15  A    between atoms: C29_40  and  O3_43 
ROOT
HETATM    1  C1  UNL     1      70.040 115.644  17.340  1.00  0.00     0.014 C 
HETATM    2  C2  UNL     1      70.296 114.818  18.173  1.00  0.00    -0.098 C 
HETATM    3  C3  UNL     1      70.628 113.819  19.209  1.00  0.00     0.218 C 
ENDROOT
BRANCH   3   4
HETATM    4  N1  UNL     1      71.824 113.117  18.801  1.00  0.00    -0.345 N 
BRANCH   4   5
HETATM    5  C4  UNL     1      71.845 111.674  18.552  1.00  0.00     0.164 C 
BRANCH   5   6
HETATM    6  C5  UNL     1      70.831 111.387  17.494  1.00  0.00    -0.040 A 
HETATM    7  C6  UNL     1      70.982 111.916  16.235  1.00  0.00     0.011 A 
HETATM    8  C7  UNL     1      70.067 111.629  15.231  1.00  0.00     0.038 A 
HETATM    9  C8  UNL     1      69.010 110.827  15.453  1.00  0.00     0.076 A 
HETATM   10  C24 UNL     1      68.837 110.275  16.740  1.00  0.00     0.038 A 
HETATM   11  C25 UNL     1      69.745 110.574  17.697  1.00  0.00     0.011 A 
BRANCH   9  12
HETATM   12  O1  UNL     1      68.046 110.458  14.562  1.00  0.00    -0.308 OA
BRANCH  12  13
HETATM   13  C9  UNL     1      67.748 109.214  14.112  1.00  0.00     0.109 A 
HETATM   14  C10 UNL     1      66.377 108.839  14.234  1.00  0.00     0.041 A 
HETATM   15  C11 UNL     1      65.954 107.604  13.820  1.00  0.00     0.012 A 
HETATM   16  C12 UNL     1      66.853 106.716  13.279  1.00  0.00    -0.038 A 
HETATM   17  C15 UNL     1      68.157 107.099  13.173  1.00  0.00     0.048 A 
HETATM   18  C16 UNL     1      68.647 108.328  13.575  1.00  0.00     0.103 A 
BRANCH  16  19
HETATM   19  C13 UNL     1      66.457 105.346  12.799  1.00  0.00     0.160 C 
BRANCH  19  20
HETATM   20  N2  UNL     1      67.620 104.463  12.827  1.00  0.00    -0.363 N 
HETATM   21  C14 UNL     1      67.765 103.440  12.072  1.00  0.00     0.197 C 
HETATM   22  N3  UNL     1      66.754 103.114  11.135  1.00  0.00    -0.067 NA
HETATM   23  N4  UNL     1      68.924 102.631  12.153  1.00  0.00    -0.067 NA
ATOM     24  H2  UNL     1      68.364 104.675  13.491  1.00  0.00     0.162 HD
ENDBRANCH  19  20
ENDBRANCH  16  19
BRANCH  18  25
HETATM   25  O2  UNL     1      69.978 108.642  13.456  1.00  0.00    -0.347 OA
BRANCH  25  26
HETATM   26  C17 UNL     1      70.956 107.788  12.874  1.00  0.00     0.195 C 
BRANCH  26  27
HETATM   27  C18 UNL     1      71.979 107.375  13.924  1.00  0.00     0.148 C 
BRANCH  27  28
HETATM   28  N5  UNL     1      71.948 108.291  15.032  1.00  0.00    -0.374 N 
ATOM     29  H5  UNL     1      71.133 108.296  15.647  1.00  0.00     0.161 HD
BRANCH  28  30
HETATM   30  C19 UNL     1      72.929 109.115  15.276  1.00  0.00     0.100 A 
HETATM   31  C20 UNL     1      73.495 109.081  16.535  1.00  0.00     0.048 A 
HETATM   32  C21 UNL     1      74.544 109.943  16.820  1.00  0.00     0.005 A 
HETATM   33  C22 UNL     1      74.998 110.817  15.848  1.00  0.00     0.017 A 
HETATM   34  C23 UNL     1      74.414 110.835  14.589  1.00  0.00     0.089 A 
HETATM   35  N6  UNL     1      73.398 109.983  14.343  1.00  0.00    -0.353 N 
ATOM     36  H6  UNL     1      72.965 109.991  13.420  1.00  0.00     0.166 HD
ENDBRANCH  28  30
ENDBRANCH  27  28
ENDBRANCH  26  27
ENDBRANCH  25  26
ENDBRANCH  18  25
ENDBRANCH  12  13
ENDBRANCH   9  12
ENDBRANCH   5   6
ENDBRANCH   4   5
BRANCH   4  37
HETATM   37  C26 UNL     1      73.067 113.804  18.639  1.00  0.00     0.171 A 
HETATM   38  C27 UNL     1      73.668 114.655  19.542  1.00  0.00     0.088 A 
HETATM   39  C28 UNL     1      74.853 115.094  18.980  1.00  0.00     0.070 A 
HETATM   40  N7  UNL     1      74.909 114.481  17.755  1.00  0.00    -0.260 N 
HETATM   41  O4  UNL     1      73.849 113.743  17.606  1.00  0.00    -0.220 OA
ATOM     42  H7  UNL     1      75.659 114.587  17.071  1.00  0.00     0.194 HD
BRANCH  39  43
HETATM   43  C29 UNL     1      75.836 116.033  19.565  1.00  0.00     0.097 C 
HETATM   44  C30 UNL     1      77.106 115.977  18.731  1.00  0.00     0.052 C 
HETATM   45  C31 UNL     1      76.199 115.564  20.976  1.00  0.00     0.052 C 
BRANCH  43  46
HETATM   46  O3  UNL     1      75.356 117.309  19.687  1.00  0.00    -0.379 OA
HETATM   47  C32 UNL     1      76.102 118.194  20.413  1.00  0.00     0.203 C 
ENDBRANCH  43  46
ENDBRANCH  39  43
ENDBRANCH   4  37
ENDBRANCH   3   4
TORSDOF 15
ENDMDL
MODEL 3
REMARK VINA RESULT: -9.072064427      3.406     11.612
REMARK  15 active torsions:
REMARK  status: ('A' for Active; 'I' for Inactive)
REMARK    1  A    between atoms: C3_3  and  N1_4 
REMARK    2  A    between atoms: N1_4  and  C4_5 
REMARK    3  A    between atoms: N1_4  and  C26_37 
REMARK    4  A    between atoms: C4_5  and  C5_6 
REMARK    5  A    between atoms: C8_9  and  O1_10 
REMARK    6  A    between atoms: O1_10  and  C9_11 
REMARK    7  A    between atoms: C12_14  and  C13_15 
REMARK    8  A    between atoms: C13_15  and  N2_16 
REMARK    9  A    between atoms: C16_22  and  O2_23 
REMARK   10  A    between atoms: O2_23  and  C17_24 
REMARK   11  A    between atoms: C17_24  and  C18_25 
REMARK   12  A    between atoms: C18_25  and  N5_26 
REMARK   13  A    between atoms: N5_26  and  C19_28 
REMARK   14  A    between atoms: C28_39  and  C29_40 
REMARK   15  A    between atoms: C29_40  and  O3_43 
ROOT
HETATM    1  C1  UNL     1      74.082 108.146  13.974  1.00  0.00     0.014 C 
HETATM    2  C2  UNL     1      74.307 109.184  14.535  1.00  0.00    -0.098 C 
HETATM    3  C3  UNL     1      74.592 110.447  15.245  1.00  0.00     0.218 C 
ENDROOT
BRANCH   3   4
HETATM    4  N1  UNL     1      73.523 110.696  16.185  1.00  0.00    -0.345 N 
BRANCH   4   5
HETATM    5  C4  UNL     1      73.756 110.858  17.621  1.00  0.00     0.164 C 
BRANCH   5   6
HETATM    6  C5  UNL     1      73.814 112.324  17.903  1.00  0.00    -0.040 A 
HETATM    7  C6  UNL     1      73.194 112.835  19.017  1.00  0.00     0.011 A 
HETATM    8  C7  UNL     1      73.271 114.189  19.313  1.00  0.00     0.038 A 
HETATM    9  C8  UNL     1      73.951 115.042  18.525  1.00  0.00     0.076 A 
HETATM   10  C24 UNL     1      74.593 114.536  17.375  1.00  0.00     0.038 A 
HETATM   11  C25 UNL     1      74.500 113.212  17.114  1.00  0.00     0.011 A 
BRANCH   9  12
HETATM   12  O1  UNL     1      74.113 116.385  18.700  1.00  0.00    -0.308 OA
BRANCH  12  13
HETATM   13  C9  UNL     1      74.595 117.040  19.785  1.00  0.00     0.109 A 
HETATM   14  C10 UNL     1      75.833 116.544  20.290  1.00  0.00     0.041 A 
HETATM   15  C11 UNL     1      76.419 117.119  21.387  1.00  0.00     0.012 A 
HETATM   16  C12 UNL     1      75.812 118.184  22.008  1.00  0.00    -0.038 A 
HETATM   17  C15 UNL     1      74.628 118.639  21.506  1.00  0.00     0.048 A 
HETATM   18  C16 UNL     1      73.987 118.101  20.406  1.00  0.00     0.103 A 
BRANCH  16  19
HETATM   19  C13 UNL     1      76.400 118.868  23.214  1.00  0.00     0.160 C 
BRANCH  19  20
HETATM   20  N2  UNL     1      75.379 119.691  23.855  1.00  0.00    -0.363 N 
HETATM   21  C14 UNL     1      74.861 119.434  24.997  1.00  0.00     0.197 C 
HETATM   22  N3  UNL     1      75.283 118.289  25.714  1.00  0.00    -0.067 NA
HETATM   23  N4  UNL     1      73.877 120.282  25.560  1.00  0.00    -0.067 NA
ATOM     24  H2  UNL     1      75.057 120.523  23.362  1.00  0.00     0.162 HD
ENDBRANCH  19  20
ENDBRANCH  16  19
BRANCH  18  25
HETATM   25  O2  UNL     1      72.786 118.597  19.963  1.00  0.00    -0.347 OA
BRANCH  25  26
HETATM   26  C17 UNL     1      71.530 117.962  20.172  1.00  0.00     0.195 C 
BRANCH  26  27
HETATM   27  C18 UNL     1      70.571 118.320  19.044  1.00  0.00     0.148 C 
BRANCH  27  28
HETATM   28  N5  UNL     1      69.550 117.315  18.925  1.00  0.00    -0.374 N 
ATOM     29  H5  UNL     1      68.612 117.519  19.273  1.00  0.00     0.161 HD
BRANCH  28  30
HETATM   30  C19 UNL     1      69.784 116.151  18.385  1.00  0.00     0.100 A 
HETATM   31  C20 UNL     1      69.297 115.035  19.036  1.00  0.00     0.048 A 
HETATM   32  C21 UNL     1      69.526 113.784  18.480  1.00  0.00     0.005 A 
HETATM   33  C22 UNL     1      70.235 113.678  17.297  1.00  0.00     0.017 A 
HETATM   34  C23 UNL     1      70.716 114.814  16.659  1.00  0.00     0.089 A 
HETATM   35  N6  UNL     1      70.475 116.014  17.224  1.00  0.00    -0.353 N 
ATOM     36  H6  UNL     1      70.825 116.852  16.761  1.00  0.00     0.166 HD
ENDBRANCH  28  30
ENDBRANCH  27  28
ENDBRANCH  26  27
ENDBRANCH  25  26
ENDBRANCH  18  25
ENDBRANCH  12  13
ENDBRANCH   9  12
ENDBRANCH   5   6
ENDBRANCH   4   5
BRANCH   4  37
HETATM   37  C26 UNL     1      72.162 110.778  15.753  1.00  0.00     0.171 A 
HETATM   38  C27 UNL     1      71.090 110.066  16.248  1.00  0.00     0.088 A 
HETATM   39  C28 UNL     1      69.965 110.457  15.544  1.00  0.00     0.070 A 
HETATM   40  N7  UNL     1      70.418 111.393  14.650  1.00  0.00    -0.260 N 
HETATM   41  O4  UNL     1      71.699 111.543  14.813  1.00  0.00    -0.220 OA
ATOM     42  H7  UNL     1      69.844 111.889  13.968  1.00  0.00     0.194 HD
BRANCH  39  43
HETATM   43  C29 UNL     1      68.581 109.960  15.708  1.00  0.00     0.097 C 
HETATM   44  C30 UNL     1      67.944 110.697  16.875  1.00  0.00     0.052 C 
HETATM   45  C31 UNL     1      68.622 108.475  16.076  1.00  0.00     0.052 C 
BRANCH  43  46
HETATM   46  O3  UNL     1      67.833 110.060  14.566  1.00  0.00    -0.379 OA
HETATM   47  C32 UNL     1      67.652 108.923  13.832  1.00  0.00     0.203 C 
ENDBRANCH  43  46
ENDBRANCH  39  43
ENDBRANCH   4  37
ENDBRANCH   3   4
TORSDOF 15
ENDMDL
MODEL 4
REMARK VINA RESULT: -9.049073080      1.625      2.033
REMARK  15 active torsions:
REMARK  status: ('A' for Active; 'I' for Inactive)
REMARK    1  A    between atoms: C3_3  and  N1_4 
REMARK    2  A    between atoms: N1_4  and  C4_5 
REMARK    3  A    between atoms: N1_4  and  C26_37 
REMARK    4  A    between atoms: C4_5  and  C5_6 
REMARK    5  A    between atoms: C8_9  and  O1_10 
REMARK    6  A    between atoms: O1_10  and  C9_11 
REMARK    7  A    between atoms: C12_14  and  C13_15 
REMARK    8  A    between atoms: C13_15  and  N2_16 
REMARK    9  A    between atoms: C16_22  and  O2_23 
REMARK   10  A    between atoms: O2_23  and  C17_24 
REMARK   11  A    between atoms: C17_24  and  C18_25 
REMARK   12  A    between atoms: C18_25  and  N5_26 
REMARK   13  A    between atoms: N5_26  and  C19_28 
REMARK   14  A    between atoms: C28_39  and  C29_40 
REMARK   15  A    between atoms: C29_40  and  O3_43 
ROOT
HETATM    1  C1  UNL     1      69.871 115.929  17.212  1.00  0.00     0.014 C 
HETATM    2  C2  UNL     1      69.904 115.097  18.077  1.00  0.00    -0.098 C 
HETATM    3  C3  UNL     1      69.953 114.092  19.158  1.00  0.00     0.218 C 
ENDROOT
BRANCH   3   4
HETATM    4  N1  UNL     1      71.304 113.587  19.253  1.00  0.00    -0.345 N 
BRANCH   4   5
HETATM    5  C4  UNL     1      71.643 112.186  18.992  1.00  0.00     0.164 C 
BRANCH   5   6
HETATM    6  C5  UNL     1      70.915 111.772  17.755  1.00  0.00    -0.040 A 
HETATM    7  C6  UNL     1      71.298 112.270  16.533  1.00  0.00     0.011 A 
HETATM    8  C7  UNL     1      70.655 111.866  15.371  1.00  0.00     0.038 A 
HETATM    9  C8  UNL     1      69.643 110.980  15.400  1.00  0.00     0.076 A 
HETATM   10  C24 UNL     1      69.234 110.459  16.646  1.00  0.00     0.038 A 
HETATM   11  C25 UNL     1      69.880 110.872  17.761  1.00  0.00     0.011 A 
BRANCH   9  12
HETATM   12  O1  UNL     1      68.934 110.494  14.341  1.00  0.00    -0.308 OA
BRANCH  12  13
HETATM   13  C9  UNL     1      68.626 109.205  14.055  1.00  0.00     0.109 A 
HETATM   14  C10 UNL     1      67.232 108.905  14.040  1.00  0.00     0.041 A 
HETATM   15  C11 UNL     1      66.795 107.635  13.769  1.00  0.00     0.012 A 
HETATM   16  C12 UNL     1      67.705 106.639  13.507  1.00  0.00    -0.038 A 
HETATM   17  C15 UNL     1      69.032 106.952  13.527  1.00  0.00     0.048 A 
HETATM   18  C16 UNL     1      69.535 108.212  13.795  1.00  0.00     0.103 A 
BRANCH  16  19
HETATM   19  C13 UNL     1      67.297 105.224  13.197  1.00  0.00     0.160 C 
BRANCH  19  20
HETATM   20  N2  UNL     1      68.428 104.507  12.614  1.00  0.00    -0.363 N 
HETATM   21  C14 UNL     1      68.527 103.232  12.574  1.00  0.00     0.197 C 
HETATM   22  N3  UNL     1      67.492 102.432  13.119  1.00  0.00    -0.067 NA
HETATM   23  N4  UNL     1      69.652 102.604  11.988  1.00  0.00    -0.067 NA
ATOM     24  H2  UNL     1      69.187 105.057  12.213  1.00  0.00     0.162 HD
ENDBRANCH  19  20
ENDBRANCH  16  19
BRANCH  18  25
HETATM   25  O2  UNL     1      70.886 108.454  13.818  1.00  0.00    -0.347 OA
BRANCH  25  26
HETATM   26  C17 UNL     1      71.880 107.488  13.494  1.00  0.00     0.195 C 
BRANCH  26  27
HETATM   27  C18 UNL     1      73.263 108.031  13.833  1.00  0.00     0.148 C 
BRANCH  27  28
HETATM   28  N5  UNL     1      73.190 109.442  14.098  1.00  0.00    -0.374 N 
ATOM     29  H5  UNL     1      72.688 110.042  13.443  1.00  0.00     0.161 HD
BRANCH  28  30
HETATM   30  C19 UNL     1      73.744 109.978  15.151  1.00  0.00     0.100 A 
HETATM   31  C20 UNL     1      73.649 109.291  16.344  1.00  0.00     0.048 A 
HETATM   32  C21 UNL     1      74.234 109.836  17.478  1.00  0.00     0.005 A 
HETATM   33  C22 UNL     1      74.894 111.049  17.394  1.00  0.00     0.017 A 
HETATM   34  C23 UNL     1      74.978 111.723  16.184  1.00  0.00     0.089 A 
HETATM   35  N6  UNL     1      74.399 111.166  15.101  1.00  0.00    -0.353 N 
ATOM     36  H6  UNL     1      74.457 111.657  14.208  1.00  0.00     0.166 HD
ENDBRANCH  28  30
ENDBRANCH  27  28
ENDBRANCH  26  27
ENDBRANCH  25  26
ENDBRANCH  18  25
ENDBRANCH  12  13
ENDBRANCH   9  12
ENDBRANCH   5   6
ENDBRANCH   4   5
BRANCH   4  37
HETATM   37  C26 UNL     1      72.388 114.439  19.633  1.00  0.00     0.171 A 
HETATM   38  C27 UNL     1      73.731 114.217  19.419  1.00  0.00     0.088 A 
HETATM   39  C28 UNL     1      74.423 115.293  19.945  1.00  0.00     0.070 A 
HETATM   40  N7  UNL     1      73.455 116.118  20.456  1.00  0.00    -0.260 N 
HETATM   41  O4  UNL     1      72.291 115.577  20.247  1.00  0.00    -0.220 OA
ATOM     42  H7  UNL     1      73.620 117.010  20.922  1.00  0.00     0.194 HD
BRANCH  39  43
HETATM   43  C29 UNL     1      75.889 115.498  19.968  1.00  0.00     0.097 C 
HETATM   44  C30 UNL     1      76.216 116.704  19.102  1.00  0.00     0.052 C 
HETATM   45  C31 UNL     1      76.575 114.285  19.335  1.00  0.00     0.052 C 
BRANCH  43  46
HETATM   46  O3  UNL     1      76.397 115.621  21.233  1.00  0.00    -0.379 OA
HETATM   47  C32 UNL     1      76.588 116.886  21.713  1.00  0.00     0.203 C 
ENDBRANCH  43  46
ENDBRANCH  39  43
ENDBRANCH   4  37
ENDBRANCH   3   4
TORSDOF 15
ENDMDL
MODEL 5
REMARK VINA RESULT: -9.003012605      1.482      1.821
REMARK  15 active torsions:
REMARK  status: ('A' for Active; 'I' for Inactive)
REMARK    1  A    between atoms: C3_3  and  N1_4 
REMARK    2  A    between atoms: N1_4  and  C4_5 
REMARK    3  A    between atoms: N1_4  and  C26_37 
REMARK    4  A    between atoms: C4_5  and  C5_6 
REMARK    5  A    between atoms: C8_9  and  O1_10 
REMARK    6  A    between atoms: O1_10  and  C9_11 
REMARK    7  A    between atoms: C12_14  and  C13_15 
REMARK    8  A    between atoms: C13_15  and  N2_16 
REMARK    9  A    between atoms: C16_22  and  O2_23 
REMARK   10  A    between atoms: O2_23  and  C17_24 
REMARK   11  A    between atoms: C17_24  and  C18_25 
REMARK   12  A    between atoms: C18_25  and  N5_26 
REMARK   13  A    between atoms: N5_26  and  C19_28 
REMARK   14  A    between atoms: C28_39  and  C29_40 
REMARK   15  A    between atoms: C29_40  and  O3_43 
ROOT
HETATM    1  C1  UNL     1      69.686 117.995  19.238  1.00  0.00     0.014 C 
HETATM    2  C2  UNL     1      69.690 117.078  18.464  1.00  0.00    -0.098 C 
HETATM    3  C3  UNL     1      69.677 115.937  17.527  1.00  0.00     0.218 C 
ENDROOT
BRANCH   3   4
HETATM    4  N1  UNL     1      70.572 114.920  18.031  1.00  0.00    -0.345 N 
BRANCH   4   5
HETATM    5  C4  UNL     1      70.097 113.629  18.535  1.00  0.00     0.164 C 
BRANCH   5   6
HETATM    6  C5  UNL     1      70.308 112.621  17.454  1.00  0.00    -0.040 A 
HETATM    7  C6  UNL     1      70.860 111.399  17.752  1.00  0.00     0.011 A 
HETATM    8  C7  UNL     1      71.029 110.438  16.764  1.00  0.00     0.038 A 
HETATM    9  C8  UNL     1      70.659 110.666  15.491  1.00  0.00     0.076 A 
HETATM   10  C24 UNL     1      70.092 111.917  15.165  1.00  0.00     0.038 A 
HETATM   11  C25 UNL     1      69.941 112.833  16.149  1.00  0.00     0.011 A 
BRANCH   9  12
HETATM   12  O1  UNL     1      70.760 109.815  14.431  1.00  0.00    -0.308 OA
BRANCH  12  13
HETATM   13  C9  UNL     1      70.165 108.609  14.262  1.00  0.00     0.109 A 
HETATM   14  C10 UNL     1      68.847 108.505  14.798  1.00  0.00     0.041 A 
HETATM   15  C11 UNL     1      68.143 107.333  14.695  1.00  0.00     0.012 A 
HETATM   16  C12 UNL     1      68.707 106.248  14.068  1.00  0.00    -0.038 A 
HETATM   17  C15 UNL     1      69.968 106.374  13.564  1.00  0.00     0.048 A 
HETATM   18  C16 UNL     1      70.729 107.526  13.638  1.00  0.00     0.103 A 
BRANCH  16  19
HETATM   19  C13 UNL     1      67.991 104.933  13.913  1.00  0.00     0.160 C 
BRANCH  19  20
HETATM   20  N2  UNL     1      68.705 103.898  14.655  1.00  0.00    -0.363 N 
HETATM   21  C14 UNL     1      68.420 102.652  14.604  1.00  0.00     0.197 C 
HETATM   22  N3  UNL     1      67.353 102.210  13.784  1.00  0.00    -0.067 NA
HETATM   23  N4  UNL     1      69.161 101.702  15.349  1.00  0.00    -0.067 NA
ATOM     24  H2  UNL     1      69.479 104.187  15.253  1.00  0.00     0.162 HD
ENDBRANCH  19  20
ENDBRANCH  16  19
BRANCH  18  25
HETATM   25  O2  UNL     1      72.001 107.578  13.124  1.00  0.00    -0.347 OA
BRANCH  25  26
HETATM   26  C17 UNL     1      73.186 107.523  13.910  1.00  0.00     0.195 C 
BRANCH  26  27
HETATM   27  C18 UNL     1      74.202 108.533  13.390  1.00  0.00     0.148 C 
BRANCH  27  28
HETATM   28  N5  UNL     1      73.926 109.835  13.932  1.00  0.00    -0.374 N 
ATOM     29  H5  UNL     1      73.258 110.439  13.451  1.00  0.00     0.161 HD
BRANCH  28  30
HETATM   30  C19 UNL     1      74.502 110.270  15.019  1.00  0.00     0.100 A 
HETATM   31  C20 UNL     1      75.543 109.523  15.534  1.00  0.00     0.048 A 
HETATM   32  C21 UNL     1      76.177 109.965  16.685  1.00  0.00     0.005 A 
HETATM   33  C22 UNL     1      75.758 111.135  17.294  1.00  0.00     0.017 A 
HETATM   34  C23 UNL     1      74.710 111.871  16.759  1.00  0.00     0.089 A 
HETATM   35  N6  UNL     1      74.115 111.415  15.638  1.00  0.00    -0.353 N 
ATOM     36  H6  UNL     1      73.344 111.951  15.240  1.00  0.00     0.166 HD
ENDBRANCH  28  30
ENDBRANCH  27  28
ENDBRANCH  26  27
ENDBRANCH  25  26
ENDBRANCH  18  25
ENDBRANCH  12  13
ENDBRANCH   9  12
ENDBRANCH   5   6
ENDBRANCH   4   5
BRANCH   4  37
HETATM   37  C26 UNL     1      71.984 115.136  18.083  1.00  0.00     0.171 A 
HETATM   38  C27 UNL     1      72.712 115.616  19.151  1.00  0.00     0.088 A 
HETATM   39  C28 UNL     1      74.040 115.665  18.766  1.00  0.00     0.070 A 
HETATM   40  N7  UNL     1      74.048 115.210  17.473  1.00  0.00    -0.260 N 
HETATM   41  O4  UNL     1      72.831 114.915  17.125  1.00  0.00    -0.220 OA
ATOM     42  H7  UNL     1      74.874 115.118  16.881  1.00  0.00     0.194 HD
BRANCH  39  43
HETATM   43  C29 UNL     1      75.194 116.127  19.568  1.00  0.00     0.097 C 
HETATM   44  C30 UNL     1      75.700 114.955  20.395  1.00  0.00     0.052 C 
HETATM   45  C31 UNL     1      74.725 117.205  20.548  1.00  0.00     0.052 C 
BRANCH  43  46
HETATM   46  O3  UNL     1      76.187 116.688  18.812  1.00  0.00    -0.379 OA
HETATM   47  C32 UNL     1      77.478 116.449  19.192  1.00  0.00     0.203 C 
ENDBRANCH  43  46
ENDBRANCH  39  43
ENDBRANCH   4  37
ENDBRANCH   3   4
TORSDOF 15
ENDMDL
