MODEL 1
REMARK VINA RESULT: -8.547272471      0.000      0.000
REMARK  18 active torsions:
REMARK  status: ('A' for Active; 'I' for Inactive)
REMARK    1  A    between atoms: O1_2  and  C2_3 
REMARK    2  A    between atoms: C2_3  and  C3_5 
REMARK       I    between atoms: N1_7  and  C5_9 
REMARK    3  A    between atoms: C5_9  and  C6_11 
REMARK    4  A    between atoms: C6_11  and  C7_12 
REMARK    5  A    between atoms: C6_11  and  C28_41 
REMARK    6  A    between atoms: C8_13  and  C9_14 
REMARK    7  A    between atoms: C9_14  and  C11_16 
REMARK       I    between atoms: C11_16  and  N2_18 
REMARK    8  A    between atoms: N2_18  and  C12_20 
REMARK    9  A    between atoms: C12_20  and  C13_21 
REMARK   10  A    between atoms: C12_20  and  C17_25 
REMARK   11  A    between atoms: C13_21  and  C14_22 
REMARK   12  A    between atoms: C17_25  and  C18_27 
REMARK   13  A    between atoms: C18_27  and  C19_28 
REMARK   14  A    between atoms: C18_27  and  N3_32 
REMARK   15  A    between atoms: C19_28  and  C20_29 
REMARK       I    between atoms: N3_32  and  C23_34 
REMARK   16  A    between atoms: C23_34  and  O7_36 
REMARK   17  A    between atoms: O7_36  and  C24_37 
REMARK   18  A    between atoms: C28_41  and  O8_44 
ROOT
HETATM    1  C11 UNL     1      71.352 112.137  15.534  1.00  0.00     0.225 C 
HETATM    2  O4  UNL     1      71.994 113.007  14.848  1.00  0.00    -0.273 OA
HETATM    3  N2  UNL     1      71.728 111.916  16.894  1.00  0.00    -0.349 N 
ATOM      4  H2  UNL     1      71.230 111.212  17.439  1.00  0.00     0.163 HD
ENDROOT
BRANCH   3   5
HETATM    5  C12 UNL     1      72.799 112.668  17.519  1.00  0.00     0.156 C 
BRANCH   5   6
HETATM    6  C13 UNL     1      73.918 111.766  17.893  1.00  0.00     0.037 C 
BRANCH   6   7
HETATM    7  C14 UNL     1      75.049 111.594  16.964  1.00  0.00    -0.020 C 
HETATM    8  C15 UNL     1      76.116 110.740  17.694  1.00  0.00     0.009 C 
HETATM    9  C16 UNL     1      74.813 110.927  15.667  1.00  0.00     0.009 C 
ENDBRANCH   6   7
ENDBRANCH   5   6
BRANCH   5  10
HETATM   10  C17 UNL     1      72.192 113.219  18.790  1.00  0.00     0.172 C 
HETATM   11  O5  UNL     1      71.911 112.389  19.642  1.00  0.00    -0.293 OA
BRANCH  10  12
HETATM   12  C18 UNL     1      71.930 114.644  19.052  1.00  0.00     0.159 C 
BRANCH  12  13
HETATM   13  C19 UNL     1      70.798 115.192  18.288  1.00  0.00     0.037 C 
BRANCH  13  14
HETATM   14  C20 UNL     1      69.628 115.710  19.055  1.00  0.00    -0.020 C 
HETATM   15  C21 UNL     1      69.447 115.201  20.431  1.00  0.00     0.009 C 
HETATM   16  C22 UNL     1      69.658 117.240  19.092  1.00  0.00     0.009 C 
ENDBRANCH  13  14
ENDBRANCH  12  13
BRANCH  12  17
HETATM   17  N3  UNL     1      73.182 115.345  18.977  1.00  0.00    -0.325 N 
HETATM   18  C23 UNL     1      73.598 116.363  19.878  1.00  0.00     0.361 C 
HETATM   19  O6  UNL     1      72.837 116.692  20.822  1.00  0.00    -0.238 OA
ATOM     20  H3  UNL     1      73.818 115.095  18.221  1.00  0.00     0.165 HD
BRANCH  18  21
HETATM   21  O7  UNL     1      74.802 117.013  19.770  1.00  0.00    -0.294 OA
BRANCH  21  22
HETATM   22  C24 UNL     1      76.020 116.662  20.338  1.00  0.00     0.061 C 
HETATM   23  C25 UNL     1      77.081 116.855  19.244  1.00  0.00     0.046 C 
HETATM   24  C26 UNL     1      76.429 117.526  21.494  1.00  0.00     0.046 C 
HETATM   25  C27 UNL     1      76.088 115.208  20.752  1.00  0.00     0.046 C 
ENDBRANCH  21  22
ENDBRANCH  18  21
ENDBRANCH  12  17
ENDBRANCH  10  12
ENDBRANCH   5  10
ENDBRANCH   3   5
BRANCH   1  26
HETATM   26  C9  UNL     1      70.253 111.426  14.851  1.00  0.00     0.096 C 
HETATM   27  C10 UNL     1      68.972 111.868  15.560  1.00  0.00     0.024 C 
BRANCH  26  28
HETATM   28  C8  UNL     1      70.371 109.964  14.834  1.00  0.00    -0.016 C 
HETATM   29  C7  UNL     1      71.485 109.293  14.625  1.00  0.00    -0.013 C 
BRANCH  29  30
HETATM   30  C6  UNL     1      71.607 107.821  14.605  1.00  0.00     0.134 C 
BRANCH  30  31
HETATM   31  C5  UNL     1      70.699 107.209  13.587  1.00  0.00     0.232 C 
HETATM   32  N1  UNL     1      69.824 106.175  13.816  1.00  0.00    -0.325 N 
HETATM   33  C3  UNL     1      68.625 105.929  13.556  1.00  0.00     0.083 C 
ATOM     34  H1  UNL     1      70.264 105.413  14.330  1.00  0.00     0.168 HD
HETATM   35  C4  UNL     1      68.093 104.599  14.043  1.00  0.00     0.075 C 
HETATM   36  O3  UNL     1      70.774 107.715  12.411  1.00  0.00    -0.272 OA
BRANCH  33  37
HETATM   37  C2  UNL     1      67.714 106.787  12.844  1.00  0.00     0.305 C 
HETATM   38  O2  UNL     1      66.815 106.245  12.116  1.00  0.00    -0.258 OA
BRANCH  37  39
HETATM   39  O1  UNL     1      67.692 108.165  12.854  1.00  0.00    -0.322 OA
HETATM   40  C1  UNL     1      67.115 108.935  13.906  1.00  0.00     0.213 C 
ENDBRANCH  37  39
ENDBRANCH  33  37
ENDBRANCH  30  31
BRANCH  30  41
HETATM   41  C28 UNL     1      73.037 107.407  14.296  1.00  0.00     0.066 C 
HETATM   42  C29 UNL     1      73.624 108.332  13.273  1.00  0.00     0.046 C 
HETATM   43  C30 UNL     1      73.924 107.348  15.492  1.00  0.00     0.046 C 
BRANCH  41  44
HETATM   44  O8  UNL     1      72.947 106.123  13.730  1.00  0.00    -0.389 OA
ATOM     45  H8  UNL     1      73.701 105.646  14.056  1.00  0.00     0.210 HD
ENDBRANCH  41  44
ENDBRANCH  30  41
ENDBRANCH  29  30
ENDBRANCH  26  28
ENDBRANCH   1  26
TORSDOF 18
ENDMDL
MODEL 2
REMARK VINA RESULT: -8.494316163      1.636      4.340
REMARK  18 active torsions:
REMARK  status: ('A' for Active; 'I' for Inactive)
REMARK    1  A    between atoms: O1_2  and  C2_3 
REMARK    2  A    between atoms: C2_3  and  C3_5 
REMARK       I    between atoms: N1_7  and  C5_9 
REMARK    3  A    between atoms: C5_9  and  C6_11 
REMARK    4  A    between atoms: C6_11  and  C7_12 
REMARK    5  A    between atoms: C6_11  and  C28_41 
REMARK    6  A    between atoms: C8_13  and  C9_14 
REMARK    7  A    between atoms: C9_14  and  C11_16 
REMARK       I    between atoms: C11_16  and  N2_18 
REMARK    8  A    between atoms: N2_18  and  C12_20 
REMARK    9  A    between atoms: C12_20  and  C13_21 
REMARK   10  A    between atoms: C12_20  and  C17_25 
REMARK   11  A    between atoms: C13_21  and  C14_22 
REMARK   12  A    between atoms: C17_25  and  C18_27 
REMARK   13  A    between atoms: C18_27  and  C19_28 
REMARK   14  A    between atoms: C18_27  and  N3_32 
REMARK   15  A    between atoms: C19_28  and  C20_29 
REMARK       I    between atoms: N3_32  and  C23_34 
REMARK   16  A    between atoms: C23_34  and  O7_36 
REMARK   17  A    between atoms: O7_36  and  C24_37 
REMARK   18  A    between atoms: C28_41  and  O8_44 
ROOT
HETATM    1  C11 UNL     1      71.321 112.537  16.016  1.00  0.00     0.225 C 
HETATM    2  O4  UNL     1      72.069 112.859  15.028  1.00  0.00    -0.273 OA
HETATM    3  N2  UNL     1      71.891 112.489  17.325  1.00  0.00    -0.349 N 
ATOM      4  H2  UNL     1      71.303 112.217  18.113  1.00  0.00     0.163 HD
ENDROOT
BRANCH   3   5
HETATM    5  C12 UNL     1      73.284 112.816  17.561  1.00  0.00     0.156 C 
BRANCH   5   6
HETATM    6  C13 UNL     1      74.109 111.582  17.597  1.00  0.00     0.037 C 
BRANCH   6   7
HETATM    7  C14 UNL     1      75.206 111.417  16.627  1.00  0.00    -0.020 C 
HETATM    8  C15 UNL     1      76.267 110.500  17.285  1.00  0.00     0.009 C 
HETATM    9  C16 UNL     1      74.911 110.815  15.310  1.00  0.00     0.009 C 
ENDBRANCH   6   7
ENDBRANCH   5   6
BRANCH   5  10
HETATM   10  C17 UNL     1      73.305 113.438  18.940  1.00  0.00     0.172 C 
HETATM   11  O5  UNL     1      72.723 112.809  19.810  1.00  0.00    -0.293 OA
BRANCH  10  12
HETATM   12  C18 UNL     1      73.961 114.711  19.282  1.00  0.00     0.159 C 
BRANCH  12  13
HETATM   13  C19 UNL     1      75.422 114.608  19.430  1.00  0.00     0.037 C 
BRANCH  13  14
HETATM   14  C20 UNL     1      76.158 115.814  19.908  1.00  0.00    -0.020 C 
HETATM   15  C21 UNL     1      76.724 115.760  21.273  1.00  0.00     0.009 C 
HETATM   16  C22 UNL     1      77.273 116.175  18.923  1.00  0.00     0.009 C 
ENDBRANCH  13  14
ENDBRANCH  12  13
BRANCH  12  17
HETATM   17  N3  UNL     1      73.227 115.312  20.360  1.00  0.00    -0.325 N 
HETATM   18  C23 UNL     1      72.480 116.517  20.262  1.00  0.00     0.361 C 
HETATM   19  O6  UNL     1      72.438 117.122  19.162  1.00  0.00    -0.238 OA
ATOM     20  H3  UNL     1      73.242 114.838  21.263  1.00  0.00     0.165 HD
BRANCH  18  21
HETATM   21  O7  UNL     1      71.793 117.061  21.318  1.00  0.00    -0.294 OA
BRANCH  21  22
HETATM   22  C24 UNL     1      70.423 117.051  21.547  1.00  0.00     0.061 C 
HETATM   23  C25 UNL     1      70.238 117.051  23.072  1.00  0.00     0.046 C 
HETATM   24  C26 UNL     1      69.705 118.260  21.025  1.00  0.00     0.046 C 
HETATM   25  C27 UNL     1      69.741 115.803  21.030  1.00  0.00     0.046 C 
ENDBRANCH  21  22
ENDBRANCH  18  21
ENDBRANCH  12  17
ENDBRANCH  10  12
ENDBRANCH   5  10
ENDBRANCH   3   5
BRANCH   1  26
HETATM   26  C9  UNL     1      69.906 112.244  15.716  1.00  0.00     0.096 C 
HETATM   27  C10 UNL     1      69.228 112.047  17.073  1.00  0.00     0.024 C 
BRANCH  26  28
HETATM   28  C8  UNL     1      69.680 111.090  14.839  1.00  0.00    -0.016 C 
HETATM   29  C7  UNL     1      70.080 109.859  15.083  1.00  0.00    -0.013 C 
BRANCH  29  30
HETATM   30  C6  UNL     1      69.855 108.695  14.203  1.00  0.00     0.134 C 
BRANCH  30  31
HETATM   31  C5  UNL     1      71.144 108.042  13.818  1.00  0.00     0.232 C 
HETATM   32  N1  UNL     1      72.283 108.008  14.586  1.00  0.00    -0.325 N 
HETATM   33  C3  UNL     1      73.115 107.141  14.935  1.00  0.00     0.083 C 
ATOM     34  H1  UNL     1      72.508 108.926  14.970  1.00  0.00     0.168 HD
HETATM   35  C4  UNL     1      74.242 107.615  15.826  1.00  0.00     0.075 C 
HETATM   36  O3  UNL     1      71.151 107.478  12.666  1.00  0.00    -0.272 OA
BRANCH  33  37
HETATM   37  C2  UNL     1      73.097 105.748  14.572  1.00  0.00     0.305 C 
HETATM   38  O2  UNL     1      74.017 105.312  13.800  1.00  0.00    -0.258 OA
BRANCH  37  39
HETATM   39  O1  UNL     1      72.181 104.798  14.969  1.00  0.00    -0.322 OA
HETATM   40  C1  UNL     1      72.533 103.619  15.690  1.00  0.00     0.213 C 
ENDBRANCH  37  39
ENDBRANCH  33  37
ENDBRANCH  30  31
BRANCH  30  41
HETATM   41  C28 UNL     1      68.972 107.666  14.891  1.00  0.00     0.066 C 
HETATM   42  C29 UNL     1      68.616 108.140  16.268  1.00  0.00     0.046 C 
HETATM   43  C30 UNL     1      67.733 107.328  14.136  1.00  0.00     0.046 C 
BRANCH  41  44
HETATM   44  O8  UNL     1      69.762 106.509  15.013  1.00  0.00    -0.389 OA
ATOM     45  H8  UNL     1      70.234 106.606  15.832  1.00  0.00     0.210 HD
ENDBRANCH  41  44
ENDBRANCH  30  41
ENDBRANCH  29  30
ENDBRANCH  26  28
ENDBRANCH   1  26
TORSDOF 18
ENDMDL
MODEL 3
REMARK VINA RESULT: -8.379663358      2.065     10.132
REMARK  18 active torsions:
REMARK  status: ('A' for Active; 'I' for Inactive)
REMARK    1  A    between atoms: O1_2  and  C2_3 
REMARK    2  A    between atoms: C2_3  and  C3_5 
REMARK       I    between atoms: N1_7  and  C5_9 
REMARK    3  A    between atoms: C5_9  and  C6_11 
REMARK    4  A    between atoms: C6_11  and  C7_12 
REMARK    5  A    between atoms: C6_11  and  C28_41 
REMARK    6  A    between atoms: C8_13  and  C9_14 
REMARK    7  A    between atoms: C9_14  and  C11_16 
REMARK       I    between atoms: C11_16  and  N2_18 
REMARK    8  A    between atoms: N2_18  and  C12_20 
REMARK    9  A    between atoms: C12_20  and  C13_21 
REMARK   10  A    between atoms: C12_20  and  C17_25 
REMARK   11  A    between atoms: C13_21  and  C14_22 
REMARK   12  A    between atoms: C17_25  and  C18_27 
REMARK   13  A    between atoms: C18_27  and  C19_28 
REMARK   14  A    between atoms: C18_27  and  N3_32 
REMARK   15  A    between atoms: C19_28  and  C20_29 
REMARK       I    between atoms: N3_32  and  C23_34 
REMARK   16  A    between atoms: C23_34  and  O7_36 
REMARK   17  A    between atoms: O7_36  and  C24_37 
REMARK   18  A    between atoms: C28_41  and  O8_44 
ROOT
HETATM    1  C11 UNL     1      71.283 112.426  18.011  1.00  0.00     0.225 C 
HETATM    2  O4  UNL     1      71.035 111.378  18.702  1.00  0.00    -0.273 OA
HETATM    3  N2  UNL     1      72.247 112.347  16.960  1.00  0.00    -0.349 N 
ATOM      4  H2  UNL     1      72.460 113.184  16.417  1.00  0.00     0.163 HD
ENDROOT
BRANCH   3   5
HETATM    5  C12 UNL     1      72.930 111.107  16.646  1.00  0.00     0.156 C 
BRANCH   5   6
HETATM    6  C13 UNL     1      74.395 111.331  16.550  1.00  0.00     0.037 C 
BRANCH   6   7
HETATM    7  C14 UNL     1      75.319 110.278  17.007  1.00  0.00    -0.020 C 
HETATM    8  C15 UNL     1      75.763 109.481  15.755  1.00  0.00     0.009 C 
HETATM    9  C16 UNL     1      76.564 110.671  17.700  1.00  0.00     0.009 C 
ENDBRANCH   6   7
ENDBRANCH   5   6
BRANCH   5  10
HETATM   10  C17 UNL     1      72.421 110.723  15.275  1.00  0.00     0.172 C 
HETATM   11  O5  UNL     1      72.731 111.479  14.367  1.00  0.00    -0.293 OA
BRANCH  10  12
HETATM   12  C18 UNL     1      71.602 109.535  14.980  1.00  0.00     0.159 C 
BRANCH  12  13
HETATM   13  C19 UNL     1      70.356 109.461  15.760  1.00  0.00     0.037 C 
BRANCH  13  14
HETATM   14  C20 UNL     1      69.096 109.909  15.099  1.00  0.00    -0.020 C 
HETATM   15  C21 UNL     1      67.906 109.046  15.263  1.00  0.00     0.009 C 
HETATM   16  C22 UNL     1      68.743 111.330  15.546  1.00  0.00     0.009 C 
ENDBRANCH  13  14
ENDBRANCH  12  13
BRANCH  12  17
HETATM   17  N3  UNL     1      72.465 108.387  15.001  1.00  0.00    -0.325 N 
HETATM   18  C23 UNL     1      72.665 107.501  13.908  1.00  0.00     0.361 C 
HETATM   19  O6  UNL     1      72.058 107.715  12.829  1.00  0.00    -0.238 OA
ATOM     20  H3  UNL     1      72.972 108.193  15.865  1.00  0.00     0.165 HD
BRANCH  18  21
HETATM   21  O7  UNL     1      73.497 106.410  13.969  1.00  0.00    -0.294 OA
BRANCH  21  22
HETATM   22  C24 UNL     1      73.319 105.235  14.686  1.00  0.00     0.061 C 
HETATM   23  C25 UNL     1      74.090 104.143  13.928  1.00  0.00     0.046 C 
HETATM   24  C26 UNL     1      73.880 105.273  16.076  1.00  0.00     0.046 C 
HETATM   25  C27 UNL     1      71.876 104.783  14.742  1.00  0.00     0.046 C 
ENDBRANCH  21  22
ENDBRANCH  18  21
ENDBRANCH  12  17
ENDBRANCH  10  12
ENDBRANCH   5  10
ENDBRANCH   3   5
BRANCH   1  26
HETATM   26  C9  UNL     1      70.534 113.649  18.359  1.00  0.00     0.096 C 
HETATM   27  C10 UNL     1      70.508 114.495  17.085  1.00  0.00     0.024 C 
BRANCH  26  28
HETATM   28  C8  UNL     1      71.075 114.412  19.489  1.00  0.00    -0.016 C 
HETATM   29  C7  UNL     1      71.502 115.657  19.431  1.00  0.00    -0.013 C 
BRANCH  29  30
HETATM   30  C6  UNL     1      72.049 116.428  20.566  1.00  0.00     0.134 C 
BRANCH  30  31
HETATM   31  C5  UNL     1      73.322 117.120  20.196  1.00  0.00     0.232 C 
HETATM   32  N1  UNL     1      74.497 117.064  20.905  1.00  0.00    -0.325 N 
HETATM   33  C3  UNL     1      75.706 116.874  20.642  1.00  0.00     0.083 C 
ATOM     34  H1  UNL     1      74.346 117.216  21.902  1.00  0.00     0.168 HD
HETATM   35  C4  UNL     1      76.659 116.905  21.816  1.00  0.00     0.075 C 
HETATM   36  O3  UNL     1      73.274 117.819  19.121  1.00  0.00    -0.272 OA
BRANCH  33  37
HETATM   37  C2  UNL     1      76.266 116.630  19.338  1.00  0.00     0.305 C 
HETATM   38  O2  UNL     1      76.929 117.568  18.779  1.00  0.00    -0.258 OA
BRANCH  37  39
HETATM   39  O1  UNL     1      76.174 115.471  18.599  1.00  0.00    -0.322 OA
HETATM   40  C1  UNL     1      75.502 114.299  19.055  1.00  0.00     0.213 C 
ENDBRANCH  37  39
ENDBRANCH  33  37
ENDBRANCH  30  31
BRANCH  30  41
HETATM   41  C28 UNL     1      71.047 117.469  21.038  1.00  0.00     0.066 C 
HETATM   42  C29 UNL     1      70.134 117.845  19.909  1.00  0.00     0.046 C 
HETATM   43  C30 UNL     1      70.243 117.047  22.219  1.00  0.00     0.046 C 
BRANCH  41  44
HETATM   44  O8  UNL     1      71.808 118.600  21.384  1.00  0.00    -0.389 OA
ATOM     45  H8  UNL     1      71.430 118.926  22.192  1.00  0.00     0.210 HD
ENDBRANCH  41  44
ENDBRANCH  30  41
ENDBRANCH  29  30
ENDBRANCH  26  28
ENDBRANCH   1  26
TORSDOF 18
ENDMDL
MODEL 4
REMARK VINA RESULT: -8.301586617      2.136      9.758
REMARK  18 active torsions:
REMARK  status: ('A' for Active; 'I' for Inactive)
REMARK    1  A    between atoms: O1_2  and  C2_3 
REMARK    2  A    between atoms: C2_3  and  C3_5 
REMARK       I    between atoms: N1_7  and  C5_9 
REMARK    3  A    between atoms: C5_9  and  C6_11 
REMARK    4  A    between atoms: C6_11  and  C7_12 
REMARK    5  A    between atoms: C6_11  and  C28_41 
REMARK    6  A    between atoms: C8_13  and  C9_14 
REMARK    7  A    between atoms: C9_14  and  C11_16 
REMARK       I    between atoms: C11_16  and  N2_18 
REMARK    8  A    between atoms: N2_18  and  C12_20 
REMARK    9  A    between atoms: C12_20  and  C13_21 
REMARK   10  A    between atoms: C12_20  and  C17_25 
REMARK   11  A    between atoms: C13_21  and  C14_22 
REMARK   12  A    between atoms: C17_25  and  C18_27 
REMARK   13  A    between atoms: C18_27  and  C19_28 
REMARK   14  A    between atoms: C18_27  and  N3_32 
REMARK   15  A    between atoms: C19_28  and  C20_29 
REMARK       I    between atoms: N3_32  and  C23_34 
REMARK   16  A    between atoms: C23_34  and  O7_36 
REMARK   17  A    between atoms: O7_36  and  C24_37 
REMARK   18  A    between atoms: C28_41  and  O8_44 
ROOT
HETATM    1  C11 UNL     1      70.164 110.148  15.754  1.00  0.00     0.225 C 
HETATM    2  O4  UNL     1      70.080 109.355  16.756  1.00  0.00    -0.273 OA
HETATM    3  N2  UNL     1      70.898 109.730  14.603  1.00  0.00    -0.349 N 
ATOM      4  H2  UNL     1      70.982 110.365  13.809  1.00  0.00     0.163 HD
ENDROOT
BRANCH   3   5
HETATM    5  C12 UNL     1      71.527 108.425  14.535  1.00  0.00     0.156 C 
BRANCH   5   6
HETATM    6  C13 UNL     1      72.844 108.518  13.853  1.00  0.00     0.037 C 
BRANCH   6   7
HETATM    7  C14 UNL     1      74.043 108.854  14.639  1.00  0.00    -0.020 C 
HETATM    8  C15 UNL     1      74.484 110.278  14.218  1.00  0.00     0.009 C 
HETATM    9  C16 UNL     1      73.947 108.879  16.113  1.00  0.00     0.009 C 
ENDBRANCH   6   7
ENDBRANCH   5   6
BRANCH   5  10
HETATM   10  C17 UNL     1      70.604 107.597  13.668  1.00  0.00     0.172 C 
HETATM   11  O5  UNL     1      70.612 107.873  12.478  1.00  0.00    -0.293 OA
BRANCH  10  12
HETATM   12  C18 UNL     1      69.729 106.519  14.157  1.00  0.00     0.159 C 
BRANCH  12  13
HETATM   13  C19 UNL     1      68.430 106.988  14.664  1.00  0.00     0.037 C 
BRANCH  13  14
HETATM   14  C20 UNL     1      67.535 107.712  13.716  1.00  0.00    -0.020 C 
HETATM   15  C21 UNL     1      66.470 106.922  13.059  1.00  0.00     0.009 C 
HETATM   16  C22 UNL     1      66.900 108.920  14.408  1.00  0.00     0.009 C 
ENDBRANCH  13  14
ENDBRANCH  12  13
BRANCH  12  17
HETATM   17  N3  UNL     1      70.509 105.672  15.016  1.00  0.00    -0.325 N 
HETATM   18  C23 UNL     1      71.209 104.510  14.594  1.00  0.00     0.361 C 
HETATM   19  O6  UNL     1      71.165 104.175  13.383  1.00  0.00    -0.238 OA
ATOM     20  H3  UNL     1      70.564 105.923  16.003  1.00  0.00     0.165 HD
BRANCH  18  21
HETATM   21  O7  UNL     1      71.942 103.723  15.448  1.00  0.00    -0.294 OA
BRANCH  21  22
HETATM   22  C24 UNL     1      73.289 103.830  15.769  1.00  0.00     0.061 C 
HETATM   23  C25 UNL     1      74.023 102.789  14.908  1.00  0.00     0.046 C 
HETATM   24  C26 UNL     1      73.894 105.162  15.443  1.00  0.00     0.046 C 
HETATM   25  C27 UNL     1      73.588 103.483  17.211  1.00  0.00     0.046 C 
ENDBRANCH  21  22
ENDBRANCH  18  21
ENDBRANCH  12  17
ENDBRANCH  10  12
ENDBRANCH   5  10
ENDBRANCH   3   5
BRANCH   1  26
HETATM   26  C9  UNL     1      69.478 111.449  15.873  1.00  0.00     0.096 C 
HETATM   27  C10 UNL     1      69.958 112.280  14.681  1.00  0.00     0.024 C 
BRANCH  26  28
HETATM   28  C8  UNL     1      69.701 112.161  17.137  1.00  0.00    -0.016 C 
HETATM   29  C7  UNL     1      70.125 113.402  17.246  1.00  0.00    -0.013 C 
BRANCH  29  30
HETATM   30  C6  UNL     1      70.353 114.122  18.516  1.00  0.00     0.134 C 
BRANCH  30  31
HETATM   31  C5  UNL     1      71.703 113.819  19.083  1.00  0.00     0.232 C 
HETATM   32  N1  UNL     1      72.752 113.262  18.393  1.00  0.00    -0.325 N 
HETATM   33  C3  UNL     1      73.975 113.496  18.260  1.00  0.00     0.083 C 
ATOM     34  H1  UNL     1      72.461 112.450  17.850  1.00  0.00     0.168 HD
HETATM   35  C4  UNL     1      74.740 112.560  17.351  1.00  0.00     0.075 C 
HETATM   36  O3  UNL     1      71.856 114.114  20.322  1.00  0.00    -0.272 OA
BRANCH  33  37
HETATM   37  C2  UNL     1      74.712 114.563  18.887  1.00  0.00     0.305 C 
HETATM   38  O2  UNL     1      74.556 115.750  18.442  1.00  0.00    -0.258 OA
BRANCH  37  39
HETATM   39  O1  UNL     1      75.591 114.455  19.942  1.00  0.00    -0.322 OA
HETATM   40  C1  UNL     1      76.968 114.817  19.859  1.00  0.00     0.213 C 
ENDBRANCH  37  39
ENDBRANCH  33  37
ENDBRANCH  30  31
BRANCH  30  41
HETATM   41  C28 UNL     1      70.235 115.623  18.309  1.00  0.00     0.066 C 
HETATM   42  C29 UNL     1      69.728 115.908  16.928  1.00  0.00     0.046 C 
HETATM   43  C30 UNL     1      69.376 116.309  19.315  1.00  0.00     0.046 C 
BRANCH  41  44
HETATM   44  O8  UNL     1      71.545 116.125  18.410  1.00  0.00    -0.389 OA
ATOM     45  H8  UNL     1      71.592 116.844  17.792  1.00  0.00     0.210 HD
ENDBRANCH  41  44
ENDBRANCH  30  41
ENDBRANCH  29  30
ENDBRANCH  26  28
ENDBRANCH   1  26
TORSDOF 18
ENDMDL
MODEL 5
REMARK VINA RESULT: -8.266114935      1.920      9.367
REMARK  18 active torsions:
REMARK  status: ('A' for Active; 'I' for Inactive)
REMARK    1  A    between atoms: O1_2  and  C2_3 
REMARK    2  A    between atoms: C2_3  and  C3_5 
REMARK       I    between atoms: N1_7  and  C5_9 
REMARK    3  A    between atoms: C5_9  and  C6_11 
REMARK    4  A    between atoms: C6_11  and  C7_12 
REMARK    5  A    between atoms: C6_11  and  C28_41 
REMARK    6  A    between atoms: C8_13  and  C9_14 
REMARK    7  A    between atoms: C9_14  and  C11_16 
REMARK       I    between atoms: C11_16  and  N2_18 
REMARK    8  A    between atoms: N2_18  and  C12_20 
REMARK    9  A    between atoms: C12_20  and  C13_21 
REMARK   10  A    between atoms: C12_20  and  C17_25 
REMARK   11  A    between atoms: C13_21  and  C14_22 
REMARK   12  A    between atoms: C17_25  and  C18_27 
REMARK   13  A    between atoms: C18_27  and  C19_28 
REMARK   14  A    between atoms: C18_27  and  N3_32 
REMARK   15  A    between atoms: C19_28  and  C20_29 
REMARK       I    between atoms: N3_32  and  C23_34 
REMARK   16  A    between atoms: C23_34  and  O7_36 
REMARK   17  A    between atoms: O7_36  and  C24_37 
REMARK   18  A    between atoms: C28_41  and  O8_44 
ROOT
HETATM    1  C11 UNL     1      74.178 110.470  16.578  1.00  0.00     0.225 C 
HETATM    2  O4  UNL     1      74.066 109.621  17.530  1.00  0.00    -0.273 OA
HETATM    3  N2  UNL     1      73.292 110.374  15.461  1.00  0.00    -0.349 N 
ATOM      4  H2  UNL     1      73.389 111.037  14.692  1.00  0.00     0.163 HD
ENDROOT
BRANCH   3   5
HETATM    5  C12 UNL     1      72.260 109.357  15.393  1.00  0.00     0.156 C 
BRANCH   5   6
HETATM    6  C13 UNL     1      72.398 108.559  14.149  1.00  0.00     0.037 C 
BRANCH   6   7
HETATM    7  C14 UNL     1      73.532 107.628  14.009  1.00  0.00    -0.020 C 
HETATM    8  C15 UNL     1      74.731 108.444  13.464  1.00  0.00     0.009 C 
HETATM    9  C16 UNL     1      74.032 106.926  15.209  1.00  0.00     0.009 C 
ENDBRANCH   6   7
ENDBRANCH   5   6
BRANCH   5  10
HETATM   10  C17 UNL     1      70.962 110.131  15.316  1.00  0.00     0.172 C 
HETATM   11  O5  UNL     1      71.060 111.285  14.927  1.00  0.00    -0.293 OA
BRANCH  10  12
HETATM   12  C18 UNL     1      69.638 109.595  15.670  1.00  0.00     0.159 C 
BRANCH  12  13
HETATM   13  C19 UNL     1      69.006 110.274  16.813  1.00  0.00     0.037 C 
BRANCH  13  14
HETATM   14  C20 UNL     1      67.887 111.218  16.528  1.00  0.00    -0.020 C 
HETATM   15  C21 UNL     1      67.230 111.104  15.208  1.00  0.00     0.009 C 
HETATM   16  C22 UNL     1      66.822 111.118  17.623  1.00  0.00     0.009 C 
ENDBRANCH  13  14
ENDBRANCH  12  13
BRANCH  12  17
HETATM   17  N3  UNL     1      69.740 108.163  15.724  1.00  0.00    -0.325 N 
HETATM   18  C23 UNL     1      68.764 107.260  15.222  1.00  0.00     0.361 C 
HETATM   19  O6  UNL     1      67.726 107.719  14.683  1.00  0.00    -0.238 OA
ATOM     20  H3  UNL     1      70.574 107.765  16.154  1.00  0.00     0.165 HD
BRANCH  18  21
HETATM   21  O7  UNL     1      68.897 105.895  15.296  1.00  0.00    -0.294 OA
BRANCH  21  22
HETATM   22  C24 UNL     1      69.313 105.020  14.302  1.00  0.00     0.061 C 
HETATM   23  C25 UNL     1      69.011 103.604  14.816  1.00  0.00     0.046 C 
HETATM   24  C26 UNL     1      68.579 105.172  13.003  1.00  0.00     0.046 C 
HETATM   25  C27 UNL     1      70.804 105.075  14.043  1.00  0.00     0.046 C 
ENDBRANCH  21  22
ENDBRANCH  18  21
ENDBRANCH  12  17
ENDBRANCH  10  12
ENDBRANCH   5  10
ENDBRANCH   3   5
BRANCH   1  26
HETATM   26  C9  UNL     1      75.227 111.497  16.719  1.00  0.00     0.096 C 
HETATM   27  C10 UNL     1      76.251 110.911  17.693  1.00  0.00     0.024 C 
BRANCH  26  28
HETATM   28  C8  UNL     1      74.759 112.811  17.172  1.00  0.00    -0.016 C 
HETATM   29  C7  UNL     1      75.029 113.353  18.341  1.00  0.00    -0.013 C 
BRANCH  29  30
HETATM   30  C6  UNL     1      74.558 114.675  18.803  1.00  0.00     0.134 C 
BRANCH  30  31
HETATM   31  C5  UNL     1      73.294 114.562  19.592  1.00  0.00     0.232 C 
HETATM   32  N1  UNL     1      72.495 115.611  19.977  1.00  0.00    -0.325 N 
HETATM   33  C3  UNL     1      71.271 115.872  19.959  1.00  0.00     0.083 C 
ATOM     34  H1  UNL     1      73.039 116.374  20.380  1.00  0.00     0.168 HD
HETATM   35  C4  UNL     1      70.866 117.218  20.518  1.00  0.00     0.075 C 
HETATM   36  O3  UNL     1      72.959 113.368  19.924  1.00  0.00    -0.272 OA
BRANCH  33  37
HETATM   37  C2  UNL     1      70.225 115.018  19.461  1.00  0.00     0.305 C 
HETATM   38  O2  UNL     1      69.592 114.285  20.295  1.00  0.00    -0.258 OA
BRANCH  37  39
HETATM   39  O1  UNL     1      69.808 114.892  18.154  1.00  0.00    -0.322 OA
HETATM   40  C1  UNL     1      70.454 114.053  17.200  1.00  0.00     0.213 C 
ENDBRANCH  37  39
ENDBRANCH  33  37
ENDBRANCH  30  31
BRANCH  30  41
HETATM   41  C28 UNL     1      75.614 115.348  19.665  1.00  0.00     0.066 C 
HETATM   42  C29 UNL     1      76.879 114.544  19.641  1.00  0.00     0.046 C 
HETATM   43  C30 UNL     1      75.903 116.758  19.281  1.00  0.00     0.046 C 
BRANCH  41  44
HETATM   44  O8  UNL     1      75.103 115.328  20.975  1.00  0.00    -0.389 OA
ATOM     45  H8  UNL     1      75.598 115.983  21.453  1.00  0.00     0.210 HD
ENDBRANCH  41  44
ENDBRANCH  30  41
ENDBRANCH  29  30
ENDBRANCH  26  28
ENDBRANCH   1  26
TORSDOF 18
ENDMDL
