MODEL 1
REMARK VINA RESULT: -9.157389861      0.000      0.000
REMARK  12 active torsions:
REMARK  status: ('A' for Active; 'I' for Inactive)
REMARK    1  A    between atoms: O1_2  and  C2_3 
REMARK    2  A    between atoms: C4_5  and  C5_6 
REMARK    3  A    between atoms: C5_6  and  O2_8 
REMARK    4  A    between atoms: C10_13  and  C11_14 
REMARK    5  A    between atoms: C14_18  and  C15_19 
REMARK    6  A    between atoms: C15_19  and  N1_20 
REMARK    7  A    between atoms: N1_20  and  C16_22 
REMARK    8  A    between atoms: C21_29  and  O3_30 
REMARK    9  A    between atoms: O3_30  and  C22_31 
REMARK   10  A    between atoms: C22_31  and  C23_32 
REMARK   11  A    between atoms: C22_31  and  C27_39 
REMARK       I    between atoms: C23_32  and  N2_34 
REMARK   12  A    between atoms: N2_34  and  C24_36 
ROOT
HETATM    1  C15 UNL     1       9.476  17.765  64.578  1.00  0.00     0.161 C 
ENDROOT
BRANCH   1   2
HETATM    2  C14 UNL     1      10.522  18.798  64.568  1.00  0.00    -0.001 A 
HETATM    3  C13 UNL     1      11.349  18.854  65.693  1.00  0.00     0.125 A 
HETATM    4  C12 UNL     1      12.377  19.782  65.754  1.00  0.00     0.055 A 
HETATM    5  F1  UNL     1      11.124  17.986  66.723  1.00  0.00    -0.205 F 
HETATM    6  C11 UNL     1      12.625  20.668  64.735  1.00  0.00    -0.014 A 
HETATM    7  C31 UNL     1      11.810  20.606  63.634  1.00  0.00    -0.050 A 
HETATM    8  C30 UNL     1      10.768  19.681  63.550  1.00  0.00     0.019 A 
HETATM    9  C32 UNL     1      12.010  21.527  62.498  1.00  0.00     0.049 C 
BRANCH   6  10
HETATM   10  C10 UNL     1      13.712  21.607  64.837  1.00  0.00     0.009 A 
HETATM   11  C2  UNL     1      14.917  21.425  64.188  1.00  0.00     0.080 A 
HETATM   12  C3  UNL     1      15.926  22.341  64.310  1.00  0.00     0.052 A 
HETATM   13  C4  UNL     1      15.822  23.511  65.088  1.00  0.00     0.001 A 
HETATM   14  C7  UNL     1      14.629  23.688  65.727  1.00  0.00    -0.048 A 
HETATM   15  C8  UNL     1      14.398  24.905  66.565  1.00  0.00     0.049 C 
HETATM   16  C9  UNL     1      13.597  22.745  65.598  1.00  0.00     0.022 A 
BRANCH  11  17
HETATM   17  O1  UNL     1      15.021  20.274  63.422  1.00  0.00    -0.355 OA
HETATM   18  C1  UNL     1      15.364  20.206  62.074  1.00  0.00     0.210 C 
ENDBRANCH  11  17
BRANCH  13  19
HETATM   19  C5  UNL     1      16.938  24.412  65.183  1.00  0.00     0.050 C 
HETATM   20  C6  UNL     1      17.403  25.442  64.271  1.00  0.00     0.077 C 
BRANCH  19  21
HETATM   21  O2  UNL     1      17.654  24.290  66.265  1.00  0.00    -0.364 OA
ATOM     22  H2  UNL     1      18.447  23.775  66.166  1.00  0.00     0.217 HD
ENDBRANCH  19  21
ENDBRANCH  13  19
ENDBRANCH   6  10
ENDBRANCH   1   2
BRANCH   1  23
HETATM   23  N1  UNL     1       8.125  18.287  64.446  1.00  0.00    -0.383 N 
ATOM     24  H1  UNL     1       7.868  18.805  63.605  1.00  0.00     0.160 HD
BRANCH  23  25
HETATM   25  C16 UNL     1       7.159  18.089  65.466  1.00  0.00     0.064 A 
HETATM   26  C17 UNL     1       7.510  18.465  66.755  1.00  0.00     0.034 A 
HETATM   27  C18 UNL     1       6.590  18.311  67.760  1.00  0.00     0.028 A 
HETATM   28  C19 UNL     1       5.351  17.797  67.503  1.00  0.00     0.058 A 
HETATM   29 CL1  UNL     1       4.159  17.594  68.777  1.00  0.00    -0.082 Cl
HETATM   30  C20 UNL     1       4.977  17.410  66.212  1.00  0.00     0.091 A 
HETATM   31 CL2  UNL     1       3.341  16.867  65.934  1.00  0.00    -0.079 Cl
HETATM   32  C21 UNL     1       5.893  17.555  65.186  1.00  0.00     0.119 A 
BRANCH  32  33
HETATM   33  O3  UNL     1       5.568  17.183  63.894  1.00  0.00    -0.332 OA
BRANCH  33  34
HETATM   34  C22 UNL     1       5.618  15.809  63.480  1.00  0.00     0.224 C 
BRANCH  34  35
HETATM   35  C23 UNL     1       6.981  15.507  62.986  1.00  0.00     0.247 C 
HETATM   36  O4  UNL     1       7.849  15.069  63.831  1.00  0.00    -0.271 OA
HETATM   37  N2  UNL     1       7.401  15.652  61.669  1.00  0.00    -0.354 N 
ATOM     38  H2  UNL     1       6.736  15.989  60.973  1.00  0.00     0.162 HD
BRANCH  37  39
HETATM   39  C24 UNL     1       8.772  15.336  61.250  1.00  0.00     0.084 A 
HETATM   40  C25 UNL     1       9.646  16.454  60.782  1.00  0.00     0.027 A 
HETATM   41  C26 UNL     1       9.052  15.419  59.797  1.00  0.00     0.027 A 
ENDBRANCH  37  39
ENDBRANCH  34  35
BRANCH  34  42
HETATM   42  C27 UNL     1       4.641  15.525  62.350  1.00  0.00     0.016 C 
HETATM   43  C28 UNL     1       4.136  14.101  62.360  1.00  0.00     0.012 C 
HETATM   44  C29 UNL     1       3.454  16.458  62.455  1.00  0.00     0.012 C 
ENDBRANCH  34  42
ENDBRANCH  33  34
ENDBRANCH  32  33
ENDBRANCH  23  25
ENDBRANCH   1  23
TORSDOF 12
ENDMDL
MODEL 2
REMARK VINA RESULT: -8.983144528      5.801     11.530
REMARK  12 active torsions:
REMARK  status: ('A' for Active; 'I' for Inactive)
REMARK    1  A    between atoms: O1_2  and  C2_3 
REMARK    2  A    between atoms: C4_5  and  C5_6 
REMARK    3  A    between atoms: C5_6  and  O2_8 
REMARK    4  A    between atoms: C10_13  and  C11_14 
REMARK    5  A    between atoms: C14_18  and  C15_19 
REMARK    6  A    between atoms: C15_19  and  N1_20 
REMARK    7  A    between atoms: N1_20  and  C16_22 
REMARK    8  A    between atoms: C21_29  and  O3_30 
REMARK    9  A    between atoms: O3_30  and  C22_31 
REMARK   10  A    between atoms: C22_31  and  C23_32 
REMARK   11  A    between atoms: C22_31  and  C27_39 
REMARK       I    between atoms: C23_32  and  N2_34 
REMARK   12  A    between atoms: N2_34  and  C24_36 
ROOT
HETATM    1  C15 UNL     1      15.277  22.489  64.503  1.00  0.00     0.161 C 
ENDROOT
BRANCH   1   2
HETATM    2  C14 UNL     1      14.231  21.597  63.982  1.00  0.00    -0.001 A 
HETATM    3  C13 UNL     1      14.445  20.227  64.151  1.00  0.00     0.125 A 
HETATM    4  C12 UNL     1      13.495  19.317  63.712  1.00  0.00     0.055 A 
HETATM    5  F1  UNL     1      15.596  19.806  64.750  1.00  0.00    -0.205 F 
HETATM    6  C11 UNL     1      12.329  19.711  63.104  1.00  0.00    -0.014 A 
HETATM    7  C31 UNL     1      12.127  21.058  62.943  1.00  0.00    -0.050 A 
HETATM    8  C30 UNL     1      13.068  21.992  63.377  1.00  0.00     0.019 A 
HETATM    9  C32 UNL     1      10.899  21.561  62.297  1.00  0.00     0.049 C 
BRANCH   6  10
HETATM   10  C10 UNL     1      11.366  18.730  62.675  1.00  0.00     0.009 A 
HETATM   11  C2  UNL     1      10.279  18.367  63.444  1.00  0.00     0.080 A 
HETATM   12  C3  UNL     1       9.385  17.430  63.000  1.00  0.00     0.052 A 
HETATM   13  C4  UNL     1       9.499  16.778  61.757  1.00  0.00     0.001 A 
HETATM   14  C7  UNL     1      10.575  17.140  60.999  1.00  0.00    -0.048 A 
HETATM   15  C8  UNL     1      10.786  16.527  59.651  1.00  0.00     0.049 C 
HETATM   16  C9  UNL     1      11.488  18.101  61.459  1.00  0.00     0.022 A 
BRANCH  11  17
HETATM   17  O1  UNL     1      10.165  19.008  64.668  1.00  0.00    -0.355 OA
HETATM   18  C1  UNL     1      10.373  18.438  65.922  1.00  0.00     0.210 C 
ENDBRANCH  11  17
BRANCH  13  19
HETATM   19  C5  UNL     1       8.530  15.787  61.374  1.00  0.00     0.050 C 
HETATM   20  C6  UNL     1       7.190  15.934  60.836  1.00  0.00     0.077 C 
BRANCH  19  21
HETATM   21  O2  UNL     1       8.913  14.551  61.533  1.00  0.00    -0.364 OA
ATOM     22  H2  UNL     1       9.813  14.443  61.818  1.00  0.00     0.217 HD
ENDBRANCH  19  21
ENDBRANCH  13  19
ENDBRANCH   6  10
ENDBRANCH   1   2
BRANCH   1  23
HETATM   23  N1  UNL     1      16.436  22.617  63.633  1.00  0.00    -0.383 N 
ATOM     24  H1  UNL     1      16.694  21.839  63.025  1.00  0.00     0.160 HD
BRANCH  23  25
HETATM   25  C16 UNL     1      17.212  23.804  63.615  1.00  0.00     0.064 A 
HETATM   26  C17 UNL     1      17.620  24.315  64.839  1.00  0.00     0.034 A 
HETATM   27  C18 UNL     1      18.394  25.448  64.857  1.00  0.00     0.028 A 
HETATM   28  C19 UNL     1      18.757  26.065  63.695  1.00  0.00     0.058 A 
HETATM   29 CL1  UNL     1      19.749  27.515  63.696  1.00  0.00    -0.082 Cl
HETATM   30  C20 UNL     1      18.357  25.568  62.450  1.00  0.00     0.091 A 
HETATM   31 CL2  UNL     1      18.950  26.341  61.001  1.00  0.00    -0.079 Cl
HETATM   32  C21 UNL     1      17.573  24.429  62.413  1.00  0.00     0.119 A 
BRANCH  32  33
HETATM   33  O3  UNL     1      17.150  23.904  61.205  1.00  0.00    -0.332 OA
BRANCH  33  34
HETATM   34  C22 UNL     1      17.734  22.707  60.668  1.00  0.00     0.224 C 
BRANCH  34  35
HETATM   35  C23 UNL     1      18.671  23.077  59.582  1.00  0.00     0.247 C 
HETATM   36  O4  UNL     1      19.714  22.343  59.404  1.00  0.00    -0.271 OA
HETATM   37  N2  UNL     1      18.510  24.160  58.725  1.00  0.00    -0.354 N 
ATOM     38  H2  UNL     1      17.690  24.757  58.833  1.00  0.00     0.162 HD
BRANCH  37  39
HETATM   39  C24 UNL     1      19.482  24.470  57.670  1.00  0.00     0.084 A 
HETATM   40  C25 UNL     1      20.011  25.865  57.581  1.00  0.00     0.027 A 
HETATM   41  C26 UNL     1      18.996  25.312  56.553  1.00  0.00     0.027 A 
ENDBRANCH  37  39
ENDBRANCH  34  35
BRANCH  34  42
HETATM   42  C27 UNL     1      16.682  21.782  60.078  1.00  0.00     0.016 C 
HETATM   43  C28 UNL     1      16.434  20.560  60.931  1.00  0.00     0.012 C 
HETATM   44  C29 UNL     1      15.376  22.531  59.919  1.00  0.00     0.012 C 
ENDBRANCH  34  42
ENDBRANCH  33  34
ENDBRANCH  32  33
ENDBRANCH  23  25
ENDBRANCH   1  23
TORSDOF 12
ENDMDL
MODEL 3
REMARK VINA RESULT: -8.900614684      4.684     11.032
REMARK  12 active torsions:
REMARK  status: ('A' for Active; 'I' for Inactive)
REMARK    1  A    between atoms: O1_2  and  C2_3 
REMARK    2  A    between atoms: C4_5  and  C5_6 
REMARK    3  A    between atoms: C5_6  and  O2_8 
REMARK    4  A    between atoms: C10_13  and  C11_14 
REMARK    5  A    between atoms: C14_18  and  C15_19 
REMARK    6  A    between atoms: C15_19  and  N1_20 
REMARK    7  A    between atoms: N1_20  and  C16_22 
REMARK    8  A    between atoms: C21_29  and  O3_30 
REMARK    9  A    between atoms: O3_30  and  C22_31 
REMARK   10  A    between atoms: C22_31  and  C23_32 
REMARK   11  A    between atoms: C22_31  and  C27_39 
REMARK       I    between atoms: C23_32  and  N2_34 
REMARK   12  A    between atoms: N2_34  and  C24_36 
ROOT
HETATM    1  C15 UNL     1      14.517  21.960  62.272  1.00  0.00     0.161 C 
ENDROOT
BRANCH   1   2
HETATM    2  C14 UNL     1      13.493  20.907  62.335  1.00  0.00    -0.001 A 
HETATM    3  C13 UNL     1      12.272  21.265  62.913  1.00  0.00     0.125 A 
HETATM    4  C12 UNL     1      11.242  20.339  62.989  1.00  0.00     0.055 A 
HETATM    5  F1  UNL     1      12.114  22.531  63.397  1.00  0.00    -0.205 F 
HETATM    6  C11 UNL     1      11.372  19.058  62.512  1.00  0.00    -0.014 A 
HETATM    7  C31 UNL     1      12.574  18.716  61.947  1.00  0.00    -0.050 A 
HETATM    8  C30 UNL     1      13.624  19.630  61.859  1.00  0.00     0.019 A 
HETATM    9  C32 UNL     1      12.793  17.357  61.414  1.00  0.00     0.049 C 
BRANCH   6  10
HETATM   10  C10 UNL     1      10.271  18.134  62.603  1.00  0.00     0.009 A 
HETATM   11  C2  UNL     1       9.852  17.590  63.800  1.00  0.00     0.080 A 
HETATM   12  C3  UNL     1       8.800  16.715  63.844  1.00  0.00     0.052 A 
HETATM   13  C4  UNL     1       8.081  16.309  62.703  1.00  0.00     0.001 A 
HETATM   14  C7  UNL     1       8.498  16.850  61.522  1.00  0.00    -0.048 A 
HETATM   15  C8  UNL     1       7.795  16.506  60.247  1.00  0.00     0.049 C 
HETATM   16  C9  UNL     1       9.577  17.747  61.482  1.00  0.00     0.022 A 
BRANCH  11  17
HETATM   17  O1  UNL     1      10.559  17.989  64.924  1.00  0.00    -0.355 OA
HETATM   18  C1  UNL     1      10.022  18.299  66.171  1.00  0.00     0.210 C 
ENDBRANCH  11  17
BRANCH  13  19
HETATM   19  C5  UNL     1       7.003  15.366  62.831  1.00  0.00     0.050 C 
HETATM   20  C6  UNL     1       5.700  15.500  63.459  1.00  0.00     0.077 C 
BRANCH  19  21
HETATM   21  O2  UNL     1       7.225  14.199  62.297  1.00  0.00    -0.364 OA
ATOM     22  H2  UNL     1       7.375  13.495  62.917  1.00  0.00     0.217 HD
ENDBRANCH  19  21
ENDBRANCH  13  19
ENDBRANCH   6  10
ENDBRANCH   1   2
BRANCH   1  23
HETATM   23  N1  UNL     1      15.592  21.801  63.238  1.00  0.00    -0.383 N 
ATOM     24  H1  UNL     1      16.236  21.015  63.147  1.00  0.00     0.160 HD
BRANCH  23  25
HETATM   25  C16 UNL     1      15.761  22.721  64.305  1.00  0.00     0.064 A 
HETATM   26  C17 UNL     1      14.789  22.730  65.296  1.00  0.00     0.034 A 
HETATM   27  C18 UNL     1      14.935  23.589  66.356  1.00  0.00     0.028 A 
HETATM   28  C19 UNL     1      16.014  24.422  66.438  1.00  0.00     0.058 A 
HETATM   29 CL1  UNL     1      16.220  25.527  67.787  1.00  0.00    -0.082 Cl
HETATM   30  C20 UNL     1      17.005  24.430  65.450  1.00  0.00     0.091 A 
HETATM   31 CL2  UNL     1      18.412  25.438  65.674  1.00  0.00    -0.079 Cl
HETATM   32  C21 UNL     1      16.872  23.573  64.373  1.00  0.00     0.119 A 
BRANCH  32  33
HETATM   33  O3  UNL     1      17.826  23.550  63.371  1.00  0.00    -0.332 OA
BRANCH  33  34
HETATM   34  C22 UNL     1      17.615  24.233  62.126  1.00  0.00     0.224 C 
BRANCH  34  35
HETATM   35  C23 UNL     1      17.715  23.255  61.019  1.00  0.00     0.247 C 
HETATM   36  O4  UNL     1      18.781  22.537  60.937  1.00  0.00    -0.271 OA
HETATM   37  N2  UNL     1      16.737  23.042  60.054  1.00  0.00    -0.354 N 
ATOM     38  H2  UNL     1      15.876  23.588  60.094  1.00  0.00     0.162 HD
BRANCH  37  39
HETATM   39  C24 UNL     1      16.904  22.055  58.980  1.00  0.00     0.084 A 
HETATM   40  C25 UNL     1      15.688  21.362  58.457  1.00  0.00     0.027 A 
HETATM   41  C26 UNL     1      16.716  20.634  59.356  1.00  0.00     0.027 A 
ENDBRANCH  37  39
ENDBRANCH  34  35
BRANCH  34  42
HETATM   42  C27 UNL     1      18.662  25.310  61.889  1.00  0.00     0.016 C 
HETATM   43  C28 UNL     1      18.724  25.756  60.447  1.00  0.00     0.012 C 
HETATM   44  C29 UNL     1      18.359  26.515  62.754  1.00  0.00     0.012 C 
ENDBRANCH  34  42
ENDBRANCH  33  34
ENDBRANCH  32  33
ENDBRANCH  23  25
ENDBRANCH   1  23
TORSDOF 12
ENDMDL
MODEL 4
REMARK VINA RESULT: -8.878580006      1.719      2.611
REMARK  12 active torsions:
REMARK  status: ('A' for Active; 'I' for Inactive)
REMARK    1  A    between atoms: O1_2  and  C2_3 
REMARK    2  A    between atoms: C4_5  and  C5_6 
REMARK    3  A    between atoms: C5_6  and  O2_8 
REMARK    4  A    between atoms: C10_13  and  C11_14 
REMARK    5  A    between atoms: C14_18  and  C15_19 
REMARK    6  A    between atoms: C15_19  and  N1_20 
REMARK    7  A    between atoms: N1_20  and  C16_22 
REMARK    8  A    between atoms: C21_29  and  O3_30 
REMARK    9  A    between atoms: O3_30  and  C22_31 
REMARK   10  A    between atoms: C22_31  and  C23_32 
REMARK   11  A    between atoms: C22_31  and  C27_39 
REMARK       I    between atoms: C23_32  and  N2_34 
REMARK   12  A    between atoms: N2_34  and  C24_36 
ROOT
HETATM    1  C15 UNL     1       8.968  17.984  65.622  1.00  0.00     0.161 C 
ENDROOT
BRANCH   1   2
HETATM    2  C14 UNL     1      10.088  18.576  64.876  1.00  0.00    -0.001 A 
HETATM    3  C13 UNL     1      10.486  19.856  65.270  1.00  0.00     0.125 A 
HETATM    4  C12 UNL     1      11.551  20.477  64.636  1.00  0.00     0.055 A 
HETATM    5  F1  UNL     1       9.810  20.478  66.279  1.00  0.00    -0.205 F 
HETATM    6  C11 UNL     1      12.248  19.877  63.617  1.00  0.00    -0.014 A 
HETATM    7  C31 UNL     1      11.852  18.620  63.237  1.00  0.00    -0.050 A 
HETATM    8  C30 UNL     1      10.782  17.976  63.859  1.00  0.00     0.019 A 
HETATM    9  C32 UNL     1      12.548  17.910  62.147  1.00  0.00     0.049 C 
BRANCH   6  10
HETATM   10  C10 UNL     1      13.356  20.556  62.996  1.00  0.00     0.009 A 
HETATM   11  C2  UNL     1      14.423  21.053  63.717  1.00  0.00     0.080 A 
HETATM   12  C3  UNL     1      15.458  21.692  63.089  1.00  0.00     0.052 A 
HETATM   13  C4  UNL     1      15.516  21.891  61.695  1.00  0.00     0.001 A 
HETATM   14  C7  UNL     1      14.460  21.397  60.986  1.00  0.00    -0.048 A 
HETATM   15  C8  UNL     1      14.424  21.532  59.497  1.00  0.00     0.049 C 
HETATM   16  C9  UNL     1      13.401  20.742  61.635  1.00  0.00     0.022 A 
BRANCH  11  17
HETATM   17  O1  UNL     1      14.367  20.858  65.088  1.00  0.00    -0.355 OA
HETATM   18  C1  UNL     1      14.404  21.850  66.065  1.00  0.00     0.210 C 
ENDBRANCH  11  17
BRANCH  13  19
HETATM   19  C5  UNL     1      16.629  22.594  61.116  1.00  0.00     0.050 C 
HETATM   20  C6  UNL     1      17.947  22.125  60.731  1.00  0.00     0.077 C 
BRANCH  19  21
HETATM   21  O2  UNL     1      16.424  23.863  60.896  1.00  0.00    -0.364 OA
ATOM     22  H2  UNL     1      15.731  24.056  60.275  1.00  0.00     0.217 HD
ENDBRANCH  19  21
ENDBRANCH  13  19
ENDBRANCH   6  10
ENDBRANCH   1   2
BRANCH   1  23
HETATM   23  N1  UNL     1       7.696  18.026  64.916  1.00  0.00    -0.383 N 
ATOM     24  H1  UNL     1       7.685  18.222  63.915  1.00  0.00     0.160 HD
BRANCH  23  25
HETATM   25  C16 UNL     1       6.472  17.801  65.596  1.00  0.00     0.064 A 
HETATM   26  C17 UNL     1       6.400  18.199  66.924  1.00  0.00     0.034 A 
HETATM   27  C18 UNL     1       5.222  18.019  67.603  1.00  0.00     0.028 A 
HETATM   28  C19 UNL     1       4.139  17.458  66.990  1.00  0.00     0.058 A 
HETATM   29 CL1  UNL     1       2.622  17.221  67.843  1.00  0.00    -0.082 Cl
HETATM   30  C20 UNL     1       4.189  17.049  65.653  1.00  0.00     0.091 A 
HETATM   31 CL2  UNL     1       2.735  16.444  64.899  1.00  0.00    -0.079 Cl
HETATM   32  C21 UNL     1       5.370  17.220  64.953  1.00  0.00     0.119 A 
BRANCH  32  33
HETATM   33  O3  UNL     1       5.467  16.827  63.630  1.00  0.00    -0.332 OA
BRANCH  33  34
HETATM   34  C22 UNL     1       5.728  15.460  63.277  1.00  0.00     0.224 C 
BRANCH  34  35
HETATM   35  C23 UNL     1       7.121  15.349  62.788  1.00  0.00     0.247 C 
HETATM   36  O4  UNL     1       8.061  15.206  63.657  1.00  0.00    -0.271 OA
HETATM   37  N2  UNL     1       7.501  15.380  61.451  1.00  0.00    -0.354 N 
ATOM     38  H2  UNL     1       6.781  15.484  60.735  1.00  0.00     0.162 HD
BRANCH  37  39
HETATM   39  C24 UNL     1       8.905  15.268  61.037  1.00  0.00     0.084 A 
HETATM   40  C25 UNL     1       9.593  16.493  60.525  1.00  0.00     0.027 A 
HETATM   41  C26 UNL     1       9.170  15.342  59.581  1.00  0.00     0.027 A 
ENDBRANCH  37  39
ENDBRANCH  34  35
BRANCH  34  42
HETATM   42  C27 UNL     1       4.807  14.979  62.167  1.00  0.00     0.016 C 
HETATM   43  C28 UNL     1       4.022  13.747  62.553  1.00  0.00     0.012 C 
HETATM   44  C29 UNL     1       3.831  16.077  61.803  1.00  0.00     0.012 C 
ENDBRANCH  34  42
ENDBRANCH  33  34
ENDBRANCH  32  33
ENDBRANCH  23  25
ENDBRANCH   1  23
TORSDOF 12
ENDMDL
MODEL 5
REMARK VINA RESULT: -8.847673928      3.797      5.497
REMARK  12 active torsions:
REMARK  status: ('A' for Active; 'I' for Inactive)
REMARK    1  A    between atoms: O1_2  and  C2_3 
REMARK    2  A    between atoms: C4_5  and  C5_6 
REMARK    3  A    between atoms: C5_6  and  O2_8 
REMARK    4  A    between atoms: C10_13  and  C11_14 
REMARK    5  A    between atoms: C14_18  and  C15_19 
REMARK    6  A    between atoms: C15_19  and  N1_20 
REMARK    7  A    between atoms: N1_20  and  C16_22 
REMARK    8  A    between atoms: C21_29  and  O3_30 
REMARK    9  A    between atoms: O3_30  and  C22_31 
REMARK   10  A    between atoms: C22_31  and  C23_32 
REMARK   11  A    between atoms: C22_31  and  C27_39 
REMARK       I    between atoms: C23_32  and  N2_34 
REMARK   12  A    between atoms: N2_34  and  C24_36 
ROOT
HETATM    1  C15 UNL     1      13.389  19.885  63.444  1.00  0.00     0.161 C 
ENDROOT
BRANCH   1   2
HETATM    2  C14 UNL     1      14.201  20.709  62.537  1.00  0.00    -0.001 A 
HETATM    3  C13 UNL     1      15.073  21.619  63.140  1.00  0.00     0.125 A 
HETATM    4  C12 UNL     1      15.893  22.418  62.359  1.00  0.00     0.055 A 
HETATM    5  F1  UNL     1      15.099  21.707  64.502  1.00  0.00    -0.205 F 
HETATM    6  C11 UNL     1      15.886  22.353  60.987  1.00  0.00    -0.014 A 
HETATM    7  C31 UNL     1      15.028  21.457  60.403  1.00  0.00    -0.050 A 
HETATM    8  C30 UNL     1      14.193  20.643  61.169  1.00  0.00     0.019 A 
HETATM    9  C32 UNL     1      14.960  21.330  58.934  1.00  0.00     0.049 C 
BRANCH   6  10
HETATM   10  C10 UNL     1      16.765  23.194  60.216  1.00  0.00     0.009 A 
HETATM   11  C2  UNL     1      18.103  22.906  60.034  1.00  0.00     0.080 A 
HETATM   12  C3  UNL     1      18.905  23.730  59.293  1.00  0.00     0.052 A 
HETATM   13  C4  UNL     1      18.444  24.909  58.674  1.00  0.00     0.001 A 
HETATM   14  C7  UNL     1      17.122  25.190  58.855  1.00  0.00    -0.048 A 
HETATM   15  C8  UNL     1      16.518  26.405  58.226  1.00  0.00     0.049 C 
HETATM   16  C9  UNL     1      16.303  24.341  59.615  1.00  0.00     0.022 A 
BRANCH  11  17
HETATM   17  O1  UNL     1      18.557  21.746  60.644  1.00  0.00    -0.355 OA
HETATM   18  C1  UNL     1      19.806  21.557  61.231  1.00  0.00     0.210 C 
ENDBRANCH  11  17
BRANCH  13  19
HETATM   19  C5  UNL     1      19.358  25.735  57.932  1.00  0.00     0.050 C 
HETATM   20  C6  UNL     1      19.556  25.876  56.500  1.00  0.00     0.077 C 
BRANCH  19  21
HETATM   21  O2  UNL     1      20.140  26.483  58.659  1.00  0.00    -0.364 OA
ATOM     22  H2  UNL     1      21.040  26.535  58.357  1.00  0.00     0.217 HD
ENDBRANCH  19  21
ENDBRANCH  13  19
ENDBRANCH   6  10
ENDBRANCH   1   2
BRANCH   1  23
HETATM   23  N1  UNL     1      11.959  19.946  63.183  1.00  0.00    -0.383 N 
ATOM     24  H1  UNL     1      11.630  20.237  62.263  1.00  0.00     0.160 HD
BRANCH  23  25
HETATM   25  C16 UNL     1      11.016  19.610  64.188  1.00  0.00     0.064 A 
HETATM   26  C17 UNL     1      10.849  20.512  65.230  1.00  0.00     0.034 A 
HETATM   27  C18 UNL     1       9.925  20.231  66.204  1.00  0.00     0.028 A 
HETATM   28  C19 UNL     1       9.183  19.086  66.155  1.00  0.00     0.058 A 
HETATM   29 CL1  UNL     1       7.995  18.708  67.393  1.00  0.00    -0.082 Cl
HETATM   30  C20 UNL     1       9.335  18.163  65.116  1.00  0.00     0.091 A 
HETATM   31 CL2  UNL     1       8.276  16.777  65.054  1.00  0.00    -0.079 Cl
HETATM   32  C21 UNL     1      10.264  18.429  64.126  1.00  0.00     0.119 A 
BRANCH  32  33
HETATM   33  O3  UNL     1      10.452  17.543  63.080  1.00  0.00    -0.332 OA
BRANCH  33  34
HETATM   34  C22 UNL     1       9.699  17.657  61.863  1.00  0.00     0.224 C 
BRANCH  34  35
HETATM   35  C23 UNL     1       8.708  16.558  61.807  1.00  0.00     0.247 C 
HETATM   36  O4  UNL     1       9.104  15.368  62.099  1.00  0.00    -0.271 OA
HETATM   37  N2  UNL     1       7.368  16.710  61.467  1.00  0.00    -0.354 N 
ATOM     38  H2  UNL     1       7.019  17.641  61.238  1.00  0.00     0.162 HD
BRANCH  37  39
HETATM   39  C24 UNL     1       6.441  15.573  61.429  1.00  0.00     0.084 A 
HETATM   40  C25 UNL     1       4.984  15.838  61.637  1.00  0.00     0.027 A 
HETATM   41  C26 UNL     1       5.852  15.159  62.724  1.00  0.00     0.027 A 
ENDBRANCH  37  39
ENDBRANCH  34  35
BRANCH  34  42
HETATM   42  C27 UNL     1      10.589  17.541  60.636  1.00  0.00     0.016 C 
HETATM   43  C28 UNL     1      12.025  17.227  60.985  1.00  0.00     0.012 C 
HETATM   44  C29 UNL     1      10.065  16.451  59.727  1.00  0.00     0.012 C 
ENDBRANCH  34  42
ENDBRANCH  33  34
ENDBRANCH  32  33
ENDBRANCH  23  25
ENDBRANCH   1  23
TORSDOF 12
ENDMDL
