MODEL 1
REMARK VINA RESULT: -8.573549340      0.000      0.000
REMARK  14 active torsions:
REMARK  status: ('A' for Active; 'I' for Inactive)
REMARK    1  A    between atoms: C2_2  and  C3_3 
REMARK    2  A    between atoms: C3_3  and  C4_4 
REMARK    3  A    between atoms: C4_4  and  O2_6 
REMARK    4  A    between atoms: O2_6  and  C5_7 
REMARK    5  A    between atoms: C6_8  and  O3_9 
REMARK    6  A    between atoms: C15_19  and  C16_20 
REMARK    7  A    between atoms: C16_20  and  C17_23 
REMARK    8  A    between atoms: C17_23  and  N1_24 
REMARK    9  A    between atoms: N1_24  and  O4_25 
REMARK   10  A    between atoms: O4_25  and  C18_26 
REMARK   11  A    between atoms: C18_26  and  C19_27 
REMARK   12  A    between atoms: C19_27  and  C20_30 
REMARK   13  A    between atoms: C20_30  and  N2_31 
REMARK   14  A    between atoms: N2_31  and  C21_34 
ROOT
HETATM    1  C5  UNL     1      17.712  25.354  60.824  1.00  0.00     0.169 C 
HETATM    2  C6  UNL     1      18.644  25.468  61.995  1.00  0.00     0.148 C 
HETATM    3  C7  UNL     1      19.156  24.193  62.538  1.00  0.00     0.039 C 
HETATM    4  C8  UNL     1      18.012  23.200  62.685  1.00  0.00    -0.003 C 
HETATM    5  C9  UNL     1      17.070  23.780  63.708  1.00  0.00     0.006 C 
HETATM    6  C10 UNL     1      16.047  22.754  64.183  1.00  0.00     0.006 C 
HETATM    7  C11 UNL     1      15.927  21.723  63.104  1.00  0.00    -0.005 C 
HETATM    8  C12 UNL     1      14.905  20.707  63.271  1.00  0.00    -0.001 C 
HETATM    9  C13 UNL     1      14.344  20.534  64.660  1.00  0.00     0.006 C 
HETATM   10  C14 UNL     1      13.214  19.549  64.387  1.00  0.00     0.012 C 
HETATM   11  C15 UNL     1      13.047  19.505  62.896  1.00  0.00     0.073 C 
HETATM   12  C24 UNL     1      13.612  20.828  62.473  1.00  0.00    -0.030 C 
HETATM   13  C25 UNL     1      12.739  21.933  62.958  1.00  0.00     0.016 C 
HETATM   14  C26 UNL     1      14.020  20.948  61.047  1.00  0.00     0.010 C 
HETATM   15  C27 UNL     1      15.450  21.312  60.814  1.00  0.00     0.006 C 
HETATM   16  C28 UNL     1      15.933  22.402  61.722  1.00  0.00    -0.001 C 
HETATM   17  C29 UNL     1      17.321  22.906  61.372  1.00  0.00    -0.027 C 
HETATM   18  C30 UNL     1      18.078  21.685  60.822  1.00  0.00     0.016 C 
HETATM   19  C31 UNL     1      17.391  23.978  60.361  1.00  0.00    -0.010 C 
HETATM   20  C32 UNL     1      18.510  23.649  59.331  1.00  0.00     0.018 C 
HETATM   21  C33 UNL     1      16.175  24.084  59.463  1.00  0.00     0.018 C 
ENDROOT
BRANCH  11  22
HETATM   22  C16 UNL     1      11.806  18.990  62.383  1.00  0.00     0.294 C 
HETATM   23  F1  UNL     1      10.801  19.903  62.217  1.00  0.00    -0.198 F 
HETATM   24  F2  UNL     1      12.078  18.574  61.048  1.00  0.00    -0.198 F 
BRANCH  22  25
HETATM   25  C17 UNL     1      11.217  17.766  62.992  1.00  0.00     0.269 C 
BRANCH  25  26
HETATM   26  N1  UNL     1      10.067  17.539  63.011  1.00  0.00    -0.292 NA
BRANCH  26  27
HETATM   27  O4  UNL     1       8.824  17.298  63.038  1.00  0.00    -0.204 OA
BRANCH  27  28
HETATM   28  C18 UNL     1       8.202  16.110  63.569  1.00  0.00     0.298 C 
BRANCH  28  29
HETATM   29  C19 UNL     1       7.468  16.410  64.817  1.00  0.00     0.291 C 
HETATM   30  F3  UNL     1       7.486  15.326  65.693  1.00  0.00    -0.202 F 
HETATM   31  F4  UNL     1       6.086  16.551  64.470  1.00  0.00    -0.202 F 
BRANCH  29  32
HETATM   32  C20 UNL     1       7.823  17.646  65.560  1.00  0.00     0.313 C 
BRANCH  32  33
HETATM   33  N2  UNL     1       9.161  17.630  66.059  1.00  0.00    -0.066 N 
ATOM     34  H22 UNL     1       9.286  16.898  66.759  1.00  0.00     0.277 HD
ATOM     35  H21 UNL     1       9.815  17.291  65.353  1.00  0.00     0.277 HD
BRANCH  33  36
HETATM   36  C21 UNL     1       9.567  18.928  66.575  1.00  0.00     0.178 C 
HETATM   37  C22 UNL     1       9.587  20.012  65.555  1.00  0.00     0.039 C 
HETATM   38  C23 UNL     1      10.982  18.797  67.139  1.00  0.00     0.039 C 
ENDBRANCH  33  36
ENDBRANCH  32  33
ENDBRANCH  29  32
ENDBRANCH  28  29
ENDBRANCH  27  28
ENDBRANCH  26  27
ENDBRANCH  25  26
ENDBRANCH  22  25
ENDBRANCH  11  22
BRANCH   1  39
HETATM   39  O2  UNL     1      18.382  26.025  59.744  1.00  0.00    -0.313 OA
BRANCH  39  40
HETATM   40  C4  UNL     1      18.075  27.282  59.298  1.00  0.00     0.259 C 
HETATM   41  O1  UNL     1      17.917  28.200  60.161  1.00  0.00    -0.265 OA
BRANCH  40  42
HETATM   42  C3  UNL     1      17.907  27.680  57.898  1.00  0.00     0.111 C 
BRANCH  42  43
HETATM   43  C2  UNL     1      16.898  26.902  57.132  1.00  0.00     0.005 C 
HETATM   44  C1  UNL     1      15.505  27.157  57.657  1.00  0.00     0.005 C 
ENDBRANCH  42  43
ENDBRANCH  40  42
ENDBRANCH  39  40
ENDBRANCH   1  39
BRANCH   2  45
HETATM   45  O3  UNL     1      19.707  26.339  61.788  1.00  0.00    -0.393 OA
ATOM     46  H3  UNL     1      20.192  26.550  62.577  1.00  0.00     0.210 HD
ENDBRANCH   2  45
TORSDOF 14
ENDMDL
MODEL 2
REMARK VINA RESULT: -8.562515322      1.834      2.740
REMARK  14 active torsions:
REMARK  status: ('A' for Active; 'I' for Inactive)
REMARK    1  A    between atoms: C2_2  and  C3_3 
REMARK    2  A    between atoms: C3_3  and  C4_4 
REMARK    3  A    between atoms: C4_4  and  O2_6 
REMARK    4  A    between atoms: O2_6  and  C5_7 
REMARK    5  A    between atoms: C6_8  and  O3_9 
REMARK    6  A    between atoms: C15_19  and  C16_20 
REMARK    7  A    between atoms: C16_20  and  C17_23 
REMARK    8  A    between atoms: C17_23  and  N1_24 
REMARK    9  A    between atoms: N1_24  and  O4_25 
REMARK   10  A    between atoms: O4_25  and  C18_26 
REMARK   11  A    between atoms: C18_26  and  C19_27 
REMARK   12  A    between atoms: C19_27  and  C20_30 
REMARK   13  A    between atoms: C20_30  and  N2_31 
REMARK   14  A    between atoms: N2_31  and  C21_34 
ROOT
HETATM    1  C5  UNL     1      17.717  25.347  60.820  1.00  0.00     0.169 C 
HETATM    2  C6  UNL     1      18.675  25.437  61.972  1.00  0.00     0.148 C 
HETATM    3  C7  UNL     1      19.169  24.150  62.503  1.00  0.00     0.039 C 
HETATM    4  C8  UNL     1      18.007  23.182  62.671  1.00  0.00    -0.003 C 
HETATM    5  C9  UNL     1      17.099  23.780  63.713  1.00  0.00     0.006 C 
HETATM    6  C10 UNL     1      16.063  22.776  64.207  1.00  0.00     0.006 C 
HETATM    7  C11 UNL     1      15.898  21.750  63.128  1.00  0.00    -0.005 C 
HETATM    8  C12 UNL     1      14.857  20.757  63.314  1.00  0.00    -0.001 C 
HETATM    9  C13 UNL     1      14.321  20.593  64.714  1.00  0.00     0.006 C 
HETATM   10  C14 UNL     1      13.164  19.633  64.461  1.00  0.00     0.012 C 
HETATM   11  C15 UNL     1      12.967  19.597  62.974  1.00  0.00     0.073 C 
HETATM   12  C24 UNL     1      13.552  20.908  62.542  1.00  0.00    -0.030 C 
HETATM   13  C25 UNL     1      12.714  22.031  63.047  1.00  0.00     0.016 C 
HETATM   14  C26 UNL     1      13.934  21.023  61.108  1.00  0.00     0.010 C 
HETATM   15  C27 UNL     1      15.366  21.356  60.848  1.00  0.00     0.006 C 
HETATM   16  C28 UNL     1      15.891  22.432  61.748  1.00  0.00    -0.001 C 
HETATM   17  C29 UNL     1      17.283  22.906  61.372  1.00  0.00    -0.027 C 
HETATM   18  C30 UNL     1      18.002  21.670  60.803  1.00  0.00     0.016 C 
HETATM   19  C31 UNL     1      17.357  23.979  60.361  1.00  0.00    -0.010 C 
HETATM   20  C32 UNL     1      18.448  23.628  59.308  1.00  0.00     0.018 C 
HETATM   21  C33 UNL     1      16.125  24.114  59.487  1.00  0.00     0.018 C 
ENDROOT
BRANCH  11  22
HETATM   22  C16 UNL     1      11.705  19.110  62.485  1.00  0.00     0.294 C 
HETATM   23  F1  UNL     1      10.834  20.060  62.026  1.00  0.00    -0.198 F 
HETATM   24  F2  UNL     1      12.004  18.361  61.310  1.00  0.00    -0.198 F 
BRANCH  22  25
HETATM   25  C17 UNL     1      10.931  18.137  63.303  1.00  0.00     0.269 C 
BRANCH  25  26
HETATM   26  N1  UNL     1       9.931  17.641  62.948  1.00  0.00    -0.292 NA
BRANCH  26  27
HETATM   27  O4  UNL     1       8.852  17.102  62.559  1.00  0.00    -0.204 OA
BRANCH  27  28
HETATM   28  C18 UNL     1       8.501  16.798  61.194  1.00  0.00     0.298 C 
BRANCH  28  29
HETATM   29  C19 UNL     1       8.070  15.389  61.061  1.00  0.00     0.291 C 
HETATM   30  F3  UNL     1       9.163  14.529  60.970  1.00  0.00    -0.202 F 
HETATM   31  F4  UNL     1       7.425  15.264  59.788  1.00  0.00    -0.202 F 
BRANCH  29  32
HETATM   32  C20 UNL     1       7.106  14.853  62.054  1.00  0.00     0.313 C 
BRANCH  32  33
HETATM   33  N2  UNL     1       5.770  14.790  61.554  1.00  0.00    -0.066 N 
ATOM     34  H22 UNL     1       5.759  14.735  60.535  1.00  0.00     0.277 HD
ATOM     35  H21 UNL     1       5.336  13.892  61.769  1.00  0.00     0.277 HD
BRANCH  33  36
HETATM   36  C21 UNL     1       4.955  15.897  62.032  1.00  0.00     0.178 C 
HETATM   37  C22 UNL     1       4.971  16.075  63.509  1.00  0.00     0.039 C 
HETATM   38  C23 UNL     1       3.508  15.641  61.612  1.00  0.00     0.039 C 
ENDBRANCH  33  36
ENDBRANCH  32  33
ENDBRANCH  29  32
ENDBRANCH  28  29
ENDBRANCH  27  28
ENDBRANCH  26  27
ENDBRANCH  25  26
ENDBRANCH  22  25
ENDBRANCH  11  22
BRANCH   1  39
HETATM   39  O2  UNL     1      18.380  26.006  59.728  1.00  0.00    -0.313 OA
BRANCH  39  40
HETATM   40  C4  UNL     1      18.102  27.275  59.300  1.00  0.00     0.259 C 
HETATM   41  O1  UNL     1      17.945  28.180  60.178  1.00  0.00    -0.265 OA
BRANCH  40  42
HETATM   42  C3  UNL     1      17.966  27.702  57.905  1.00  0.00     0.111 C 
BRANCH  42  43
HETATM   43  C2  UNL     1      16.964  26.950  57.106  1.00  0.00     0.005 C 
HETATM   44  C1  UNL     1      15.571  27.153  57.653  1.00  0.00     0.005 C 
ENDBRANCH  42  43
ENDBRANCH  40  42
ENDBRANCH  39  40
ENDBRANCH   1  39
BRANCH   2  45
HETATM   45  O3  UNL     1      19.752  26.285  61.746  1.00  0.00    -0.393 OA
ATOM     46  H3  UNL     1      20.207  26.550  62.537  1.00  0.00     0.210 HD
ENDBRANCH   2  45
TORSDOF 14
ENDMDL
MODEL 3
REMARK VINA RESULT: -8.544732640      1.109      2.231
REMARK  14 active torsions:
REMARK  status: ('A' for Active; 'I' for Inactive)
REMARK    1  A    between atoms: C2_2  and  C3_3 
REMARK    2  A    between atoms: C3_3  and  C4_4 
REMARK    3  A    between atoms: C4_4  and  O2_6 
REMARK    4  A    between atoms: O2_6  and  C5_7 
REMARK    5  A    between atoms: C6_8  and  O3_9 
REMARK    6  A    between atoms: C15_19  and  C16_20 
REMARK    7  A    between atoms: C16_20  and  C17_23 
REMARK    8  A    between atoms: C17_23  and  N1_24 
REMARK    9  A    between atoms: N1_24  and  O4_25 
REMARK   10  A    between atoms: O4_25  and  C18_26 
REMARK   11  A    between atoms: C18_26  and  C19_27 
REMARK   12  A    between atoms: C19_27  and  C20_30 
REMARK   13  A    between atoms: C20_30  and  N2_31 
REMARK   14  A    between atoms: N2_31  and  C21_34 
ROOT
HETATM    1  C5  UNL     1      17.736  25.415  60.843  1.00  0.00     0.169 C 
HETATM    2  C6  UNL     1      18.630  25.562  62.039  1.00  0.00     0.148 C 
HETATM    3  C7  UNL     1      19.160  24.306  62.608  1.00  0.00     0.039 C 
HETATM    4  C8  UNL     1      18.040  23.284  62.730  1.00  0.00    -0.003 C 
HETATM    5  C9  UNL     1      17.053  23.846  63.720  1.00  0.00     0.006 C 
HETATM    6  C10 UNL     1      16.045  22.796  64.174  1.00  0.00     0.006 C 
HETATM    7  C11 UNL     1      15.984  21.754  63.100  1.00  0.00    -0.005 C 
HETATM    8  C12 UNL     1      14.985  20.711  63.247  1.00  0.00    -0.001 C 
HETATM    9  C13 UNL     1      14.390  20.534  64.621  1.00  0.00     0.006 C 
HETATM   10  C14 UNL     1      13.294  19.516  64.323  1.00  0.00     0.012 C 
HETATM   11  C15 UNL     1      13.173  19.456  62.828  1.00  0.00     0.073 C 
HETATM   12  C24 UNL     1      13.714  20.791  62.411  1.00  0.00    -0.030 C 
HETATM   13  C25 UNL     1      12.797  21.875  62.861  1.00  0.00     0.016 C 
HETATM   14  C26 UNL     1      14.160  20.911  60.996  1.00  0.00     0.010 C 
HETATM   15  C27 UNL     1      15.585  21.313  60.802  1.00  0.00     0.006 C 
HETATM   16  C28 UNL     1      16.011  22.422  61.714  1.00  0.00    -0.001 C 
HETATM   17  C29 UNL     1      17.395  22.961  61.400  1.00  0.00    -0.027 C 
HETATM   18  C30 UNL     1      18.201  21.757  60.882  1.00  0.00     0.016 C 
HETATM   19  C31 UNL     1      17.466  24.027  60.382  1.00  0.00    -0.010 C 
HETATM   20  C32 UNL     1      18.623  23.720  59.388  1.00  0.00     0.018 C 
HETATM   21  C33 UNL     1      16.274  24.092  59.448  1.00  0.00     0.018 C 
ENDROOT
BRANCH  11  22
HETATM   22  C16 UNL     1      11.961  18.904  62.284  1.00  0.00     0.294 C 
HETATM   23  F1  UNL     1      11.964  18.663  60.938  1.00  0.00    -0.198 F 
HETATM   24  F2  UNL     1      11.846  17.596  62.839  1.00  0.00    -0.198 F 
BRANCH  22  25
HETATM   25  C17 UNL     1      10.654  19.522  62.637  1.00  0.00     0.269 C 
BRANCH  25  26
HETATM   26  N1  UNL     1       9.903  19.060  63.408  1.00  0.00    -0.292 NA
BRANCH  26  27
HETATM   27  O4  UNL     1       9.090  18.566  64.244  1.00  0.00    -0.204 OA
BRANCH  27  28
HETATM   28  C18 UNL     1       9.163  17.245  64.819  1.00  0.00     0.298 C 
BRANCH  28  29
HETATM   29  C19 UNL     1       7.996  16.429  64.419  1.00  0.00     0.291 C 
HETATM   30  F3  UNL     1       6.797  17.040  64.785  1.00  0.00    -0.202 F 
HETATM   31  F4  UNL     1       8.028  15.232  65.204  1.00  0.00    -0.202 F 
BRANCH  29  32
HETATM   32  C20 UNL     1       7.905  15.980  63.006  1.00  0.00     0.313 C 
BRANCH  32  33
HETATM   33  N2  UNL     1       9.112  16.196  62.275  1.00  0.00    -0.066 N 
ATOM     34  H22 UNL     1       9.309  17.192  62.173  1.00  0.00     0.277 HD
ATOM     35  H21 UNL     1       9.930  15.925  62.822  1.00  0.00     0.277 HD
BRANCH  33  36
HETATM   36  C21 UNL     1       9.096  15.525  60.984  1.00  0.00     0.178 C 
HETATM   37  C22 UNL     1       9.905  16.201  59.933  1.00  0.00     0.039 C 
HETATM   38  C23 UNL     1       7.649  15.472  60.492  1.00  0.00     0.039 C 
ENDBRANCH  33  36
ENDBRANCH  32  33
ENDBRANCH  29  32
ENDBRANCH  28  29
ENDBRANCH  27  28
ENDBRANCH  26  27
ENDBRANCH  25  26
ENDBRANCH  22  25
ENDBRANCH  11  22
BRANCH   1  39
HETATM   39  O2  UNL     1      18.419  26.095  59.777  1.00  0.00    -0.313 OA
BRANCH  39  40
HETATM   40  C4  UNL     1      18.111  27.352  59.333  1.00  0.00     0.259 C 
HETATM   41  O1  UNL     1      17.936  28.266  60.199  1.00  0.00    -0.265 OA
BRANCH  40  42
HETATM   42  C3  UNL     1      17.962  27.758  57.932  1.00  0.00     0.111 C 
BRANCH  42  43
HETATM   43  C2  UNL     1      17.012  26.941  57.133  1.00  0.00     0.005 C 
HETATM   44  C1  UNL     1      15.596  27.116  57.628  1.00  0.00     0.005 C 
ENDBRANCH  42  43
ENDBRANCH  40  42
ENDBRANCH  39  40
ENDBRANCH   1  39
BRANCH   2  45
HETATM   45  O3  UNL     1      19.674  26.461  61.856  1.00  0.00    -0.393 OA
ATOM     46  H3  UNL     1      20.076  26.416  60.996  1.00  0.00     0.210 HD
ENDBRANCH   2  45
TORSDOF 14
ENDMDL
MODEL 4
REMARK VINA RESULT: -8.542451242      1.172      1.433
REMARK  14 active torsions:
REMARK  status: ('A' for Active; 'I' for Inactive)
REMARK    1  A    between atoms: C2_2  and  C3_3 
REMARK    2  A    between atoms: C3_3  and  C4_4 
REMARK    3  A    between atoms: C4_4  and  O2_6 
REMARK    4  A    between atoms: O2_6  and  C5_7 
REMARK    5  A    between atoms: C6_8  and  O3_9 
REMARK    6  A    between atoms: C15_19  and  C16_20 
REMARK    7  A    between atoms: C16_20  and  C17_23 
REMARK    8  A    between atoms: C17_23  and  N1_24 
REMARK    9  A    between atoms: N1_24  and  O4_25 
REMARK   10  A    between atoms: O4_25  and  C18_26 
REMARK   11  A    between atoms: C18_26  and  C19_27 
REMARK   12  A    between atoms: C19_27  and  C20_30 
REMARK   13  A    between atoms: C20_30  and  N2_31 
REMARK   14  A    between atoms: N2_31  and  C21_34 
ROOT
HETATM    1  C5  UNL     1      17.716  25.330  60.828  1.00  0.00     0.169 C 
HETATM    2  C6  UNL     1      18.681  25.392  61.976  1.00  0.00     0.148 C 
HETATM    3  C7  UNL     1      19.169  24.092  62.479  1.00  0.00     0.039 C 
HETATM    4  C8  UNL     1      18.001  23.129  62.636  1.00  0.00    -0.003 C 
HETATM    5  C9  UNL     1      17.103  23.713  63.694  1.00  0.00     0.006 C 
HETATM    6  C10 UNL     1      16.063  22.708  64.174  1.00  0.00     0.006 C 
HETATM    7  C11 UNL     1      15.885  21.704  63.078  1.00  0.00    -0.005 C 
HETATM    8  C12 UNL     1      14.838  20.714  63.251  1.00  0.00    -0.001 C 
HETATM    9  C13 UNL     1      14.309  20.527  64.651  1.00  0.00     0.006 C 
HETATM   10  C14 UNL     1      13.143  19.581  64.387  1.00  0.00     0.012 C 
HETATM   11  C15 UNL     1      12.937  19.574  62.900  1.00  0.00     0.073 C 
HETATM   12  C24 UNL     1      13.529  20.889  62.490  1.00  0.00    -0.030 C 
HETATM   13  C25 UNL     1      12.702  22.008  63.020  1.00  0.00     0.016 C 
HETATM   14  C26 UNL     1      13.904  21.028  61.056  1.00  0.00     0.010 C 
HETATM   15  C27 UNL     1      15.337  21.356  60.794  1.00  0.00     0.006 C 
HETATM   16  C28 UNL     1      15.875  22.411  61.711  1.00  0.00    -0.001 C 
HETATM   17  C29 UNL     1      17.268  22.883  61.335  1.00  0.00    -0.027 C 
HETATM   18  C30 UNL     1      17.975  21.653  60.740  1.00  0.00     0.016 C 
HETATM   19  C31 UNL     1      17.343  23.974  60.345  1.00  0.00    -0.010 C 
HETATM   20  C32 UNL     1      18.426  23.635  59.280  1.00  0.00     0.018 C 
HETATM   21  C33 UNL     1      16.108  24.134  59.481  1.00  0.00     0.018 C 
ENDROOT
BRANCH  11  22
HETATM   22  C16 UNL     1      11.669  19.106  62.409  1.00  0.00     0.294 C 
HETATM   23  F1  UNL     1      10.792  20.071  61.999  1.00  0.00    -0.198 F 
HETATM   24  F2  UNL     1      11.953  18.403  61.202  1.00  0.00    -0.198 F 
BRANCH  22  25
HETATM   25  C17 UNL     1      10.907  18.100  63.199  1.00  0.00     0.269 C 
BRANCH  25  26
HETATM   26  N1  UNL     1      10.235  17.269  62.717  1.00  0.00    -0.292 NA
BRANCH  26  27
HETATM   27  O4  UNL     1       9.507  16.370  62.202  1.00  0.00    -0.204 OA
BRANCH  27  28
HETATM   28  C18 UNL     1       8.260  16.583  61.509  1.00  0.00     0.298 C 
BRANCH  28  29
HETATM   29  C19 UNL     1       7.179  15.767  62.104  1.00  0.00     0.291 C 
HETATM   30  F3  UNL     1       7.310  14.422  61.763  1.00  0.00    -0.202 F 
HETATM   31  F4  UNL     1       5.955  16.165  61.475  1.00  0.00    -0.202 F 
BRANCH  29  32
HETATM   32  C20 UNL     1       6.935  15.881  63.564  1.00  0.00     0.313 C 
BRANCH  32  33
HETATM   33  N2  UNL     1       7.438  17.098  64.118  1.00  0.00    -0.066 N 
ATOM     34  H22 UNL     1       8.430  17.214  63.914  1.00  0.00     0.277 HD
ATOM     35  H21 UNL     1       7.074  17.910  63.619  1.00  0.00     0.277 HD
BRANCH  33  36
HETATM   36  C21 UNL     1       7.177  17.196  65.546  1.00  0.00     0.178 C 
HETATM   37  C22 UNL     1       6.235  18.284  65.923  1.00  0.00     0.039 C 
HETATM   38  C23 UNL     1       8.504  17.466  66.256  1.00  0.00     0.039 C 
ENDBRANCH  33  36
ENDBRANCH  32  33
ENDBRANCH  29  32
ENDBRANCH  28  29
ENDBRANCH  27  28
ENDBRANCH  26  27
ENDBRANCH  25  26
ENDBRANCH  22  25
ENDBRANCH  11  22
BRANCH   1  39
HETATM   39  O2  UNL     1      18.378  26.005  59.745  1.00  0.00    -0.313 OA
BRANCH  39  40
HETATM   40  C4  UNL     1      18.095  27.278  59.332  1.00  0.00     0.259 C 
HETATM   41  O1  UNL     1      17.958  28.177  60.220  1.00  0.00    -0.265 OA
BRANCH  40  42
HETATM   42  C3  UNL     1      17.932  27.717  57.943  1.00  0.00     0.111 C 
BRANCH  42  43
HETATM   43  C2  UNL     1      16.979  26.916  57.132  1.00  0.00     0.005 C 
HETATM   44  C1  UNL     1      15.558  27.132  57.595  1.00  0.00     0.005 C 
ENDBRANCH  42  43
ENDBRANCH  40  42
ENDBRANCH  39  40
ENDBRANCH   1  39
BRANCH   2  45
HETATM   45  O3  UNL     1      19.763  26.237  61.760  1.00  0.00    -0.393 OA
ATOM     46  H3  UNL     1      19.589  26.936  61.141  1.00  0.00     0.210 HD
ENDBRANCH   2  45
TORSDOF 14
ENDMDL
MODEL 5
REMARK VINA RESULT: -8.407266233      3.773     11.703
REMARK  14 active torsions:
REMARK  status: ('A' for Active; 'I' for Inactive)
REMARK    1  A    between atoms: C2_2  and  C3_3 
REMARK    2  A    between atoms: C3_3  and  C4_4 
REMARK    3  A    between atoms: C4_4  and  O2_6 
REMARK    4  A    between atoms: O2_6  and  C5_7 
REMARK    5  A    between atoms: C6_8  and  O3_9 
REMARK    6  A    between atoms: C15_19  and  C16_20 
REMARK    7  A    between atoms: C16_20  and  C17_23 
REMARK    8  A    between atoms: C17_23  and  N1_24 
REMARK    9  A    between atoms: N1_24  and  O4_25 
REMARK   10  A    between atoms: O4_25  and  C18_26 
REMARK   11  A    between atoms: C18_26  and  C19_27 
REMARK   12  A    between atoms: C19_27  and  C20_30 
REMARK   13  A    between atoms: C20_30  and  N2_31 
REMARK   14  A    between atoms: N2_31  and  C21_34 
ROOT
HETATM    1  C5  UNL     1       5.744  17.535  64.813  1.00  0.00     0.169 C 
HETATM    2  C6  UNL     1       5.884  16.144  64.271  1.00  0.00     0.148 C 
HETATM    3  C7  UNL     1       7.054  15.378  64.750  1.00  0.00     0.039 C 
HETATM    4  C8  UNL     1       8.299  16.250  64.689  1.00  0.00    -0.003 C 
HETATM    5  C9  UNL     1       8.532  16.564  63.235  1.00  0.00     0.006 C 
HETATM    6  C10 UNL     1       9.913  17.165  62.997  1.00  0.00     0.006 C 
HETATM    7  C11 UNL     1      10.353  17.776  64.292  1.00  0.00    -0.005 C 
HETATM    8  C12 UNL     1      11.592  18.533  64.278  1.00  0.00    -0.001 C 
HETATM    9  C13 UNL     1      12.511  18.303  63.105  1.00  0.00     0.006 C 
HETATM   10  C14 UNL     1      13.563  19.378  63.358  1.00  0.00     0.012 C 
HETATM   11  C15 UNL     1      12.997  20.276  64.420  1.00  0.00     0.073 C 
HETATM   12  C24 UNL     1      11.522  20.055  64.272  1.00  0.00    -0.030 C 
HETATM   13  C25 UNL     1      11.053  20.602  62.969  1.00  0.00     0.016 C 
HETATM   14  C26 UNL     1      10.675  20.432  65.437  1.00  0.00     0.010 C 
HETATM   15  C27 UNL     1       9.842  19.333  66.010  1.00  0.00     0.006 C 
HETATM   16  C28 UNL     1       9.171  18.499  64.963  1.00  0.00    -0.001 C 
HETATM   17  C29 UNL     1       8.180  17.500  65.533  1.00  0.00    -0.027 C 
HETATM   18  C30 UNL     1       8.752  17.081  66.898  1.00  0.00     0.016 C 
HETATM   19  C31 UNL     1       6.806  17.994  65.748  1.00  0.00    -0.010 C 
HETATM   20  C32 UNL     1       6.305  17.541  67.150  1.00  0.00     0.018 C 
HETATM   21  C33 UNL     1       6.683  19.501  65.856  1.00  0.00     0.018 C 
ENDROOT
BRANCH  11  22
HETATM   22  C16 UNL     1      13.577  21.585  64.557  1.00  0.00     0.294 C 
HETATM   23  F1  UNL     1      13.133  22.533  63.677  1.00  0.00    -0.198 F 
HETATM   24  F2  UNL     1      13.124  22.083  65.813  1.00  0.00    -0.198 F 
BRANCH  22  25
HETATM   25  C17 UNL     1      15.056  21.720  64.668  1.00  0.00     0.269 C 
BRANCH  25  26
HETATM   26  N1  UNL     1      15.670  22.576  64.155  1.00  0.00    -0.292 NA
BRANCH  26  27
HETATM   27  O4  UNL     1      16.329  23.501  63.596  1.00  0.00    -0.204 OA
BRANCH  27  28
HETATM   28  C18 UNL     1      17.766  23.625  63.574  1.00  0.00     0.298 C 
BRANCH  28  29
HETATM   29  C19 UNL     1      18.278  23.601  62.187  1.00  0.00     0.291 C 
HETATM   30  F3  UNL     1      19.593  23.142  62.136  1.00  0.00    -0.202 F 
HETATM   31  F4  UNL     1      18.369  24.961  61.747  1.00  0.00    -0.202 F 
BRANCH  29  32
HETATM   32  C20 UNL     1      17.474  22.898  61.154  1.00  0.00     0.313 C 
BRANCH  32  33
HETATM   33  N2  UNL     1      17.048  21.600  61.570  1.00  0.00    -0.066 N 
ATOM     34  H22 UNL     1      17.845  20.998  61.776  1.00  0.00     0.277 HD
ATOM     35  H21 UNL     1      16.623  21.630  62.497  1.00  0.00     0.277 HD
BRANCH  33  36
HETATM   36  C21 UNL     1      16.155  20.983  60.600  1.00  0.00     0.178 C 
HETATM   37  C22 UNL     1      16.577  21.158  59.183  1.00  0.00     0.039 C 
HETATM   38  C23 UNL     1      14.772  21.616  60.754  1.00  0.00     0.039 C 
ENDBRANCH  33  36
ENDBRANCH  32  33
ENDBRANCH  29  32
ENDBRANCH  28  29
ENDBRANCH  27  28
ENDBRANCH  26  27
ENDBRANCH  25  26
ENDBRANCH  22  25
ENDBRANCH  11  22
BRANCH   1  39
HETATM   39  O2  UNL     1       4.504  17.533  65.540  1.00  0.00    -0.313 OA
BRANCH  39  40
HETATM   40  C4  UNL     1       3.308  17.970  65.040  1.00  0.00     0.259 C 
HETATM   41  O1  UNL     1       2.322  17.169  65.066  1.00  0.00    -0.265 OA
BRANCH  40  42
HETATM   42  C3  UNL     1       3.046  19.293  64.468  1.00  0.00     0.111 C 
BRANCH  42  43
HETATM   43  C2  UNL     1       3.063  20.419  65.438  1.00  0.00     0.005 C 
HETATM   44  C1  UNL     1       3.692  21.650  64.830  1.00  0.00     0.005 C 
ENDBRANCH  42  43
ENDBRANCH  40  42
ENDBRANCH  39  40
ENDBRANCH   1  39
BRANCH   2  45
HETATM   45  O3  UNL     1       4.740  15.367  64.406  1.00  0.00    -0.393 OA
ATOM     46  H3  UNL     1       4.255  15.251  63.597  1.00  0.00     0.210 HD
ENDBRANCH   2  45
TORSDOF 14
ENDMDL
