MODEL 1
REMARK VINA RESULT: -8.879786705      0.000      0.000
REMARK  15 active torsions:
REMARK  status: ('A' for Active; 'I' for Inactive)
REMARK    1  A    between atoms: C2_2  and  C3_3 
REMARK    2  A    between atoms: C2_2  and  C6_8 
REMARK    3  A    between atoms: C3_3  and  O1_4 
REMARK    4  A    between atoms: O1_4  and  C4_5 
REMARK    5  A    between atoms: C16_19  and  C17_20 
REMARK    6  A    between atoms: C17_20  and  C18_21 
REMARK    7  A    between atoms: C18_21  and  C19_22 
REMARK    8  A    between atoms: C19_22  and  C20_23 
REMARK    9  A    between atoms: C20_23  and  C21_24 
REMARK   10  A    between atoms: C21_24  and  C22_25 
REMARK   11  A    between atoms: C22_25  and  N1_26 
REMARK   12  A    between atoms: N1_26  and  C23_28 
REMARK   13  A    between atoms: C23_28  and  N2_30 
REMARK   14  A    between atoms: N2_30  and  C24_32 
REMARK   15  A    between atoms: C26_34  and  C27_35 
ROOT
HETATM    1  C17 UNL     1      13.284  21.398  65.505  1.00  0.00     0.033 C 
ENDROOT
BRANCH   1   2
HETATM    2  C16 UNL     1      12.517  21.075  64.302  1.00  0.00     0.130 C 
HETATM    3  O3  UNL     1      11.770  21.896  63.572  1.00  0.00    -0.385 OA
HETATM    4  C15 UNL     1      11.254  21.137  62.517  1.00  0.00     0.173 C 
HETATM    5  C14 UNL     1      11.270  19.691  62.984  1.00  0.00     0.022 C 
HETATM    6  C13 UNL     1       9.825  19.226  63.258  1.00  0.00     0.022 C 
HETATM    7  C29 UNL     1      11.971  19.654  64.316  1.00  0.00    -0.004 C 
HETATM    8  C11 UNL     1      10.051  18.321  64.387  1.00  0.00    -0.011 C 
HETATM    9  C6  UNL     1       9.080  17.729  65.268  1.00  0.00    -0.063 C 
HETATM   10  C9  UNL     1      10.899  19.310  65.231  1.00  0.00    -0.022 C 
HETATM   11  C12 UNL     1      10.885  17.188  63.842  1.00  0.00     0.021 C 
HETATM   12  C7  UNL     1       9.628  18.069  66.661  1.00  0.00     0.036 C 
HETATM   13  C8  UNL     1      11.081  18.475  66.425  1.00  0.00     0.015 C 
HETATM   14  C10 UNL     1      10.050  20.451  65.681  1.00  0.00     0.017 C 
HETATM   15  C30 UNL     1      13.209  18.781  64.366  1.00  0.00     0.019 C 
BRANCH   9  16
HETATM   16  C2  UNL     1       7.658  17.781  65.144  1.00  0.00    -0.040 C 
HETATM   17  C1  UNL     1       6.865  18.768  65.459  1.00  0.00     0.021 C 
BRANCH  16  18
HETATM   18  C3  UNL     1       6.984  16.544  64.546  1.00  0.00     0.216 C 
BRANCH  18  19
HETATM   19  O1  UNL     1       7.485  16.205  63.396  1.00  0.00    -0.317 OA
BRANCH  19  20
HETATM   20  C4  UNL     1       7.882  15.807  62.247  1.00  0.00     0.255 C 
HETATM   21  C5  UNL     1       8.324  16.622  61.060  1.00  0.00     0.126 C 
HETATM   22  O2  UNL     1       7.912  14.528  62.071  1.00  0.00    -0.266 OA
ENDBRANCH  19  20
ENDBRANCH  18  19
ENDBRANCH  16  18
ENDBRANCH   9  16
ENDBRANCH   1   2
BRANCH   1  23
HETATM   23  C18 UNL     1      14.348  22.431  65.309  1.00  0.00     0.002 C 
BRANCH  23  24
HETATM   24  C19 UNL     1      14.593  23.178  66.656  1.00  0.00     0.000 C 
BRANCH  24  25
HETATM   25  C20 UNL     1      14.740  24.617  66.314  1.00  0.00     0.002 C 
BRANCH  25  26
HETATM   26  C21 UNL     1      15.915  25.171  65.657  1.00  0.00     0.020 C 
BRANCH  26  27
HETATM   27  C22 UNL     1      17.272  24.834  66.162  1.00  0.00     0.122 C 
BRANCH  27  28
HETATM   28  N1  UNL     1      18.302  25.704  65.646  1.00  0.00    -0.367 N 
ATOM     29  H1  UNL     1      18.808  26.295  66.304  1.00  0.00     0.161 HD
BRANCH  28  30
HETATM   30  C23 UNL     1      18.650  25.782  64.260  1.00  0.00     0.173 C 
HETATM   31  S1  UNL     1      18.837  27.269  63.652  1.00  0.00    -0.041 SA
BRANCH  30  32
HETATM   32  N2  UNL     1      18.734  24.626  63.502  1.00  0.00    -0.318 N 
ATOM     33  H2  UNL     1      19.555  24.062  63.719  1.00  0.00     0.170 HD
BRANCH  32  34
HETATM   34  C24 UNL     1      17.926  24.066  62.498  1.00  0.00     0.126 A 
HETATM   35  C25 UNL     1      17.119  22.947  62.829  1.00  0.00     0.085 A 
HETATM   36  C26 UNL     1      16.470  22.536  61.699  1.00  0.00     0.136 A 
HETATM   37  N3  UNL     1      16.864  23.358  60.733  1.00  0.00    -0.293 N 
HETATM   38  N4  UNL     1      17.742  24.280  61.219  1.00  0.00    -0.281 N 
ATOM     39  H3  UNL     1      16.552  23.307  59.764  1.00  0.00     0.187 HD
HETATM   40  C28 UNL     1      18.400  25.252  60.369  1.00  0.00     0.179 C 
BRANCH  36  41
HETATM   41  C27 UNL     1      15.486  21.399  61.586  1.00  0.00     0.434 C 
HETATM   42  F1  UNL     1      14.248  21.986  61.385  1.00  0.00    -0.165 F 
HETATM   43  F2  UNL     1      15.859  20.613  60.549  1.00  0.00    -0.165 F 
HETATM   44  F3  UNL     1      15.458  20.645  62.744  1.00  0.00    -0.165 F 
ENDBRANCH  36  41
ENDBRANCH  32  34
ENDBRANCH  30  32
ENDBRANCH  28  30
ENDBRANCH  27  28
ENDBRANCH  26  27
ENDBRANCH  25  26
ENDBRANCH  24  25
ENDBRANCH  23  24
ENDBRANCH   1  23
TORSDOF 15
ENDMDL
MODEL 2
REMARK VINA RESULT: -8.872798472      0.798      1.044
REMARK  15 active torsions:
REMARK  status: ('A' for Active; 'I' for Inactive)
REMARK    1  A    between atoms: C2_2  and  C3_3 
REMARK    2  A    between atoms: C2_2  and  C6_8 
REMARK    3  A    between atoms: C3_3  and  O1_4 
REMARK    4  A    between atoms: O1_4  and  C4_5 
REMARK    5  A    between atoms: C16_19  and  C17_20 
REMARK    6  A    between atoms: C17_20  and  C18_21 
REMARK    7  A    between atoms: C18_21  and  C19_22 
REMARK    8  A    between atoms: C19_22  and  C20_23 
REMARK    9  A    between atoms: C20_23  and  C21_24 
REMARK   10  A    between atoms: C21_24  and  C22_25 
REMARK   11  A    between atoms: C22_25  and  N1_26 
REMARK   12  A    between atoms: N1_26  and  C23_28 
REMARK   13  A    between atoms: C23_28  and  N2_30 
REMARK   14  A    between atoms: N2_30  and  C24_32 
REMARK   15  A    between atoms: C26_34  and  C27_35 
ROOT
HETATM    1  C17 UNL     1      13.515  22.207  65.132  1.00  0.00     0.033 C 
ENDROOT
BRANCH   1   2
HETATM    2  C16 UNL     1      12.833  21.652  63.964  1.00  0.00     0.130 C 
HETATM    3  O3  UNL     1      11.986  22.271  63.149  1.00  0.00    -0.385 OA
HETATM    4  C15 UNL     1      11.615  21.339  62.173  1.00  0.00     0.173 C 
HETATM    5  C14 UNL     1      11.842  19.967  62.786  1.00  0.00     0.022 C 
HETATM    6  C13 UNL     1      10.480  19.313  63.097  1.00  0.00     0.022 C 
HETATM    7  C29 UNL     1      12.512  20.172  64.119  1.00  0.00    -0.004 C 
HETATM    8  C11 UNL     1      10.818  18.571  64.313  1.00  0.00    -0.011 C 
HETATM    9  C6  UNL     1       9.930  17.927  65.244  1.00  0.00    -0.063 C 
HETATM   10  C9  UNL     1      11.486  19.759  65.058  1.00  0.00    -0.022 C 
HETATM   11  C12 UNL     1      11.827  17.533  63.891  1.00  0.00     0.021 C 
HETATM   12  C7  UNL     1      10.389  18.485  66.598  1.00  0.00     0.036 C 
HETATM   13  C8  UNL     1      11.767  19.085  66.331  1.00  0.00     0.015 C 
HETATM   14  C10 UNL     1      10.461  20.794  65.383  1.00  0.00     0.017 C 
HETATM   15  C30 UNL     1      13.867  19.510  64.265  1.00  0.00     0.019 C 
BRANCH   9  16
HETATM   16  C2  UNL     1       8.520  17.746  65.105  1.00  0.00    -0.040 C 
HETATM   17  C1  UNL     1       7.575  18.609  65.360  1.00  0.00     0.021 C 
BRANCH  16  18
HETATM   18  C3  UNL     1       8.060  16.387  64.571  1.00  0.00     0.216 C 
BRANCH  18  19
HETATM   19  O1  UNL     1       8.414  16.187  63.337  1.00  0.00    -0.317 OA
BRANCH  19  20
HETATM   20  C4  UNL     1       8.752  15.875  62.144  1.00  0.00     0.255 C 
HETATM   21  C5  UNL     1       9.335  16.746  61.063  1.00  0.00     0.126 C 
HETATM   22  O2  UNL     1       8.573  14.640  61.810  1.00  0.00    -0.266 OA
ENDBRANCH  19  20
ENDBRANCH  18  19
ENDBRANCH  16  18
ENDBRANCH   9  16
ENDBRANCH   1   2
BRANCH   1  23
HETATM   23  C18 UNL     1      14.672  23.101  64.814  1.00  0.00     0.002 C 
BRANCH  23  24
HETATM   24  C19 UNL     1      14.547  24.417  65.642  1.00  0.00     0.000 C 
BRANCH  24  25
HETATM   25  C20 UNL     1      15.498  24.287  66.778  1.00  0.00     0.002 C 
BRANCH  25  26
HETATM   26  C21 UNL     1      16.874  24.759  66.731  1.00  0.00     0.020 C 
BRANCH  26  27
HETATM   27  C22 UNL     1      17.234  25.904  65.852  1.00  0.00     0.122 C 
BRANCH  27  28
HETATM   28  N1  UNL     1      18.539  25.769  65.252  1.00  0.00    -0.367 N 
ATOM     29  H1  UNL     1      19.318  25.491  65.849  1.00  0.00     0.161 HD
BRANCH  28  30
HETATM   30  C23 UNL     1      18.801  26.005  63.865  1.00  0.00     0.173 C 
HETATM   31  S1  UNL     1      18.861  27.552  63.401  1.00  0.00    -0.041 SA
BRANCH  30  32
HETATM   32  N2  UNL     1      18.910  24.936  62.991  1.00  0.00    -0.318 N 
ATOM     33  H2  UNL     1      19.790  24.429  63.085  1.00  0.00     0.170 HD
BRANCH  32  34
HETATM   34  C24 UNL     1      18.066  24.403  62.003  1.00  0.00     0.126 A 
HETATM   35  C25 UNL     1      17.384  23.190  62.282  1.00  0.00     0.085 A 
HETATM   36  C26 UNL     1      16.674  22.830  61.172  1.00  0.00     0.136 A 
HETATM   37  N3  UNL     1      16.913  23.771  60.266  1.00  0.00    -0.293 N 
HETATM   38  N4  UNL     1      17.753  24.718  60.771  1.00  0.00    -0.281 N 
ATOM     39  H3  UNL     1      16.522  23.784  59.324  1.00  0.00     0.187 HD
HETATM   40  C28 UNL     1      18.252  25.821  59.974  1.00  0.00     0.179 C 
BRANCH  36  41
HETATM   41  C27 UNL     1      15.779  21.625  61.023  1.00  0.00     0.434 C 
HETATM   42  F1  UNL     1      16.369  20.831  60.055  1.00  0.00    -0.165 F 
HETATM   43  F2  UNL     1      15.697  21.004  62.223  1.00  0.00    -0.165 F 
HETATM   44  F3  UNL     1      14.512  21.992  60.611  1.00  0.00    -0.165 F 
ENDBRANCH  36  41
ENDBRANCH  32  34
ENDBRANCH  30  32
ENDBRANCH  28  30
ENDBRANCH  27  28
ENDBRANCH  26  27
ENDBRANCH  25  26
ENDBRANCH  24  25
ENDBRANCH  23  24
ENDBRANCH   1  23
TORSDOF 15
ENDMDL
MODEL 3
REMARK VINA RESULT: -8.477066096      2.140      3.206
REMARK  15 active torsions:
REMARK  status: ('A' for Active; 'I' for Inactive)
REMARK    1  A    between atoms: C2_2  and  C3_3 
REMARK    2  A    between atoms: C2_2  and  C6_8 
REMARK    3  A    between atoms: C3_3  and  O1_4 
REMARK    4  A    between atoms: O1_4  and  C4_5 
REMARK    5  A    between atoms: C16_19  and  C17_20 
REMARK    6  A    between atoms: C17_20  and  C18_21 
REMARK    7  A    between atoms: C18_21  and  C19_22 
REMARK    8  A    between atoms: C19_22  and  C20_23 
REMARK    9  A    between atoms: C20_23  and  C21_24 
REMARK   10  A    between atoms: C21_24  and  C22_25 
REMARK   11  A    between atoms: C22_25  and  N1_26 
REMARK   12  A    between atoms: N1_26  and  C23_28 
REMARK   13  A    between atoms: C23_28  and  N2_30 
REMARK   14  A    between atoms: N2_30  and  C24_32 
REMARK   15  A    between atoms: C26_34  and  C27_35 
ROOT
HETATM    1  C17 UNL     1      13.302  21.651  65.377  1.00  0.00     0.033 C 
ENDROOT
BRANCH   1   2
HETATM    2  C16 UNL     1      12.538  21.266  64.191  1.00  0.00     0.130 C 
HETATM    3  O3  UNL     1      11.747  22.033  63.450  1.00  0.00    -0.385 OA
HETATM    4  C15 UNL     1      11.256  21.227  62.418  1.00  0.00     0.173 C 
HETATM    5  C14 UNL     1      11.344  19.794  62.918  1.00  0.00     0.022 C 
HETATM    6  C13 UNL     1       9.926  19.268  63.219  1.00  0.00     0.022 C 
HETATM    7  C29 UNL     1      12.060  19.821  64.243  1.00  0.00    -0.004 C 
HETATM    8  C11 UNL     1      10.205  18.402  64.366  1.00  0.00    -0.011 C 
HETATM    9  C6  UNL     1       9.272  17.786  65.271  1.00  0.00    -0.063 C 
HETATM   10  C9  UNL     1      11.015  19.449  65.177  1.00  0.00    -0.022 C 
HETATM   11  C12 UNL     1      11.085  17.297  63.837  1.00  0.00     0.021 C 
HETATM   12  C7  UNL     1       9.817  18.184  66.649  1.00  0.00     0.036 C 
HETATM   13  C8  UNL     1      11.247  18.651  66.388  1.00  0.00     0.015 C 
HETATM   14  C10 UNL     1      10.117  20.559  65.610  1.00  0.00     0.017 C 
HETATM   15  C30 UNL     1      13.337  19.008  64.299  1.00  0.00     0.019 C 
BRANCH   9  16
HETATM   16  C2  UNL     1       7.848  17.769  65.161  1.00  0.00    -0.040 C 
HETATM   17  C1  UNL     1       7.011  18.719  65.478  1.00  0.00     0.021 C 
BRANCH  16  18
HETATM   18  C3  UNL     1       7.228  16.497  64.578  1.00  0.00     0.216 C 
BRANCH  18  19
HETATM   19  O1  UNL     1       7.671  16.222  63.388  1.00  0.00    -0.317 OA
BRANCH  19  20
HETATM   20  C4  UNL     1       8.080  15.839  62.237  1.00  0.00     0.255 C 
HETATM   21  C5  UNL     1       8.546  16.669  61.071  1.00  0.00     0.126 C 
HETATM   22  O2  UNL     1       8.099  14.563  62.041  1.00  0.00    -0.266 OA
ENDBRANCH  19  20
ENDBRANCH  18  19
ENDBRANCH  16  18
ENDBRANCH   9  16
ENDBRANCH   1   2
BRANCH   1  23
HETATM   23  C18 UNL     1      14.690  22.131  65.097  1.00  0.00     0.002 C 
BRANCH  23  24
HETATM   24  C19 UNL     1      14.727  22.810  63.693  1.00  0.00     0.000 C 
BRANCH  24  25
HETATM   25  C20 UNL     1      15.596  21.957  62.840  1.00  0.00     0.002 C 
BRANCH  25  26
HETATM   26  C21 UNL     1      15.632  22.047  61.388  1.00  0.00     0.020 C 
BRANCH  26  27
HETATM   27  C22 UNL     1      16.714  21.361  60.632  1.00  0.00     0.122 C 
BRANCH  27  28
HETATM   28  N1  UNL     1      18.035  21.674  61.122  1.00  0.00    -0.367 N 
ATOM     29  H1  UNL     1      18.516  20.978  61.690  1.00  0.00     0.161 HD
BRANCH  28  30
HETATM   30  C23 UNL     1      18.706  22.909  60.853  1.00  0.00     0.173 C 
HETATM   31  S1  UNL     1      18.930  23.278  59.295  1.00  0.00    -0.041 SA
BRANCH  30  32
HETATM   32  N2  UNL     1      19.189  23.675  61.901  1.00  0.00    -0.318 N 
ATOM     33  H2  UNL     1      20.170  23.493  62.113  1.00  0.00     0.170 HD
BRANCH  32  34
HETATM   34  C24 UNL     1      18.614  24.650  62.733  1.00  0.00     0.126 A 
HETATM   35  C25 UNL     1      18.098  24.244  63.991  1.00  0.00     0.085 A 
HETATM   36  C26 UNL     1      17.540  25.333  64.599  1.00  0.00     0.136 A 
HETATM   37  N3  UNL     1      17.704  26.345  63.756  1.00  0.00    -0.293 N 
HETATM   38  N4  UNL     1      18.351  25.930  62.631  1.00  0.00    -0.281 N 
ATOM     39  H3  UNL     1      17.389  27.300  63.926  1.00  0.00     0.187 HD
HETATM   40  C28 UNL     1      18.591  26.806  61.502  1.00  0.00     0.179 C 
BRANCH  36  41
HETATM   41  C27 UNL     1      16.898  25.375  65.963  1.00  0.00     0.434 C 
HETATM   42  F1  UNL     1      15.532  25.321  65.742  1.00  0.00    -0.165 F 
HETATM   43  F2  UNL     1      17.349  24.319  66.680  1.00  0.00    -0.165 F 
HETATM   44  F3  UNL     1      17.213  26.546  66.627  1.00  0.00    -0.165 F 
ENDBRANCH  36  41
ENDBRANCH  32  34
ENDBRANCH  30  32
ENDBRANCH  28  30
ENDBRANCH  27  28
ENDBRANCH  26  27
ENDBRANCH  25  26
ENDBRANCH  24  25
ENDBRANCH  23  24
ENDBRANCH   1  23
TORSDOF 15
ENDMDL
MODEL 4
REMARK VINA RESULT: -8.287702067      1.092      1.639
REMARK  15 active torsions:
REMARK  status: ('A' for Active; 'I' for Inactive)
REMARK    1  A    between atoms: C2_2  and  C3_3 
REMARK    2  A    between atoms: C2_2  and  C6_8 
REMARK    3  A    between atoms: C3_3  and  O1_4 
REMARK    4  A    between atoms: O1_4  and  C4_5 
REMARK    5  A    between atoms: C16_19  and  C17_20 
REMARK    6  A    between atoms: C17_20  and  C18_21 
REMARK    7  A    between atoms: C18_21  and  C19_22 
REMARK    8  A    between atoms: C19_22  and  C20_23 
REMARK    9  A    between atoms: C20_23  and  C21_24 
REMARK   10  A    between atoms: C21_24  and  C22_25 
REMARK   11  A    between atoms: C22_25  and  N1_26 
REMARK   12  A    between atoms: N1_26  and  C23_28 
REMARK   13  A    between atoms: C23_28  and  N2_30 
REMARK   14  A    between atoms: N2_30  and  C24_32 
REMARK   15  A    between atoms: C26_34  and  C27_35 
ROOT
HETATM    1  C17 UNL     1      13.366  21.326  65.449  1.00  0.00     0.033 C 
ENDROOT
BRANCH   1   2
HETATM    2  C16 UNL     1      12.546  21.032  64.275  1.00  0.00     0.130 C 
HETATM    3  O3  UNL     1      11.807  21.880  63.569  1.00  0.00    -0.385 OA
HETATM    4  C15 UNL     1      11.225  21.139  62.534  1.00  0.00     0.173 C 
HETATM    5  C14 UNL     1      11.201  19.695  63.006  1.00  0.00     0.022 C 
HETATM    6  C13 UNL     1       9.749  19.287  63.331  1.00  0.00     0.022 C 
HETATM    7  C29 UNL     1      11.946  19.632  64.313  1.00  0.00    -0.004 C 
HETATM    8  C11 UNL     1       9.979  18.376  64.455  1.00  0.00    -0.011 C 
HETATM    9  C6  UNL     1       9.017  17.824  65.371  1.00  0.00    -0.063 C 
HETATM   10  C9  UNL     1      10.894  19.333  65.266  1.00  0.00    -0.022 C 
HETATM   11  C12 UNL     1      10.748  17.211  63.885  1.00  0.00     0.021 C 
HETATM   12  C7  UNL     1       9.626  18.145  66.743  1.00  0.00     0.036 C 
HETATM   13  C8  UNL     1      11.085  18.493  66.455  1.00  0.00     0.015 C 
HETATM   14  C10 UNL     1      10.106  20.507  65.740  1.00  0.00     0.017 C 
HETATM   15  C30 UNL     1      13.149  18.712  64.323  1.00  0.00     0.019 C 
BRANCH   9  16
HETATM   16  C2  UNL     1       7.595  17.932  65.295  1.00  0.00    -0.040 C 
HETATM   17  C1  UNL     1       6.852  18.950  65.634  1.00  0.00     0.021 C 
BRANCH  16  18
HETATM   18  C3  UNL     1       6.852  16.721  64.726  1.00  0.00     0.216 C 
BRANCH  18  19
HETATM   19  O1  UNL     1       5.565  16.891  64.691  1.00  0.00    -0.317 OA
BRANCH  19  20
HETATM   20  C4  UNL     1       4.287  16.944  64.676  1.00  0.00     0.255 C 
HETATM   21  C5  UNL     1       3.388  18.079  64.262  1.00  0.00     0.126 C 
HETATM   22  O2  UNL     1       3.672  15.878  65.069  1.00  0.00    -0.266 OA
ENDBRANCH  19  20
ENDBRANCH  18  19
ENDBRANCH  16  18
ENDBRANCH   9  16
ENDBRANCH   1   2
BRANCH   1  23
HETATM   23  C18 UNL     1      14.252  22.523  65.308  1.00  0.00     0.002 C 
BRANCH  23  24
HETATM   24  C19 UNL     1      14.323  23.274  66.674  1.00  0.00     0.000 C 
BRANCH  24  25
HETATM   25  C20 UNL     1      14.993  24.573  66.402  1.00  0.00     0.002 C 
BRANCH  25  26
HETATM   26  C21 UNL     1      16.248  24.976  67.020  1.00  0.00     0.020 C 
BRANCH  26  27
HETATM   27  C22 UNL     1      17.524  24.817  66.273  1.00  0.00     0.122 C 
BRANCH  27  28
HETATM   28  N1  UNL     1      17.910  26.006  65.551  1.00  0.00    -0.367 N 
ATOM     29  H1  UNL     1      17.747  26.911  65.991  1.00  0.00     0.161 HD
BRANCH  28  30
HETATM   30  C23 UNL     1      18.509  25.983  64.252  1.00  0.00     0.173 C 
HETATM   31  S1  UNL     1      18.933  27.416  63.634  1.00  0.00    -0.041 SA
BRANCH  30  32
HETATM   32  N2  UNL     1      18.628  24.786  63.567  1.00  0.00    -0.318 N 
ATOM     33  H2  UNL     1      19.442  24.240  63.848  1.00  0.00     0.170 HD
BRANCH  32  34
HETATM   34  C24 UNL     1      17.863  24.163  62.566  1.00  0.00     0.126 A 
HETATM   35  C25 UNL     1      17.067  23.044  62.924  1.00  0.00     0.085 A 
HETATM   36  C26 UNL     1      16.463  22.568  61.795  1.00  0.00     0.136 A 
HETATM   37  N3  UNL     1      16.871  23.352  60.805  1.00  0.00    -0.293 N 
HETATM   38  N4  UNL     1      17.716  24.313  61.273  1.00  0.00    -0.281 N 
ATOM     39  H3  UNL     1      16.591  23.250  59.829  1.00  0.00     0.187 HD
HETATM   40  C28 UNL     1      18.381  25.258  60.399  1.00  0.00     0.179 C 
BRANCH  36  41
HETATM   41  C27 UNL     1      15.504  21.407  61.705  1.00  0.00     0.434 C 
HETATM   42  F1  UNL     1      15.962  20.615  60.665  1.00  0.00    -0.165 F 
HETATM   43  F2  UNL     1      15.511  20.755  62.892  1.00  0.00    -0.165 F 
HETATM   44  F3  UNL     1      14.221  21.838  61.428  1.00  0.00    -0.165 F 
ENDBRANCH  36  41
ENDBRANCH  32  34
ENDBRANCH  30  32
ENDBRANCH  28  30
ENDBRANCH  27  28
ENDBRANCH  26  27
ENDBRANCH  25  26
ENDBRANCH  24  25
ENDBRANCH  23  24
ENDBRANCH   1  23
TORSDOF 15
ENDMDL
MODEL 5
REMARK VINA RESULT: -8.176674226      6.209     10.908
REMARK  15 active torsions:
REMARK  status: ('A' for Active; 'I' for Inactive)
REMARK    1  A    between atoms: C2_2  and  C3_3 
REMARK    2  A    between atoms: C2_2  and  C6_8 
REMARK    3  A    between atoms: C3_3  and  O1_4 
REMARK    4  A    between atoms: O1_4  and  C4_5 
REMARK    5  A    between atoms: C16_19  and  C17_20 
REMARK    6  A    between atoms: C17_20  and  C18_21 
REMARK    7  A    between atoms: C18_21  and  C19_22 
REMARK    8  A    between atoms: C19_22  and  C20_23 
REMARK    9  A    between atoms: C20_23  and  C21_24 
REMARK   10  A    between atoms: C21_24  and  C22_25 
REMARK   11  A    between atoms: C22_25  and  N1_26 
REMARK   12  A    between atoms: N1_26  and  C23_28 
REMARK   13  A    between atoms: C23_28  and  N2_30 
REMARK   14  A    between atoms: N2_30  and  C24_32 
REMARK   15  A    between atoms: C26_34  and  C27_35 
ROOT
HETATM    1  C17 UNL     1      10.050  18.964  62.265  1.00  0.00     0.033 C 
ENDROOT
BRANCH   1   2
HETATM    2  C16 UNL     1      10.487  19.327  63.612  1.00  0.00     0.130 C 
HETATM    3  O3  UNL     1       9.861  20.107  64.485  1.00  0.00    -0.385 OA
HETATM    4  C15 UNL     1      10.656  20.140  65.636  1.00  0.00     0.173 C 
HETATM    5  C14 UNL     1      12.068  19.801  65.188  1.00  0.00     0.022 C 
HETATM    6  C13 UNL     1      12.944  21.069  65.251  1.00  0.00     0.022 C 
HETATM    7  C29 UNL     1      12.002  19.421  63.732  1.00  0.00    -0.004 C 
HETATM    8  C11 UNL     1      13.828  20.834  64.107  1.00  0.00    -0.011 C 
HETATM    9  C6  UNL     1      14.734  21.753  63.473  1.00  0.00    -0.063 C 
HETATM   10  C9  UNL     1      12.703  20.514  63.086  1.00  0.00    -0.022 C 
HETATM   11  C12 UNL     1      14.633  19.608  64.459  1.00  0.00     0.021 C 
HETATM   12  C7  UNL     1      14.356  21.640  61.990  1.00  0.00     0.036 C 
HETATM   13  C8  UNL     1      13.538  20.355  61.888  1.00  0.00     0.015 C 
HETATM   14  C10 UNL     1      11.887  21.737  62.831  1.00  0.00     0.017 C 
HETATM   15  C30 UNL     1      12.489  18.022  63.411  1.00  0.00     0.019 C 
BRANCH   9  16
HETATM   16  C2  UNL     1      15.079  23.067  63.916  1.00  0.00    -0.040 C 
HETATM   17  C1  UNL     1      14.274  24.007  64.329  1.00  0.00     0.021 C 
BRANCH  16  18
HETATM   18  C3  UNL     1      16.571  23.406  63.933  1.00  0.00     0.216 C 
BRANCH  18  19
HETATM   19  O1  UNL     1      16.943  23.980  65.038  1.00  0.00    -0.317 OA
BRANCH  19  20
HETATM   20  C4  UNL     1      17.246  24.638  66.092  1.00  0.00     0.255 C 
HETATM   21  C5  UNL     1      16.377  25.004  67.266  1.00  0.00     0.126 C 
HETATM   22  O2  UNL     1      18.469  25.048  66.170  1.00  0.00    -0.266 OA
ENDBRANCH  19  20
ENDBRANCH  18  19
ENDBRANCH  16  18
ENDBRANCH   9  16
ENDBRANCH   1   2
BRANCH   1  23
HETATM   23  C18 UNL     1       9.366  17.637  62.166  1.00  0.00     0.002 C 
BRANCH  23  24
HETATM   24  C19 UNL     1       9.959  16.841  60.963  1.00  0.00     0.000 C 
BRANCH  24  25
HETATM   25  C20 UNL     1       9.302  15.507  60.980  1.00  0.00     0.002 C 
BRANCH  25  26
HETATM   26  C21 UNL     1       7.901  15.298  60.646  1.00  0.00     0.020 C 
BRANCH  26  27
HETATM   27  C22 UNL     1       6.944  14.878  61.705  1.00  0.00     0.122 C 
BRANCH  27  28
HETATM   28  N1  UNL     1       5.577  15.230  61.405  1.00  0.00    -0.367 N 
ATOM     29  H1  UNL     1       5.315  15.357  60.428  1.00  0.00     0.161 HD
BRANCH  28  30
HETATM   30  C23 UNL     1       4.569  15.412  62.405  1.00  0.00     0.173 C 
HETATM   31  S1  UNL     1       3.068  15.681  61.868  1.00  0.00    -0.041 SA
BRANCH  30  32
HETATM   32  N2  UNL     1       4.920  15.426  63.744  1.00  0.00    -0.318 N 
ATOM     33  H2  UNL     1       4.810  14.520  64.199  1.00  0.00     0.170 HD
BRANCH  32  34
HETATM   34  C24 UNL     1       5.396  16.426  64.610  1.00  0.00     0.126 A 
HETATM   35  C25 UNL     1       6.667  16.246  65.213  1.00  0.00     0.085 A 
HETATM   36  C26 UNL     1       6.899  17.299  66.051  1.00  0.00     0.136 A 
HETATM   37  N3  UNL     1       5.825  18.076  65.965  1.00  0.00    -0.293 N 
HETATM   38  N4  UNL     1       4.920  17.546  65.095  1.00  0.00    -0.281 N 
ATOM     39  H3  UNL     1       5.696  18.948  66.479  1.00  0.00     0.187 HD
HETATM   40  C28 UNL     1       3.618  18.139  64.868  1.00  0.00     0.179 C 
BRANCH  36  41
HETATM   41  C27 UNL     1       8.136  17.540  66.879  1.00  0.00     0.434 C 
HETATM   42  F1  UNL     1       9.209  17.334  66.028  1.00  0.00    -0.165 F 
HETATM   43  F2  UNL     1       8.091  18.806  67.357  1.00  0.00    -0.165 F 
HETATM   44  F3  UNL     1       8.210  16.654  67.938  1.00  0.00    -0.165 F 
ENDBRANCH  36  41
ENDBRANCH  32  34
ENDBRANCH  30  32
ENDBRANCH  28  30
ENDBRANCH  27  28
ENDBRANCH  26  27
ENDBRANCH  25  26
ENDBRANCH  24  25
ENDBRANCH  23  24
ENDBRANCH   1  23
TORSDOF 15
ENDMDL
