MODEL 1
REMARK VINA RESULT: -9.426648767      0.000      0.000
REMARK  12 active torsions:
REMARK  status: ('A' for Active; 'I' for Inactive)
REMARK    1  A    between atoms: O1_2  and  C2_3 
REMARK    2  A    between atoms: C4_5  and  O2_6 
REMARK    3  A    between atoms: O2_6  and  C5_7 
REMARK    4  A    between atoms: N1_10  and  C8_11 
REMARK    5  A    between atoms: C8_11  and  C10_13 
REMARK    6  A    between atoms: C10_13  and  C11_14 
REMARK    7  A    between atoms: C11_14  and  O3_17 
REMARK    8  A    between atoms: C18_24  and  N2_25 
REMARK       I    between atoms: N2_25  and  C19_27 
REMARK    9  A    between atoms: C19_27  and  C20_29 
REMARK   10  A    between atoms: C24_35  and  O5_36 
REMARK   11  A    between atoms: O5_36  and  C25_37 
REMARK   12  A    between atoms: C25_37  and  C26_38 
ROOT
HETATM    1  C2  UNL     1      10.863  19.752  63.919  1.00  0.00     0.097 A 
HETATM    2  C3  UNL     1       9.842  18.989  63.402  1.00  0.00     0.079 A 
HETATM    3  C4  UNL     1      10.020  18.079  62.393  1.00  0.00     0.110 A 
HETATM    4  C16 UNL     1      11.334  17.977  61.913  1.00  0.00     0.151 A 
HETATM    5  F1  UNL     1      11.582  17.100  60.918  1.00  0.00    -0.203 F 
HETATM    6  C17 UNL     1      12.367  18.753  62.440  1.00  0.00     0.077 A 
HETATM    7  C18 UNL     1      12.164  19.647  63.441  1.00  0.00     0.071 A 
ENDROOT
BRANCH   7   8
HETATM    8  N2  UNL     1      13.119  20.479  64.062  1.00  0.00    -0.320 N 
HETATM    9  C19 UNL     1      13.686  21.636  63.495  1.00  0.00     0.260 C 
HETATM   10  O4  UNL     1      13.321  22.003  62.325  1.00  0.00    -0.267 OA
ATOM     11  H2  UNL     1      13.425  20.221  65.000  1.00  0.00     0.169 HD
BRANCH   9  12
HETATM   12  C20 UNL     1      14.678  22.493  64.124  1.00  0.00     0.089 A 
HETATM   13  C21 UNL     1      14.288  23.258  65.228  1.00  0.00     0.108 A 
HETATM   14  N3  UNL     1      15.155  24.044  65.869  1.00  0.00    -0.366 N 
HETATM   15  C22 UNL     1      16.472  24.155  65.496  1.00  0.00     0.042 A 
ATOM     16  H3  UNL     1      14.827  24.584  66.669  1.00  0.00     0.165 HD
HETATM   17  C23 UNL     1      17.373  25.007  66.321  1.00  0.00     0.071 C 
HETATM   18  C24 UNL     1      16.890  23.431  64.430  1.00  0.00     0.130 A 
HETATM   19  C32 UNL     1      15.965  22.593  63.746  1.00  0.00     0.168 A 
HETATM   20  F2  UNL     1      16.463  21.935  62.691  1.00  0.00    -0.202 F 
BRANCH  18  21
HETATM   21  O5  UNL     1      18.164  23.457  63.945  1.00  0.00    -0.346 OA
BRANCH  21  22
HETATM   22  C25 UNL     1      18.777  24.223  63.005  1.00  0.00     0.180 C 
BRANCH  22  23
HETATM   23  C26 UNL     1      19.151  23.802  61.655  1.00  0.00     0.010 C 
HETATM   24  C27 UNL     1      19.524  22.377  61.427  1.00  0.00     0.007 C 
HETATM   25  C28 UNL     1      19.076  21.961  60.021  1.00  0.00     0.000 C 
HETATM   26  C29 UNL     1      19.336  23.084  59.041  1.00  0.00     0.000 C 
HETATM   27  C30 UNL     1      18.424  24.263  59.352  1.00  0.00     0.000 C 
HETATM   28  C31 UNL     1      17.933  24.109  60.750  1.00  0.00     0.007 C 
ENDBRANCH  22  23
ENDBRANCH  21  22
ENDBRANCH  18  21
ENDBRANCH   9  12
ENDBRANCH   7   8
BRANCH   1  29
HETATM   29  O1  UNL     1      10.524  20.630  64.943  1.00  0.00    -0.354 OA
HETATM   30  C1  UNL     1       9.820  20.229  66.085  1.00  0.00     0.210 C 
ENDBRANCH   1  29
BRANCH   3  31
HETATM   31  O2  UNL     1       9.034  17.289  61.838  1.00  0.00    -0.343 OA
BRANCH  31  32
HETATM   32  C5  UNL     1       8.957  15.918  61.992  1.00  0.00     0.132 C 
HETATM   33  C6  UNL     1       7.916  15.348  61.043  1.00  0.00     0.062 C 
HETATM   34  C7  UNL     1       6.595  15.076  61.671  1.00  0.00     0.275 C 
HETATM   35  N1  UNL     1       6.228  16.137  62.587  1.00  0.00     0.093 N 
HETATM   36  C14 UNL     1       7.193  16.347  63.621  1.00  0.00     0.275 C 
HETATM   37  C15 UNL     1       8.462  15.542  63.399  1.00  0.00     0.062 C 
BRANCH  35  38
HETATM   38  C8  UNL     1       4.870  16.065  63.004  1.00  0.00     0.221 C 
HETATM   39  C9  UNL     1       4.289  14.733  62.602  1.00  0.00     0.043 C 
BRANCH  38  40
HETATM   40  C10 UNL     1       4.747  16.335  64.476  1.00  0.00     0.072 C 
BRANCH  40  41
HETATM   41  C11 UNL     1       3.904  17.545  64.779  1.00  0.00     0.052 C 
HETATM   42  C12 UNL     1       2.663  17.053  65.497  1.00  0.00     0.045 C 
HETATM   43  C13 UNL     1       4.575  18.559  65.646  1.00  0.00     0.045 C 
BRANCH  41  44
HETATM   44  O3  UNL     1       3.437  18.128  63.578  1.00  0.00    -0.391 OA
ATOM     45  H3  UNL     1       2.566  18.485  63.703  1.00  0.00     0.210 HD
ENDBRANCH  41  44
ENDBRANCH  40  41
ENDBRANCH  38  40
ENDBRANCH  35  38
ENDBRANCH  31  32
ENDBRANCH   3  31
TORSDOF 12
ENDMDL
MODEL 2
REMARK VINA RESULT: -9.320635255      2.724     12.108
REMARK  12 active torsions:
REMARK  status: ('A' for Active; 'I' for Inactive)
REMARK    1  A    between atoms: O1_2  and  C2_3 
REMARK    2  A    between atoms: C4_5  and  O2_6 
REMARK    3  A    between atoms: O2_6  and  C5_7 
REMARK    4  A    between atoms: N1_10  and  C8_11 
REMARK    5  A    between atoms: C8_11  and  C10_13 
REMARK    6  A    between atoms: C10_13  and  C11_14 
REMARK    7  A    between atoms: C11_14  and  O3_17 
REMARK    8  A    between atoms: C18_24  and  N2_25 
REMARK       I    between atoms: N2_25  and  C19_27 
REMARK    9  A    between atoms: C19_27  and  C20_29 
REMARK   10  A    between atoms: C24_35  and  O5_36 
REMARK   11  A    between atoms: O5_36  and  C25_37 
REMARK   12  A    between atoms: C25_37  and  C26_38 
ROOT
HETATM    1  C2  UNL     1      14.319  21.036  64.315  1.00  0.00     0.097 A 
HETATM    2  C3  UNL     1      15.285  21.842  63.760  1.00  0.00     0.079 A 
HETATM    3  C4  UNL     1      15.684  23.030  64.316  1.00  0.00     0.110 A 
HETATM    4  C16 UNL     1      15.030  23.374  65.507  1.00  0.00     0.151 A 
HETATM    5  F1  UNL     1      15.371  24.532  66.111  1.00  0.00    -0.203 F 
HETATM    6  C17 UNL     1      14.049  22.554  66.068  1.00  0.00     0.077 A 
HETATM    7  C18 UNL     1      13.673  21.381  65.496  1.00  0.00     0.071 A 
ENDROOT
BRANCH   7   8
HETATM    8  N2  UNL     1      12.708  20.464  65.963  1.00  0.00    -0.320 N 
HETATM    9  C19 UNL     1      11.371  20.395  65.533  1.00  0.00     0.260 C 
HETATM   10  O4  UNL     1      10.960  21.209  64.635  1.00  0.00    -0.267 OA
ATOM     11  H2  UNL     1      13.005  19.794  66.673  1.00  0.00     0.169 HD
BRANCH   9  12
HETATM   12  C20 UNL     1      10.368  19.460  66.017  1.00  0.00     0.089 A 
HETATM   13  C21 UNL     1       9.712  19.755  67.217  1.00  0.00     0.108 A 
HETATM   14  N3  UNL     1       8.762  18.954  67.703  1.00  0.00    -0.366 N 
HETATM   15  C22 UNL     1       8.367  17.802  67.070  1.00  0.00     0.042 A 
ATOM     16  H3  UNL     1       8.311  19.208  68.582  1.00  0.00     0.165 HD
HETATM   17  C23 UNL     1       7.249  17.015  67.661  1.00  0.00     0.071 C 
HETATM   18  C24 UNL     1       8.979  17.478  65.905  1.00  0.00     0.130 A 
HETATM   19  C32 UNL     1       9.993  18.333  65.386  1.00  0.00     0.168 A 
HETATM   20  F2  UNL     1      10.557  17.920  64.244  1.00  0.00    -0.202 F 
BRANCH  18  21
HETATM   21  O5  UNL     1       8.694  16.360  65.180  1.00  0.00    -0.346 OA
BRANCH  21  22
HETATM   22  C25 UNL     1       7.871  16.132  64.123  1.00  0.00     0.180 C 
BRANCH  22  23
HETATM   23  C26 UNL     1       8.281  15.733  62.777  1.00  0.00     0.010 C 
HETATM   24  C27 UNL     1       7.271  15.103  61.878  1.00  0.00     0.007 C 
HETATM   25  C28 UNL     1       7.565  15.514  60.430  1.00  0.00     0.000 C 
HETATM   26  C29 UNL     1       9.057  15.508  60.183  1.00  0.00     0.000 C 
HETATM   27  C30 UNL     1       9.719  16.617  60.989  1.00  0.00     0.000 C 
HETATM   28  C31 UNL     1       8.781  17.019  62.075  1.00  0.00     0.007 C 
ENDBRANCH  22  23
ENDBRANCH  21  22
ENDBRANCH  18  21
ENDBRANCH   9  12
ENDBRANCH   7   8
BRANCH   1  29
HETATM   29  O1  UNL     1      14.026  19.860  63.632  1.00  0.00    -0.354 OA
HETATM   30  C1  UNL     1      13.429  19.846  62.365  1.00  0.00     0.210 C 
ENDBRANCH   1  29
BRANCH   3  31
HETATM   31  O2  UNL     1      16.646  23.876  63.804  1.00  0.00    -0.343 OA
BRANCH  31  32
HETATM   32  C5  UNL     1      17.954  23.926  64.248  1.00  0.00     0.132 C 
HETATM   33  C6  UNL     1      18.258  25.307  64.806  1.00  0.00     0.062 C 
HETATM   34  C7  UNL     1      18.979  26.206  63.866  1.00  0.00     0.275 C 
HETATM   35  N1  UNL     1      18.458  26.074  62.521  1.00  0.00     0.093 N 
HETATM   36  C14 UNL     1      18.525  24.736  62.020  1.00  0.00     0.275 C 
HETATM   37  C15 UNL     1      18.944  23.740  63.087  1.00  0.00     0.062 C 
BRANCH  35  38
HETATM   38  C8  UNL     1      18.920  27.094  61.644  1.00  0.00     0.221 C 
HETATM   39  C9  UNL     1      20.176  27.712  62.206  1.00  0.00     0.043 C 
BRANCH  38  40
HETATM   40  C10 UNL     1      19.105  26.561  60.252  1.00  0.00     0.072 C 
BRANCH  40  41
HETATM   41  C11 UNL     1      18.304  27.317  59.226  1.00  0.00     0.052 C 
HETATM   42  C12 UNL     1      19.219  27.566  58.043  1.00  0.00     0.045 C 
HETATM   43  C13 UNL     1      17.094  26.591  58.737  1.00  0.00     0.045 C 
BRANCH  41  44
HETATM   44  O3  UNL     1      17.967  28.599  59.718  1.00  0.00    -0.391 OA
ATOM     45  H3  UNL     1      17.030  28.743  59.643  1.00  0.00     0.210 HD
ENDBRANCH  41  44
ENDBRANCH  40  41
ENDBRANCH  38  40
ENDBRANCH  35  38
ENDBRANCH  31  32
ENDBRANCH   3  31
TORSDOF 12
ENDMDL
MODEL 3
REMARK VINA RESULT: -9.221042237      2.743     12.581
REMARK  12 active torsions:
REMARK  status: ('A' for Active; 'I' for Inactive)
REMARK    1  A    between atoms: O1_2  and  C2_3 
REMARK    2  A    between atoms: C4_5  and  O2_6 
REMARK    3  A    between atoms: O2_6  and  C5_7 
REMARK    4  A    between atoms: N1_10  and  C8_11 
REMARK    5  A    between atoms: C8_11  and  C10_13 
REMARK    6  A    between atoms: C10_13  and  C11_14 
REMARK    7  A    between atoms: C11_14  and  O3_17 
REMARK    8  A    between atoms: C18_24  and  N2_25 
REMARK       I    between atoms: N2_25  and  C19_27 
REMARK    9  A    between atoms: C19_27  and  C20_29 
REMARK   10  A    between atoms: C24_35  and  O5_36 
REMARK   11  A    between atoms: O5_36  and  C25_37 
REMARK   12  A    between atoms: C25_37  and  C26_38 
ROOT
HETATM    1  C2  UNL     1      14.192  20.779  63.665  1.00  0.00     0.097 A 
HETATM    2  C3  UNL     1      15.049  21.830  63.894  1.00  0.00     0.079 A 
HETATM    3  C4  UNL     1      15.739  22.468  62.896  1.00  0.00     0.110 A 
HETATM    4  C16 UNL     1      15.511  21.970  61.606  1.00  0.00     0.151 A 
HETATM    5  F1  UNL     1      16.158  22.550  60.574  1.00  0.00    -0.203 F 
HETATM    6  C17 UNL     1      14.640  20.903  61.378  1.00  0.00     0.077 A 
HETATM    7  C18 UNL     1      13.968  20.288  62.385  1.00  0.00     0.071 A 
ENDROOT
BRANCH   7   8
HETATM    8  N2  UNL     1      13.060  19.213  62.286  1.00  0.00    -0.320 N 
HETATM    9  C19 UNL     1      11.659  19.319  62.357  1.00  0.00     0.260 C 
HETATM   10  O4  UNL     1      11.124  20.471  62.514  1.00  0.00    -0.267 OA
ATOM     11  H2  UNL     1      13.452  18.281  62.151  1.00  0.00     0.169 HD
BRANCH   9  12
HETATM   12  C20 UNL     1      10.716  18.214  62.267  1.00  0.00     0.089 A 
HETATM   13  C21 UNL     1      10.377  17.736  60.997  1.00  0.00     0.108 A 
HETATM   14  N3  UNL     1       9.541  16.707  60.843  1.00  0.00    -0.366 N 
HETATM   15  C22 UNL     1       8.963  16.057  61.905  1.00  0.00     0.042 A 
ATOM     16  H3  UNL     1       9.323  16.392  59.898  1.00  0.00     0.165 HD
HETATM   17  C23 UNL     1       8.098  14.876  61.627  1.00  0.00     0.071 C 
HETATM   18  C24 UNL     1       9.264  16.490  63.153  1.00  0.00     0.130 A 
HETATM   19  C32 UNL     1      10.157  17.587  63.317  1.00  0.00     0.168 A 
HETATM   20  F2  UNL     1      10.375  17.961  64.584  1.00  0.00    -0.202 F 
BRANCH  18  21
HETATM   21  O5  UNL     1       8.752  15.944  64.292  1.00  0.00    -0.346 OA
BRANCH  21  22
HETATM   22  C25 UNL     1       7.520  15.993  64.865  1.00  0.00     0.180 C 
BRANCH  22  23
HETATM   23  C26 UNL     1       7.199  16.534  66.184  1.00  0.00     0.010 C 
HETATM   24  C27 UNL     1       8.291  17.155  66.988  1.00  0.00     0.007 C 
HETATM   25  C28 UNL     1       7.709  18.305  67.819  1.00  0.00     0.000 C 
HETATM   26  C29 UNL     1       6.355  17.913  68.368  1.00  0.00     0.000 C 
HETATM   27  C30 UNL     1       5.354  17.779  67.229  1.00  0.00     0.000 C 
HETATM   28  C31 UNL     1       6.119  17.620  65.960  1.00  0.00     0.007 C 
ENDBRANCH  22  23
ENDBRANCH  21  22
ENDBRANCH  18  21
ENDBRANCH   9  12
ENDBRANCH   7   8
BRANCH   1  29
HETATM   29  O1  UNL     1      13.563  20.238  64.782  1.00  0.00    -0.354 OA
HETATM   30  C1  UNL     1      12.709  20.980  65.607  1.00  0.00     0.210 C 
ENDBRANCH   1  29
BRANCH   3  31
HETATM   31  O2  UNL     1      16.610  23.525  63.069  1.00  0.00    -0.343 OA
BRANCH  31  32
HETATM   32  C5  UNL     1      17.798  23.447  63.771  1.00  0.00     0.132 C 
HETATM   33  C6  UNL     1      17.841  24.529  64.837  1.00  0.00     0.062 C 
HETATM   34  C7  UNL     1      18.624  25.735  64.459  1.00  0.00     0.275 C 
HETATM   35  N1  UNL     1      18.383  26.098  63.077  1.00  0.00     0.093 N 
HETATM   36  C14 UNL     1      18.686  25.045  62.157  1.00  0.00     0.275 C 
HETATM   37  C15 UNL     1      19.003  23.738  62.861  1.00  0.00     0.062 C 
BRANCH  35  38
HETATM   38  C8  UNL     1      18.888  27.385  62.743  1.00  0.00     0.221 C 
HETATM   39  C9  UNL     1      19.877  27.826  63.794  1.00  0.00     0.043 C 
BRANCH  38  40
HETATM   40  C10 UNL     1      19.468  27.390  61.358  1.00  0.00     0.072 C 
BRANCH  40  41
HETATM   41  C11 UNL     1      18.822  28.410  60.460  1.00  0.00     0.052 C 
HETATM   42  C12 UNL     1      19.939  29.139  59.739  1.00  0.00     0.045 C 
HETATM   43  C13 UNL     1      17.904  27.831  59.434  1.00  0.00     0.045 C 
BRANCH  41  44
HETATM   44  O3  UNL     1      18.166  29.397  61.232  1.00  0.00    -0.391 OA
ATOM     45  H3  UNL     1      17.445  29.010  61.715  1.00  0.00     0.210 HD
ENDBRANCH  41  44
ENDBRANCH  40  41
ENDBRANCH  38  40
ENDBRANCH  35  38
ENDBRANCH  31  32
ENDBRANCH   3  31
TORSDOF 12
ENDMDL
MODEL 4
REMARK VINA RESULT: -9.214585144      2.774     11.942
REMARK  12 active torsions:
REMARK  status: ('A' for Active; 'I' for Inactive)
REMARK    1  A    between atoms: O1_2  and  C2_3 
REMARK    2  A    between atoms: C4_5  and  O2_6 
REMARK    3  A    between atoms: O2_6  and  C5_7 
REMARK    4  A    between atoms: N1_10  and  C8_11 
REMARK    5  A    between atoms: C8_11  and  C10_13 
REMARK    6  A    between atoms: C10_13  and  C11_14 
REMARK    7  A    between atoms: C11_14  and  O3_17 
REMARK    8  A    between atoms: C18_24  and  N2_25 
REMARK       I    between atoms: N2_25  and  C19_27 
REMARK    9  A    between atoms: C19_27  and  C20_29 
REMARK   10  A    between atoms: C24_35  and  O5_36 
REMARK   11  A    between atoms: O5_36  and  C25_37 
REMARK   12  A    between atoms: C25_37  and  C26_38 
ROOT
HETATM    1  C2  UNL     1      15.446  22.268  63.370  1.00  0.00     0.097 A 
HETATM    2  C3  UNL     1      16.411  22.916  62.635  1.00  0.00     0.079 A 
HETATM    3  C4  UNL     1      17.000  22.373  61.523  1.00  0.00     0.110 A 
HETATM    4  C16 UNL     1      16.547  21.091  61.180  1.00  0.00     0.151 A 
HETATM    5  F1  UNL     1      17.084  20.494  60.096  1.00  0.00    -0.203 F 
HETATM    6  C17 UNL     1      15.568  20.437  61.929  1.00  0.00     0.077 A 
HETATM    7  C18 UNL     1      15.000  20.998  63.026  1.00  0.00     0.071 A 
ENDROOT
BRANCH   7   8
HETATM    8  N2  UNL     1      14.002  20.448  63.858  1.00  0.00    -0.320 N 
HETATM    9  C19 UNL     1      12.616  20.508  63.620  1.00  0.00     0.260 C 
HETATM   10  O4  UNL     1      12.187  21.093  62.566  1.00  0.00    -0.267 OA
ATOM     11  H2  UNL     1      14.310  19.966  64.703  1.00  0.00     0.169 HD
BRANCH   9  12
HETATM   12  C20 UNL     1      11.581  19.953  64.478  1.00  0.00     0.089 A 
HETATM   13  C21 UNL     1      11.097  20.742  65.527  1.00  0.00     0.108 A 
HETATM   14  N3  UNL     1      10.127  20.305  66.333  1.00  0.00    -0.366 N 
HETATM   15  C22 UNL     1       9.547  19.069  66.193  1.00  0.00     0.042 A 
ATOM     16  H3  UNL     1       9.805  20.914  67.085  1.00  0.00     0.165 HD
HETATM   17  C23 UNL     1       8.425  18.705  67.103  1.00  0.00     0.071 C 
HETATM   18  C24 UNL     1       9.989  18.272  65.190  1.00  0.00     0.130 A 
HETATM   19  C32 UNL     1      11.022  18.739  64.329  1.00  0.00     0.168 A 
HETATM   20  F2  UNL     1      11.411  17.874  63.383  1.00  0.00    -0.202 F 
BRANCH  18  21
HETATM   21  O5  UNL     1       9.510  17.019  64.946  1.00  0.00    -0.346 OA
BRANCH  21  22
HETATM   22  C25 UNL     1       8.456  16.561  64.221  1.00  0.00     0.180 C 
BRANCH  22  23
HETATM   23  C26 UNL     1       8.510  16.012  62.867  1.00  0.00     0.010 C 
HETATM   24  C27 UNL     1       7.332  15.254  62.354  1.00  0.00     0.007 C 
HETATM   25  C28 UNL     1       7.202  15.492  60.845  1.00  0.00     0.000 C 
HETATM   26  C29 UNL     1       8.570  15.492  60.201  1.00  0.00     0.000 C 
HETATM   27  C30 UNL     1       9.362  16.706  60.667  1.00  0.00     0.000 C 
HETATM   28  C31 UNL     1       8.730  17.214  61.917  1.00  0.00     0.007 C 
ENDBRANCH  22  23
ENDBRANCH  21  22
ENDBRANCH  18  21
ENDBRANCH   9  12
ENDBRANCH   7   8
BRANCH   1  29
HETATM   29  O1  UNL     1      14.943  22.952  64.473  1.00  0.00    -0.354 OA
HETATM   30  C1  UNL     1      15.745  23.740  65.308  1.00  0.00     0.210 C 
ENDBRANCH   1  29
BRANCH   3  31
HETATM   31  O2  UNL     1      17.970  22.977  60.750  1.00  0.00    -0.343 OA
BRANCH  31  32
HETATM   32  C5  UNL     1      17.788  23.363  59.435  1.00  0.00     0.132 C 
HETATM   33  C6  UNL     1      19.128  23.716  58.809  1.00  0.00     0.062 C 
HETATM   34  C7  UNL     1      19.420  25.173  58.762  1.00  0.00     0.275 C 
HETATM   35  N1  UNL     1      19.007  25.825  59.989  1.00  0.00     0.093 N 
HETATM   36  C14 UNL     1      17.619  25.644  60.282  1.00  0.00     0.275 C 
HETATM   37  C15 UNL     1      16.955  24.652  59.343  1.00  0.00     0.062 C 
BRANCH  35  38
HETATM   38  C8  UNL     1      19.503  27.152  60.107  1.00  0.00     0.221 C 
HETATM   39  C9  UNL     1      19.464  27.827  58.759  1.00  0.00     0.043 C 
BRANCH  38  40
HETATM   40  C10 UNL     1      18.753  27.913  61.162  1.00  0.00     0.072 C 
BRANCH  40  41
HETATM   41  C11 UNL     1      19.445  27.892  62.499  1.00  0.00     0.052 C 
HETATM   42  C12 UNL     1      19.503  29.325  62.992  1.00  0.00     0.045 C 
HETATM   43  C13 UNL     1      18.752  27.070  63.535  1.00  0.00     0.045 C 
BRANCH  41  44
HETATM   44  O3  UNL     1      20.793  27.492  62.346  1.00  0.00    -0.391 OA
ATOM     45  H3  UNL     1      21.081  27.010  63.112  1.00  0.00     0.210 HD
ENDBRANCH  41  44
ENDBRANCH  40  41
ENDBRANCH  38  40
ENDBRANCH  35  38
ENDBRANCH  31  32
ENDBRANCH   3  31
TORSDOF 12
ENDMDL
MODEL 5
REMARK VINA RESULT: -9.208378480      2.842     12.808
REMARK  12 active torsions:
REMARK  status: ('A' for Active; 'I' for Inactive)
REMARK    1  A    between atoms: O1_2  and  C2_3 
REMARK    2  A    between atoms: C4_5  and  O2_6 
REMARK    3  A    between atoms: O2_6  and  C5_7 
REMARK    4  A    between atoms: N1_10  and  C8_11 
REMARK    5  A    between atoms: C8_11  and  C10_13 
REMARK    6  A    between atoms: C10_13  and  C11_14 
REMARK    7  A    between atoms: C11_14  and  O3_17 
REMARK    8  A    between atoms: C18_24  and  N2_25 
REMARK       I    between atoms: N2_25  and  C19_27 
REMARK    9  A    between atoms: C19_27  and  C20_29 
REMARK   10  A    between atoms: C24_35  and  O5_36 
REMARK   11  A    between atoms: O5_36  and  C25_37 
REMARK   12  A    between atoms: C25_37  and  C26_38 
ROOT
HETATM    1  C2  UNL     1      14.402  21.287  62.574  1.00  0.00     0.097 A 
HETATM    2  C3  UNL     1      15.216  22.375  62.793  1.00  0.00     0.079 A 
HETATM    3  C4  UNL     1      15.423  22.921  64.032  1.00  0.00     0.110 A 
HETATM    4  C16 UNL     1      14.738  22.289  65.080  1.00  0.00     0.151 A 
HETATM    5  F1  UNL     1      14.895  22.775  66.329  1.00  0.00    -0.203 F 
HETATM    6  C17 UNL     1      13.913  21.186  64.854  1.00  0.00     0.077 A 
HETATM    7  C18 UNL     1      13.726  20.664  63.615  1.00  0.00     0.071 A 
ENDROOT
BRANCH   7   8
HETATM    8  N2  UNL     1      12.930  19.555  63.258  1.00  0.00    -0.320 N 
HETATM    9  C19 UNL     1      11.533  19.570  63.094  1.00  0.00     0.260 C 
HETATM   10  O4  UNL     1      10.895  20.667  63.264  1.00  0.00    -0.267 OA
ATOM     11  H2  UNL     1      13.408  18.666  63.106  1.00  0.00     0.169 HD
BRANCH   9  12
HETATM   12  C20 UNL     1      10.705  18.429  62.737  1.00  0.00     0.089 A 
HETATM   13  C21 UNL     1      10.593  18.091  61.384  1.00  0.00     0.108 A 
HETATM   14  N3  UNL     1       9.873  17.039  60.990  1.00  0.00    -0.366 N 
HETATM   15  C22 UNL     1       9.200  16.228  61.870  1.00  0.00     0.042 A 
ATOM     16  H3  UNL     1       9.820  16.829  59.993  1.00  0.00     0.165 HD
HETATM   17  C23 UNL     1       8.482  15.039  61.332  1.00  0.00     0.071 C 
HETATM   18  C24 UNL     1       9.281  16.523  63.190  1.00  0.00     0.130 A 
HETATM   19  C32 UNL     1      10.050  17.645  63.611  1.00  0.00     0.168 A 
HETATM   20  F2  UNL     1      10.051  17.873  64.931  1.00  0.00    -0.202 F 
BRANCH  18  21
HETATM   21  O5  UNL     1       8.654  15.811  64.169  1.00  0.00    -0.346 OA
BRANCH  21  22
HETATM   22  C25 UNL     1       7.392  15.850  64.672  1.00  0.00     0.180 C 
BRANCH  22  23
HETATM   23  C26 UNL     1       7.005  16.305  66.006  1.00  0.00     0.010 C 
HETATM   24  C27 UNL     1       7.946  16.078  67.141  1.00  0.00     0.007 C 
HETATM   25  C28 UNL     1       7.820  17.237  68.136  1.00  0.00     0.000 C 
HETATM   26  C29 UNL     1       6.368  17.631  68.291  1.00  0.00     0.000 C 
HETATM   27  C30 UNL     1       5.856  18.242  66.994  1.00  0.00     0.000 C 
HETATM   28  C31 UNL     1       6.779  17.833  65.897  1.00  0.00     0.007 C 
ENDBRANCH  22  23
ENDBRANCH  21  22
ENDBRANCH  18  21
ENDBRANCH   9  12
ENDBRANCH   7   8
BRANCH   1  29
HETATM   29  O1  UNL     1      14.295  20.848  61.258  1.00  0.00    -0.354 OA
HETATM   30  C1  UNL     1      14.852  21.543  60.178  1.00  0.00     0.210 C 
ENDBRANCH   1  29
BRANCH   3  31
HETATM   31  O2  UNL     1      16.227  24.009  64.308  1.00  0.00    -0.343 OA
BRANCH  31  32
HETATM   32  C5  UNL     1      17.502  23.920  64.835  1.00  0.00     0.132 C 
HETATM   33  C6  UNL     1      17.937  25.275  65.368  1.00  0.00     0.062 C 
HETATM   34  C7  UNL     1      18.818  26.043  64.448  1.00  0.00     0.275 C 
HETATM   35  N1  UNL     1      18.368  25.923  63.077  1.00  0.00     0.093 N 
HETATM   36  C14 UNL     1      18.301  24.568  62.623  1.00  0.00     0.275 C 
HETATM   37  C15 UNL     1      18.531  23.571  63.746  1.00  0.00     0.062 C 
BRANCH  35  38
HETATM   38  C8  UNL     1      19.003  26.845  62.200  1.00  0.00     0.221 C 
HETATM   39  C9  UNL     1      18.257  26.891  60.890  1.00  0.00     0.043 C 
BRANCH  38  40
HETATM   40  C10 UNL     1      19.135  28.194  62.845  1.00  0.00     0.072 C 
BRANCH  40  41
HETATM   41  C11 UNL     1      20.554  28.695  62.864  1.00  0.00     0.052 C 
HETATM   42  C12 UNL     1      20.619  29.883  61.924  1.00  0.00     0.045 C 
HETATM   43  C13 UNL     1      21.029  29.138  64.209  1.00  0.00     0.045 C 
BRANCH  41  44
HETATM   44  O3  UNL     1      21.422  27.727  62.308  1.00  0.00    -0.391 OA
ATOM     45  H3  UNL     1      21.904  27.284  62.997  1.00  0.00     0.210 HD
ENDBRANCH  41  44
ENDBRANCH  40  41
ENDBRANCH  38  40
ENDBRANCH  35  38
ENDBRANCH  31  32
ENDBRANCH   3  31
TORSDOF 12
ENDMDL
