MODEL 1
REMARK VINA RESULT: -9.392462358      0.000      0.000
REMARK  13 active torsions:
REMARK  status: ('A' for Active; 'I' for Inactive)
REMARK    1  A    between atoms: C2_2  and  C4_4 
REMARK    2  A    between atoms: C4_4  and  C5_5 
REMARK    3  A    between atoms: C5_5  and  N1_6 
REMARK    4  A    between atoms: C5_5  and  C14_18 
REMARK       I    between atoms: N1_6  and  C6_8 
REMARK    5  A    between atoms: C6_8  and  O2_10 
REMARK    6  A    between atoms: O2_10  and  C7_11 
REMARK    7  A    between atoms: C7_11  and  C8_12 
REMARK       I    between atoms: C14_18  and  N2_20 
REMARK    8  A    between atoms: N2_20  and  C15_22 
REMARK    9  A    between atoms: C15_22  and  C17_25 
REMARK   10  A    between atoms: C17_25  and  C18_26 
REMARK   11  A    between atoms: C17_25  and  C26_39 
REMARK   12  A    between atoms: C23_32  and  O4_33 
REMARK   13  A    between atoms: O4_33  and  C24_34 
ROOT
HETATM    1  C15 UNL     1      16.703  22.552  61.551  1.00  0.00     0.222 C 
HETATM    2  C16 UNL     1      15.908  22.596  60.343  1.00  0.00     0.089 C 
HETATM    3  N3  UNL     1      15.229  22.618  59.378  1.00  0.00    -0.195 NA
ENDROOT
BRANCH   1   4
HETATM    4  N2  UNL     1      15.800  22.956  62.622  1.00  0.00    -0.339 N 
HETATM    5  C14 UNL     1      15.143  22.046  63.463  1.00  0.00     0.241 C 
HETATM    6  O3  UNL     1      15.404  20.807  63.215  1.00  0.00    -0.271 OA
ATOM      7  H2  UNL     1      15.638  23.953  62.767  1.00  0.00     0.164 HD
BRANCH   5   8
HETATM    8  C5  UNL     1      14.213  22.335  64.563  1.00  0.00     0.179 C 
BRANCH   8   9
HETATM    9  C4  UNL     1      14.785  22.464  65.926  1.00  0.00     0.038 C 
BRANCH   9  10
HETATM   10  C2  UNL     1      14.325  23.564  66.795  1.00  0.00    -0.020 C 
HETATM   11  C1  UNL     1      14.366  24.839  65.910  1.00  0.00     0.009 C 
HETATM   12  C3  UNL     1      15.264  23.881  67.940  1.00  0.00     0.009 C 
ENDBRANCH   9  10
ENDBRANCH   8   9
BRANCH   8  13
HETATM   13  N1  UNL     1      13.227  21.220  64.548  1.00  0.00    -0.324 N 
HETATM   14  C6  UNL     1      12.043  21.296  63.766  1.00  0.00     0.361 C 
HETATM   15  O1  UNL     1      11.780  22.324  63.052  1.00  0.00    -0.238 OA
ATOM     16  H1  UNL     1      13.405  20.387  65.109  1.00  0.00     0.165 HD
BRANCH  14  17
HETATM   17  O2  UNL     1      11.108  20.279  63.719  1.00  0.00    -0.304 OA
BRANCH  17  18
HETATM   18  C7  UNL     1      11.463  18.930  63.479  1.00  0.00     0.185 C 
BRANCH  18  19
HETATM   19  C8  UNL     1      10.662  18.498  62.259  1.00  0.00     0.010 C 
HETATM   20  C9  UNL     1       9.396  17.835  62.726  1.00  0.00     0.007 C 
HETATM   21  C10 UNL     1       9.212  16.552  61.968  1.00  0.00     0.000 C 
HETATM   22  C11 UNL     1       9.396  16.684  60.483  1.00  0.00     0.000 C 
HETATM   23  C12 UNL     1      10.731  17.275  60.115  1.00  0.00     0.000 C 
HETATM   24  C13 UNL     1      11.492  17.560  61.392  1.00  0.00     0.007 C 
ENDBRANCH  18  19
ENDBRANCH  17  18
ENDBRANCH  14  17
ENDBRANCH   8  13
ENDBRANCH   5   8
ENDBRANCH   1   4
BRANCH   1  25
HETATM   25  C17 UNL     1      17.951  23.360  61.475  1.00  0.00    -0.029 C 
BRANCH  25  26
HETATM   26  C18 UNL     1      18.292  23.789  60.102  1.00  0.00    -0.028 A 
HETATM   27  C19 UNL     1      19.173  23.025  59.315  1.00  0.00     0.013 A 
HETATM   28  C20 UNL     1      19.511  23.360  58.029  1.00  0.00     0.026 A 
HETATM   29  C21 UNL     1      18.970  24.511  57.440  1.00  0.00     0.078 A 
HETATM   30  C22 UNL     1      19.294  24.843  56.082  1.00  0.00     0.102 C 
HETATM   31  C23 UNL     1      18.111  25.280  58.175  1.00  0.00     0.099 A 
HETATM   32  N4  UNL     1      19.556  25.085  54.960  1.00  0.00    -0.191 NA
HETATM   33  C25 UNL     1      17.798  24.902  59.472  1.00  0.00     0.050 A 
BRANCH  31  34
HETATM   34  O4  UNL     1      17.565  26.417  57.634  1.00  0.00    -0.254 OA
BRANCH  34  35
HETATM   35  C24 UNL     1      18.053  27.679  58.022  1.00  0.00     0.530 C 
HETATM   36  F1  UNL     1      19.405  27.592  58.389  1.00  0.00    -0.144 F 
HETATM   37  F2  UNL     1      17.979  28.649  57.059  1.00  0.00    -0.144 F 
HETATM   38  F3  UNL     1      17.393  28.163  59.142  1.00  0.00    -0.144 F 
ENDBRANCH  34  35
ENDBRANCH  31  34
ENDBRANCH  25  26
BRANCH  25  39
HETATM   39  C26 UNL     1      18.185  24.338  62.557  1.00  0.00     0.018 C 
HETATM   40  C27 UNL     1      18.586  23.826  63.899  1.00  0.00     0.009 C 
HETATM   41  C28 UNL     1      17.740  24.450  64.976  1.00  0.00     0.001 C 
HETATM   42  C29 UNL     1      17.406  25.887  64.792  1.00  0.00     0.000 C 
HETATM   43  C30 UNL     1      18.490  26.763  64.270  1.00  0.00     0.000 C 
HETATM   44  C31 UNL     1      18.435  26.807  62.752  1.00  0.00     0.001 C 
HETATM   45  C32 UNL     1      19.060  25.503  62.200  1.00  0.00     0.009 C 
ENDBRANCH  25  39
ENDBRANCH   1  25
TORSDOF 13
ENDMDL
MODEL 2
REMARK VINA RESULT: -9.380156926      6.260     13.399
REMARK  13 active torsions:
REMARK  status: ('A' for Active; 'I' for Inactive)
REMARK    1  A    between atoms: C2_2  and  C4_4 
REMARK    2  A    between atoms: C4_4  and  C5_5 
REMARK    3  A    between atoms: C5_5  and  N1_6 
REMARK    4  A    between atoms: C5_5  and  C14_18 
REMARK       I    between atoms: N1_6  and  C6_8 
REMARK    5  A    between atoms: C6_8  and  O2_10 
REMARK    6  A    between atoms: O2_10  and  C7_11 
REMARK    7  A    between atoms: C7_11  and  C8_12 
REMARK       I    between atoms: C14_18  and  N2_20 
REMARK    8  A    between atoms: N2_20  and  C15_22 
REMARK    9  A    between atoms: C15_22  and  C17_25 
REMARK   10  A    between atoms: C17_25  and  C18_26 
REMARK   11  A    between atoms: C17_25  and  C26_39 
REMARK   12  A    between atoms: C23_32  and  O4_33 
REMARK   13  A    between atoms: O4_33  and  C24_34 
ROOT
HETATM    1  C15 UNL     1       7.480  17.491  65.856  1.00  0.00     0.222 C 
HETATM    2  C16 UNL     1       7.547  18.167  67.133  1.00  0.00     0.089 C 
HETATM    3  N3  UNL     1       7.636  18.736  68.163  1.00  0.00    -0.195 NA
ENDROOT
BRANCH   1   4
HETATM    4  N2  UNL     1       7.988  18.450  64.883  1.00  0.00    -0.339 N 
HETATM    5  C14 UNL     1       9.332  18.507  64.483  1.00  0.00     0.241 C 
HETATM    6  O3  UNL     1      10.093  17.632  65.049  1.00  0.00    -0.271 OA
ATOM      7  H2  UNL     1       7.333  19.115  64.471  1.00  0.00     0.164 HD
BRANCH   5   8
HETATM    8  C5  UNL     1       9.956  19.429  63.524  1.00  0.00     0.179 C 
BRANCH   8   9
HETATM    9  C4  UNL     1      10.160  18.937  62.138  1.00  0.00     0.038 C 
BRANCH   9  10
HETATM   10  C2  UNL     1      10.687  17.574  61.934  1.00  0.00    -0.020 C 
HETATM   11  C1  UNL     1      12.225  17.736  61.808  1.00  0.00     0.009 C 
HETATM   12  C3  UNL     1      10.275  16.943  60.621  1.00  0.00     0.009 C 
ENDBRANCH   9  10
ENDBRANCH   8   9
BRANCH   8  13
HETATM   13  N1  UNL     1      11.274  19.783  64.118  1.00  0.00    -0.324 N 
HETATM   14  C6  UNL     1      11.921  21.006  63.794  1.00  0.00     0.361 C 
HETATM   15  O1  UNL     1      11.398  21.842  62.980  1.00  0.00    -0.238 OA
ATOM     16  H1  UNL     1      11.719  19.137  64.768  1.00  0.00     0.165 HD
BRANCH  14  17
HETATM   17  O2  UNL     1      13.141  21.374  64.330  1.00  0.00    -0.304 OA
BRANCH  17  18
HETATM   18  C7  UNL     1      13.371  21.435  65.726  1.00  0.00     0.185 C 
BRANCH  18  19
HETATM   19  C8  UNL     1      14.606  22.306  65.908  1.00  0.00     0.010 C 
HETATM   20  C9  UNL     1      14.302  23.358  66.938  1.00  0.00     0.007 C 
HETATM   21  C10 UNL     1      14.757  24.692  66.416  1.00  0.00     0.000 C 
HETATM   22  C11 UNL     1      16.147  24.687  65.845  1.00  0.00     0.000 C 
HETATM   23  C12 UNL     1      16.323  23.658  64.760  1.00  0.00     0.000 C 
HETATM   24  C13 UNL     1      15.008  22.929  64.579  1.00  0.00     0.007 C 
ENDBRANCH  18  19
ENDBRANCH  17  18
ENDBRANCH  14  17
ENDBRANCH   8  13
ENDBRANCH   5   8
ENDBRANCH   1   4
BRANCH   1  25
HETATM   25  C17 UNL     1       6.128  16.960  65.530  1.00  0.00    -0.029 C 
BRANCH  25  26
HETATM   26  C18 UNL     1       5.027  17.839  65.979  1.00  0.00    -0.028 A 
HETATM   27  C19 UNL     1       4.393  17.613  67.214  1.00  0.00     0.013 A 
HETATM   28  C20 UNL     1       3.382  18.405  67.693  1.00  0.00     0.026 A 
HETATM   29  C21 UNL     1       2.934  19.501  66.942  1.00  0.00     0.078 A 
HETATM   30  C22 UNL     1       1.902  20.352  67.459  1.00  0.00     0.102 C 
HETATM   31  C23 UNL     1       3.526  19.751  65.735  1.00  0.00     0.099 A 
HETATM   32  N4  UNL     1       1.068  21.051  67.910  1.00  0.00    -0.191 NA
HETATM   33  C25 UNL     1       4.545  18.923  65.291  1.00  0.00     0.050 A 
BRANCH  31  34
HETATM   34  O4  UNL     1       3.112  20.812  64.969  1.00  0.00    -0.254 OA
BRANCH  34  35
HETATM   35  C24 UNL     1       3.873  21.996  64.948  1.00  0.00     0.530 C 
HETATM   36  F1  UNL     1       3.428  22.885  65.939  1.00  0.00    -0.144 F 
HETATM   37  F2  UNL     1       5.215  21.826  65.162  1.00  0.00    -0.144 F 
HETATM   38  F3  UNL     1       3.733  22.676  63.748  1.00  0.00    -0.144 F 
ENDBRANCH  34  35
ENDBRANCH  31  34
ENDBRANCH  25  26
BRANCH  25  39
HETATM   39  C26 UNL     1       5.962  16.300  64.219  1.00  0.00     0.018 C 
HETATM   40  C27 UNL     1       7.019  15.351  63.766  1.00  0.00     0.009 C 
HETATM   41  C28 UNL     1       7.437  15.661  62.354  1.00  0.00     0.001 C 
HETATM   42  C29 UNL     1       6.350  16.068  61.426  1.00  0.00     0.000 C 
HETATM   43  C30 UNL     1       5.061  15.331  61.544  1.00  0.00     0.000 C 
HETATM   44  C31 UNL     1       4.149  16.036  62.533  1.00  0.00     0.001 C 
HETATM   45  C32 UNL     1       4.617  15.686  63.967  1.00  0.00     0.009 C 
ENDBRANCH  25  39
ENDBRANCH   1  25
TORSDOF 13
ENDMDL
MODEL 3
REMARK VINA RESULT: -9.343873846      0.815      1.083
REMARK  13 active torsions:
REMARK  status: ('A' for Active; 'I' for Inactive)
REMARK    1  A    between atoms: C2_2  and  C4_4 
REMARK    2  A    between atoms: C4_4  and  C5_5 
REMARK    3  A    between atoms: C5_5  and  N1_6 
REMARK    4  A    between atoms: C5_5  and  C14_18 
REMARK       I    between atoms: N1_6  and  C6_8 
REMARK    5  A    between atoms: C6_8  and  O2_10 
REMARK    6  A    between atoms: O2_10  and  C7_11 
REMARK    7  A    between atoms: C7_11  and  C8_12 
REMARK       I    between atoms: C14_18  and  N2_20 
REMARK    8  A    between atoms: N2_20  and  C15_22 
REMARK    9  A    between atoms: C15_22  and  C17_25 
REMARK   10  A    between atoms: C17_25  and  C18_26 
REMARK   11  A    between atoms: C17_25  and  C26_39 
REMARK   12  A    between atoms: C23_32  and  O4_33 
REMARK   13  A    between atoms: O4_33  and  C24_34 
ROOT
HETATM    1  C15 UNL     1      16.749  22.486  61.760  1.00  0.00     0.222 C 
HETATM    2  C16 UNL     1      16.001  22.652  60.532  1.00  0.00     0.089 C 
HETATM    3  N3  UNL     1      15.359  22.777  59.550  1.00  0.00    -0.195 NA
ENDROOT
BRANCH   1   4
HETATM    4  N2  UNL     1      15.867  22.965  62.817  1.00  0.00    -0.339 N 
HETATM    5  C14 UNL     1      15.144  22.113  63.665  1.00  0.00     0.241 C 
HETATM    6  O3  UNL     1      15.323  20.856  63.437  1.00  0.00    -0.271 OA
ATOM      7  H2  UNL     1      15.771  23.973  62.947  1.00  0.00     0.164 HD
BRANCH   5   8
HETATM    8  C5  UNL     1      14.226  22.480  64.753  1.00  0.00     0.179 C 
BRANCH   8   9
HETATM    9  C4  UNL     1      14.808  22.661  66.106  1.00  0.00     0.038 C 
BRANCH   9  10
HETATM   10  C2  UNL     1      14.572  23.929  66.822  1.00  0.00    -0.020 C 
HETATM   11  C1  UNL     1      14.386  25.004  65.718  1.00  0.00     0.009 C 
HETATM   12  C3  UNL     1      15.763  24.421  67.617  1.00  0.00     0.009 C 
ENDBRANCH   9  10
ENDBRANCH   8   9
BRANCH   8  13
HETATM   13  N1  UNL     1      13.212  21.391  64.796  1.00  0.00    -0.324 N 
HETATM   14  C6  UNL     1      12.114  21.372  63.894  1.00  0.00     0.361 C 
HETATM   15  O1  UNL     1      11.955  22.290  63.017  1.00  0.00    -0.238 OA
ATOM     16  H1  UNL     1      13.307  20.646  65.485  1.00  0.00     0.165 HD
BRANCH  14  17
HETATM   17  O2  UNL     1      11.157  20.375  63.897  1.00  0.00    -0.304 OA
BRANCH  17  18
HETATM   18  C7  UNL     1      11.480  19.011  63.699  1.00  0.00     0.185 C 
BRANCH  18  19
HETATM   19  C8  UNL     1      10.774  18.597  62.415  1.00  0.00     0.010 C 
HETATM   20  C9  UNL     1       9.442  17.998  62.771  1.00  0.00     0.007 C 
HETATM   21  C10 UNL     1       9.270  16.713  62.012  1.00  0.00     0.000 C 
HETATM   22  C11 UNL     1       9.594  16.816  60.549  1.00  0.00     0.000 C 
HETATM   23  C12 UNL     1      10.982  17.343  60.298  1.00  0.00     0.000 C 
HETATM   24  C13 UNL     1      11.636  17.612  61.637  1.00  0.00     0.007 C 
ENDBRANCH  18  19
ENDBRANCH  17  18
ENDBRANCH  14  17
ENDBRANCH   8  13
ENDBRANCH   5   8
ENDBRANCH   1   4
BRANCH   1  25
HETATM   25  C17 UNL     1      18.084  23.145  61.742  1.00  0.00    -0.029 C 
BRANCH  25  26
HETATM   26  C18 UNL     1      18.675  23.239  60.390  1.00  0.00    -0.028 A 
HETATM   27  C19 UNL     1      19.483  22.200  59.892  1.00  0.00     0.013 A 
HETATM   28  C20 UNL     1      20.042  22.220  58.640  1.00  0.00     0.026 A 
HETATM   29  C21 UNL     1      19.817  23.312  57.790  1.00  0.00     0.078 A 
HETATM   30  C22 UNL     1      20.370  23.317  56.466  1.00  0.00     0.102 C 
HETATM   31  C23 UNL     1      19.038  24.342  58.240  1.00  0.00     0.099 A 
HETATM   32  N4  UNL     1      20.816  23.292  55.377  1.00  0.00    -0.191 NA
HETATM   33  C25 UNL     1      18.493  24.278  59.514  1.00  0.00     0.050 A 
BRANCH  31  34
HETATM   34  O4  UNL     1      18.799  25.430  57.439  1.00  0.00    -0.254 OA
BRANCH  34  35
HETATM   35  C24 UNL     1      19.346  26.681  57.779  1.00  0.00     0.530 C 
HETATM   36  F1  UNL     1      18.423  27.437  58.520  1.00  0.00    -0.144 F 
HETATM   37  F2  UNL     1      20.488  26.628  58.532  1.00  0.00    -0.144 F 
HETATM   38  F3  UNL     1      19.632  27.440  56.654  1.00  0.00    -0.144 F 
ENDBRANCH  34  35
ENDBRANCH  31  34
ENDBRANCH  25  26
BRANCH  25  39
HETATM   39  C26 UNL     1      18.272  24.307  62.634  1.00  0.00     0.018 C 
HETATM   40  C27 UNL     1      18.697  24.056  64.041  1.00  0.00     0.009 C 
HETATM   41  C28 UNL     1      17.823  24.819  65.000  1.00  0.00     0.001 C 
HETATM   42  C29 UNL     1      17.422  26.185  64.572  1.00  0.00     0.000 C 
HETATM   43  C30 UNL     1      18.463  27.005  63.895  1.00  0.00     0.000 C 
HETATM   44  C31 UNL     1      18.406  26.781  62.393  1.00  0.00     0.001 C 
HETATM   45  C32 UNL     1      19.092  25.430  62.072  1.00  0.00     0.009 C 
ENDBRANCH  25  39
ENDBRANCH   1  25
TORSDOF 13
ENDMDL
MODEL 4
REMARK VINA RESULT: -9.305335427      1.679      2.305
REMARK  13 active torsions:
REMARK  status: ('A' for Active; 'I' for Inactive)
REMARK    1  A    between atoms: C2_2  and  C4_4 
REMARK    2  A    between atoms: C4_4  and  C5_5 
REMARK    3  A    between atoms: C5_5  and  N1_6 
REMARK    4  A    between atoms: C5_5  and  C14_18 
REMARK       I    between atoms: N1_6  and  C6_8 
REMARK    5  A    between atoms: C6_8  and  O2_10 
REMARK    6  A    between atoms: O2_10  and  C7_11 
REMARK    7  A    between atoms: C7_11  and  C8_12 
REMARK       I    between atoms: C14_18  and  N2_20 
REMARK    8  A    between atoms: N2_20  and  C15_22 
REMARK    9  A    between atoms: C15_22  and  C17_25 
REMARK   10  A    between atoms: C17_25  and  C18_26 
REMARK   11  A    between atoms: C17_25  and  C26_39 
REMARK   12  A    between atoms: C23_32  and  O4_33 
REMARK   13  A    between atoms: O4_33  and  C24_34 
ROOT
HETATM    1  C15 UNL     1      16.454  22.838  61.110  1.00  0.00     0.222 C 
HETATM    2  C16 UNL     1      16.086  23.766  60.063  1.00  0.00     0.089 C 
HETATM    3  N3  UNL     1      15.747  24.517  59.217  1.00  0.00    -0.195 NA
ENDROOT
BRANCH   1   4
HETATM    4  N2  UNL     1      15.477  23.045  62.172  1.00  0.00    -0.339 N 
HETATM    5  C14 UNL     1      14.988  22.011  62.984  1.00  0.00     0.241 C 
HETATM    6  O3  UNL     1      15.477  20.847  62.717  1.00  0.00    -0.271 OA
ATOM      7  H2  UNL     1      15.132  23.991  62.333  1.00  0.00     0.164 HD
BRANCH   5   8
HETATM    8  C5  UNL     1      14.004  22.099  64.072  1.00  0.00     0.179 C 
BRANCH   8   9
HETATM    9  C4  UNL     1      14.525  22.148  65.461  1.00  0.00     0.038 C 
BRANCH   9  10
HETATM   10  C2  UNL     1      15.078  23.415  65.973  1.00  0.00    -0.020 C 
HETATM   11  C1  UNL     1      14.648  23.487  67.463  1.00  0.00     0.009 C 
HETATM   12  C3  UNL     1      14.463  24.653  65.355  1.00  0.00     0.009 C 
ENDBRANCH   9  10
ENDBRANCH   8   9
BRANCH   8  13
HETATM   13  N1  UNL     1      13.135  20.900  63.915  1.00  0.00    -0.324 N 
HETATM   14  C6  UNL     1      11.902  20.973  63.213  1.00  0.00     0.361 C 
HETATM   15  O1  UNL     1      11.493  22.069  62.695  1.00  0.00    -0.238 OA
ATOM     16  H1  UNL     1      13.431  20.012  64.318  1.00  0.00     0.165 HD
BRANCH  14  17
HETATM   17  O2  UNL     1      11.072  19.882  63.039  1.00  0.00    -0.304 OA
BRANCH  17  18
HETATM   18  C7  UNL     1      11.135  18.738  63.871  1.00  0.00     0.185 C 
BRANCH  18  19
HETATM   19  C8  UNL     1      10.814  17.551  62.975  1.00  0.00     0.010 C 
HETATM   20  C9  UNL     1      11.552  17.718  61.676  1.00  0.00     0.007 C 
HETATM   21  C10 UNL     1      10.602  17.461  60.541  1.00  0.00     0.000 C 
HETATM   22  C11 UNL     1       9.783  16.211  60.696  1.00  0.00     0.000 C 
HETATM   23  C12 UNL     1       9.012  16.181  61.988  1.00  0.00     0.000 C 
HETATM   24  C13 UNL     1       9.311  17.455  62.749  1.00  0.00     0.007 C 
ENDBRANCH  18  19
ENDBRANCH  17  18
ENDBRANCH  14  17
ENDBRANCH   8  13
ENDBRANCH   5   8
ENDBRANCH   1   4
BRANCH   1  25
HETATM   25  C17 UNL     1      17.868  22.970  61.556  1.00  0.00    -0.029 C 
BRANCH  25  26
HETATM   26  C18 UNL     1      18.849  22.557  60.530  1.00  0.00    -0.028 A 
HETATM   27  C19 UNL     1      19.733  21.490  60.777  1.00  0.00     0.013 A 
HETATM   28  C20 UNL     1      20.650  21.048  59.858  1.00  0.00     0.026 A 
HETATM   29  C21 UNL     1      20.737  21.666  58.603  1.00  0.00     0.078 A 
HETATM   30  C22 UNL     1      21.670  21.182  57.628  1.00  0.00     0.102 C 
HETATM   31  C23 UNL     1      19.896  22.709  58.328  1.00  0.00     0.099 A 
HETATM   32  N4  UNL     1      22.428  20.755  56.834  1.00  0.00    -0.191 NA
HETATM   33  C25 UNL     1      18.984  23.121  59.288  1.00  0.00     0.050 A 
BRANCH  31  34
HETATM   34  O4  UNL     1      19.955  23.342  57.112  1.00  0.00    -0.254 OA
BRANCH  34  35
HETATM   35  C24 UNL     1      19.661  24.716  57.025  1.00  0.00     0.530 C 
HETATM   36  F1  UNL     1      18.274  24.927  57.089  1.00  0.00    -0.144 F 
HETATM   37  F2  UNL     1      20.211  25.489  58.012  1.00  0.00    -0.144 F 
HETATM   38  F3  UNL     1      20.064  25.252  55.812  1.00  0.00    -0.144 F 
ENDBRANCH  34  35
ENDBRANCH  31  34
ENDBRANCH  25  26
BRANCH  25  39
HETATM   39  C26 UNL     1      18.210  24.156  62.367  1.00  0.00     0.018 C 
HETATM   40  C27 UNL     1      18.776  23.943  63.730  1.00  0.00     0.009 C 
HETATM   41  C28 UNL     1      18.051  24.789  64.741  1.00  0.00     0.001 C 
HETATM   42  C29 UNL     1      17.670  26.155  64.294  1.00  0.00     0.000 C 
HETATM   43  C30 UNL     1      18.669  26.891  63.470  1.00  0.00     0.000 C 
HETATM   44  C31 UNL     1      18.434  26.607  61.996  1.00  0.00     0.001 C 
HETATM   45  C32 UNL     1      19.015  25.210  61.666  1.00  0.00     0.009 C 
ENDBRANCH  25  39
ENDBRANCH   1  25
TORSDOF 13
ENDMDL
MODEL 5
REMARK VINA RESULT: -9.168147247      3.962      9.944
REMARK  13 active torsions:
REMARK  status: ('A' for Active; 'I' for Inactive)
REMARK    1  A    between atoms: C2_2  and  C4_4 
REMARK    2  A    between atoms: C4_4  and  C5_5 
REMARK    3  A    between atoms: C5_5  and  N1_6 
REMARK    4  A    between atoms: C5_5  and  C14_18 
REMARK       I    between atoms: N1_6  and  C6_8 
REMARK    5  A    between atoms: C6_8  and  O2_10 
REMARK    6  A    between atoms: O2_10  and  C7_11 
REMARK    7  A    between atoms: C7_11  and  C8_12 
REMARK       I    between atoms: C14_18  and  N2_20 
REMARK    8  A    between atoms: N2_20  and  C15_22 
REMARK    9  A    between atoms: C15_22  and  C17_25 
REMARK   10  A    between atoms: C17_25  and  C18_26 
REMARK   11  A    between atoms: C17_25  and  C26_39 
REMARK   12  A    between atoms: C23_32  and  O4_33 
REMARK   13  A    between atoms: O4_33  and  C24_34 
ROOT
HETATM    1  C15 UNL     1      14.931  22.209  61.941  1.00  0.00     0.222 C 
HETATM    2  C16 UNL     1      15.511  20.886  62.018  1.00  0.00     0.089 C 
HETATM    3  N3  UNL     1      16.006  19.815  62.049  1.00  0.00    -0.195 NA
ENDROOT
BRANCH   1   4
HETATM    4  N2  UNL     1      16.025  23.088  61.544  1.00  0.00    -0.339 N 
HETATM    5  C14 UNL     1      16.374  23.331  60.207  1.00  0.00     0.241 C 
HETATM    6  O3  UNL     1      15.642  22.710  59.344  1.00  0.00    -0.271 OA
ATOM      7  H2  UNL     1      16.564  23.551  62.276  1.00  0.00     0.164 HD
BRANCH   5   8
HETATM    8  C5  UNL     1      17.454  24.184  59.691  1.00  0.00     0.179 C 
BRANCH   8   9
HETATM    9  C4  UNL     1      18.774  23.548  59.457  1.00  0.00     0.038 C 
BRANCH   9  10
HETATM   10  C2  UNL     1      19.025  22.200  60.001  1.00  0.00    -0.020 C 
HETATM   11  C1  UNL     1      19.547  22.424  61.446  1.00  0.00     0.009 C 
HETATM   12  C3  UNL     1      20.151  21.456  59.315  1.00  0.00     0.009 C 
ENDBRANCH   9  10
ENDBRANCH   8   9
BRANCH   8  13
HETATM   13  N1  UNL     1      17.605  25.274  60.693  1.00  0.00    -0.324 N 
HETATM   14  C6  UNL     1      18.039  26.572  60.308  1.00  0.00     0.361 C 
HETATM   15  O1  UNL     1      18.318  26.848  59.091  1.00  0.00    -0.238 OA
ATOM     16  H1  UNL     1      17.394  25.087  61.673  1.00  0.00     0.165 HD
BRANCH  14  17
HETATM   17  O2  UNL     1      18.185  27.612  61.207  1.00  0.00    -0.304 OA
BRANCH  17  18
HETATM   18  C7  UNL     1      18.585  28.910  60.808  1.00  0.00     0.185 C 
BRANCH  18  19
HETATM   19  C8  UNL     1      19.457  29.443  61.937  1.00  0.00     0.010 C 
HETATM   20  C9  UNL     1      20.898  29.188  61.590  1.00  0.00     0.007 C 
HETATM   21  C10 UNL     1      21.586  28.589  62.784  1.00  0.00     0.000 C 
HETATM   22  C11 UNL     1      21.319  29.313  64.073  1.00  0.00     0.000 C 
HETATM   23  C12 UNL     1      19.850  29.438  64.375  1.00  0.00     0.000 C 
HETATM   24  C13 UNL     1      19.077  28.777  63.252  1.00  0.00     0.007 C 
ENDBRANCH  18  19
ENDBRANCH  17  18
ENDBRANCH  14  17
ENDBRANCH   8  13
ENDBRANCH   5   8
ENDBRANCH   1   4
BRANCH   1  25
HETATM   25  C17 UNL     1      14.239  22.633  63.189  1.00  0.00    -0.029 C 
BRANCH  25  26
HETATM   26  C18 UNL     1      13.253  21.647  63.678  1.00  0.00    -0.028 A 
HETATM   27  C19 UNL     1      13.138  21.375  65.054  1.00  0.00     0.013 A 
HETATM   28  C20 UNL     1      12.230  20.487  65.570  1.00  0.00     0.026 A 
HETATM   29  C21 UNL     1      11.358  19.800  64.713  1.00  0.00     0.078 A 
HETATM   30  C22 UNL     1      10.382  18.899  65.254  1.00  0.00     0.102 C 
HETATM   31  C23 UNL     1      11.441  20.037  63.369  1.00  0.00     0.099 A 
HETATM   32  N4  UNL     1       9.575  18.179  65.720  1.00  0.00    -0.191 NA
HETATM   33  C25 UNL     1      12.375  20.944  62.893  1.00  0.00     0.050 A 
BRANCH  31  34
HETATM   34  O4  UNL     1      10.607  19.381  62.499  1.00  0.00    -0.254 OA
BRANCH  34  35
HETATM   35  C24 UNL     1      11.024  18.172  61.909  1.00  0.00     0.530 C 
HETATM   36  F1  UNL     1      10.552  17.075  62.648  1.00  0.00    -0.144 F 
HETATM   37  F2  UNL     1      10.598  17.979  60.622  1.00  0.00    -0.144 F 
HETATM   38  F3  UNL     1      12.405  18.053  61.905  1.00  0.00    -0.144 F 
ENDBRANCH  34  35
ENDBRANCH  31  34
ENDBRANCH  25  26
BRANCH  25  39
HETATM   39  C26 UNL     1      15.054  23.324  64.209  1.00  0.00     0.018 C 
HETATM   40  C27 UNL     1      14.408  23.691  65.501  1.00  0.00     0.009 C 
HETATM   41  C28 UNL     1      14.695  25.127  65.846  1.00  0.00     0.001 C 
HETATM   42  C29 UNL     1      16.064  25.613  65.529  1.00  0.00     0.000 C 
HETATM   43  C30 UNL     1      17.186  24.673  65.804  1.00  0.00     0.000 C 
HETATM   44  C31 UNL     1      17.465  23.825  64.574  1.00  0.00     0.001 C 
HETATM   45  C32 UNL     1      16.394  22.710  64.492  1.00  0.00     0.009 C 
ENDBRANCH  25  39
ENDBRANCH   1  25
TORSDOF 13
ENDMDL
