MODEL 1
REMARK VINA RESULT: -7.257197508      0.000      0.000
REMARK  15 active torsions:
REMARK  status: ('A' for Active; 'I' for Inactive)
REMARK       I    between atoms: N1_3  and  C3_5 
REMARK    1  A    between atoms: C3_5  and  C4_7 
REMARK    2  A    between atoms: C4_7  and  C5_8 
REMARK    3  A    between atoms: C5_8  and  C7_10 
REMARK    4  A    between atoms: C14_18  and  O2_19 
REMARK    5  A    between atoms: C14_18  and  C15_21 
REMARK    6  A    between atoms: C17_26  and  O3_27 
REMARK    7  A    between atoms: O3_27  and  C18_28 
REMARK    8  A    between atoms: C18_28  and  C19_30 
REMARK    9  A    between atoms: C19_30  and  C20_31 
REMARK   10  A    between atoms: C20_31  and  C21_32 
REMARK   11  A    between atoms: C21_32  and  C22_33 
REMARK   12  A    between atoms: C22_33  and  C23_34 
REMARK   13  A    between atoms: C23_34  and  C24_35 
REMARK   14  A    between atoms: C24_35  and  C25_36 
REMARK   15  A    between atoms: C25_36  and  C26_37 
ROOT
HETATM    1  C7  UNL     1      13.159  19.791  63.425  1.00  0.00    -0.028 C 
HETATM    2  C8  UNL     1      14.205  20.287  64.270  1.00  0.00    -0.043 C 
HETATM    3  C9  UNL     1      13.669  21.214  65.096  1.00  0.00    -0.052 C 
HETATM    4  C10 UNL     1      12.185  21.402  64.829  1.00  0.00     0.041 C 
HETATM    5  C11 UNL     1      11.916  21.635  63.297  1.00  0.00     0.033 C 
HETATM    6  C12 UNL     1      13.011  21.135  62.619  1.00  0.00     0.063 C 
HETATM    7  S1  UNL     1      14.254  22.413  62.933  1.00  0.00    -0.148 SA
HETATM    8  C13 UNL     1      14.180  23.497  64.264  1.00  0.00     0.126 C 
HETATM    9  C14 UNL     1      15.011  23.140  65.515  1.00  0.00     0.182 C 
HETATM   10  C16 UNL     1      14.741  21.699  65.887  1.00  0.00     0.028 C 
HETATM   11  C17 UNL     1      13.668  20.744  61.438  1.00  0.00     0.155 C 
HETATM   12  C27 UNL     1      15.015  20.139  61.625  1.00  0.00     0.039 C 
HETATM   13  C28 UNL     1      16.008  20.072  62.634  1.00  0.00    -0.012 C 
HETATM   14  C29 UNL     1      17.177  20.996  62.415  1.00  0.00     0.010 C 
HETATM   15  C30 UNL     1      15.597  20.102  64.171  1.00  0.00     0.044 C 
ENDROOT
BRANCH  11  16
HETATM   16  O3  UNL     1      13.735  21.884  60.525  1.00  0.00    -0.314 OA
BRANCH  16  17
HETATM   17  C18 UNL     1      14.742  22.180  59.682  1.00  0.00     0.259 C 
HETATM   18  O4  UNL     1      14.889  21.486  58.648  1.00  0.00    -0.265 OA
BRANCH  17  19
HETATM   19  C19 UNL     1      15.654  23.333  60.014  1.00  0.00     0.111 C 
BRANCH  19  20
HETATM   20  C20 UNL     1      16.942  23.026  59.286  1.00  0.00     0.010 C 
BRANCH  20  21
HETATM   21  C21 UNL     1      17.680  24.222  58.806  1.00  0.00     0.000 C 
BRANCH  21  22
HETATM   22  C22 UNL     1      16.944  25.474  59.218  1.00  0.00     0.000 C 
BRANCH  22  23
HETATM   23  C23 UNL     1      17.874  26.409  59.977  1.00  0.00     0.001 C 
BRANCH  23  24
HETATM   24  C24 UNL     1      18.932  25.620  60.683  1.00  0.00     0.010 C 
BRANCH  24  25
HETATM   25  C25 UNL     1      18.677  25.441  62.131  1.00  0.00     0.113 C 
BRANCH  25  26
HETATM   26  C26 UNL     1      19.093  24.144  62.683  1.00  0.00     0.172 C 
HETATM   27  O5  UNL     1      18.777  23.832  63.852  1.00  0.00    -0.648 OA
HETATM   28  O6  UNL     1      19.829  23.265  61.929  1.00  0.00    -0.648 OA
ENDBRANCH  25  26
ENDBRANCH  24  25
ENDBRANCH  23  24
ENDBRANCH  22  23
ENDBRANCH  21  22
ENDBRANCH  20  21
ENDBRANCH  19  20
ENDBRANCH  17  19
ENDBRANCH  16  17
ENDBRANCH  11  16
BRANCH   1  29
HETATM   29  C5  UNL     1      12.417  18.774  63.196  1.00  0.00    -0.067 C 
HETATM   30  C6  UNL     1      11.996  17.815  64.274  1.00  0.00     0.044 C 
BRANCH  29  31
HETATM   31  C4  UNL     1      11.789  18.259  61.971  1.00  0.00     0.137 C 
BRANCH  31  32
HETATM   32  C3  UNL     1      10.294  18.097  62.172  1.00  0.00     0.225 C 
HETATM   33  N1  UNL     1       9.696  16.852  61.766  1.00  0.00    -0.341 N 
HETATM   34  C2  UNL     1       8.718  16.822  60.926  1.00  0.00     0.059 C 
ATOM     35  H1  UNL     1      10.053  15.976  62.150  1.00  0.00     0.167 HD
HETATM   36  C1  UNL     1       8.138  15.520  60.539  1.00  0.00     0.055 C 
HETATM   37  O1  UNL     1       9.619  19.023  62.674  1.00  0.00    -0.273 OA
ENDBRANCH  31  32
ENDBRANCH  29  31
ENDBRANCH   1  29
BRANCH   9  38
HETATM   38  O2  UNL     1      16.357  23.460  65.346  1.00  0.00    -0.376 OA
ATOM     39  H2  UNL     1      16.819  23.481  66.175  1.00  0.00     0.211 HD
ENDBRANCH   9  38
BRANCH   9  40
HETATM   40  C15 UNL     1      14.578  24.153  66.576  1.00  0.00     0.422 C 
HETATM   41  F1  UNL     1      13.796  23.670  67.560  1.00  0.00    -0.167 F 
HETATM   42  F2  UNL     1      15.706  24.694  67.217  1.00  0.00    -0.167 F 
HETATM   43  F3  UNL     1      13.962  25.240  65.983  1.00  0.00    -0.167 F 
ENDBRANCH   9  40
TORSDOF 15
ENDMDL
MODEL 2
REMARK VINA RESULT: -7.009137516      0.821      1.227
REMARK  15 active torsions:
REMARK  status: ('A' for Active; 'I' for Inactive)
REMARK       I    between atoms: N1_3  and  C3_5 
REMARK    1  A    between atoms: C3_5  and  C4_7 
REMARK    2  A    between atoms: C4_7  and  C5_8 
REMARK    3  A    between atoms: C5_8  and  C7_10 
REMARK    4  A    between atoms: C14_18  and  O2_19 
REMARK    5  A    between atoms: C14_18  and  C15_21 
REMARK    6  A    between atoms: C17_26  and  O3_27 
REMARK    7  A    between atoms: O3_27  and  C18_28 
REMARK    8  A    between atoms: C18_28  and  C19_30 
REMARK    9  A    between atoms: C19_30  and  C20_31 
REMARK   10  A    between atoms: C20_31  and  C21_32 
REMARK   11  A    between atoms: C21_32  and  C22_33 
REMARK   12  A    between atoms: C22_33  and  C23_34 
REMARK   13  A    between atoms: C23_34  and  C24_35 
REMARK   14  A    between atoms: C24_35  and  C25_36 
REMARK   15  A    between atoms: C25_36  and  C26_37 
ROOT
HETATM    1  C7  UNL     1      13.187  19.808  63.402  1.00  0.00    -0.028 C 
HETATM    2  C8  UNL     1      14.236  20.282  64.256  1.00  0.00    -0.043 C 
HETATM    3  C9  UNL     1      13.706  21.200  65.096  1.00  0.00    -0.052 C 
HETATM    4  C10 UNL     1      12.223  21.402  64.831  1.00  0.00     0.041 C 
HETATM    5  C11 UNL     1      11.957  21.662  63.303  1.00  0.00     0.033 C 
HETATM    6  C12 UNL     1      13.049  21.166  62.618  1.00  0.00     0.063 C 
HETATM    7  S1  UNL     1      14.300  22.430  62.954  1.00  0.00    -0.148 SA
HETATM    8  C13 UNL     1      14.233  23.493  64.302  1.00  0.00     0.126 C 
HETATM    9  C14 UNL     1      15.061  23.109  65.547  1.00  0.00     0.182 C 
HETATM   10  C16 UNL     1      14.780  21.665  65.896  1.00  0.00     0.028 C 
HETATM   11  C17 UNL     1      13.704  20.789  61.431  1.00  0.00     0.155 C 
HETATM   12  C27 UNL     1      15.047  20.171  61.609  1.00  0.00     0.039 C 
HETATM   13  C28 UNL     1      16.039  20.082  62.618  1.00  0.00    -0.012 C 
HETATM   14  C29 UNL     1      17.215  21.001  62.415  1.00  0.00     0.010 C 
HETATM   15  C30 UNL     1      15.627  20.090  64.154  1.00  0.00     0.044 C 
ENDROOT
BRANCH  11  16
HETATM   16  O3  UNL     1      13.781  21.943  60.537  1.00  0.00    -0.314 OA
BRANCH  16  17
HETATM   17  C18 UNL     1      14.777  22.230  59.678  1.00  0.00     0.259 C 
HETATM   18  O4  UNL     1      14.906  21.530  58.646  1.00  0.00    -0.265 OA
BRANCH  17  19
HETATM   19  C19 UNL     1      15.698  23.381  59.990  1.00  0.00     0.111 C 
BRANCH  19  20
HETATM   20  C20 UNL     1      16.989  23.044  59.281  1.00  0.00     0.010 C 
BRANCH  20  21
HETATM   21  C21 UNL     1      18.119  23.958  59.586  1.00  0.00     0.000 C 
BRANCH  21  22
HETATM   22  C22 UNL     1      17.974  24.495  60.990  1.00  0.00     0.000 C 
BRANCH  22  23
HETATM   23  C23 UNL     1      18.418  25.949  61.049  1.00  0.00     0.001 C 
BRANCH  23  24
HETATM   24  C24 UNL     1      19.182  26.204  62.310  1.00  0.00     0.010 C 
BRANCH  24  25
HETATM   25  C25 UNL     1      18.397  26.904  63.353  1.00  0.00     0.113 C 
BRANCH  25  26
HETATM   26  C26 UNL     1      17.975  26.065  64.484  1.00  0.00     0.172 C 
HETATM   27  O5  UNL     1      16.909  26.320  65.087  1.00  0.00    -0.648 OA
HETATM   28  O6  UNL     1      18.739  25.001  64.893  1.00  0.00    -0.648 OA
ENDBRANCH  25  26
ENDBRANCH  24  25
ENDBRANCH  23  24
ENDBRANCH  22  23
ENDBRANCH  21  22
ENDBRANCH  20  21
ENDBRANCH  19  20
ENDBRANCH  17  19
ENDBRANCH  16  17
ENDBRANCH  11  16
BRANCH   1  29
HETATM   29  C5  UNL     1      12.438  18.799  63.156  1.00  0.00    -0.067 C 
HETATM   30  C6  UNL     1      12.047  17.801  64.208  1.00  0.00     0.044 C 
BRANCH  29  31
HETATM   31  C4  UNL     1      11.776  18.331  61.930  1.00  0.00     0.137 C 
BRANCH  31  32
HETATM   32  C3  UNL     1      10.289  18.150  62.170  1.00  0.00     0.225 C 
HETATM   33  N1  UNL     1       9.700  16.890  61.796  1.00  0.00    -0.341 N 
HETATM   34  C2  UNL     1       8.703  16.834  60.981  1.00  0.00     0.059 C 
ATOM     35  H1  UNL     1      10.080  16.025  62.182  1.00  0.00     0.167 HD
HETATM   36  C1  UNL     1       8.133  15.518  60.625  1.00  0.00     0.055 C 
HETATM   37  O1  UNL     1       9.612  19.071  62.676  1.00  0.00    -0.273 OA
ENDBRANCH  31  32
ENDBRANCH  29  31
ENDBRANCH   1  29
BRANCH   9  38
HETATM   38  O2  UNL     1      16.408  23.423  65.385  1.00  0.00    -0.376 OA
ATOM     39  H2  UNL     1      16.900  22.688  65.038  1.00  0.00     0.211 HD
ENDBRANCH   9  38
BRANCH   9  40
HETATM   40  C15 UNL     1      14.633  24.108  66.625  1.00  0.00     0.422 C 
HETATM   41  F1  UNL     1      13.922  25.166  66.191  1.00  0.00    -0.167 F 
HETATM   42  F2  UNL     1      13.823  23.470  67.580  1.00  0.00    -0.167 F 
HETATM   43  F3  UNL     1      15.732  24.546  67.340  1.00  0.00    -0.167 F 
ENDBRANCH   9  40
TORSDOF 15
ENDMDL
MODEL 3
REMARK VINA RESULT: -6.981342675      1.158      1.690
REMARK  15 active torsions:
REMARK  status: ('A' for Active; 'I' for Inactive)
REMARK       I    between atoms: N1_3  and  C3_5 
REMARK    1  A    between atoms: C3_5  and  C4_7 
REMARK    2  A    between atoms: C4_7  and  C5_8 
REMARK    3  A    between atoms: C5_8  and  C7_10 
REMARK    4  A    between atoms: C14_18  and  O2_19 
REMARK    5  A    between atoms: C14_18  and  C15_21 
REMARK    6  A    between atoms: C17_26  and  O3_27 
REMARK    7  A    between atoms: O3_27  and  C18_28 
REMARK    8  A    between atoms: C18_28  and  C19_30 
REMARK    9  A    between atoms: C19_30  and  C20_31 
REMARK   10  A    between atoms: C20_31  and  C21_32 
REMARK   11  A    between atoms: C21_32  and  C22_33 
REMARK   12  A    between atoms: C22_33  and  C23_34 
REMARK   13  A    between atoms: C23_34  and  C24_35 
REMARK   14  A    between atoms: C24_35  and  C25_36 
REMARK   15  A    between atoms: C25_36  and  C26_37 
ROOT
HETATM    1  C7  UNL     1      12.972  19.914  63.537  1.00  0.00    -0.028 C 
HETATM    2  C8  UNL     1      14.046  20.350  64.380  1.00  0.00    -0.043 C 
HETATM    3  C9  UNL     1      13.572  21.325  65.190  1.00  0.00    -0.052 C 
HETATM    4  C10 UNL     1      12.105  21.609  64.913  1.00  0.00     0.041 C 
HETATM    5  C11 UNL     1      11.859  21.837  63.376  1.00  0.00     0.033 C 
HETATM    6  C12 UNL     1      12.920  21.253  62.711  1.00  0.00     0.063 C 
HETATM    7  S1  UNL     1      14.246  22.448  63.012  1.00  0.00    -0.148 SA
HETATM    8  C13 UNL     1      14.241  23.554  64.327  1.00  0.00     0.126 C 
HETATM    9  C14 UNL     1      15.041  23.160  65.587  1.00  0.00     0.182 C 
HETATM   10  C16 UNL     1      14.671  21.747  65.979  1.00  0.00     0.028 C 
HETATM   11  C17 UNL     1      13.552  20.800  61.539  1.00  0.00     0.155 C 
HETATM   12  C27 UNL     1      14.854  20.107  61.742  1.00  0.00     0.039 C 
HETATM   13  C28 UNL     1      15.837  19.988  62.756  1.00  0.00    -0.012 C 
HETATM   14  C29 UNL     1      17.067  20.826  62.530  1.00  0.00     0.010 C 
HETATM   15  C30 UNL     1      15.423  20.070  64.291  1.00  0.00     0.044 C 
ENDROOT
BRANCH  11  16
HETATM   16  O3  UNL     1      13.702  21.919  60.610  1.00  0.00    -0.314 OA
BRANCH  16  17
HETATM   17  C18 UNL     1      14.740  22.144  59.782  1.00  0.00     0.259 C 
HETATM   18  O4  UNL     1      14.881  21.409  58.776  1.00  0.00    -0.265 OA
BRANCH  17  19
HETATM   19  C19 UNL     1      15.692  23.268  60.099  1.00  0.00     0.111 C 
BRANCH  19  20
HETATM   20  C20 UNL     1      16.937  22.954  59.303  1.00  0.00     0.010 C 
BRANCH  20  21
HETATM   21  C21 UNL     1      17.677  24.146  58.818  1.00  0.00     0.000 C 
BRANCH  21  22
HETATM   22  C22 UNL     1      16.944  25.402  59.226  1.00  0.00     0.000 C 
BRANCH  22  23
HETATM   23  C23 UNL     1      17.862  26.314  60.025  1.00  0.00     0.001 C 
BRANCH  23  24
HETATM   24  C24 UNL     1      18.913  25.506  60.720  1.00  0.00     0.010 C 
BRANCH  24  25
HETATM   25  C25 UNL     1      18.654  25.305  62.165  1.00  0.00     0.113 C 
BRANCH  25  26
HETATM   26  C26 UNL     1      19.086  24.007  62.701  1.00  0.00     0.172 C 
HETATM   27  O5  UNL     1      18.794  23.687  63.874  1.00  0.00    -0.648 OA
HETATM   28  O6  UNL     1      19.813  23.135  61.929  1.00  0.00    -0.648 OA
ENDBRANCH  25  26
ENDBRANCH  24  25
ENDBRANCH  23  24
ENDBRANCH  22  23
ENDBRANCH  21  22
ENDBRANCH  20  21
ENDBRANCH  19  20
ENDBRANCH  17  19
ENDBRANCH  16  17
ENDBRANCH  11  16
BRANCH   1  29
HETATM   29  C5  UNL     1      12.163  18.947  63.320  1.00  0.00    -0.067 C 
HETATM   30  C6  UNL     1      12.445  17.537  63.757  1.00  0.00     0.044 C 
BRANCH  29  31
HETATM   31  C4  UNL     1      10.847  18.881  62.668  1.00  0.00     0.137 C 
BRANCH  31  32
HETATM   32  C3  UNL     1       9.790  18.428  63.658  1.00  0.00     0.225 C 
HETATM   33  N1  UNL     1       9.653  19.180  64.878  1.00  0.00    -0.341 N 
HETATM   34  C2  UNL     1       9.749  18.609  66.030  1.00  0.00     0.059 C 
ATOM     35  H1  UNL     1       9.477  20.184  64.831  1.00  0.00     0.167 HD
HETATM   36  C1  UNL     1       9.602  19.422  67.255  1.00  0.00     0.055 C 
HETATM   37  O1  UNL     1       9.072  17.435  63.409  1.00  0.00    -0.273 OA
ENDBRANCH  31  32
ENDBRANCH  29  31
ENDBRANCH   1  29
BRANCH   9  38
HETATM   38  O2  UNL     1      16.406  23.385  65.419  1.00  0.00    -0.376 OA
ATOM     39  H2  UNL     1      16.927  22.747  65.892  1.00  0.00     0.211 HD
ENDBRANCH   9  38
BRANCH   9  40
HETATM   40  C15 UNL     1      14.674  24.217  66.631  1.00  0.00     0.422 C 
HETATM   41  F1  UNL     1      13.877  23.797  67.631  1.00  0.00    -0.167 F 
HETATM   42  F2  UNL     1      15.836  24.709  67.249  1.00  0.00    -0.167 F 
HETATM   43  F3  UNL     1      14.112  25.323  66.020  1.00  0.00    -0.167 F 
ENDBRANCH   9  40
TORSDOF 15
ENDMDL
MODEL 4
REMARK VINA RESULT: -6.881956314      1.407      2.033
REMARK  15 active torsions:
REMARK  status: ('A' for Active; 'I' for Inactive)
REMARK       I    between atoms: N1_3  and  C3_5 
REMARK    1  A    between atoms: C3_5  and  C4_7 
REMARK    2  A    between atoms: C4_7  and  C5_8 
REMARK    3  A    between atoms: C5_8  and  C7_10 
REMARK    4  A    between atoms: C14_18  and  O2_19 
REMARK    5  A    between atoms: C14_18  and  C15_21 
REMARK    6  A    between atoms: C17_26  and  O3_27 
REMARK    7  A    between atoms: O3_27  and  C18_28 
REMARK    8  A    between atoms: C18_28  and  C19_30 
REMARK    9  A    between atoms: C19_30  and  C20_31 
REMARK   10  A    between atoms: C20_31  and  C21_32 
REMARK   11  A    between atoms: C21_32  and  C22_33 
REMARK   12  A    between atoms: C22_33  and  C23_34 
REMARK   13  A    between atoms: C23_34  and  C24_35 
REMARK   14  A    between atoms: C24_35  and  C25_36 
REMARK   15  A    between atoms: C25_36  and  C26_37 
ROOT
HETATM    1  C7  UNL     1      12.929  19.928  63.465  1.00  0.00    -0.028 C 
HETATM    2  C8  UNL     1      13.998  20.332  64.330  1.00  0.00    -0.043 C 
HETATM    3  C9  UNL     1      13.528  21.302  65.148  1.00  0.00    -0.052 C 
HETATM    4  C10 UNL     1      12.070  21.616  64.854  1.00  0.00     0.041 C 
HETATM    5  C11 UNL     1      11.851  21.872  63.318  1.00  0.00     0.033 C 
HETATM    6  C12 UNL     1      12.912  21.281  62.660  1.00  0.00     0.063 C 
HETATM    7  S1  UNL     1      14.253  22.448  62.999  1.00  0.00    -0.148 SA
HETATM    8  C13 UNL     1      14.247  23.533  64.331  1.00  0.00     0.126 C 
HETATM    9  C14 UNL     1      15.022  23.106  65.596  1.00  0.00     0.182 C 
HETATM   10  C16 UNL     1      14.622  21.693  65.960  1.00  0.00     0.028 C 
HETATM   11  C17 UNL     1      13.554  20.836  61.490  1.00  0.00     0.155 C 
HETATM   12  C27 UNL     1      14.841  20.117  61.700  1.00  0.00     0.039 C 
HETATM   13  C28 UNL     1      15.806  19.966  62.727  1.00  0.00    -0.012 C 
HETATM   14  C29 UNL     1      17.054  20.786  62.532  1.00  0.00     0.010 C 
HETATM   15  C30 UNL     1      15.371  20.030  64.256  1.00  0.00     0.044 C 
ENDROOT
BRANCH  11  16
HETATM   16  O3  UNL     1      13.736  21.966  60.581  1.00  0.00    -0.314 OA
BRANCH  16  17
HETATM   17  C18 UNL     1      14.762  22.156  59.729  1.00  0.00     0.259 C 
HETATM   18  O4  UNL     1      14.898  21.370  58.762  1.00  0.00    -0.265 OA
BRANCH  17  19
HETATM   19  C19 UNL     1      15.706  23.305  59.972  1.00  0.00     0.111 C 
BRANCH  19  20
HETATM   20  C20 UNL     1      17.047  22.812  59.482  1.00  0.00     0.010 C 
BRANCH  20  21
HETATM   21  C21 UNL     1      17.942  23.875  58.956  1.00  0.00     0.000 C 
BRANCH  21  22
HETATM   22  C22 UNL     1      18.822  24.394  60.067  1.00  0.00     0.000 C 
BRANCH  22  23
HETATM   23  C23 UNL     1      19.105  23.292  61.077  1.00  0.00     0.001 C 
BRANCH  23  24
HETATM   24  C24 UNL     1      19.144  23.858  62.461  1.00  0.00     0.010 C 
BRANCH  24  25
HETATM   25  C25 UNL     1      18.801  25.298  62.527  1.00  0.00     0.113 C 
BRANCH  25  26
HETATM   26  C26 UNL     1      18.417  25.788  63.859  1.00  0.00     0.172 C 
HETATM   27  O5  UNL     1      18.638  25.086  64.870  1.00  0.00    -0.648 OA
HETATM   28  O6  UNL     1      17.814  27.011  64.010  1.00  0.00    -0.648 OA
ENDBRANCH  25  26
ENDBRANCH  24  25
ENDBRANCH  23  24
ENDBRANCH  22  23
ENDBRANCH  21  22
ENDBRANCH  20  21
ENDBRANCH  19  20
ENDBRANCH  17  19
ENDBRANCH  16  17
ENDBRANCH  11  16
BRANCH   1  29
HETATM   29  C5  UNL     1      12.107  18.978  63.220  1.00  0.00    -0.067 C 
HETATM   30  C6  UNL     1      12.384  17.548  63.589  1.00  0.00     0.044 C 
BRANCH  29  31
HETATM   31  C4  UNL     1      10.779  18.952  62.590  1.00  0.00     0.137 C 
BRANCH  31  32
HETATM   32  C3  UNL     1       9.734  18.481  63.584  1.00  0.00     0.225 C 
HETATM   33  N1  UNL     1       9.602  19.217  64.814  1.00  0.00    -0.341 N 
HETATM   34  C2  UNL     1       9.712  18.631  65.958  1.00  0.00     0.059 C 
ATOM     35  H1  UNL     1       9.418  20.220  64.781  1.00  0.00     0.167 HD
HETATM   36  C1  UNL     1       9.570  19.428  67.194  1.00  0.00     0.055 C 
HETATM   37  O1  UNL     1       9.021  17.486  63.328  1.00  0.00    -0.273 OA
ENDBRANCH  31  32
ENDBRANCH  29  31
ENDBRANCH   1  29
BRANCH   9  38
HETATM   38  O2  UNL     1      16.392  23.310  65.453  1.00  0.00    -0.376 OA
ATOM     39  H2  UNL     1      16.890  22.808  66.087  1.00  0.00     0.211 HD
ENDBRANCH   9  38
BRANCH   9  40
HETATM   40  C15 UNL     1      14.656  24.151  66.652  1.00  0.00     0.422 C 
HETATM   41  F1  UNL     1      13.833  23.731  67.630  1.00  0.00    -0.167 F 
HETATM   42  F2  UNL     1      15.816  24.609  67.300  1.00  0.00    -0.167 F 
HETATM   43  F3  UNL     1      14.128  25.279  66.051  1.00  0.00    -0.167 F 
ENDBRANCH   9  40
TORSDOF 15
ENDMDL
MODEL 5
REMARK VINA RESULT: -6.589008478      1.317      2.065
REMARK  15 active torsions:
REMARK  status: ('A' for Active; 'I' for Inactive)
REMARK       I    between atoms: N1_3  and  C3_5 
REMARK    1  A    between atoms: C3_5  and  C4_7 
REMARK    2  A    between atoms: C4_7  and  C5_8 
REMARK    3  A    between atoms: C5_8  and  C7_10 
REMARK    4  A    between atoms: C14_18  and  O2_19 
REMARK    5  A    between atoms: C14_18  and  C15_21 
REMARK    6  A    between atoms: C17_26  and  O3_27 
REMARK    7  A    between atoms: O3_27  and  C18_28 
REMARK    8  A    between atoms: C18_28  and  C19_30 
REMARK    9  A    between atoms: C19_30  and  C20_31 
REMARK   10  A    between atoms: C20_31  and  C21_32 
REMARK   11  A    between atoms: C21_32  and  C22_33 
REMARK   12  A    between atoms: C22_33  and  C23_34 
REMARK   13  A    between atoms: C23_34  and  C24_35 
REMARK   14  A    between atoms: C24_35  and  C25_36 
REMARK   15  A    between atoms: C25_36  and  C26_37 
ROOT
HETATM    1  C7  UNL     1      13.197  19.829  63.436  1.00  0.00    -0.028 C 
HETATM    2  C8  UNL     1      14.246  20.310  64.286  1.00  0.00    -0.043 C 
HETATM    3  C9  UNL     1      13.715  21.231  65.122  1.00  0.00    -0.052 C 
HETATM    4  C10 UNL     1      12.232  21.429  64.858  1.00  0.00     0.041 C 
HETATM    5  C11 UNL     1      11.964  21.681  63.329  1.00  0.00     0.033 C 
HETATM    6  C12 UNL     1      13.056  21.183  62.645  1.00  0.00     0.063 C 
HETATM    7  S1  UNL     1      14.305  22.452  62.973  1.00  0.00    -0.148 SA
HETATM    8  C13 UNL     1      14.237  23.521  64.316  1.00  0.00     0.126 C 
HETATM    9  C14 UNL     1      15.067  23.145  65.562  1.00  0.00     0.182 C 
HETATM   10  C16 UNL     1      14.789  21.702  65.919  1.00  0.00     0.028 C 
HETATM   11  C17 UNL     1      13.710  20.802  61.459  1.00  0.00     0.155 C 
HETATM   12  C27 UNL     1      15.054  20.187  61.639  1.00  0.00     0.039 C 
HETATM   13  C28 UNL     1      16.047  20.105  62.647  1.00  0.00    -0.012 C 
HETATM   14  C29 UNL     1      17.221  21.025  62.438  1.00  0.00     0.010 C 
HETATM   15  C30 UNL     1      15.637  20.120  64.184  1.00  0.00     0.044 C 
ENDROOT
BRANCH  11  16
HETATM   16  O3  UNL     1      13.783  21.952  60.559  1.00  0.00    -0.314 OA
BRANCH  16  17
HETATM   17  C18 UNL     1      14.729  22.187  59.631  1.00  0.00     0.259 C 
HETATM   18  O4  UNL     1      14.762  21.467  58.605  1.00  0.00    -0.265 OA
BRANCH  17  19
HETATM   19  C19 UNL     1      15.712  23.305  59.861  1.00  0.00     0.111 C 
BRANCH  19  20
HETATM   20  C20 UNL     1      16.954  22.887  59.110  1.00  0.00     0.010 C 
BRANCH  20  21
HETATM   21  C21 UNL     1      18.230  23.311  59.741  1.00  0.00     0.000 C 
BRANCH  21  22
HETATM   22  C22 UNL     1      19.315  23.391  58.693  1.00  0.00     0.000 C 
BRANCH  22  23
HETATM   23  C23 UNL     1      18.784  24.056  57.432  1.00  0.00     0.001 C 
BRANCH  23  24
HETATM   24  C24 UNL     1      19.050  25.528  57.475  1.00  0.00     0.010 C 
BRANCH  24  25
HETATM   25  C25 UNL     1      17.847  26.360  57.236  1.00  0.00     0.113 C 
BRANCH  25  26
HETATM   26  C26 UNL     1      16.996  26.578  58.414  1.00  0.00     0.172 C 
HETATM   27  O5  UNL     1      15.752  26.609  58.288  1.00  0.00    -0.648 OA
HETATM   28  O6  UNL     1      17.549  26.753  59.658  1.00  0.00    -0.648 OA
ENDBRANCH  25  26
ENDBRANCH  24  25
ENDBRANCH  23  24
ENDBRANCH  22  23
ENDBRANCH  21  22
ENDBRANCH  20  21
ENDBRANCH  19  20
ENDBRANCH  17  19
ENDBRANCH  16  17
ENDBRANCH  11  16
BRANCH   1  29
HETATM   29  C5  UNL     1      12.450  18.818  63.196  1.00  0.00    -0.067 C 
HETATM   30  C6  UNL     1      12.023  17.850  64.264  1.00  0.00     0.044 C 
BRANCH  29  31
HETATM   31  C4  UNL     1      11.821  18.319  61.965  1.00  0.00     0.137 C 
BRANCH  31  32
HETATM   32  C3  UNL     1      10.328  18.141  62.171  1.00  0.00     0.225 C 
HETATM   33  N1  UNL     1       9.744  16.888  61.768  1.00  0.00    -0.341 N 
HETATM   34  C2  UNL     1       8.764  16.846  60.931  1.00  0.00     0.059 C 
ATOM     35  H1  UNL     1      10.112  16.017  62.152  1.00  0.00     0.167 HD
HETATM   36  C1  UNL     1       8.197  15.537  60.547  1.00  0.00     0.055 C 
HETATM   37  O1  UNL     1       9.644  19.059  62.673  1.00  0.00    -0.273 OA
ENDBRANCH  31  32
ENDBRANCH  29  31
ENDBRANCH   1  29
BRANCH   9  38
HETATM   38  O2  UNL     1      16.414  23.461  65.396  1.00  0.00    -0.376 OA
ATOM     39  H2  UNL     1      16.540  24.391  65.251  1.00  0.00     0.211 HD
ENDBRANCH   9  38
BRANCH   9  40
HETATM   40  C15 UNL     1      14.639  24.149  66.635  1.00  0.00     0.422 C 
HETATM   41  F1  UNL     1      13.937  25.210  66.195  1.00  0.00    -0.167 F 
HETATM   42  F2  UNL     1      13.820  23.518  67.587  1.00  0.00    -0.167 F 
HETATM   43  F3  UNL     1      15.736  24.582  67.357  1.00  0.00    -0.167 F 
ENDBRANCH   9  40
TORSDOF 15
ENDMDL
