MODEL 1
REMARK VINA RESULT: -10.052828616      0.000      0.000
REMARK  17 active torsions:
REMARK  status: ('A' for Active; 'I' for Inactive)
REMARK    1  A    between atoms: C2_2  and  C3_4 
REMARK    2  A    between atoms: C3_4  and  N1_5 
REMARK    3  A    between atoms: C3_4  and  C32_48 
REMARK       I    between atoms: N1_5  and  C4_7 
REMARK    4  A    between atoms: C4_7  and  C5_9 
REMARK    5  A    between atoms: C5_9  and  C6_10 
REMARK    6  A    between atoms: C5_9  and  N2_17 
REMARK    7  A    between atoms: C6_10  and  C7_11 
REMARK       I    between atoms: N2_17  and  C13_19 
REMARK       I    between atoms: C13_19  and  N3_21 
REMARK       I    between atoms: N3_21  and  C14_23 
REMARK    8  A    between atoms: C14_23  and  C15_25 
REMARK       I    between atoms: C15_25  and  N4_27 
REMARK    9  A    between atoms: N4_27  and  C16_29 
REMARK   10  A    between atoms: C16_29  and  C17_30 
REMARK   11  A    between atoms: C17_30  and  N5_33 
REMARK   12  A    between atoms: N5_33  and  C21_35 
REMARK   13  A    between atoms: C21_35  and  O6_36 
REMARK   14  A    between atoms: C21_35  and  C22_38 
REMARK   15  A    between atoms: C22_38  and  C24_40 
REMARK   16  A    between atoms: C24_40  and  C25_41 
REMARK   17  A    between atoms: C25_41  and  C26_42 
ROOT
HETATM    1  N2  UNL     1      14.018  21.139  64.518  1.00  0.00    -0.330 N 
ATOM      2  H2  UNL     1      14.284  20.169  64.688  1.00  0.00     0.165 HD
HETATM    3  C13 UNL     1      12.718  21.593  64.886  1.00  0.00     0.323 C 
HETATM    4  O3  UNL     1      12.421  22.742  64.464  1.00  0.00    -0.247 OA
HETATM    5  N3  UNL     1      11.834  20.856  65.671  1.00  0.00    -0.271 N 
ATOM      6  H3  UNL     1      11.976  20.287  66.505  1.00  0.00     0.174 HD
HETATM    7  C14 UNL     1      10.370  21.243  64.728  1.00  0.00     0.317 C 
HETATM    8  O4  UNL     1      10.680  21.692  63.742  1.00  0.00    -0.262 OA
ENDROOT
BRANCH   7   9
HETATM    9  C15 UNL     1       9.281  20.842  65.519  1.00  0.00     0.309 C 
HETATM   10  O5  UNL     1       8.895  21.505  66.532  1.00  0.00    -0.262 OA
HETATM   11  N4  UNL     1       8.538  19.661  65.255  1.00  0.00    -0.351 N 
ATOM     12  H4  UNL     1       8.809  19.025  64.505  1.00  0.00     0.162 HD
BRANCH  11  13
HETATM   13  C16 UNL     1       7.371  19.387  66.092  1.00  0.00     0.153 C 
BRANCH  13  14
HETATM   14  C17 UNL     1       7.160  17.927  66.276  1.00  0.00     0.042 C 
HETATM   15  C18 UNL     1       7.113  17.675  67.785  1.00  0.00     0.040 C 
HETATM   16  C19 UNL     1       8.315  17.111  65.691  1.00  0.00     0.040 C 
BRANCH  14  17
HETATM   17  N5  UNL     1       5.884  17.516  65.708  1.00  0.00    -0.359 N 
HETATM   18  C20 UNL     1       4.695  17.870  66.444  1.00  0.00     0.152 C 
BRANCH  17  19
HETATM   19  C21 UNL     1       5.820  16.847  64.460  1.00  0.00     0.117 C 
BRANCH  19  20
HETATM   20  O6  UNL     1       5.172  15.638  64.704  1.00  0.00    -0.349 OA
ATOM     21  H6  UNL     1       4.957  15.279  63.851  1.00  0.00     0.219 HD
ENDBRANCH  19  20
BRANCH  19  22
HETATM   22  C22 UNL     1       6.165  16.948  63.116  1.00  0.00     0.056 C 
HETATM   23  C23 UNL     1       4.818  16.839  62.274  1.00  0.00     0.018 C 
BRANCH  22  24
HETATM   24  C24 UNL     1       6.948  17.924  62.403  1.00  0.00     0.013 C 
BRANCH  24  25
HETATM   25  C25 UNL     1       7.220  17.934  60.956  1.00  0.00     0.005 C 
BRANCH  25  26
HETATM   26  C26 UNL     1       8.756  17.902  60.819  1.00  0.00    -0.014 C 
HETATM   27  C27 UNL     1       9.242  16.459  60.724  1.00  0.00     0.004 C 
HETATM   28  C28 UNL     1      10.724  16.569  60.325  1.00  0.00     0.000 C 
HETATM   29  C29 UNL     1      11.477  17.331  61.393  1.00  0.00     0.000 C 
HETATM   30  C30 UNL     1      10.589  17.793  62.525  1.00  0.00     0.000 C 
HETATM   31  C31 UNL     1       9.343  18.517  62.046  1.00  0.00     0.004 C 
ENDBRANCH  25  26
ENDBRANCH  24  25
ENDBRANCH  22  24
ENDBRANCH  19  22
ENDBRANCH  17  19
ENDBRANCH  14  17
ENDBRANCH  13  14
ENDBRANCH  11  13
ENDBRANCH   7   9
BRANCH   1  32
HETATM   32  C5  UNL     1      14.967  22.051  63.902  1.00  0.00     0.178 C 
BRANCH  32  33
HETATM   33  C4  UNL     1      15.616  21.664  62.680  1.00  0.00     0.241 C 
HETATM   34  N1  UNL     1      16.431  22.634  61.999  1.00  0.00    -0.348 N 
ATOM     35  H1  UNL     1      16.511  23.557  62.424  1.00  0.00     0.163 HD
HETATM   36  O2  UNL     1      15.462  20.505  62.219  1.00  0.00    -0.271 OA
BRANCH  34  37
HETATM   37  C3  UNL     1      17.157  22.408  60.743  1.00  0.00     0.157 C 
BRANCH  37  38
HETATM   38  C2  UNL     1      16.657  23.549  59.879  1.00  0.00     0.145 C 
HETATM   39  C1  UNL     1      17.636  24.475  59.293  1.00  0.00     0.093 C 
HETATM   40  O1  UNL     1      15.484  23.677  59.680  1.00  0.00    -0.296 OA
ENDBRANCH  37  38
BRANCH  37  41
HETATM   41  C32 UNL     1      18.617  22.517  61.007  1.00  0.00     0.007 C 
HETATM   42  C33 UNL     1      19.029  23.096  62.313  1.00  0.00     0.012 C 
HETATM   43  C34 UNL     1      19.550  21.494  60.513  1.00  0.00     0.012 C 
ENDBRANCH  37  41
ENDBRANCH  34  37
ENDBRANCH  32  33
BRANCH  32  44
HETATM   44  C6  UNL     1      15.889  22.498  65.049  1.00  0.00     0.039 C 
BRANCH  44  45
HETATM   45  C7  UNL     1      15.540  23.727  65.770  1.00  0.00    -0.012 C 
HETATM   46  C8  UNL     1      14.967  23.773  67.119  1.00  0.00     0.005 C 
HETATM   47  C9  UNL     1      15.982  24.212  68.167  1.00  0.00     0.000 C 
HETATM   48  C10 UNL     1      17.390  24.341  67.646  1.00  0.00     0.000 C 
HETATM   49  C11 UNL     1      17.476  25.210  66.432  1.00  0.00     0.000 C 
HETATM   50  C12 UNL     1      16.386  24.939  65.459  1.00  0.00     0.005 C 
ENDBRANCH  44  45
ENDBRANCH  32  44
ENDBRANCH   1  32
TORSDOF 17
ENDMDL
MODEL 2
REMARK VINA RESULT: -9.761065151      0.974      1.133
REMARK  17 active torsions:
REMARK  status: ('A' for Active; 'I' for Inactive)
REMARK    1  A    between atoms: C2_2  and  C3_4 
REMARK    2  A    between atoms: C3_4  and  N1_5 
REMARK    3  A    between atoms: C3_4  and  C32_48 
REMARK       I    between atoms: N1_5  and  C4_7 
REMARK    4  A    between atoms: C4_7  and  C5_9 
REMARK    5  A    between atoms: C5_9  and  C6_10 
REMARK    6  A    between atoms: C5_9  and  N2_17 
REMARK    7  A    between atoms: C6_10  and  C7_11 
REMARK       I    between atoms: N2_17  and  C13_19 
REMARK       I    between atoms: C13_19  and  N3_21 
REMARK       I    between atoms: N3_21  and  C14_23 
REMARK    8  A    between atoms: C14_23  and  C15_25 
REMARK       I    between atoms: C15_25  and  N4_27 
REMARK    9  A    between atoms: N4_27  and  C16_29 
REMARK   10  A    between atoms: C16_29  and  C17_30 
REMARK   11  A    between atoms: C17_30  and  N5_33 
REMARK   12  A    between atoms: N5_33  and  C21_35 
REMARK   13  A    between atoms: C21_35  and  O6_36 
REMARK   14  A    between atoms: C21_35  and  C22_38 
REMARK   15  A    between atoms: C22_38  and  C24_40 
REMARK   16  A    between atoms: C24_40  and  C25_41 
REMARK   17  A    between atoms: C25_41  and  C26_42 
ROOT
HETATM    1  N2  UNL     1      13.492  20.756  65.123  1.00  0.00    -0.330 N 
ATOM      2  H2  UNL     1      13.714  19.824  65.473  1.00  0.00     0.165 HD
HETATM    3  C13 UNL     1      12.191  21.301  65.331  1.00  0.00     0.323 C 
HETATM    4  O3  UNL     1      11.958  22.365  64.699  1.00  0.00    -0.247 OA
HETATM    5  N3  UNL     1      11.241  20.735  66.179  1.00  0.00    -0.271 N 
ATOM      6  H3  UNL     1      11.319  20.317  67.105  1.00  0.00     0.174 HD
HETATM    7  C14 UNL     1       9.844  20.988  65.099  1.00  0.00     0.317 C 
HETATM    8  O4  UNL     1      10.221  21.250  64.070  1.00  0.00    -0.262 OA
ENDROOT
BRANCH   7   9
HETATM    9  C15 UNL     1       8.701  20.760  65.882  1.00  0.00     0.309 C 
HETATM   10  O5  UNL     1       8.400  21.491  66.877  1.00  0.00    -0.262 OA
HETATM   11  N4  UNL     1       7.803  19.689  65.631  1.00  0.00    -0.351 N 
ATOM     12  H4  UNL     1       7.991  19.006  64.897  1.00  0.00     0.162 HD
BRANCH  11  13
HETATM   13  C16 UNL     1       6.600  19.597  66.457  1.00  0.00     0.153 C 
BRANCH  13  14
HETATM   14  C17 UNL     1       6.229  18.184  66.730  1.00  0.00     0.042 C 
HETATM   15  C18 UNL     1       5.397  18.187  68.015  1.00  0.00     0.040 C 
HETATM   16  C19 UNL     1       7.464  17.311  66.964  1.00  0.00     0.040 C 
BRANCH  14  17
HETATM   17  N5  UNL     1       5.404  17.652  65.657  1.00  0.00    -0.359 N 
HETATM   18  C20 UNL     1       4.011  18.030  65.653  1.00  0.00     0.152 C 
BRANCH  17  19
HETATM   19  C21 UNL     1       5.963  16.844  64.635  1.00  0.00     0.117 C 
BRANCH  19  20
HETATM   20  O6  UNL     1       5.329  15.607  64.731  1.00  0.00    -0.349 OA
ATOM     21  H6  UNL     1       6.007  14.982  64.961  1.00  0.00     0.219 HD
ENDBRANCH  19  20
BRANCH  19  22
HETATM   22  C22 UNL     1       6.893  16.830  63.601  1.00  0.00     0.056 C 
HETATM   23  C23 UNL     1       7.813  15.548  63.811  1.00  0.00     0.018 C 
BRANCH  22  24
HETATM   24  C24 UNL     1       6.735  16.919  62.173  1.00  0.00     0.013 C 
BRANCH  24  25
HETATM   25  C25 UNL     1       6.947  18.117  61.344  1.00  0.00     0.005 C 
BRANCH  25  26
HETATM   26  C26 UNL     1       8.443  18.107  60.970  1.00  0.00    -0.014 C 
HETATM   27  C27 UNL     1       8.885  16.688  60.625  1.00  0.00     0.004 C 
HETATM   28  C28 UNL     1      10.290  16.850  60.019  1.00  0.00     0.000 C 
HETATM   29  C29 UNL     1      11.211  17.476  61.043  1.00  0.00     0.000 C 
HETATM   30  C30 UNL     1      10.514  17.793  62.346  1.00  0.00     0.000 C 
HETATM   31  C31 UNL     1       9.221  18.567  62.158  1.00  0.00     0.004 C 
ENDBRANCH  25  26
ENDBRANCH  24  25
ENDBRANCH  22  24
ENDBRANCH  19  22
ENDBRANCH  17  19
ENDBRANCH  14  17
ENDBRANCH  13  14
ENDBRANCH  11  13
ENDBRANCH   7   9
BRANCH   1  32
HETATM   32  C5  UNL     1      14.503  21.522  64.414  1.00  0.00     0.178 C 
BRANCH  32  33
HETATM   33  C4  UNL     1      15.133  20.946  63.258  1.00  0.00     0.241 C 
HETATM   34  N1  UNL     1      16.136  21.714  62.570  1.00  0.00    -0.348 N 
ATOM     35  H1  UNL     1      16.355  22.636  62.945  1.00  0.00     0.163 HD
HETATM   36  O2  UNL     1      14.803  19.802  62.858  1.00  0.00    -0.271 OA
BRANCH  34  37
HETATM   37  C3  UNL     1      16.872  21.281  61.375  1.00  0.00     0.157 C 
BRANCH  37  38
HETATM   38  C2  UNL     1      15.934  21.699  60.260  1.00  0.00     0.145 C 
HETATM   39  C1  UNL     1      15.726  23.132  60.010  1.00  0.00     0.093 C 
HETATM   40  O1  UNL     1      15.387  20.867  59.597  1.00  0.00    -0.296 OA
ENDBRANCH  37  38
BRANCH  37  41
HETATM   41  C32 UNL     1      18.163  22.018  61.314  1.00  0.00     0.007 C 
HETATM   42  C33 UNL     1      18.540  22.827  62.504  1.00  0.00     0.012 C 
HETATM   43  C34 UNL     1      19.324  21.446  60.618  1.00  0.00     0.012 C 
ENDBRANCH  37  41
ENDBRANCH  34  37
ENDBRANCH  32  33
BRANCH  32  44
HETATM   44  C6  UNL     1      15.446  22.044  65.512  1.00  0.00     0.039 C 
BRANCH  44  45
HETATM   45  C7  UNL     1      15.102  23.312  66.166  1.00  0.00    -0.012 C 
HETATM   46  C8  UNL     1      14.858  23.475  67.603  1.00  0.00     0.005 C 
HETATM   47  C9  UNL     1      16.015  24.164  68.313  1.00  0.00     0.000 C 
HETATM   48  C10 UNL     1      17.229  24.382  67.449  1.00  0.00     0.000 C 
HETATM   49  C11 UNL     1      16.904  25.082  66.167  1.00  0.00     0.000 C 
HETATM   50  C12 UNL     1      15.668  24.559  65.530  1.00  0.00     0.005 C 
ENDBRANCH  44  45
ENDBRANCH  32  44
ENDBRANCH   1  32
TORSDOF 17
ENDMDL
MODEL 3
REMARK VINA RESULT: -9.716680344      1.916      4.018
REMARK  17 active torsions:
REMARK  status: ('A' for Active; 'I' for Inactive)
REMARK    1  A    between atoms: C2_2  and  C3_4 
REMARK    2  A    between atoms: C3_4  and  N1_5 
REMARK    3  A    between atoms: C3_4  and  C32_48 
REMARK       I    between atoms: N1_5  and  C4_7 
REMARK    4  A    between atoms: C4_7  and  C5_9 
REMARK    5  A    between atoms: C5_9  and  C6_10 
REMARK    6  A    between atoms: C5_9  and  N2_17 
REMARK    7  A    between atoms: C6_10  and  C7_11 
REMARK       I    between atoms: N2_17  and  C13_19 
REMARK       I    between atoms: C13_19  and  N3_21 
REMARK       I    between atoms: N3_21  and  C14_23 
REMARK    8  A    between atoms: C14_23  and  C15_25 
REMARK       I    between atoms: C15_25  and  N4_27 
REMARK    9  A    between atoms: N4_27  and  C16_29 
REMARK   10  A    between atoms: C16_29  and  C17_30 
REMARK   11  A    between atoms: C17_30  and  N5_33 
REMARK   12  A    between atoms: N5_33  and  C21_35 
REMARK   13  A    between atoms: C21_35  and  O6_36 
REMARK   14  A    between atoms: C21_35  and  C22_38 
REMARK   15  A    between atoms: C22_38  and  C24_40 
REMARK   16  A    between atoms: C24_40  and  C25_41 
REMARK   17  A    between atoms: C25_41  and  C26_42 
ROOT
HETATM    1  N2  UNL     1      14.832  20.695  64.027  1.00  0.00    -0.330 N 
ATOM      2  H2  UNL     1      15.367  19.887  64.346  1.00  0.00     0.165 HD
HETATM    3  C13 UNL     1      13.568  20.504  63.395  1.00  0.00     0.323 C 
HETATM    4  O3  UNL     1      13.080  21.539  62.868  1.00  0.00    -0.247 OA
HETATM    5  N3  UNL     1      12.892  19.287  63.369  1.00  0.00    -0.271 N 
ATOM      6  H3  UNL     1      12.752  18.570  64.081  1.00  0.00     0.174 HD
HETATM    7  C14 UNL     1      12.352  19.403  61.672  1.00  0.00     0.317 C 
HETATM    8  O4  UNL     1      12.927  20.226  61.163  1.00  0.00    -0.262 OA
ENDROOT
BRANCH   7   9
HETATM    9  C15 UNL     1      11.380  18.404  61.505  1.00  0.00     0.309 C 
HETATM   10  O5  UNL     1      11.655  17.166  61.589  1.00  0.00    -0.262 OA
HETATM   11  N4  UNL     1      10.021  18.699  61.218  1.00  0.00    -0.351 N 
ATOM     12  H4  UNL     1       9.712  19.659  61.065  1.00  0.00     0.162 HD
BRANCH  11  13
HETATM   13  C16 UNL     1       9.079  17.582  61.149  1.00  0.00     0.153 C 
BRANCH  13  14
HETATM   14  C17 UNL     1       8.048  17.668  62.216  1.00  0.00     0.042 C 
HETATM   15  C18 UNL     1       6.695  17.794  61.512  1.00  0.00     0.040 C 
HETATM   16  C19 UNL     1       8.246  18.906  63.094  1.00  0.00     0.040 C 
BRANCH  14  17
HETATM   17  N5  UNL     1       8.032  16.452  63.015  1.00  0.00    -0.359 N 
HETATM   18  C20 UNL     1       8.313  15.214  62.330  1.00  0.00     0.152 C 
BRANCH  17  19
HETATM   19  C21 UNL     1       7.805  16.499  64.414  1.00  0.00     0.117 C 
BRANCH  19  20
HETATM   20  O6  UNL     1       8.614  15.510  64.969  1.00  0.00    -0.349 OA
ATOM     21  H6  UNL     1       8.434  15.517  65.902  1.00  0.00     0.219 HD
ENDBRANCH  19  20
BRANCH  19  22
HETATM   22  C22 UNL     1       7.082  17.147  65.410  1.00  0.00     0.056 C 
HETATM   23  C23 UNL     1       5.538  16.927  65.091  1.00  0.00     0.018 C 
BRANCH  22  24
HETATM   24  C24 UNL     1       7.159  17.074  66.846  1.00  0.00     0.013 C 
BRANCH  24  25
HETATM   25  C25 UNL     1       8.166  17.726  67.699  1.00  0.00     0.005 C 
BRANCH  25  26
HETATM   26  C26 UNL     1       8.836  18.795  66.814  1.00  0.00    -0.014 C 
HETATM   27  C27 UNL     1      10.245  19.086  67.323  1.00  0.00     0.004 C 
HETATM   28  C28 UNL     1      10.891  19.945  66.222  1.00  0.00     0.000 C 
HETATM   29  C29 UNL     1      10.098  21.221  66.049  1.00  0.00     0.000 C 
HETATM   30  C30 UNL     1       8.895  21.297  66.961  1.00  0.00     0.000 C 
HETATM   31  C31 UNL     1       8.031  20.049  66.913  1.00  0.00     0.004 C 
ENDBRANCH  25  26
ENDBRANCH  24  25
ENDBRANCH  22  24
ENDBRANCH  19  22
ENDBRANCH  17  19
ENDBRANCH  14  17
ENDBRANCH  13  14
ENDBRANCH  11  13
ENDBRANCH   7   9
BRANCH   1  32
HETATM   32  C5  UNL     1      15.362  22.034  64.217  1.00  0.00     0.178 C 
BRANCH  32  33
HETATM   33  C4  UNL     1      16.438  22.486  63.378  1.00  0.00     0.241 C 
HETATM   34  N1  UNL     1      16.232  22.515  61.955  1.00  0.00    -0.348 N 
ATOM     35  H1  UNL     1      15.321  22.215  61.610  1.00  0.00     0.163 HD
HETATM   36  O2  UNL     1      17.534  22.837  63.884  1.00  0.00    -0.271 OA
BRANCH  34  37
HETATM   37  C3  UNL     1      17.222  22.942  60.958  1.00  0.00     0.157 C 
BRANCH  37  38
HETATM   38  C2  UNL     1      17.925  21.638  60.635  1.00  0.00     0.145 C 
HETATM   39  C1  UNL     1      19.393  21.594  60.691  1.00  0.00     0.093 C 
HETATM   40  O1  UNL     1      17.285  20.669  60.350  1.00  0.00    -0.296 OA
ENDBRANCH  37  38
BRANCH  37  41
HETATM   41  C32 UNL     1      16.505  23.488  59.774  1.00  0.00     0.007 C 
HETATM   42  C33 UNL     1      15.056  23.172  59.653  1.00  0.00     0.012 C 
HETATM   43  C34 UNL     1      16.852  24.806  59.225  1.00  0.00     0.012 C 
ENDBRANCH  37  41
ENDBRANCH  34  37
ENDBRANCH  32  33
BRANCH  32  44
HETATM   44  C6  UNL     1      15.586  22.159  65.734  1.00  0.00     0.039 C 
BRANCH  44  45
HETATM   45  C7  UNL     1      15.175  23.407  66.387  1.00  0.00    -0.012 C 
HETATM   46  C8  UNL     1      15.007  23.580  67.834  1.00  0.00     0.005 C 
HETATM   47  C9  UNL     1      16.142  24.379  68.459  1.00  0.00     0.000 C 
HETATM   48  C10 UNL     1      17.278  24.680  67.516  1.00  0.00     0.000 C 
HETATM   49  C11 UNL     1      16.816  25.323  66.247  1.00  0.00     0.000 C 
HETATM   50  C12 UNL     1      15.593  24.683  65.697  1.00  0.00     0.005 C 
ENDBRANCH  44  45
ENDBRANCH  32  44
ENDBRANCH   1  32
TORSDOF 17
ENDMDL
MODEL 4
REMARK VINA RESULT: -9.702488824      1.875      3.939
REMARK  17 active torsions:
REMARK  status: ('A' for Active; 'I' for Inactive)
REMARK    1  A    between atoms: C2_2  and  C3_4 
REMARK    2  A    between atoms: C3_4  and  N1_5 
REMARK    3  A    between atoms: C3_4  and  C32_48 
REMARK       I    between atoms: N1_5  and  C4_7 
REMARK    4  A    between atoms: C4_7  and  C5_9 
REMARK    5  A    between atoms: C5_9  and  C6_10 
REMARK    6  A    between atoms: C5_9  and  N2_17 
REMARK    7  A    between atoms: C6_10  and  C7_11 
REMARK       I    between atoms: N2_17  and  C13_19 
REMARK       I    between atoms: C13_19  and  N3_21 
REMARK       I    between atoms: N3_21  and  C14_23 
REMARK    8  A    between atoms: C14_23  and  C15_25 
REMARK       I    between atoms: C15_25  and  N4_27 
REMARK    9  A    between atoms: N4_27  and  C16_29 
REMARK   10  A    between atoms: C16_29  and  C17_30 
REMARK   11  A    between atoms: C17_30  and  N5_33 
REMARK   12  A    between atoms: N5_33  and  C21_35 
REMARK   13  A    between atoms: C21_35  and  O6_36 
REMARK   14  A    between atoms: C21_35  and  C22_38 
REMARK   15  A    between atoms: C22_38  and  C24_40 
REMARK   16  A    between atoms: C24_40  and  C25_41 
REMARK   17  A    between atoms: C25_41  and  C26_42 
ROOT
HETATM    1  N2  UNL     1      12.709  21.927  64.180  1.00  0.00    -0.330 N 
ATOM      2  H2  UNL     1      12.426  22.895  64.024  1.00  0.00     0.165 HD
HETATM    3  C13 UNL     1      11.743  20.965  64.597  1.00  0.00     0.323 C 
HETATM    4  O3  UNL     1      12.223  19.854  64.946  1.00  0.00    -0.247 OA
HETATM    5  N3  UNL     1      10.370  21.199  64.605  1.00  0.00    -0.271 N 
ATOM      6  H3  UNL     1       9.755  21.669  63.941  1.00  0.00     0.174 HD
HETATM    7  C14 UNL     1      10.048  20.401  66.168  1.00  0.00     0.317 C 
HETATM    8  O4  UNL     1      11.026  20.235  66.701  1.00  0.00    -0.262 OA
ENDROOT
BRANCH   7   9
HETATM    9  C15 UNL     1       8.654  20.249  66.246  1.00  0.00     0.309 C 
HETATM   10  O5  UNL     1       7.916  21.058  66.890  1.00  0.00    -0.262 OA
HETATM   11  N4  UNL     1       7.966  19.174  65.623  1.00  0.00    -0.351 N 
ATOM     12  H4  UNL     1       8.474  18.434  65.139  1.00  0.00     0.162 HD
BRANCH  11  13
HETATM   13  C16 UNL     1       6.505  19.162  65.698  1.00  0.00     0.153 C 
BRANCH  13  14
HETATM   14  C17 UNL     1       5.997  17.895  66.283  1.00  0.00     0.042 C 
HETATM   15  C18 UNL     1       5.500  18.227  67.692  1.00  0.00     0.040 C 
HETATM   16  C19 UNL     1       7.103  16.844  66.403  1.00  0.00     0.040 C 
BRANCH  14  17
HETATM   17  N5  UNL     1       4.871  17.387  65.514  1.00  0.00    -0.359 N 
HETATM   18  C20 UNL     1       3.557  17.846  65.895  1.00  0.00     0.152 C 
BRANCH  17  19
HETATM   19  C21 UNL     1       5.070  16.525  64.406  1.00  0.00     0.117 C 
BRANCH  19  20
HETATM   20  O6  UNL     1       4.449  15.322  64.738  1.00  0.00    -0.349 OA
ATOM     21  H6  UNL     1       3.515  15.493  64.709  1.00  0.00     0.219 HD
ENDBRANCH  19  20
BRANCH  19  22
HETATM   22  C22 UNL     1       5.649  16.438  63.145  1.00  0.00     0.056 C 
HETATM   23  C23 UNL     1       4.501  16.724  62.078  1.00  0.00     0.018 C 
BRANCH  22  24
HETATM   24  C24 UNL     1       6.815  17.071  62.584  1.00  0.00     0.013 C 
BRANCH  24  25
HETATM   25  C25 UNL     1       6.863  17.875  61.352  1.00  0.00     0.005 C 
BRANCH  25  26
HETATM   26  C26 UNL     1       8.360  18.067  61.036  1.00  0.00    -0.014 C 
HETATM   27  C27 UNL     1       8.992  16.728  60.668  1.00  0.00     0.004 C 
HETATM   28  C28 UNL     1      10.385  17.087  60.122  1.00  0.00     0.000 C 
HETATM   29  C29 UNL     1      11.181  17.791  61.200  1.00  0.00     0.000 C 
HETATM   30  C30 UNL     1      10.405  17.972  62.483  1.00  0.00     0.000 C 
HETATM   31  C31 UNL     1       9.030  18.582  62.267  1.00  0.00     0.004 C 
ENDBRANCH  25  26
ENDBRANCH  24  25
ENDBRANCH  22  24
ENDBRANCH  19  22
ENDBRANCH  17  19
ENDBRANCH  14  17
ENDBRANCH  13  14
ENDBRANCH  11  13
ENDBRANCH   7   9
BRANCH   1  32
HETATM   32  C5  UNL     1      14.093  21.537  63.975  1.00  0.00     0.178 C 
BRANCH  32  33
HETATM   33  C4  UNL     1      15.075  21.904  64.958  1.00  0.00     0.241 C 
HETATM   34  N1  UNL     1      15.998  22.961  64.643  1.00  0.00    -0.348 N 
ATOM     35  H1  UNL     1      15.905  23.404  63.729  1.00  0.00     0.163 HD
HETATM   36  O2  UNL     1      15.126  21.304  66.061  1.00  0.00    -0.271 OA
BRANCH  34  37
HETATM   37  C3  UNL     1      17.062  23.456  65.525  1.00  0.00     0.157 C 
BRANCH  37  38
HETATM   38  C2  UNL     1      18.131  23.864  64.530  1.00  0.00     0.145 C 
HETATM   39  C1  UNL     1      18.377  25.295  64.303  1.00  0.00     0.093 C 
HETATM   40  O1  UNL     1      18.762  23.026  63.954  1.00  0.00    -0.296 OA
ENDBRANCH  37  38
BRANCH  37  41
HETATM   41  C32 UNL     1      16.547  24.624  66.289  1.00  0.00     0.007 C 
HETATM   42  C33 UNL     1      15.121  24.994  66.084  1.00  0.00     0.012 C 
HETATM   43  C34 UNL     1      17.021  24.901  67.652  1.00  0.00     0.012 C 
ENDBRANCH  37  41
ENDBRANCH  34  37
ENDBRANCH  32  33
BRANCH  32  44
HETATM   44  C6  UNL     1      14.405  21.932  62.522  1.00  0.00     0.039 C 
BRANCH  44  45
HETATM   45  C7  UNL     1      14.314  20.890  61.493  1.00  0.00    -0.012 C 
HETATM   46  C8  UNL     1      13.302  20.846  60.432  1.00  0.00     0.005 C 
HETATM   47  C9  UNL     1      13.869  21.235  59.073  1.00  0.00     0.000 C 
HETATM   48  C10 UNL     1      15.286  21.745  59.118  1.00  0.00     0.000 C 
HETATM   49  C11 UNL     1      16.212  20.809  59.827  1.00  0.00     0.000 C 
HETATM   50  C12 UNL     1      15.620  20.258  61.074  1.00  0.00     0.005 C 
ENDBRANCH  44  45
ENDBRANCH  32  44
ENDBRANCH   1  32
TORSDOF 17
ENDMDL
MODEL 5
REMARK VINA RESULT: -9.595315818      2.288     10.198
REMARK  17 active torsions:
REMARK  status: ('A' for Active; 'I' for Inactive)
REMARK    1  A    between atoms: C2_2  and  C3_4 
REMARK    2  A    between atoms: C3_4  and  N1_5 
REMARK    3  A    between atoms: C3_4  and  C32_48 
REMARK       I    between atoms: N1_5  and  C4_7 
REMARK    4  A    between atoms: C4_7  and  C5_9 
REMARK    5  A    between atoms: C5_9  and  C6_10 
REMARK    6  A    between atoms: C5_9  and  N2_17 
REMARK    7  A    between atoms: C6_10  and  C7_11 
REMARK       I    between atoms: N2_17  and  C13_19 
REMARK       I    between atoms: C13_19  and  N3_21 
REMARK       I    between atoms: N3_21  and  C14_23 
REMARK    8  A    between atoms: C14_23  and  C15_25 
REMARK       I    between atoms: C15_25  and  N4_27 
REMARK    9  A    between atoms: N4_27  and  C16_29 
REMARK   10  A    between atoms: C16_29  and  C17_30 
REMARK   11  A    between atoms: C17_30  and  N5_33 
REMARK   12  A    between atoms: N5_33  and  C21_35 
REMARK   13  A    between atoms: C21_35  and  O6_36 
REMARK   14  A    between atoms: C21_35  and  C22_38 
REMARK   15  A    between atoms: C22_38  and  C24_40 
REMARK   16  A    between atoms: C24_40  and  C25_41 
REMARK   17  A    between atoms: C25_41  and  C26_42 
ROOT
HETATM    1  N2  UNL     1      11.405  20.557  64.213  1.00  0.00    -0.330 N 
ATOM      2  H2  UNL     1      11.243  20.986  63.302  1.00  0.00     0.165 HD
HETATM    3  C13 UNL     1      12.292  21.176  65.142  1.00  0.00     0.323 C 
HETATM    4  O3  UNL     1      12.572  20.476  66.151  1.00  0.00    -0.247 OA
HETATM    5  N3  UNL     1      12.805  22.462  64.984  1.00  0.00    -0.271 N 
ATOM      6  H3  UNL     1      12.377  23.331  64.666  1.00  0.00     0.174 HD
HETATM    7  C14 UNL     1      14.461  22.076  65.522  1.00  0.00     0.317 C 
HETATM    8  O4  UNL     1      14.586  20.957  65.544  1.00  0.00    -0.262 OA
ENDROOT
BRANCH   7   9
HETATM    9  C15 UNL     1      15.098  23.310  65.734  1.00  0.00     0.309 C 
HETATM   10  O5  UNL     1      14.880  24.019  66.765  1.00  0.00    -0.262 OA
HETATM   11  N4  UNL     1      16.022  23.862  64.808  1.00  0.00    -0.351 N 
ATOM     12  H4  UNL     1      16.214  23.403  63.918  1.00  0.00     0.162 HD
BRANCH  11  13
HETATM   13  C16 UNL     1      16.689  25.112  65.172  1.00  0.00     0.153 C 
BRANCH  13  14
HETATM   14  C17 UNL     1      18.156  25.036  64.946  1.00  0.00     0.042 C 
HETATM   15  C18 UNL     1      18.496  23.556  64.751  1.00  0.00     0.040 C 
HETATM   16  C19 UNL     1      18.941  25.551  66.155  1.00  0.00     0.040 C 
BRANCH  14  17
HETATM   17  N5  UNL     1      18.528  25.750  63.734  1.00  0.00    -0.359 N 
HETATM   18  C20 UNL     1      18.823  27.156  63.867  1.00  0.00     0.152 C 
BRANCH  17  19
HETATM   19  C21 UNL     1      18.645  25.075  62.493  1.00  0.00     0.117 C 
BRANCH  19  20
HETATM   20  O6  UNL     1      19.937  25.326  62.038  1.00  0.00    -0.349 OA
ATOM     21  H6  UNL     1      19.946  25.075  61.122  1.00  0.00     0.219 HD
ENDBRANCH  19  20
BRANCH  19  22
HETATM   22  C22 UNL     1      17.958  24.279  61.582  1.00  0.00     0.056 C 
HETATM   23  C23 UNL     1      18.743  24.359  60.199  1.00  0.00     0.018 C 
BRANCH  22  24
HETATM   24  C24 UNL     1      17.514  22.911  61.655  1.00  0.00     0.013 C 
BRANCH  24  25
HETATM   25  C25 UNL     1      17.693  21.880  60.620  1.00  0.00     0.005 C 
BRANCH  25  26
HETATM   26  C26 UNL     1      16.291  21.287  60.372  1.00  0.00    -0.014 C 
HETATM   27  C27 UNL     1      15.368  22.353  59.789  1.00  0.00     0.004 C 
HETATM   28  C28 UNL     1      14.112  21.584  59.343  1.00  0.00     0.000 C 
HETATM   29  C29 UNL     1      13.482  20.911  60.542  1.00  0.00     0.000 C 
HETATM   30  C30 UNL     1      14.252  21.144  61.822  1.00  0.00     0.000 C 
HETATM   31  C31 UNL     1      15.735  20.850  61.687  1.00  0.00     0.004 C 
ENDBRANCH  25  26
ENDBRANCH  24  25
ENDBRANCH  22  24
ENDBRANCH  19  22
ENDBRANCH  17  19
ENDBRANCH  14  17
ENDBRANCH  13  14
ENDBRANCH  11  13
ENDBRANCH   7   9
BRANCH   1  32
HETATM   32  C5  UNL     1      10.730  19.317  64.558  1.00  0.00     0.178 C 
BRANCH  32  33
HETATM   33  C4  UNL     1      10.866  18.182  63.688  1.00  0.00     0.241 C 
HETATM   34  N1  UNL     1       9.674  17.581  63.152  1.00  0.00    -0.348 N 
ATOM     35  H1  UNL     1       8.783  17.999  63.416  1.00  0.00     0.163 HD
HETATM   36  O2  UNL     1      12.004  17.724  63.415  1.00  0.00    -0.271 OA
BRANCH  34  37
HETATM   37  C3  UNL     1       9.633  16.418  62.257  1.00  0.00     0.157 C 
BRANCH  37  38
HETATM   38  C2  UNL     1       8.471  15.626  62.823  1.00  0.00     0.145 C 
HETATM   39  C1  UNL     1       7.716  16.186  63.953  1.00  0.00     0.093 C 
HETATM   40  O1  UNL     1       8.178  14.570  62.343  1.00  0.00    -0.296 OA
ENDBRANCH  37  38
BRANCH  37  41
HETATM   41  C32 UNL     1       9.356  16.888  60.873  1.00  0.00     0.007 C 
HETATM   42  C33 UNL     1       8.217  17.827  60.689  1.00  0.00     0.012 C 
HETATM   43  C34 UNL     1      10.454  17.127  59.925  1.00  0.00     0.012 C 
ENDBRANCH  37  41
ENDBRANCH  34  37
ENDBRANCH  32  33
BRANCH  32  44
HETATM   44  C6  UNL     1       9.291  19.735  64.910  1.00  0.00     0.039 C 
BRANCH  44  45
HETATM   45  C7  UNL     1       8.938  19.847  66.329  1.00  0.00    -0.012 C 
HETATM   46  C8  UNL     1       7.899  20.733  66.866  1.00  0.00     0.005 C 
HETATM   47  C9  UNL     1       6.644  19.974  67.276  1.00  0.00     0.000 C 
HETATM   48  C10 UNL     1       6.652  18.516  66.896  1.00  0.00     0.000 C 
HETATM   49  C11 UNL     1       7.878  17.805  67.372  1.00  0.00     0.000 C 
HETATM   50  C12 UNL     1       9.116  18.597  67.157  1.00  0.00     0.005 C 
ENDBRANCH  44  45
ENDBRANCH  32  44
ENDBRANCH   1  32
TORSDOF 17
ENDMDL
