MODEL 1
REMARK VINA RESULT: -9.719362492      0.000      0.000
REMARK  17 active torsions:
REMARK  status: ('A' for Active; 'I' for Inactive)
REMARK    1  A    between atoms: C2_2  and  C3_3 
REMARK    2  A    between atoms: N1_7  and  C7_8 
REMARK    3  A    between atoms: C7_8  and  C8_9 
REMARK    4  A    between atoms: N2_17  and  C15_18 
REMARK    5  A    between atoms: C15_18  and  O2_19 
REMARK    6  A    between atoms: C16_21  and  C17_22 
REMARK    7  A    between atoms: C16_21  and  N3_28 
REMARK    8  A    between atoms: C17_22  and  C18_23 
REMARK       I    between atoms: N3_28  and  C23_30 
REMARK    9  A    between atoms: C23_30  and  C24_32 
REMARK   10  A    between atoms: C24_32  and  C25_33 
REMARK   11  A    between atoms: C24_32  and  N5_42 
REMARK   12  A    between atoms: C25_33  and  C26_34 
REMARK   13  A    between atoms: C26_34  and  C27_35 
REMARK   14  A    between atoms: C27_35  and  C28_36 
REMARK   15  A    between atoms: C28_36  and  C29_37 
REMARK   16  A    between atoms: C29_37  and  N4_38 
REMARK       I    between atoms: N5_42  and  C30_44 
REMARK       I    between atoms: C30_44  and  N6_46 
REMARK   17  A    between atoms: N6_46  and  C31_48 
ROOT
HETATM    1  C15 UNL     1      10.740  20.008  63.267  1.00  0.00     0.170 C 
HETATM    2  C16 UNL     1      11.455  19.342  62.219  1.00  0.00     0.064 C 
ENDROOT
BRANCH   2   3
HETATM    3  C17 UNL     1      11.320  17.997  61.708  1.00  0.00     0.066 C 
BRANCH   3   4
HETATM    4  C18 UNL     1       9.955  17.394  61.557  1.00  0.00    -0.009 C 
HETATM    5  C19 UNL     1       9.806  16.780  60.148  1.00  0.00     0.005 C 
HETATM    6  C20 UNL     1       8.566  15.957  60.272  1.00  0.00     0.000 C 
HETATM    7  C21 UNL     1       8.187  15.901  61.741  1.00  0.00     0.000 C 
HETATM    8  C22 UNL     1       9.483  16.358  62.465  1.00  0.00     0.005 C 
ENDBRANCH   3   4
ENDBRANCH   2   3
BRANCH   2   9
HETATM    9  N3  UNL     1      12.724  20.000  61.865  1.00  0.00    -0.325 N 
HETATM   10  C23 UNL     1      13.938  19.853  62.552  1.00  0.00     0.244 C 
HETATM   11  O3  UNL     1      13.946  19.100  63.541  1.00  0.00    -0.271 OA
ATOM     12  H3  UNL     1      12.720  20.615  61.050  1.00  0.00     0.169 HD
BRANCH  10  13
HETATM   13  C24 UNL     1      15.191  20.573  62.112  1.00  0.00     0.178 C 
BRANCH  13  14
HETATM   14  C25 UNL     1      14.920  21.330  60.873  1.00  0.00     0.035 C 
BRANCH  14  15
HETATM   15  C26 UNL     1      16.027  21.551  59.926  1.00  0.00     0.002 C 
BRANCH  15  16
HETATM   16  C27 UNL     1      17.101  22.512  60.212  1.00  0.00     0.002 C 
BRANCH  16  17
HETATM   17  C28 UNL     1      18.408  21.864  60.625  1.00  0.00     0.027 C 
BRANCH  17  18
HETATM   18  C29 UNL     1      18.969  22.699  61.762  1.00  0.00     0.229 C 
BRANCH  18  19
HETATM   19  N4  UNL     1      19.729  21.862  62.688  1.00  0.00    -0.079 N 
ATOM     20  H43 UNL     1      20.040  22.387  63.505  1.00  0.00     0.274 HD
ATOM     21  H42 UNL     1      19.133  21.182  63.161  1.00  0.00     0.274 HD
ATOM     22  H41 UNL     1      20.508  21.412  62.208  1.00  0.00     0.274 HD
ENDBRANCH  18  19
ENDBRANCH  17  18
ENDBRANCH  16  17
ENDBRANCH  15  16
ENDBRANCH  14  15
ENDBRANCH  13  14
BRANCH  13  23
HETATM   23  N5  UNL     1      15.882  21.227  63.154  1.00  0.00    -0.330 N 
HETATM   24  C30 UNL     1      15.440  22.238  64.025  1.00  0.00     0.317 C 
HETATM   25  O4  UNL     1      14.291  22.716  63.933  1.00  0.00    -0.247 OA
HETATM   26  N6  UNL     1      16.271  22.780  65.066  1.00  0.00    -0.339 N 
ATOM     27  H6  UNL     1      17.218  22.417  65.171  1.00  0.00     0.164 HD
ATOM     28  H5  UNL     1      16.844  20.921  63.296  1.00  0.00     0.165 HD
BRANCH  26  29
HETATM   29  C31 UNL     1      15.829  23.805  65.960  1.00  0.00     0.086 C 
HETATM   30  C32 UNL     1      16.903  24.854  66.161  1.00  0.00     0.025 C 
HETATM   31  C33 UNL     1      17.247  24.782  67.637  1.00  0.00     0.002 C 
HETATM   32  C34 UNL     1      15.863  24.461  68.214  1.00  0.00     0.002 C 
HETATM   33  C35 UNL     1      15.512  23.247  67.344  1.00  0.00     0.025 C 
ENDBRANCH  26  29
ENDBRANCH  13  23
ENDBRANCH  10  13
ENDBRANCH   2   9
BRANCH   1  34
HETATM   34  N2  UNL     1      10.159  19.687  64.479  1.00  0.00    -0.270 N 
HETATM   35  C3  UNL     1      10.764  19.765  65.766  1.00  0.00     0.124 C 
HETATM   36  C4  UNL     1       9.754  19.800  66.921  1.00  0.00     0.027 C 
HETATM   37  C5  UNL     1       8.776  20.912  66.851  1.00  0.00     0.014 C 
HETATM   38  C6  UNL     1       9.041  18.471  66.922  1.00  0.00     0.134 C 
HETATM   39  N1  UNL     1       8.299  18.454  65.653  1.00  0.00    -0.333 N 
HETATM   40  C14 UNL     1       8.799  19.160  64.525  1.00  0.00     0.327 C 
HETATM   41  O1  UNL     1       8.010  19.310  63.559  1.00  0.00    -0.247 OA
BRANCH  35  42
HETATM   42  C2  UNL     1      11.651  20.912  66.021  1.00  0.00    -0.011 C 
HETATM   43  C1  UNL     1      12.947  20.921  66.175  1.00  0.00     0.009 C 
ENDBRANCH  35  42
BRANCH  39  44
HETATM   44  C7  UNL     1       7.073  17.710  65.589  1.00  0.00     0.132 C 
BRANCH  44  45
HETATM   45  C8  UNL     1       5.846  18.504  65.965  1.00  0.00     0.004 C 
HETATM   46  C9  UNL     1       5.703  18.722  67.454  1.00  0.00     0.006 C 
HETATM   47  C10 UNL     1       4.499  19.567  67.782  1.00  0.00     0.000 C 
HETATM   48  C11 UNL     1       3.530  19.643  66.602  1.00  0.00     0.000 C 
HETATM   49  C12 UNL     1       3.363  18.222  66.095  1.00  0.00     0.000 C 
HETATM   50  C13 UNL     1       4.637  17.721  65.446  1.00  0.00     0.006 C 
ENDBRANCH  44  45
ENDBRANCH  39  44
ENDBRANCH   1  34
BRANCH   1  51
HETATM   51  O2  UNL     1      10.583  21.338  63.020  1.00  0.00    -0.344 OA
ATOM     52  H2  UNL     1      10.199  21.461  62.160  1.00  0.00     0.219 HD
ENDBRANCH   1  51
TORSDOF 17
ENDMDL
MODEL 2
REMARK VINA RESULT: -9.671086791      2.043      4.235
REMARK  17 active torsions:
REMARK  status: ('A' for Active; 'I' for Inactive)
REMARK    1  A    between atoms: C2_2  and  C3_3 
REMARK    2  A    between atoms: N1_7  and  C7_8 
REMARK    3  A    between atoms: C7_8  and  C8_9 
REMARK    4  A    between atoms: N2_17  and  C15_18 
REMARK    5  A    between atoms: C15_18  and  O2_19 
REMARK    6  A    between atoms: C16_21  and  C17_22 
REMARK    7  A    between atoms: C16_21  and  N3_28 
REMARK    8  A    between atoms: C17_22  and  C18_23 
REMARK       I    between atoms: N3_28  and  C23_30 
REMARK    9  A    between atoms: C23_30  and  C24_32 
REMARK   10  A    between atoms: C24_32  and  C25_33 
REMARK   11  A    between atoms: C24_32  and  N5_42 
REMARK   12  A    between atoms: C25_33  and  C26_34 
REMARK   13  A    between atoms: C26_34  and  C27_35 
REMARK   14  A    between atoms: C27_35  and  C28_36 
REMARK   15  A    between atoms: C28_36  and  C29_37 
REMARK   16  A    between atoms: C29_37  and  N4_38 
REMARK       I    between atoms: N5_42  and  C30_44 
REMARK       I    between atoms: C30_44  and  N6_46 
REMARK   17  A    between atoms: N6_46  and  C31_48 
ROOT
HETATM    1  C15 UNL     1      10.706  18.310  63.390  1.00  0.00     0.170 C 
HETATM    2  C16 UNL     1      11.251  19.608  63.657  1.00  0.00     0.064 C 
ENDROOT
BRANCH   2   3
HETATM    3  C17 UNL     1      10.591  20.888  63.781  1.00  0.00     0.066 C 
BRANCH   3   4
HETATM    4  C18 UNL     1       9.913  21.252  65.068  1.00  0.00    -0.009 C 
HETATM    5  C19 UNL     1       8.625  20.418  65.237  1.00  0.00     0.005 C 
HETATM    6  C20 UNL     1       8.265  20.646  66.669  1.00  0.00     0.000 C 
HETATM    7  C21 UNL     1       9.430  21.355  67.337  1.00  0.00     0.000 C 
HETATM    8  C22 UNL     1      10.604  21.131  66.345  1.00  0.00     0.005 C 
ENDBRANCH   3   4
ENDBRANCH   2   3
BRANCH   2   9
HETATM    9  N3  UNL     1      12.702  19.695  63.422  1.00  0.00    -0.325 N 
HETATM   10  C23 UNL     1      13.310  20.057  62.211  1.00  0.00     0.244 C 
HETATM   11  O3  UNL     1      12.563  20.333  61.257  1.00  0.00    -0.271 OA
ATOM     12  H3  UNL     1      13.317  19.473  64.205  1.00  0.00     0.169 HD
BRANCH  10  13
HETATM   13  C24 UNL     1      14.813  20.118  62.065  1.00  0.00     0.178 C 
BRANCH  13  14
HETATM   14  C25 UNL     1      15.162  20.619  60.720  1.00  0.00     0.035 C 
BRANCH  14  15
HETATM   15  C26 UNL     1      16.574  20.913  60.422  1.00  0.00     0.002 C 
BRANCH  15  16
HETATM   16  C27 UNL     1      17.081  22.292  60.392  1.00  0.00     0.002 C 
BRANCH  16  17
HETATM   17  C28 UNL     1      18.045  22.615  61.517  1.00  0.00     0.027 C 
BRANCH  17  18
HETATM   18  C29 UNL     1      19.283  21.767  61.288  1.00  0.00     0.229 C 
BRANCH  18  19
HETATM   19  N4  UNL     1      19.894  21.396  62.563  1.00  0.00    -0.079 N 
ATOM     20  H43 UNL     1      20.912  21.368  62.500  1.00  0.00     0.274 HD
ATOM     21  H42 UNL     1      19.805  22.139  63.256  1.00  0.00     0.274 HD
ATOM     22  H41 UNL     1      19.512  20.514  62.902  1.00  0.00     0.274 HD
ENDBRANCH  18  19
ENDBRANCH  17  18
ENDBRANCH  16  17
ENDBRANCH  15  16
ENDBRANCH  14  15
ENDBRANCH  13  14
BRANCH  13  23
HETATM   23  N5  UNL     1      15.483  20.673  63.176  1.00  0.00    -0.330 N 
HETATM   24  C30 UNL     1      15.173  21.820  63.927  1.00  0.00     0.317 C 
HETATM   25  O4  UNL     1      14.194  22.539  63.639  1.00  0.00    -0.247 OA
HETATM   26  N6  UNL     1      15.951  22.234  65.063  1.00  0.00    -0.339 N 
ATOM     27  H6  UNL     1      16.760  21.673  65.329  1.00  0.00     0.164 HD
ATOM     28  H5  UNL     1      16.315  20.168  63.479  1.00  0.00     0.165 HD
BRANCH  26  29
HETATM   29  C31 UNL     1      15.641  23.396  65.838  1.00  0.00     0.086 C 
HETATM   30  C32 UNL     1      16.867  24.264  66.033  1.00  0.00     0.025 C 
HETATM   31  C33 UNL     1      17.104  24.271  67.532  1.00  0.00     0.002 C 
HETATM   32  C34 UNL     1      15.653  24.241  68.028  1.00  0.00     0.002 C 
HETATM   33  C35 UNL     1      15.149  23.028  67.234  1.00  0.00     0.025 C 
ENDBRANCH  26  29
ENDBRANCH  13  23
ENDBRANCH  10  13
ENDBRANCH   2   9
BRANCH   1  34
HETATM   34  N2  UNL     1       9.670  17.761  62.657  1.00  0.00    -0.270 N 
HETATM   35  C3  UNL     1       9.614  17.598  61.244  1.00  0.00     0.124 C 
HETATM   36  C4  UNL     1       8.582  16.559  60.783  1.00  0.00     0.027 C 
HETATM   37  C5  UNL     1       8.776  15.204  61.353  1.00  0.00     0.014 C 
HETATM   38  C6  UNL     1       7.223  17.097  61.154  1.00  0.00     0.134 C 
HETATM   39  N1  UNL     1       7.230  17.128  62.623  1.00  0.00    -0.333 N 
HETATM   40  C14 UNL     1       8.450  17.322  63.326  1.00  0.00     0.327 C 
HETATM   41  O1  UNL     1       8.431  17.095  64.562  1.00  0.00    -0.247 OA
BRANCH  35  42
HETATM   42  C2  UNL     1      10.859  17.202  60.564  1.00  0.00    -0.011 C 
HETATM   43  C1  UNL     1      11.014  16.748  59.351  1.00  0.00     0.009 C 
ENDBRANCH  35  42
BRANCH  39  44
HETATM   44  C7  UNL     1       5.983  16.964  63.316  1.00  0.00     0.132 C 
BRANCH  44  45
HETATM   45  C8  UNL     1       4.903  16.298  62.498  1.00  0.00     0.004 C 
HETATM   46  C9  UNL     1       3.584  17.037  62.528  1.00  0.00     0.006 C 
HETATM   47  C10 UNL     1       2.552  16.373  61.654  1.00  0.00     0.000 C 
HETATM   48  C11 UNL     1       2.958  14.943  61.296  1.00  0.00     0.000 C 
HETATM   49  C12 UNL     1       3.411  14.292  62.590  1.00  0.00     0.000 C 
HETATM   50  C13 UNL     1       4.713  14.893  63.076  1.00  0.00     0.006 C 
ENDBRANCH  44  45
ENDBRANCH  39  44
ENDBRANCH   1  34
BRANCH   1  51
HETATM   51  O2  UNL     1      11.394  17.321  64.024  1.00  0.00    -0.344 OA
ATOM     52  H2  UNL     1      12.234  17.192  63.599  1.00  0.00     0.219 HD
ENDBRANCH   1  51
TORSDOF 17
ENDMDL
MODEL 3
REMARK VINA RESULT: -9.625121605      0.848      1.093
REMARK  17 active torsions:
REMARK  status: ('A' for Active; 'I' for Inactive)
REMARK    1  A    between atoms: C2_2  and  C3_3 
REMARK    2  A    between atoms: N1_7  and  C7_8 
REMARK    3  A    between atoms: C7_8  and  C8_9 
REMARK    4  A    between atoms: N2_17  and  C15_18 
REMARK    5  A    between atoms: C15_18  and  O2_19 
REMARK    6  A    between atoms: C16_21  and  C17_22 
REMARK    7  A    between atoms: C16_21  and  N3_28 
REMARK    8  A    between atoms: C17_22  and  C18_23 
REMARK       I    between atoms: N3_28  and  C23_30 
REMARK    9  A    between atoms: C23_30  and  C24_32 
REMARK   10  A    between atoms: C24_32  and  C25_33 
REMARK   11  A    between atoms: C24_32  and  N5_42 
REMARK   12  A    between atoms: C25_33  and  C26_34 
REMARK   13  A    between atoms: C26_34  and  C27_35 
REMARK   14  A    between atoms: C27_35  and  C28_36 
REMARK   15  A    between atoms: C28_36  and  C29_37 
REMARK   16  A    between atoms: C29_37  and  N4_38 
REMARK       I    between atoms: N5_42  and  C30_44 
REMARK       I    between atoms: C30_44  and  N6_46 
REMARK   17  A    between atoms: N6_46  and  C31_48 
ROOT
HETATM    1  C15 UNL     1      11.244  19.672  63.415  1.00  0.00     0.170 C 
HETATM    2  C16 UNL     1      11.994  18.850  62.512  1.00  0.00     0.064 C 
ENDROOT
BRANCH   2   3
HETATM    3  C17 UNL     1      11.683  17.551  61.959  1.00  0.00     0.066 C 
BRANCH   3   4
HETATM    4  C18 UNL     1      10.264  17.213  61.610  1.00  0.00    -0.009 C 
HETATM    5  C19 UNL     1      10.218  16.484  60.251  1.00  0.00     0.005 C 
HETATM    6  C20 UNL     1       8.828  15.937  60.212  1.00  0.00     0.000 C 
HETATM    7  C21 UNL     1       8.214  16.124  61.588  1.00  0.00     0.000 C 
HETATM    8  C22 UNL     1       9.443  16.400  62.496  1.00  0.00     0.005 C 
ENDBRANCH   3   4
ENDBRANCH   2   3
BRANCH   2   9
HETATM    9  N3  UNL     1      13.416  19.223  62.421  1.00  0.00    -0.325 N 
HETATM   10  C23 UNL     1      13.952  20.180  61.547  1.00  0.00     0.244 C 
HETATM   11  O3  UNL     1      13.162  20.767  60.788  1.00  0.00    -0.271 OA
ATOM     12  H3  UNL     1      14.065  18.745  63.046  1.00  0.00     0.169 HD
BRANCH  10  13
HETATM   13  C24 UNL     1      15.429  20.495  61.526  1.00  0.00     0.178 C 
BRANCH  13  14
HETATM   14  C25 UNL     1      15.775  21.171  60.258  1.00  0.00     0.035 C 
BRANCH  14  15
HETATM   15  C26 UNL     1      16.131  22.600  60.295  1.00  0.00     0.002 C 
BRANCH  15  16
HETATM   16  C27 UNL     1      17.530  23.044  60.234  1.00  0.00     0.002 C 
BRANCH  16  17
HETATM   17  C28 UNL     1      18.526  21.993  60.688  1.00  0.00     0.027 C 
BRANCH  17  18
HETATM   18  C29 UNL     1      19.147  22.508  61.974  1.00  0.00     0.229 C 
BRANCH  18  19
HETATM   19  N4  UNL     1      19.905  21.449  62.638  1.00  0.00    -0.079 N 
ATOM     20  H43 UNL     1      19.478  21.176  63.523  1.00  0.00     0.274 HD
ATOM     21  H42 UNL     1      19.822  20.559  62.147  1.00  0.00     0.274 HD
ATOM     22  H41 UNL     1      20.879  21.726  62.757  1.00  0.00     0.274 HD
ENDBRANCH  18  19
ENDBRANCH  17  18
ENDBRANCH  16  17
ENDBRANCH  15  16
ENDBRANCH  14  15
ENDBRANCH  13  14
BRANCH  13  23
HETATM   23  N5  UNL     1      15.924  21.044  62.728  1.00  0.00    -0.330 N 
HETATM   24  C30 UNL     1      15.310  21.936  63.624  1.00  0.00     0.317 C 
HETATM   25  O4  UNL     1      14.168  22.390  63.408  1.00  0.00    -0.247 OA
HETATM   26  N6  UNL     1      15.949  22.377  64.835  1.00  0.00    -0.339 N 
ATOM     27  H6  UNL     1      16.884  22.030  65.046  1.00  0.00     0.164 HD
ATOM     28  H5  UNL     1      16.866  20.750  62.984  1.00  0.00     0.165 HD
BRANCH  26  29
HETATM   29  C31 UNL     1      15.331  23.280  65.756  1.00  0.00     0.086 C 
HETATM   30  C32 UNL     1      16.221  24.475  66.030  1.00  0.00     0.025 C 
HETATM   31  C33 UNL     1      16.539  24.393  67.512  1.00  0.00     0.002 C 
HETATM   32  C34 UNL     1      15.210  23.835  68.034  1.00  0.00     0.002 C 
HETATM   33  C35 UNL     1      15.074  22.619  67.107  1.00  0.00     0.025 C 
ENDBRANCH  26  29
ENDBRANCH  13  23
ENDBRANCH  10  13
ENDBRANCH   2   9
BRANCH   1  34
HETATM   34  N2  UNL     1      10.387  19.505  64.486  1.00  0.00    -0.270 N 
HETATM   35  C3  UNL     1      10.744  19.412  65.862  1.00  0.00     0.124 C 
HETATM   36  C4  UNL     1       9.582  19.701  66.822  1.00  0.00     0.027 C 
HETATM   37  C5  UNL     1       8.952  21.032  66.642  1.00  0.00     0.014 C 
HETATM   38  C6  UNL     1       8.565  18.606  66.622  1.00  0.00     0.134 C 
HETATM   39  N1  UNL     1       8.090  18.794  65.243  1.00  0.00    -0.333 N 
HETATM   40  C14 UNL     1       8.954  19.353  64.262  1.00  0.00     0.327 C 
HETATM   41  O1  UNL     1       8.421  19.713  63.183  1.00  0.00    -0.247 OA
BRANCH  35  42
HETATM   42  C2  UNL     1      11.833  20.284  66.333  1.00  0.00    -0.011 C 
HETATM   43  C1  UNL     1      13.105  20.222  66.050  1.00  0.00     0.009 C 
ENDBRANCH  35  42
BRANCH  39  44
HETATM   44  C7  UNL     1       6.748  18.398  64.924  1.00  0.00     0.132 C 
BRANCH  44  45
HETATM   45  C8  UNL     1       5.812  18.368  66.108  1.00  0.00     0.004 C 
HETATM   46  C9  UNL     1       4.525  17.620  65.839  1.00  0.00     0.006 C 
HETATM   47  C10 UNL     1       3.646  17.564  67.061  1.00  0.00     0.000 C 
HETATM   48  C11 UNL     1       4.075  18.594  68.107  1.00  0.00     0.000 C 
HETATM   49  C12 UNL     1       4.280  19.899  67.361  1.00  0.00     0.000 C 
HETATM   50  C13 UNL     1       5.491  19.825  66.454  1.00  0.00     0.006 C 
ENDBRANCH  44  45
ENDBRANCH  39  44
ENDBRANCH   1  34
BRANCH   1  51
HETATM   51  O2  UNL     1      11.417  21.000  63.168  1.00  0.00    -0.344 OA
ATOM     52  H2  UNL     1      10.925  21.249  62.394  1.00  0.00     0.219 HD
ENDBRANCH   1  51
TORSDOF 17
ENDMDL
MODEL 4
REMARK VINA RESULT: -9.587239012      0.847      1.193
REMARK  17 active torsions:
REMARK  status: ('A' for Active; 'I' for Inactive)
REMARK    1  A    between atoms: C2_2  and  C3_3 
REMARK    2  A    between atoms: N1_7  and  C7_8 
REMARK    3  A    between atoms: C7_8  and  C8_9 
REMARK    4  A    between atoms: N2_17  and  C15_18 
REMARK    5  A    between atoms: C15_18  and  O2_19 
REMARK    6  A    between atoms: C16_21  and  C17_22 
REMARK    7  A    between atoms: C16_21  and  N3_28 
REMARK    8  A    between atoms: C17_22  and  C18_23 
REMARK       I    between atoms: N3_28  and  C23_30 
REMARK    9  A    between atoms: C23_30  and  C24_32 
REMARK   10  A    between atoms: C24_32  and  C25_33 
REMARK   11  A    between atoms: C24_32  and  N5_42 
REMARK   12  A    between atoms: C25_33  and  C26_34 
REMARK   13  A    between atoms: C26_34  and  C27_35 
REMARK   14  A    between atoms: C27_35  and  C28_36 
REMARK   15  A    between atoms: C28_36  and  C29_37 
REMARK   16  A    between atoms: C29_37  and  N4_38 
REMARK       I    between atoms: N5_42  and  C30_44 
REMARK       I    between atoms: C30_44  and  N6_46 
REMARK   17  A    between atoms: N6_46  and  C31_48 
ROOT
HETATM    1  C15 UNL     1      10.558  19.673  63.255  1.00  0.00     0.170 C 
HETATM    2  C16 UNL     1      11.310  18.917  62.298  1.00  0.00     0.064 C 
ENDROOT
BRANCH   2   3
HETATM    3  C17 UNL     1      11.254  17.511  61.970  1.00  0.00     0.066 C 
BRANCH   3   4
HETATM    4  C18 UNL     1       9.979  16.922  61.442  1.00  0.00    -0.009 C 
HETATM    5  C19 UNL     1       9.240  16.174  62.571  1.00  0.00     0.005 C 
HETATM    6  C20 UNL     1       7.883  15.946  61.989  1.00  0.00     0.000 C 
HETATM    7  C21 UNL     1       7.783  16.754  60.707  1.00  0.00     0.000 C 
HETATM    8  C22 UNL     1       8.961  17.760  60.823  1.00  0.00     0.005 C 
ENDBRANCH   3   4
ENDBRANCH   2   3
BRANCH   2   9
HETATM    9  N3  UNL     1      12.537  19.595  61.848  1.00  0.00    -0.325 N 
HETATM   10  C23 UNL     1      13.771  19.572  62.514  1.00  0.00     0.244 C 
HETATM   11  O3  UNL     1      13.838  18.921  63.570  1.00  0.00    -0.271 OA
ATOM     12  H3  UNL     1      12.486  20.127  60.978  1.00  0.00     0.169 HD
BRANCH  10  13
HETATM   13  C24 UNL     1      14.979  20.302  61.973  1.00  0.00     0.178 C 
BRANCH  13  14
HETATM   14  C25 UNL     1      14.604  21.045  60.752  1.00  0.00     0.035 C 
BRANCH  14  15
HETATM   15  C26 UNL     1      15.661  21.745  60.001  1.00  0.00     0.002 C 
BRANCH  15  16
HETATM   16  C27 UNL     1      15.549  23.172  59.668  1.00  0.00     0.002 C 
BRANCH  16  17
HETATM   17  C28 UNL     1      16.877  23.905  59.664  1.00  0.00     0.027 C 
BRANCH  17  18
HETATM   18  C29 UNL     1      17.723  23.284  60.759  1.00  0.00     0.229 C 
BRANCH  18  19
HETATM   19  N4  UNL     1      17.761  24.152  61.934  1.00  0.00    -0.079 N 
ATOM     20  H43 UNL     1      18.610  24.717  61.960  1.00  0.00     0.274 HD
ATOM     21  H42 UNL     1      17.077  24.907  61.870  1.00  0.00     0.274 HD
ATOM     22  H41 UNL     1      17.642  23.607  62.788  1.00  0.00     0.274 HD
ENDBRANCH  18  19
ENDBRANCH  17  18
ENDBRANCH  16  17
ENDBRANCH  15  16
ENDBRANCH  14  15
ENDBRANCH  13  14
BRANCH  13  23
HETATM   23  N5  UNL     1      15.739  20.975  62.953  1.00  0.00    -0.330 N 
HETATM   24  C30 UNL     1      15.371  22.034  63.801  1.00  0.00     0.317 C 
HETATM   25  O4  UNL     1      14.234  22.547  63.743  1.00  0.00    -0.247 OA
HETATM   26  N6  UNL     1      16.268  22.589  64.778  1.00  0.00    -0.339 N 
ATOM     27  H6  UNL     1      17.207  22.199  64.854  1.00  0.00     0.164 HD
ATOM     28  H5  UNL     1      16.697  20.643  63.064  1.00  0.00     0.165 HD
BRANCH  26  29
HETATM   29  C31 UNL     1      15.902  23.664  65.649  1.00  0.00     0.086 C 
HETATM   30  C32 UNL     1      17.094  24.547  65.956  1.00  0.00     0.025 C 
HETATM   31  C33 UNL     1      17.295  24.420  67.455  1.00  0.00     0.002 C 
HETATM   32  C34 UNL     1      15.835  24.300  67.908  1.00  0.00     0.002 C 
HETATM   33  C35 UNL     1      15.390  23.152  66.991  1.00  0.00     0.025 C 
ENDBRANCH  26  29
ENDBRANCH  13  23
ENDBRANCH  10  13
ENDBRANCH   2   9
BRANCH   1  34
HETATM   34  N2  UNL     1       9.999  19.482  64.505  1.00  0.00    -0.270 N 
HETATM   35  C3  UNL     1      10.648  19.629  65.764  1.00  0.00     0.124 C 
HETATM   36  C4  UNL     1       9.678  19.812  66.940  1.00  0.00     0.027 C 
HETATM   37  C5  UNL     1       8.758  20.967  66.805  1.00  0.00     0.014 C 
HETATM   38  C6  UNL     1       8.895  18.529  67.067  1.00  0.00     0.134 C 
HETATM   39  N1  UNL     1       8.114  18.452  65.824  1.00  0.00    -0.333 N 
HETATM   40  C14 UNL     1       8.616  19.037  64.629  1.00  0.00     0.327 C 
HETATM   41  O1  UNL     1       7.806  19.153  63.676  1.00  0.00    -0.247 OA
BRANCH  35  42
HETATM   42  C2  UNL     1      11.601  20.742  65.902  1.00  0.00    -0.011 C 
HETATM   43  C1  UNL     1      12.864  20.696  66.228  1.00  0.00     0.009 C 
ENDBRANCH  35  42
BRANCH  39  44
HETATM   44  C7  UNL     1       6.849  17.773  65.854  1.00  0.00     0.132 C 
BRANCH  44  45
HETATM   45  C8  UNL     1       5.849  18.369  66.815  1.00  0.00     0.004 C 
HETATM   46  C9  UNL     1       4.607  17.525  66.990  1.00  0.00     0.006 C 
HETATM   47  C10 UNL     1       3.662  18.124  68.000  1.00  0.00     0.000 C 
HETATM   48  C11 UNL     1       3.995  19.591  68.277  1.00  0.00     0.000 C 
HETATM   49  C12 UNL     1       4.197  20.245  66.922  1.00  0.00     0.000 C 
HETATM   50  C13 UNL     1       5.460  19.740  66.255  1.00  0.00     0.006 C 
ENDBRANCH  44  45
ENDBRANCH  39  44
ENDBRANCH   1  34
BRANCH   1  51
HETATM   51  O2  UNL     1      10.323  20.947  62.837  1.00  0.00    -0.344 OA
ATOM     52  H2  UNL     1       9.392  21.069  62.690  1.00  0.00     0.219 HD
ENDBRANCH   1  51
TORSDOF 17
ENDMDL
MODEL 5
REMARK VINA RESULT: -9.500203127      1.862      5.102
REMARK  17 active torsions:
REMARK  status: ('A' for Active; 'I' for Inactive)
REMARK    1  A    between atoms: C2_2  and  C3_3 
REMARK    2  A    between atoms: N1_7  and  C7_8 
REMARK    3  A    between atoms: C7_8  and  C8_9 
REMARK    4  A    between atoms: N2_17  and  C15_18 
REMARK    5  A    between atoms: C15_18  and  O2_19 
REMARK    6  A    between atoms: C16_21  and  C17_22 
REMARK    7  A    between atoms: C16_21  and  N3_28 
REMARK    8  A    between atoms: C17_22  and  C18_23 
REMARK       I    between atoms: N3_28  and  C23_30 
REMARK    9  A    between atoms: C23_30  and  C24_32 
REMARK   10  A    between atoms: C24_32  and  C25_33 
REMARK   11  A    between atoms: C24_32  and  N5_42 
REMARK   12  A    between atoms: C25_33  and  C26_34 
REMARK   13  A    between atoms: C26_34  and  C27_35 
REMARK   14  A    between atoms: C27_35  and  C28_36 
REMARK   15  A    between atoms: C28_36  and  C29_37 
REMARK   16  A    between atoms: C29_37  and  N4_38 
REMARK       I    between atoms: N5_42  and  C30_44 
REMARK       I    between atoms: C30_44  and  N6_46 
REMARK   17  A    between atoms: N6_46  and  C31_48 
ROOT
HETATM    1  C15 UNL     1      10.804  18.445  64.153  1.00  0.00     0.170 C 
HETATM    2  C16 UNL     1      10.716  19.489  65.131  1.00  0.00     0.064 C 
ENDROOT
BRANCH   2   3
HETATM    3  C17 UNL     1       9.556  20.098  65.742  1.00  0.00     0.066 C 
BRANCH   3   4
HETATM    4  C18 UNL     1       8.398  19.239  66.155  1.00  0.00    -0.009 C 
HETATM    5  C19 UNL     1       8.874  18.162  67.153  1.00  0.00     0.005 C 
HETATM    6  C20 UNL     1       7.592  17.628  67.704  1.00  0.00     0.000 C 
HETATM    7  C21 UNL     1       6.468  18.536  67.237  1.00  0.00     0.000 C 
HETATM    8  C22 UNL     1       7.212  19.817  66.770  1.00  0.00     0.005 C 
ENDBRANCH   3   4
ENDBRANCH   2   3
BRANCH   2   9
HETATM    9  N3  UNL     1      11.953  20.277  65.261  1.00  0.00    -0.325 N 
HETATM   10  C23 UNL     1      12.186  21.529  64.673  1.00  0.00     0.244 C 
HETATM   11  O3  UNL     1      11.272  22.018  63.989  1.00  0.00    -0.271 OA
ATOM     12  H3  UNL     1      12.704  19.879  65.825  1.00  0.00     0.169 HD
BRANCH  10  13
HETATM   13  C24 UNL     1      13.493  22.263  64.864  1.00  0.00     0.178 C 
BRANCH  13  14
HETATM   14  C25 UNL     1      14.173  21.762  66.076  1.00  0.00     0.035 C 
BRANCH  14  15
HETATM   15  C26 UNL     1      14.459  22.710  67.167  1.00  0.00     0.002 C 
BRANCH  15  16
HETATM   16  C27 UNL     1      15.039  24.033  66.901  1.00  0.00     0.002 C 
BRANCH  16  17
HETATM   17  C28 UNL     1      16.372  24.266  67.588  1.00  0.00     0.027 C 
BRANCH  17  18
HETATM   18  C29 UNL     1      17.299  24.871  66.549  1.00  0.00     0.229 C 
BRANCH  18  19
HETATM   19  N4  UNL     1      16.568  25.167  65.319  1.00  0.00    -0.079 N 
ATOM     20  H43 UNL     1      16.542  24.364  64.690  1.00  0.00     0.274 HD
ATOM     21  H42 UNL     1      15.566  25.261  65.487  1.00  0.00     0.274 HD
ATOM     22  H41 UNL     1      16.954  25.994  64.862  1.00  0.00     0.274 HD
ENDBRANCH  18  19
ENDBRANCH  17  18
ENDBRANCH  16  17
ENDBRANCH  15  16
ENDBRANCH  14  15
ENDBRANCH  13  14
BRANCH  13  23
HETATM   23  N5  UNL     1      14.256  22.408  63.685  1.00  0.00    -0.330 N 
HETATM   24  C30 UNL     1      15.649  22.350  63.507  1.00  0.00     0.317 C 
HETATM   25  O4  UNL     1      16.419  22.171  64.473  1.00  0.00    -0.247 OA
HETATM   26  N6  UNL     1      16.270  22.488  62.218  1.00  0.00    -0.339 N 
ATOM     27  H6  UNL     1      15.674  22.637  61.404  1.00  0.00     0.164 HD
ATOM     28  H5  UNL     1      13.716  22.580  62.837  1.00  0.00     0.165 HD
BRANCH  26  29
HETATM   29  C31 UNL     1      17.686  22.424  62.025  1.00  0.00     0.086 C 
HETATM   30  C32 UNL     1      18.238  23.767  61.592  1.00  0.00     0.025 C 
HETATM   31  C33 UNL     1      18.812  23.524  60.208  1.00  0.00     0.002 C 
HETATM   32  C34 UNL     1      19.337  22.094  60.389  1.00  0.00     0.002 C 
HETATM   33  C35 UNL     1      18.061  21.433  60.928  1.00  0.00     0.025 C 
ENDBRANCH  26  29
ENDBRANCH  13  23
ENDBRANCH  10  13
ENDBRANCH   2   9
BRANCH   1  34
HETATM   34  N2  UNL     1      10.088  18.001  63.057  1.00  0.00    -0.270 N 
HETATM   35  C3  UNL     1      10.170  18.494  61.724  1.00  0.00     0.124 C 
HETATM   36  C4  UNL     1       9.626  17.519  60.671  1.00  0.00     0.027 C 
HETATM   37  C5  UNL     1      10.283  16.190  60.666  1.00  0.00     0.014 C 
HETATM   38  C6  UNL     1       8.147  17.374  60.928  1.00  0.00     0.134 C 
HETATM   39  N1  UNL     1       8.066  16.731  62.247  1.00  0.00    -0.333 N 
HETATM   40  C14 UNL     1       9.088  16.950  63.211  1.00  0.00     0.327 C 
HETATM   41  O1  UNL     1       9.091  16.190  64.211  1.00  0.00    -0.247 OA
BRANCH  35  42
HETATM   42  C2  UNL     1      11.505  18.862  61.226  1.00  0.00    -0.011 C 
HETATM   43  C1  UNL     1      12.196  19.942  61.470  1.00  0.00     0.009 C 
ENDBRANCH  35  42
BRANCH  39  44
HETATM   44  C7  UNL     1       6.937  15.890  62.528  1.00  0.00     0.132 C 
BRANCH  44  45
HETATM   45  C8  UNL     1       5.696  16.639  62.948  1.00  0.00     0.004 C 
HETATM   46  C9  UNL     1       5.284  16.365  64.377  1.00  0.00     0.006 C 
HETATM   47  C10 UNL     1       4.077  17.175  64.775  1.00  0.00     0.000 C 
HETATM   48  C11 UNL     1       3.352  17.737  63.552  1.00  0.00     0.000 C 
HETATM   49  C12 UNL     1       3.224  16.590  62.567  1.00  0.00     0.000 C 
HETATM   50  C13 UNL     1       4.574  16.202  62.002  1.00  0.00     0.006 C 
ENDBRANCH  44  45
ENDBRANCH  39  44
ENDBRANCH   1  34
BRANCH   1  51
HETATM   51  O2  UNL     1      11.902  17.660  64.332  1.00  0.00    -0.344 OA
ATOM     52  H2  UNL     1      12.644  18.039  63.876  1.00  0.00     0.219 HD
ENDBRANCH   1  51
TORSDOF 17
ENDMDL
