MODEL 1
REMARK VINA RESULT: -10.420813798      0.000      0.000
REMARK  15 active torsions:
REMARK  status: ('A' for Active; 'I' for Inactive)
REMARK    1  A    between atoms: C2_2  and  C4_4 
REMARK    2  A    between atoms: C4_4  and  N1_5 
REMARK       I    between atoms: N1_5  and  C5_7 
REMARK    3  A    between atoms: C5_7  and  C6_9 
REMARK    4  A    between atoms: C6_9  and  N2_10 
REMARK    5  A    between atoms: C6_9  and  C30_44 
REMARK    6  A    between atoms: N2_10  and  C7_12 
REMARK    7  A    between atoms: C7_12  and  O2_13 
REMARK    8  A    between atoms: C8_15  and  C9_16 
REMARK    9  A    between atoms: C8_15  and  N3_20 
REMARK       I    between atoms: N3_20  and  C13_22 
REMARK   10  A    between atoms: C13_22  and  C14_24 
REMARK   11  A    between atoms: C14_24  and  C15_25 
REMARK   12  A    between atoms: C14_24  and  N4_28 
REMARK   13  A    between atoms: C15_25  and  C16_26 
REMARK       I    between atoms: N4_28  and  C18_29 
REMARK   14  A    between atoms: C18_29  and  C19_31 
REMARK       I    between atoms: N5_36  and  C24_37 
REMARK   15  A    between atoms: C24_37  and  C25_39 
ROOT
HETATM    1  C7  UNL     1      14.814  20.775  64.123  1.00  0.00     0.168 C 
HETATM    2  C8  UNL     1      14.065  20.618  63.007  1.00  0.00     0.086 C 
ENDROOT
BRANCH   2   3
HETATM    3  C9  UNL     1      14.241  21.377  61.680  1.00  0.00     0.036 C 
HETATM    4  C10 UNL     1      15.433  21.440  60.947  1.00  0.00    -0.085 C 
HETATM    5  C11 UNL     1      16.210  20.387  60.342  1.00  0.00     0.043 C 
HETATM    6  C12 UNL     1      15.233  22.603  59.900  1.00  0.00     0.043 C 
ENDBRANCH   2   3
BRANCH   2   7
HETATM    7  N3  UNL     1      12.740  20.120  62.878  1.00  0.00    -0.317 N 
HETATM    8  C13 UNL     1      11.869  19.027  62.947  1.00  0.00     0.282 C 
HETATM    9  O3  UNL     1      12.219  17.880  63.202  1.00  0.00    -0.265 OA
ATOM     10  H3  UNL     1      12.165  20.921  62.618  1.00  0.00     0.169 HD
BRANCH   8  11
HETATM   11  C14 UNL     1      10.415  19.315  62.657  1.00  0.00     0.156 C 
BRANCH  11  12
HETATM   12  C15 UNL     1       9.717  20.328  63.475  1.00  0.00     0.078 C 
BRANCH  12  13
HETATM   13  C16 UNL     1      10.069  20.164  64.954  1.00  0.00     0.003 C 
HETATM   14  C17 UNL     1      10.642  21.359  65.615  1.00  0.00     0.005 C 
ENDBRANCH  12  13
ENDBRANCH  11  12
BRANCH  11  15
HETATM   15  N4  UNL     1       9.818  18.295  62.001  1.00  0.00    -0.364 NA
HETATM   16  C18 UNL     1       9.226  17.255  61.324  1.00  0.00     0.339 C 
HETATM   17  O4  UNL     1       9.633  16.678  60.340  1.00  0.00    -0.250 OA
BRANCH  16  18
HETATM   18  C19 UNL     1       7.914  16.916  61.974  1.00  0.00     0.097 C 
HETATM   19  C20 UNL     1       6.852  17.906  61.652  1.00  0.00     0.064 C 
HETATM   20  C21 UNL     1       5.457  17.419  61.884  1.00  0.00     0.008 C 
HETATM   21  C22 UNL     1       5.367  16.017  62.428  1.00  0.00     0.021 C 
HETATM   22  C23 UNL     1       6.486  15.463  63.164  1.00  0.00     0.132 C 
HETATM   23  N5  UNL     1       7.664  16.417  63.222  1.00  0.00    -0.315 N 
HETATM   24  C24 UNL     1       8.296  16.466  64.479  1.00  0.00     0.228 C 
HETATM   25  O5  UNL     1       9.487  16.775  64.591  1.00  0.00    -0.273 OA
BRANCH  24  26
HETATM   26  C25 UNL     1       7.499  16.167  65.703  1.00  0.00     0.078 C 
HETATM   27  C26 UNL     1       8.124  16.441  67.018  1.00  0.00     0.014 C 
HETATM   28  C27 UNL     1       8.157  17.909  67.169  1.00  0.00     0.001 C 
HETATM   29  C28 UNL     1       7.155  18.469  66.142  1.00  0.00     0.001 C 
HETATM   30  C29 UNL     1       6.368  17.269  65.753  1.00  0.00     0.014 C 
ENDBRANCH  24  26
ENDBRANCH  16  18
ENDBRANCH  11  15
ENDBRANCH   8  11
ENDBRANCH   2   7
BRANCH   1  31
HETATM   31  N2  UNL     1      15.499  21.676  64.949  1.00  0.00    -0.331 N 
ATOM     32  H2  UNL     1      15.476  21.414  65.935  1.00  0.00     0.168 HD
BRANCH  31  33
HETATM   33  C6  UNL     1      16.201  22.848  64.710  1.00  0.00     0.105 C 
BRANCH  33  34
HETATM   34  C5  UNL     1      17.506  23.207  64.138  1.00  0.00     0.272 C 
HETATM   35  N1  UNL     1      17.489  23.726  62.775  1.00  0.00    -0.331 N 
ATOM     36  H1  UNL     1      16.554  23.775  62.371  1.00  0.00     0.168 HD
HETATM   37  O1  UNL     1      18.565  23.101  64.702  1.00  0.00    -0.266 OA
BRANCH  35  38
HETATM   38  C4  UNL     1      18.484  24.165  61.916  1.00  0.00     0.097 C 
BRANCH  38  39
HETATM   39  C2  UNL     1      18.912  23.562  60.692  1.00  0.00    -0.056 C 
HETATM   40  C1  UNL     1      19.000  24.245  59.558  1.00  0.00     0.020 C 
HETATM   41  C3  UNL     1      19.305  22.103  60.552  1.00  0.00     0.049 C 
ENDBRANCH  38  39
ENDBRANCH  35  38
ENDBRANCH  33  34
BRANCH  33  42
HETATM   42  C30 UNL     1      15.695  23.951  65.689  1.00  0.00    -0.048 C 
HETATM   43  C31 UNL     1      14.780  23.411  66.743  1.00  0.00     0.037 C 
HETATM   44  C32 UNL     1      15.364  23.391  68.123  1.00  0.00     0.004 C 
HETATM   45  C33 UNL     1      16.230  24.597  68.453  1.00  0.00     0.001 C 
HETATM   46  C34 UNL     1      17.336  24.741  67.466  1.00  0.00     0.004 C 
HETATM   47  C35 UNL     1      16.626  24.971  66.136  1.00  0.00     0.037 C 
ENDBRANCH  33  42
ENDBRANCH  31  33
ENDBRANCH   1  31
BRANCH   1  48
HETATM   48  O2  UNL     1      15.104  19.528  64.771  1.00  0.00    -0.344 OA
ATOM     49  H2  UNL     1      14.282  19.356  65.216  1.00  0.00     0.219 HD
ENDBRANCH   1  48
TORSDOF 15
ENDMDL
MODEL 2
REMARK VINA RESULT: -10.348211069      1.433      2.254
REMARK  15 active torsions:
REMARK  status: ('A' for Active; 'I' for Inactive)
REMARK    1  A    between atoms: C2_2  and  C4_4 
REMARK    2  A    between atoms: C4_4  and  N1_5 
REMARK       I    between atoms: N1_5  and  C5_7 
REMARK    3  A    between atoms: C5_7  and  C6_9 
REMARK    4  A    between atoms: C6_9  and  N2_10 
REMARK    5  A    between atoms: C6_9  and  C30_44 
REMARK    6  A    between atoms: N2_10  and  C7_12 
REMARK    7  A    between atoms: C7_12  and  O2_13 
REMARK    8  A    between atoms: C8_15  and  C9_16 
REMARK    9  A    between atoms: C8_15  and  N3_20 
REMARK       I    between atoms: N3_20  and  C13_22 
REMARK   10  A    between atoms: C13_22  and  C14_24 
REMARK   11  A    between atoms: C14_24  and  C15_25 
REMARK   12  A    between atoms: C14_24  and  N4_28 
REMARK   13  A    between atoms: C15_25  and  C16_26 
REMARK       I    between atoms: N4_28  and  C18_29 
REMARK   14  A    between atoms: C18_29  and  C19_31 
REMARK       I    between atoms: N5_36  and  C24_37 
REMARK   15  A    between atoms: C24_37  and  C25_39 
ROOT
HETATM    1  C7  UNL     1      14.891  21.252  64.605  1.00  0.00     0.168 C 
HETATM    2  C8  UNL     1      13.985  21.065  63.617  1.00  0.00     0.086 C 
ENDROOT
BRANCH   2   3
HETATM    3  C9  UNL     1      14.075  21.618  62.185  1.00  0.00     0.036 C 
HETATM    4  C10 UNL     1      15.239  21.634  61.405  1.00  0.00    -0.085 C 
HETATM    5  C11 UNL     1      16.060  20.544  60.938  1.00  0.00     0.043 C 
HETATM    6  C12 UNL     1      14.937  22.608  60.201  1.00  0.00     0.043 C 
ENDBRANCH   2   3
BRANCH   2   7
HETATM    7  N3  UNL     1      12.603  20.749  63.717  1.00  0.00    -0.317 N 
HETATM    8  C13 UNL     1      11.285  21.203  63.851  1.00  0.00     0.282 C 
HETATM    9  O3  UNL     1      10.970  22.382  63.974  1.00  0.00    -0.265 OA
ATOM     10  H3  UNL     1      12.545  19.732  63.668  1.00  0.00     0.169 HD
BRANCH   8  11
HETATM   11  C14 UNL     1      10.213  20.140  63.866  1.00  0.00     0.156 C 
BRANCH  11  12
HETATM   12  C15 UNL     1       8.979  20.389  64.639  1.00  0.00     0.078 C 
BRANCH  12  13
HETATM   13  C16 UNL     1       9.216  20.145  66.129  1.00  0.00     0.003 C 
HETATM   14  C17 UNL     1       9.195  21.349  66.991  1.00  0.00     0.005 C 
ENDBRANCH  12  13
ENDBRANCH  11  12
BRANCH  11  15
HETATM   15  N4  UNL     1      10.706  18.920  63.556  1.00  0.00    -0.364 NA
HETATM   16  C18 UNL     1      11.220  17.680  63.254  1.00  0.00     0.339 C 
HETATM   17  O4  UNL     1      12.242  17.176  63.667  1.00  0.00    -0.250 OA
BRANCH  16  18
HETATM   18  C19 UNL     1      10.322  16.994  62.264  1.00  0.00     0.097 C 
HETATM   19  C20 UNL     1      10.103  17.810  61.040  1.00  0.00     0.064 C 
HETATM   20  C21 UNL     1       9.605  17.038  59.860  1.00  0.00     0.008 C 
HETATM   21  C22 UNL     1       9.388  15.571  60.119  1.00  0.00     0.021 C 
HETATM   22  C23 UNL     1       9.139  15.113  61.471  1.00  0.00     0.132 C 
HETATM   23  N5  UNL     1       9.199  16.244  62.480  1.00  0.00    -0.315 N 
HETATM   24  C24 UNL     1       8.193  16.186  63.462  1.00  0.00     0.228 C 
HETATM   25  O5  UNL     1       8.352  16.687  64.581  1.00  0.00    -0.273 OA
BRANCH  24  26
HETATM   26  C25 UNL     1       6.895  15.532  63.132  1.00  0.00     0.078 C 
HETATM   27  C26 UNL     1       5.745  15.785  64.030  1.00  0.00     0.014 C 
HETATM   28  C27 UNL     1       5.321  17.179  63.787  1.00  0.00     0.001 C 
HETATM   29  C28 UNL     1       5.941  17.587  62.438  1.00  0.00     0.001 C 
HETATM   30  C29 UNL     1       6.355  16.284  61.851  1.00  0.00     0.014 C 
ENDBRANCH  24  26
ENDBRANCH  16  18
ENDBRANCH  11  15
ENDBRANCH   8  11
ENDBRANCH   2   7
BRANCH   1  31
HETATM   31  N2  UNL     1      15.789  22.142  65.209  1.00  0.00    -0.331 N 
ATOM     32  H2  UNL     1      15.910  21.976  66.208  1.00  0.00     0.168 HD
BRANCH  31  33
HETATM   33  C6  UNL     1      16.549  23.201  64.735  1.00  0.00     0.105 C 
BRANCH  33  34
HETATM   34  C5  UNL     1      17.796  23.356  63.973  1.00  0.00     0.272 C 
HETATM   35  N1  UNL     1      17.696  24.102  62.723  1.00  0.00    -0.331 N 
ATOM     36  H1  UNL     1      16.752  24.431  62.521  1.00  0.00     0.168 HD
HETATM   37  O1  UNL     1      18.870  22.917  64.298  1.00  0.00    -0.266 OA
BRANCH  35  38
HETATM   38  C4  UNL     1      18.622  24.456  61.754  1.00  0.00     0.097 C 
BRANCH  38  39
HETATM   39  C2  UNL     1      18.949  23.747  60.556  1.00  0.00    -0.056 C 
HETATM   40  C1  UNL     1      18.987  24.339  59.370  1.00  0.00     0.020 C 
HETATM   41  C3  UNL     1      19.278  22.266  60.504  1.00  0.00     0.049 C 
ENDBRANCH  38  39
ENDBRANCH  35  38
ENDBRANCH  33  34
BRANCH  33  42
HETATM   42  C30 UNL     1      16.266  24.460  65.609  1.00  0.00    -0.048 C 
HETATM   43  C31 UNL     1      15.320  24.180  66.734  1.00  0.00     0.037 C 
HETATM   44  C32 UNL     1      15.949  24.199  68.094  1.00  0.00     0.004 C 
HETATM   45  C33 UNL     1      17.008  25.275  68.279  1.00  0.00     0.001 C 
HETATM   46  C34 UNL     1      18.083  25.141  67.255  1.00  0.00     0.004 C 
HETATM   47  C35 UNL     1      17.365  25.355  65.926  1.00  0.00     0.037 C 
ENDBRANCH  33  42
ENDBRANCH  31  33
ENDBRANCH   1  31
BRANCH   1  48
HETATM   48  O2  UNL     1      15.106  20.068  65.386  1.00  0.00    -0.344 OA
ATOM     49  H2  UNL     1      14.488  20.200  66.095  1.00  0.00     0.219 HD
ENDBRANCH   1  48
TORSDOF 15
ENDMDL
MODEL 3
REMARK VINA RESULT: -10.140135297      1.094      2.555
REMARK  15 active torsions:
REMARK  status: ('A' for Active; 'I' for Inactive)
REMARK    1  A    between atoms: C2_2  and  C4_4 
REMARK    2  A    between atoms: C4_4  and  N1_5 
REMARK       I    between atoms: N1_5  and  C5_7 
REMARK    3  A    between atoms: C5_7  and  C6_9 
REMARK    4  A    between atoms: C6_9  and  N2_10 
REMARK    5  A    between atoms: C6_9  and  C30_44 
REMARK    6  A    between atoms: N2_10  and  C7_12 
REMARK    7  A    between atoms: C7_12  and  O2_13 
REMARK    8  A    between atoms: C8_15  and  C9_16 
REMARK    9  A    between atoms: C8_15  and  N3_20 
REMARK       I    between atoms: N3_20  and  C13_22 
REMARK   10  A    between atoms: C13_22  and  C14_24 
REMARK   11  A    between atoms: C14_24  and  C15_25 
REMARK   12  A    between atoms: C14_24  and  N4_28 
REMARK   13  A    between atoms: C15_25  and  C16_26 
REMARK       I    between atoms: N4_28  and  C18_29 
REMARK   14  A    between atoms: C18_29  and  C19_31 
REMARK       I    between atoms: N5_36  and  C24_37 
REMARK   15  A    between atoms: C24_37  and  C25_39 
ROOT
HETATM    1  C7  UNL     1      14.798  20.847  64.179  1.00  0.00     0.168 C 
HETATM    2  C8  UNL     1      14.030  20.716  63.073  1.00  0.00     0.086 C 
ENDROOT
BRANCH   2   3
HETATM    3  C9  UNL     1      14.234  21.442  61.732  1.00  0.00     0.036 C 
HETATM    4  C10 UNL     1      15.436  21.466  61.012  1.00  0.00    -0.085 C 
HETATM    5  C11 UNL     1      16.199  20.385  60.439  1.00  0.00     0.043 C 
HETATM    6  C12 UNL     1      15.269  22.609  59.937  1.00  0.00     0.043 C 
ENDBRANCH   2   3
BRANCH   2   7
HETATM    7  N3  UNL     1      12.677  20.293  62.966  1.00  0.00    -0.317 N 
HETATM    8  C13 UNL     1      11.720  19.524  62.292  1.00  0.00     0.282 C 
HETATM    9  O3  UNL     1      11.955  18.847  61.297  1.00  0.00    -0.265 OA
ATOM     10  H3  UNL     1      12.177  20.761  63.722  1.00  0.00     0.169 HD
BRANCH   8  11
HETATM   11  C14 UNL     1      10.315  19.579  62.842  1.00  0.00     0.156 C 
BRANCH  11  12
HETATM   12  C15 UNL     1       9.944  20.701  63.727  1.00  0.00     0.078 C 
BRANCH  12  13
HETATM   13  C16 UNL     1       9.525  20.187  65.105  1.00  0.00     0.003 C 
HETATM   14  C17 UNL     1       9.930  21.025  66.256  1.00  0.00     0.005 C 
ENDBRANCH  12  13
ENDBRANCH  11  12
BRANCH  11  15
HETATM   15  N4  UNL     1       9.718  18.366  62.827  1.00  0.00    -0.364 NA
HETATM   16  C18 UNL     1       9.124  17.126  62.801  1.00  0.00     0.339 C 
HETATM   17  O4  UNL     1       9.327  16.219  62.024  1.00  0.00    -0.250 OA
BRANCH  16  18
HETATM   18  C19 UNL     1       8.104  17.036  63.901  1.00  0.00     0.097 C 
HETATM   19  C20 UNL     1       8.365  15.895  64.819  1.00  0.00     0.064 C 
HETATM   20  C21 UNL     1       7.684  15.998  66.147  1.00  0.00     0.008 C 
HETATM   21  C22 UNL     1       6.832  17.228  66.318  1.00  0.00     0.021 C 
HETATM   22  C23 UNL     1       6.295  17.895  65.149  1.00  0.00     0.132 C 
HETATM   23  N5  UNL     1       6.754  17.245  63.857  1.00  0.00    -0.315 N 
HETATM   24  C24 UNL     1       5.742  17.133  62.885  1.00  0.00     0.228 C 
HETATM   25  O5  UNL     1       6.007  17.095  61.679  1.00  0.00    -0.273 OA
BRANCH  24  26
HETATM   26  C25 UNL     1       4.322  17.028  63.326  1.00  0.00     0.078 C 
HETATM   27  C26 UNL     1       3.288  16.822  62.285  1.00  0.00     0.014 C 
HETATM   28  C27 UNL     1       3.442  15.432  61.810  1.00  0.00     0.001 C 
HETATM   29  C28 UNL     1       4.271  14.701  62.883  1.00  0.00     0.001 C 
HETATM   30  C29 UNL     1       4.204  15.626  64.046  1.00  0.00     0.014 C 
ENDBRANCH  24  26
ENDBRANCH  16  18
ENDBRANCH  11  15
ENDBRANCH   8  11
ENDBRANCH   2   7
BRANCH   1  31
HETATM   31  N2  UNL     1      15.543  21.720  64.983  1.00  0.00    -0.331 N 
ATOM     32  H2  UNL     1      15.569  21.440  65.963  1.00  0.00     0.168 HD
BRANCH  31  33
HETATM   33  C6  UNL     1      16.251  22.885  64.728  1.00  0.00     0.105 C 
BRANCH  33  34
HETATM   34  C5  UNL     1      17.554  23.229  64.141  1.00  0.00     0.272 C 
HETATM   35  N1  UNL     1      17.525  23.777  62.790  1.00  0.00    -0.331 N 
ATOM     36  H1  UNL     1      16.584  23.855  62.403  1.00  0.00     0.168 HD
HETATM   37  O1  UNL     1      18.620  23.089  64.684  1.00  0.00    -0.266 OA
BRANCH  35  38
HETATM   38  C4  UNL     1      18.514  24.214  61.923  1.00  0.00     0.097 C 
BRANCH  38  39
HETATM   39  C2  UNL     1      18.894  23.642  60.668  1.00  0.00    -0.056 C 
HETATM   40  C1  UNL     1      19.233  22.365  60.545  1.00  0.00     0.020 C 
HETATM   41  C3  UNL     1      18.956  24.413  59.363  1.00  0.00     0.049 C 
ENDBRANCH  38  39
ENDBRANCH  35  38
ENDBRANCH  33  34
BRANCH  33  42
HETATM   42  C30 UNL     1      15.763  24.000  65.701  1.00  0.00    -0.048 C 
HETATM   43  C31 UNL     1      14.825  23.483  66.747  1.00  0.00     0.037 C 
HETATM   44  C32 UNL     1      15.396  23.449  68.132  1.00  0.00     0.004 C 
HETATM   45  C33 UNL     1      16.287  24.635  68.470  1.00  0.00     0.001 C 
HETATM   46  C34 UNL     1      17.406  24.752  67.493  1.00  0.00     0.004 C 
HETATM   47  C35 UNL     1      16.714  24.999  66.156  1.00  0.00     0.037 C 
ENDBRANCH  33  42
ENDBRANCH  31  33
ENDBRANCH   1  31
BRANCH   1  48
HETATM   48  O2  UNL     1      15.023  19.596  64.845  1.00  0.00    -0.344 OA
ATOM     49  H2  UNL     1      15.438  19.092  64.155  1.00  0.00     0.219 HD
ENDBRANCH   1  48
TORSDOF 15
ENDMDL
MODEL 4
REMARK VINA RESULT: -10.139888087      1.862     10.977
REMARK  15 active torsions:
REMARK  status: ('A' for Active; 'I' for Inactive)
REMARK    1  A    between atoms: C2_2  and  C4_4 
REMARK    2  A    between atoms: C4_4  and  N1_5 
REMARK       I    between atoms: N1_5  and  C5_7 
REMARK    3  A    between atoms: C5_7  and  C6_9 
REMARK    4  A    between atoms: C6_9  and  N2_10 
REMARK    5  A    between atoms: C6_9  and  C30_44 
REMARK    6  A    between atoms: N2_10  and  C7_12 
REMARK    7  A    between atoms: C7_12  and  O2_13 
REMARK    8  A    between atoms: C8_15  and  C9_16 
REMARK    9  A    between atoms: C8_15  and  N3_20 
REMARK       I    between atoms: N3_20  and  C13_22 
REMARK   10  A    between atoms: C13_22  and  C14_24 
REMARK   11  A    between atoms: C14_24  and  C15_25 
REMARK   12  A    between atoms: C14_24  and  N4_28 
REMARK   13  A    between atoms: C15_25  and  C16_26 
REMARK       I    between atoms: N4_28  and  C18_29 
REMARK   14  A    between atoms: C18_29  and  C19_31 
REMARK       I    between atoms: N5_36  and  C24_37 
REMARK   15  A    between atoms: C24_37  and  C25_39 
ROOT
HETATM    1  C7  UNL     1      12.479  18.664  64.674  1.00  0.00     0.168 C 
HETATM    2  C8  UNL     1      12.616  19.855  65.301  1.00  0.00     0.086 C 
ENDROOT
BRANCH   2   3
HETATM    3  C9  UNL     1      11.504  20.634  66.025  1.00  0.00     0.036 C 
HETATM    4  C10 UNL     1      10.321  20.067  66.517  1.00  0.00    -0.085 C 
HETATM    5  C11 UNL     1      10.125  19.040  67.510  1.00  0.00     0.043 C 
HETATM    6  C12 UNL     1       9.360  21.279  66.827  1.00  0.00     0.043 C 
ENDBRANCH   2   3
BRANCH   2   7
HETATM    7  N3  UNL     1      13.589  20.870  65.095  1.00  0.00    -0.317 N 
HETATM    8  C13 UNL     1      14.238  21.734  64.205  1.00  0.00     0.282 C 
HETATM    9  O3  UNL     1      14.023  21.770  62.999  1.00  0.00    -0.265 OA
ATOM     10  H3  UNL     1      14.001  21.051  66.011  1.00  0.00     0.169 HD
BRANCH   8  11
HETATM   11  C14 UNL     1      15.283  22.645  64.804  1.00  0.00     0.156 C 
BRANCH  11  12
HETATM   12  C15 UNL     1      14.854  23.671  65.776  1.00  0.00     0.078 C 
BRANCH  12  13
HETATM   13  C16 UNL     1      15.947  23.921  66.815  1.00  0.00     0.003 C 
HETATM   14  C17 UNL     1      15.525  23.819  68.231  1.00  0.00     0.005 C 
ENDBRANCH  12  13
ENDBRANCH  11  12
BRANCH  11  15
HETATM   15  N4  UNL     1      16.395  22.712  64.039  1.00  0.00    -0.364 NA
HETATM   16  C18 UNL     1      17.537  22.779  63.275  1.00  0.00     0.339 C 
HETATM   17  O4  UNL     1      18.673  22.972  63.649  1.00  0.00    -0.250 OA
BRANCH  16  18
HETATM   18  C19 UNL     1      17.181  22.603  61.826  1.00  0.00     0.097 C 
HETATM   19  C20 UNL     1      17.234  21.179  61.401  1.00  0.00     0.064 C 
HETATM   20  C21 UNL     1      16.488  20.878  60.140  1.00  0.00     0.008 C 
HETATM   21  C22 UNL     1      15.830  22.074  59.503  1.00  0.00     0.021 C 
HETATM   22  C23 UNL     1      16.351  23.401  59.767  1.00  0.00     0.132 C 
HETATM   23  N5  UNL     1      17.507  23.379  60.748  1.00  0.00    -0.315 N 
HETATM   24  C24 UNL     1      18.564  24.242  60.403  1.00  0.00     0.228 C 
HETATM   25  O5  UNL     1      19.319  24.713  61.261  1.00  0.00    -0.273 OA
BRANCH  24  26
HETATM   26  C25 UNL     1      18.793  24.570  58.967  1.00  0.00     0.078 C 
HETATM   27  C26 UNL     1      17.719  25.290  58.243  1.00  0.00     0.014 C 
HETATM   28  C27 UNL     1      17.722  26.674  58.756  1.00  0.00     0.001 C 
HETATM   29  C28 UNL     1      19.081  26.871  59.453  1.00  0.00     0.001 C 
HETATM   30  C29 UNL     1      19.880  25.717  58.962  1.00  0.00     0.014 C 
ENDBRANCH  24  26
ENDBRANCH  16  18
ENDBRANCH  11  15
ENDBRANCH   8  11
ENDBRANCH   2   7
BRANCH   1  31
HETATM   31  N2  UNL     1      11.657  17.852  63.882  1.00  0.00    -0.331 N 
ATOM     32  H2  UNL     1      12.153  17.067  63.459  1.00  0.00     0.168 HD
BRANCH  31  33
HETATM   33  C6  UNL     1      10.310  17.889  63.551  1.00  0.00     0.105 C 
BRANCH  33  34
HETATM   34  C5  UNL     1       9.064  17.347  64.110  1.00  0.00     0.272 C 
HETATM   35  N1  UNL     1       8.102  18.325  64.603  1.00  0.00    -0.331 N 
ATOM     36  H1  UNL     1       8.417  19.290  64.504  1.00  0.00     0.168 HD
HETATM   37  O1  UNL     1       8.789  16.176  64.191  1.00  0.00    -0.266 OA
BRANCH  35  38
HETATM   38  C4  UNL     1       6.847  18.212  65.181  1.00  0.00     0.097 C 
BRANCH  38  39
HETATM   39  C2  UNL     1       6.445  18.628  66.489  1.00  0.00    -0.056 C 
HETATM   40  C1  UNL     1       6.637  17.874  67.563  1.00  0.00     0.020 C 
HETATM   41  C3  UNL     1       5.763  19.950  66.792  1.00  0.00     0.049 C 
ENDBRANCH  38  39
ENDBRANCH  35  38
ENDBRANCH  33  34
BRANCH  33  42
HETATM   42  C30 UNL     1      10.170  18.155  62.022  1.00  0.00    -0.048 C 
HETATM   43  C31 UNL     1      11.206  17.438  61.214  1.00  0.00     0.037 C 
HETATM   44  C32 UNL     1      10.676  16.304  60.390  1.00  0.00     0.004 C 
HETATM   45  C33 UNL     1       9.314  16.567  59.766  1.00  0.00     0.001 C 
HETATM   46  C34 UNL     1       8.309  16.911  60.811  1.00  0.00     0.004 C 
HETATM   47  C35 UNL     1       8.842  18.196  61.437  1.00  0.00     0.037 C 
ENDBRANCH  33  42
ENDBRANCH  31  33
ENDBRANCH   1  31
BRANCH   1  48
HETATM   48  O2  UNL     1      13.595  17.791  64.901  1.00  0.00    -0.344 OA
ATOM     49  H2  UNL     1      13.161  17.030  65.269  1.00  0.00     0.219 HD
ENDBRANCH   1  48
TORSDOF 15
ENDMDL
MODEL 5
REMARK VINA RESULT: -10.120229159      1.428      3.150
REMARK  15 active torsions:
REMARK  status: ('A' for Active; 'I' for Inactive)
REMARK    1  A    between atoms: C2_2  and  C4_4 
REMARK    2  A    between atoms: C4_4  and  N1_5 
REMARK       I    between atoms: N1_5  and  C5_7 
REMARK    3  A    between atoms: C5_7  and  C6_9 
REMARK    4  A    between atoms: C6_9  and  N2_10 
REMARK    5  A    between atoms: C6_9  and  C30_44 
REMARK    6  A    between atoms: N2_10  and  C7_12 
REMARK    7  A    between atoms: C7_12  and  O2_13 
REMARK    8  A    between atoms: C8_15  and  C9_16 
REMARK    9  A    between atoms: C8_15  and  N3_20 
REMARK       I    between atoms: N3_20  and  C13_22 
REMARK   10  A    between atoms: C13_22  and  C14_24 
REMARK   11  A    between atoms: C14_24  and  C15_25 
REMARK   12  A    between atoms: C14_24  and  N4_28 
REMARK   13  A    between atoms: C15_25  and  C16_26 
REMARK       I    between atoms: N4_28  and  C18_29 
REMARK   14  A    between atoms: C18_29  and  C19_31 
REMARK       I    between atoms: N5_36  and  C24_37 
REMARK   15  A    between atoms: C24_37  and  C25_39 
ROOT
HETATM    1  C7  UNL     1      15.106  21.151  64.476  1.00  0.00     0.168 C 
HETATM    2  C8  UNL     1      14.394  20.730  63.405  1.00  0.00     0.086 C 
ENDROOT
BRANCH   2   3
HETATM    3  C9  UNL     1      14.504  21.273  61.970  1.00  0.00     0.036 C 
HETATM    4  C10 UNL     1      15.683  21.751  61.383  1.00  0.00    -0.085 C 
HETATM    5  C11 UNL     1      16.933  21.078  61.127  1.00  0.00     0.043 C 
HETATM    6  C12 UNL     1      15.235  22.524  60.083  1.00  0.00     0.043 C 
ENDBRANCH   2   3
BRANCH   2   7
HETATM    7  N3  UNL     1      13.134  20.074  63.367  1.00  0.00    -0.317 N 
HETATM    8  C13 UNL     1      12.365  18.954  63.706  1.00  0.00     0.282 C 
HETATM    9  O3  UNL     1      12.802  17.967  64.287  1.00  0.00    -0.265 OA
ATOM     10  H3  UNL     1      12.506  20.705  62.869  1.00  0.00     0.169 HD
BRANCH   8  11
HETATM   11  C14 UNL     1      10.915  18.991  63.287  1.00  0.00     0.156 C 
BRANCH  11  12
HETATM   12  C15 UNL     1      10.590  18.879  61.850  1.00  0.00     0.078 C 
BRANCH  12  13
HETATM   13  C16 UNL     1      10.822  17.452  61.354  1.00  0.00     0.003 C 
HETATM   14  C17 UNL     1       9.979  17.020  60.215  1.00  0.00     0.005 C 
ENDBRANCH  12  13
ENDBRANCH  11  12
BRANCH  11  15
HETATM   15  N4  UNL     1      10.133  19.580  64.220  1.00  0.00    -0.364 NA
HETATM   16  C18 UNL     1       9.345  20.194  65.164  1.00  0.00     0.339 C 
HETATM   17  O4  UNL     1       9.397  21.343  65.545  1.00  0.00    -0.250 OA
BRANCH  16  18
HETATM   18  C19 UNL     1       8.368  19.200  65.726  1.00  0.00     0.097 C 
HETATM   19  C20 UNL     1       9.024  18.210  66.621  1.00  0.00     0.064 C 
HETATM   20  C21 UNL     1       8.089  17.488  67.539  1.00  0.00     0.008 C 
HETATM   21  C22 UNL     1       6.641  17.871  67.383  1.00  0.00     0.021 C 
HETATM   22  C23 UNL     1       6.178  18.420  66.124  1.00  0.00     0.132 C 
HETATM   23  N5  UNL     1       7.305  18.588  65.123  1.00  0.00    -0.315 N 
HETATM   24  C24 UNL     1       6.962  18.212  63.811  1.00  0.00     0.228 C 
HETATM   25  O5  UNL     1       7.529  18.704  62.829  1.00  0.00    -0.273 OA
BRANCH  24  26
HETATM   26  C25 UNL     1       5.911  17.175  63.605  1.00  0.00     0.078 C 
HETATM   27  C26 UNL     1       5.483  16.892  62.215  1.00  0.00     0.014 C 
HETATM   28  C27 UNL     1       6.595  16.164  61.573  1.00  0.00     0.001 C 
HETATM   29  C28 UNL     1       7.484  15.641  62.717  1.00  0.00     0.001 C 
HETATM   30  C29 UNL     1       6.614  15.794  63.914  1.00  0.00     0.014 C 
ENDBRANCH  24  26
ENDBRANCH  16  18
ENDBRANCH  11  15
ENDBRANCH   8  11
ENDBRANCH   2   7
BRANCH   1  31
HETATM   31  N2  UNL     1      15.677  22.246  65.137  1.00  0.00    -0.331 N 
ATOM     32  H2  UNL     1      15.445  22.283  66.130  1.00  0.00     0.168 HD
BRANCH  31  33
HETATM   33  C6  UNL     1      16.492  23.292  64.728  1.00  0.00     0.105 C 
BRANCH  33  34
HETATM   34  C5  UNL     1      17.765  23.427  64.008  1.00  0.00     0.272 C 
HETATM   35  N1  UNL     1      17.726  24.201  62.773  1.00  0.00    -0.331 N 
ATOM     36  H1  UNL     1      16.799  24.562  62.549  1.00  0.00     0.168 HD
HETATM   37  O1  UNL     1      18.816  22.950  64.357  1.00  0.00    -0.266 OA
BRANCH  35  38
HETATM   38  C4  UNL     1      18.692  24.548  61.841  1.00  0.00     0.097 C 
BRANCH  38  39
HETATM   39  C2  UNL     1      18.503  24.844  60.454  1.00  0.00    -0.056 C 
HETATM   40  C1  UNL     1      19.251  24.298  59.505  1.00  0.00     0.020 C 
HETATM   41  C3  UNL     1      17.451  25.800  59.922  1.00  0.00     0.049 C 
ENDBRANCH  38  39
ENDBRANCH  35  38
ENDBRANCH  33  34
BRANCH  33  42
HETATM   42  C30 UNL     1      16.231  24.527  65.643  1.00  0.00    -0.048 C 
HETATM   43  C31 UNL     1      15.261  24.234  66.745  1.00  0.00     0.037 C 
HETATM   44  C32 UNL     1      15.870  24.184  68.113  1.00  0.00     0.004 C 
HETATM   45  C33 UNL     1      16.957  25.222  68.351  1.00  0.00     0.001 C 
HETATM   46  C34 UNL     1      18.042  25.095  67.338  1.00  0.00     0.004 C 
HETATM   47  C35 UNL     1      17.350  25.377  66.008  1.00  0.00     0.037 C 
ENDBRANCH  33  42
ENDBRANCH  31  33
ENDBRANCH   1  31
BRANCH   1  48
HETATM   48  O2  UNL     1      15.522  20.068  65.321  1.00  0.00    -0.344 OA
ATOM     49  H2  UNL     1      15.211  20.366  66.168  1.00  0.00     0.219 HD
ENDBRANCH   1  48
TORSDOF 15
ENDMDL
