MODEL 1
REMARK VINA RESULT: -6.663897976      0.000      0.000
REMARK  17 active torsions:
REMARK  status: ('A' for Active; 'I' for Inactive)
REMARK    1  A    between atoms: C2_2  and  C3_3 
REMARK    2  A    between atoms: C3_3  and  C4_5 
REMARK    3  A    between atoms: C4_5  and  C5_6 
REMARK    4  A    between atoms: C5_6  and  C6_7 
REMARK    5  A    between atoms: C6_7  and  C7_8 
REMARK    6  A    between atoms: C7_8  and  C8_9 
REMARK    7  A    between atoms: C8_9  and  C9_10 
REMARK    8  A    between atoms: C9_10  and  C10_11 
REMARK    9  A    between atoms: C12_16  and  C13_17 
REMARK   10  A    between atoms: C13_17  and  C14_18 
REMARK   11  A    between atoms: C18_25  and  C19_26 
REMARK   12  A    between atoms: C19_26  and  C20_27 
REMARK   13  A    between atoms: C23_30  and  O4_31 
REMARK   14  A    between atoms: C24_35  and  C25_36 
REMARK   15  A    between atoms: C25_36  and  C26_37 
REMARK   16  A    between atoms: C30_44  and  C31_45 
REMARK   17  A    between atoms: C31_45  and  C32_46 
ROOT
HETATM    1  C10 UNL     1       7.747  18.866  66.689  1.00  0.00     0.149 C 
HETATM    2  C11 UNL     1       7.670  17.423  66.641  1.00  0.00     0.229 C 
HETATM    3  O2  UNL     1       7.034  16.805  67.521  1.00  0.00    -0.273 OA
HETATM    4  N1  UNL     1       8.285  16.646  65.638  1.00  0.00    -0.347 N 
ATOM      5  H1  UNL     1       8.685  15.749  65.914  1.00  0.00     0.163 HD
HETATM    6  C12 UNL     1       8.391  17.035  64.219  1.00  0.00     0.177 C 
HETATM    7  C17 UNL     1       8.069  15.784  63.472  1.00  0.00     0.244 C 
HETATM    8  O3  UNL     1       9.132  15.199  63.031  1.00  0.00    -0.271 OA
HETATM    9  N2  UNL     1       6.852  15.201  63.208  1.00  0.00    -0.325 N 
ATOM     10  H2  UNL     1       6.786  14.251  63.572  1.00  0.00     0.169 HD
HETATM   11  C18 UNL     1       5.663  15.615  62.544  1.00  0.00     0.063 C 
HETATM   12  C23 UNL     1       4.386  15.375  63.245  1.00  0.00     0.159 C 
HETATM   13  N3  UNL     1       4.024  15.372  64.586  1.00  0.00    -0.356 N 
ATOM     14  H3  UNL     1       3.992  14.435  64.989  1.00  0.00     0.162 HD
HETATM   15  C24 UNL     1       3.688  16.399  65.523  1.00  0.00     0.176 C 
HETATM   16  C29 UNL     1       4.054  17.788  65.074  1.00  0.00     0.241 C 
HETATM   17  O5  UNL     1       3.315  18.136  64.070  1.00  0.00    -0.271 OA
HETATM   18  N4  UNL     1       4.995  18.659  65.558  1.00  0.00    -0.348 N 
ATOM     19  H4  UNL     1       5.742  18.868  64.895  1.00  0.00     0.163 HD
HETATM   20  C30 UNL     1       5.133  19.337  66.824  1.00  0.00     0.155 C 
HETATM   21  C35 UNL     1       6.563  19.634  67.081  1.00  0.00     0.162 C 
HETATM   22  O6  UNL     1       6.837  20.671  67.714  1.00  0.00    -0.295 OA
ENDROOT
BRANCH   1  23
HETATM   23  C9  UNL     1       8.930  19.226  67.573  1.00  0.00     0.022 C 
BRANCH  23  24
HETATM   24  C8  UNL     1      10.156  19.601  66.840  1.00  0.00     0.001 C 
BRANCH  24  25
HETATM   25  C7  UNL     1      10.019  21.050  66.376  1.00  0.00     0.000 C 
BRANCH  25  26
HETATM   26  C6  UNL     1      11.082  21.495  65.446  1.00  0.00     0.000 C 
BRANCH  26  27
HETATM   27  C5  UNL     1      12.342  20.732  65.672  1.00  0.00     0.007 C 
BRANCH  27  28
HETATM   28  C4  UNL     1      13.374  20.947  64.594  1.00  0.00     0.078 C 
BRANCH  28  29
HETATM   29  C3  UNL     1      13.587  19.641  63.865  1.00  0.00     0.126 C 
HETATM   30  O1  UNL     1      13.395  18.582  64.435  1.00  0.00    -0.298 OA
BRANCH  29  31
HETATM   31  C2  UNL     1      14.032  19.624  62.446  1.00  0.00     0.074 C 
HETATM   32  C1  UNL     1      13.300  20.718  61.657  1.00  0.00     0.013 C 
ENDBRANCH  29  31
ENDBRANCH  28  29
ENDBRANCH  27  28
ENDBRANCH  26  27
ENDBRANCH  25  26
ENDBRANCH  24  25
ENDBRANCH  23  24
ENDBRANCH   1  23
BRANCH  20  33
HETATM   33  C31 UNL     1       4.369  18.771  67.956  1.00  0.00     0.037 C 
BRANCH  33  34
HETATM   34  C32 UNL     1       3.460  19.833  68.565  1.00  0.00    -0.020 C 
HETATM   35  C33 UNL     1       2.688  19.061  69.664  1.00  0.00     0.009 C 
HETATM   36  C34 UNL     1       2.413  20.164  67.525  1.00  0.00     0.009 C 
ENDBRANCH  33  34
ENDBRANCH  20  33
BRANCH   6  37
HETATM   37  C13 UNL     1       9.851  17.430  64.067  1.00  0.00     0.038 C 
BRANCH  37  38
HETATM   38  C14 UNL     1       9.992  18.743  63.400  1.00  0.00    -0.020 C 
HETATM   39  C15 UNL     1      10.388  18.542  61.950  1.00  0.00     0.009 C 
HETATM   40  C16 UNL     1       8.650  19.490  63.385  1.00  0.00     0.009 C 
ENDBRANCH  37  38
ENDBRANCH   6  37
BRANCH  15  41
HETATM   41  C25 UNL     1       2.220  16.493  65.794  1.00  0.00     0.038 C 
BRANCH  41  42
HETATM   42  C26 UNL     1       1.789  16.180  67.168  1.00  0.00    -0.020 C 
HETATM   43  C27 UNL     1       1.511  14.773  67.543  1.00  0.00     0.009 C 
HETATM   44  C28 UNL     1       0.511  16.980  67.480  1.00  0.00     0.009 C 
ENDBRANCH  41  42
ENDBRANCH  15  41
BRANCH  11  45
HETATM   45  C19 UNL     1       5.710  16.889  61.764  1.00  0.00     0.065 C 
BRANCH  45  46
HETATM   46  C20 UNL     1       7.137  17.214  61.305  1.00  0.00    -0.017 C 
HETATM   47  C21 UNL     1       7.470  16.295  60.149  1.00  0.00     0.010 C 
HETATM   48  C22 UNL     1       7.053  18.612  60.713  1.00  0.00     0.010 C 
ENDBRANCH  45  46
ENDBRANCH  11  45
BRANCH  12  49
HETATM   49  O4  UNL     1       3.408  15.111  62.426  1.00  0.00    -0.345 OA
ATOM     50  H4  UNL     1       3.465  15.610  61.619  1.00  0.00     0.219 HD
ENDBRANCH  12  49
TORSDOF 17
ENDMDL
MODEL 2
REMARK VINA RESULT: -6.647981691      1.217      1.753
REMARK  17 active torsions:
REMARK  status: ('A' for Active; 'I' for Inactive)
REMARK    1  A    between atoms: C2_2  and  C3_3 
REMARK    2  A    between atoms: C3_3  and  C4_5 
REMARK    3  A    between atoms: C4_5  and  C5_6 
REMARK    4  A    between atoms: C5_6  and  C6_7 
REMARK    5  A    between atoms: C6_7  and  C7_8 
REMARK    6  A    between atoms: C7_8  and  C8_9 
REMARK    7  A    between atoms: C8_9  and  C9_10 
REMARK    8  A    between atoms: C9_10  and  C10_11 
REMARK    9  A    between atoms: C12_16  and  C13_17 
REMARK   10  A    between atoms: C13_17  and  C14_18 
REMARK   11  A    between atoms: C18_25  and  C19_26 
REMARK   12  A    between atoms: C19_26  and  C20_27 
REMARK   13  A    between atoms: C23_30  and  O4_31 
REMARK   14  A    between atoms: C24_35  and  C25_36 
REMARK   15  A    between atoms: C25_36  and  C26_37 
REMARK   16  A    between atoms: C30_44  and  C31_45 
REMARK   17  A    between atoms: C31_45  and  C32_46 
ROOT
HETATM    1  C10 UNL     1       7.661  18.911  66.610  1.00  0.00     0.149 C 
HETATM    2  C11 UNL     1       7.628  17.466  66.576  1.00  0.00     0.229 C 
HETATM    3  O2  UNL     1       7.014  16.837  67.463  1.00  0.00    -0.273 OA
HETATM    4  N1  UNL     1       8.265  16.698  65.579  1.00  0.00    -0.347 N 
ATOM      5  H1  UNL     1       8.694  15.817  65.862  1.00  0.00     0.163 HD
HETATM    6  C12 UNL     1       8.356  17.076  64.155  1.00  0.00     0.177 C 
HETATM    7  C17 UNL     1       8.071  15.809  63.422  1.00  0.00     0.244 C 
HETATM    8  O3  UNL     1       9.151  15.253  62.984  1.00  0.00    -0.271 OA
HETATM    9  N2  UNL     1       6.872  15.186  63.167  1.00  0.00    -0.325 N 
ATOM     10  H2  UNL     1       6.836  14.238  63.541  1.00  0.00     0.169 HD
HETATM   11  C18 UNL     1       5.669  15.556  62.502  1.00  0.00     0.063 C 
HETATM   12  C23 UNL     1       4.402  15.284  63.209  1.00  0.00     0.159 C 
HETATM   13  N3  UNL     1       4.044  15.283  64.550  1.00  0.00    -0.356 N 
ATOM     14  H3  UNL     1       4.041  14.350  64.963  1.00  0.00     0.162 HD
HETATM   15  C24 UNL     1       3.678  16.309  65.478  1.00  0.00     0.176 C 
HETATM   16  C29 UNL     1       3.999  17.703  65.014  1.00  0.00     0.241 C 
HETATM   17  O5  UNL     1       3.247  18.018  64.009  1.00  0.00    -0.271 OA
HETATM   18  N4  UNL     1       4.914  18.608  65.487  1.00  0.00    -0.348 N 
ATOM     19  H4  UNL     1       5.652  18.833  64.821  1.00  0.00     0.163 HD
HETATM   20  C30 UNL     1       5.034  19.303  66.746  1.00  0.00     0.155 C 
HETATM   21  C35 UNL     1       6.454  19.646  66.997  1.00  0.00     0.162 C 
HETATM   22  O6  UNL     1       6.698  20.698  67.619  1.00  0.00    -0.295 OA
ENDROOT
BRANCH   1  23
HETATM   23  C9  UNL     1       8.835  19.316  67.487  1.00  0.00     0.022 C 
BRANCH  23  24
HETATM   24  C8  UNL     1       9.891  20.077  66.790  1.00  0.00     0.001 C 
BRANCH  24  25
HETATM   25  C7  UNL     1      11.177  19.252  66.813  1.00  0.00     0.000 C 
BRANCH  25  26
HETATM   26  C6  UNL     1      12.237  19.752  65.908  1.00  0.00     0.000 C 
BRANCH  26  27
HETATM   27  C5  UNL     1      12.045  21.199  65.610  1.00  0.00     0.007 C 
BRANCH  27  28
HETATM   28  C4  UNL     1      13.097  21.767  64.690  1.00  0.00     0.078 C 
BRANCH  28  29
HETATM   29  C3  UNL     1      13.924  22.766  65.465  1.00  0.00     0.126 C 
HETATM   30  O1  UNL     1      13.963  23.932  65.114  1.00  0.00    -0.298 OA
BRANCH  29  31
HETATM   31  C2  UNL     1      14.700  22.349  66.662  1.00  0.00     0.074 C 
HETATM   32  C1  UNL     1      15.031  23.576  67.524  1.00  0.00     0.013 C 
ENDBRANCH  29  31
ENDBRANCH  28  29
ENDBRANCH  27  28
ENDBRANCH  26  27
ENDBRANCH  25  26
ENDBRANCH  24  25
ENDBRANCH  23  24
ENDBRANCH   1  23
BRANCH  20  33
HETATM   33  C31 UNL     1       4.290  18.724  67.886  1.00  0.00     0.037 C 
BRANCH  33  34
HETATM   34  C32 UNL     1       3.437  19.794  68.560  1.00  0.00    -0.020 C 
HETATM   35  C33 UNL     1       2.656  19.006  69.641  1.00  0.00     0.009 C 
HETATM   36  C34 UNL     1       2.384  20.212  67.557  1.00  0.00     0.009 C 
ENDBRANCH  33  34
ENDBRANCH  20  33
BRANCH   6  37
HETATM   37  C13 UNL     1       9.802  17.515  63.996  1.00  0.00     0.038 C 
BRANCH  37  38
HETATM   38  C14 UNL     1       9.957  18.490  62.894  1.00  0.00    -0.020 C 
HETATM   39  C15 UNL     1       9.480  19.856  63.347  1.00  0.00     0.009 C 
HETATM   40  C16 UNL     1      11.437  18.649  62.516  1.00  0.00     0.009 C 
ENDBRANCH  37  38
ENDBRANCH   6  37
BRANCH  15  41
HETATM   41  C25 UNL     1       2.208  16.360  65.752  1.00  0.00     0.038 C 
BRANCH  41  42
HETATM   42  C26 UNL     1       1.803  16.258  67.165  1.00  0.00    -0.020 C 
HETATM   43  C27 UNL     1       1.607  14.921  67.774  1.00  0.00     0.009 C 
HETATM   44  C28 UNL     1       0.485  17.029  67.360  1.00  0.00     0.009 C 
ENDBRANCH  41  42
ENDBRANCH  15  41
BRANCH  11  45
HETATM   45  C19 UNL     1       5.675  16.823  61.709  1.00  0.00     0.065 C 
BRANCH  45  46
HETATM   46  C20 UNL     1       7.102  17.255  61.351  1.00  0.00    -0.017 C 
HETATM   47  C21 UNL     1       7.540  16.450  60.147  1.00  0.00     0.010 C 
HETATM   48  C22 UNL     1       6.971  18.691  60.867  1.00  0.00     0.010 C 
ENDBRANCH  45  46
ENDBRANCH  11  45
BRANCH  12  49
HETATM   49  O4  UNL     1       3.431  14.981  62.395  1.00  0.00    -0.345 OA
ATOM     50  H4  UNL     1       2.633  15.461  62.585  1.00  0.00     0.219 HD
ENDBRANCH  12  49
TORSDOF 17
ENDMDL
MODEL 3
REMARK VINA RESULT: -6.429510201      1.740      2.393
REMARK  17 active torsions:
REMARK  status: ('A' for Active; 'I' for Inactive)
REMARK    1  A    between atoms: C2_2  and  C3_3 
REMARK    2  A    between atoms: C3_3  and  C4_5 
REMARK    3  A    between atoms: C4_5  and  C5_6 
REMARK    4  A    between atoms: C5_6  and  C6_7 
REMARK    5  A    between atoms: C6_7  and  C7_8 
REMARK    6  A    between atoms: C7_8  and  C8_9 
REMARK    7  A    between atoms: C8_9  and  C9_10 
REMARK    8  A    between atoms: C9_10  and  C10_11 
REMARK    9  A    between atoms: C12_16  and  C13_17 
REMARK   10  A    between atoms: C13_17  and  C14_18 
REMARK   11  A    between atoms: C18_25  and  C19_26 
REMARK   12  A    between atoms: C19_26  and  C20_27 
REMARK   13  A    between atoms: C23_30  and  O4_31 
REMARK   14  A    between atoms: C24_35  and  C25_36 
REMARK   15  A    between atoms: C25_36  and  C26_37 
REMARK   16  A    between atoms: C30_44  and  C31_45 
REMARK   17  A    between atoms: C31_45  and  C32_46 
ROOT
HETATM    1  C10 UNL     1       6.689  19.066  66.226  1.00  0.00     0.149 C 
HETATM    2  C11 UNL     1       6.553  17.642  66.431  1.00  0.00     0.229 C 
HETATM    3  O2  UNL     1       6.188  17.205  67.543  1.00  0.00    -0.273 OA
HETATM    4  N1  UNL     1       6.814  16.685  65.428  1.00  0.00    -0.347 N 
ATOM      5  H1  UNL     1       7.249  15.807  65.714  1.00  0.00     0.163 HD
HETATM    6  C12 UNL     1       6.505  16.860  63.996  1.00  0.00     0.177 C 
HETATM    7  C17 UNL     1       5.933  15.546  63.583  1.00  0.00     0.244 C 
HETATM    8  O3  UNL     1       6.797  14.822  62.951  1.00  0.00    -0.271 OA
HETATM    9  N2  UNL     1       4.674  15.029  63.778  1.00  0.00    -0.325 N 
ATOM     10  H2  UNL     1       4.689  14.148  64.291  1.00  0.00     0.169 HD
HETATM   11  C18 UNL     1       3.356  15.436  63.430  1.00  0.00     0.063 C 
HETATM   12  C23 UNL     1       2.339  15.399  64.500  1.00  0.00     0.159 C 
HETATM   13  N3  UNL     1       2.394  15.613  65.871  1.00  0.00    -0.356 N 
ATOM     14  H3  UNL     1       2.452  14.749  66.409  1.00  0.00     0.162 HD
HETATM   15  C24 UNL     1       2.387  16.786  66.690  1.00  0.00     0.176 C 
HETATM   16  C29 UNL     1       2.648  18.064  65.941  1.00  0.00     0.241 C 
HETATM   17  O5  UNL     1       1.655  18.324  65.153  1.00  0.00    -0.271 OA
HETATM   18  N4  UNL     1       3.720  18.918  65.988  1.00  0.00    -0.348 N 
ATOM     19  H4  UNL     1       4.241  18.973  65.113  1.00  0.00     0.163 HD
HETATM   20  C30 UNL     1       4.252  19.756  67.036  1.00  0.00     0.155 C 
HETATM   21  C35 UNL     1       5.702  19.973  66.818  1.00  0.00     0.162 C 
HETATM   22  O6  UNL     1       6.187  21.064  67.172  1.00  0.00    -0.295 OA
ENDROOT
BRANCH   1  23
HETATM   23  C9  UNL     1       8.093  19.453  66.660  1.00  0.00     0.022 C 
BRANCH  23  24
HETATM   24  C8  UNL     1       9.011  19.787  65.553  1.00  0.00     0.001 C 
BRANCH  24  25
HETATM   25  C7  UNL     1      10.258  18.913  65.678  1.00  0.00     0.000 C 
BRANCH  25  26
HETATM   26  C6  UNL     1      11.448  19.621  66.205  1.00  0.00     0.000 C 
BRANCH  26  27
HETATM   27  C5  UNL     1      11.405  21.069  65.855  1.00  0.00     0.007 C 
BRANCH  27  28
HETATM   28  C4  UNL     1      12.436  21.468  64.830  1.00  0.00     0.078 C 
BRANCH  28  29
HETATM   29  C3  UNL     1      11.848  21.266  63.453  1.00  0.00     0.126 C 
HETATM   30  O1  UNL     1      10.728  21.671  63.199  1.00  0.00    -0.298 OA
BRANCH  29  31
HETATM   31  C2  UNL     1      12.621  20.573  62.389  1.00  0.00     0.074 C 
HETATM   32  C1  UNL     1      12.887  19.118  62.801  1.00  0.00     0.013 C 
ENDBRANCH  29  31
ENDBRANCH  28  29
ENDBRANCH  27  28
ENDBRANCH  26  27
ENDBRANCH  25  26
ENDBRANCH  24  25
ENDBRANCH  23  24
ENDBRANCH   1  23
BRANCH  20  33
HETATM   33  C31 UNL     1       3.841  19.417  68.415  1.00  0.00     0.037 C 
BRANCH  33  34
HETATM   34  C32 UNL     1       3.008  20.545  69.013  1.00  0.00    -0.020 C 
HETATM   35  C33 UNL     1       2.614  20.003  70.410  1.00  0.00     0.009 C 
HETATM   36  C34 UNL     1       1.708  20.588  68.240  1.00  0.00     0.009 C 
ENDBRANCH  33  34
ENDBRANCH  20  33
BRANCH   6  37
HETATM   37  C13 UNL     1       7.865  17.114  63.368  1.00  0.00     0.038 C 
BRANCH  37  38
HETATM   38  C14 UNL     1       7.872  18.361  62.572  1.00  0.00    -0.020 C 
HETATM   39  C15 UNL     1       9.269  18.626  62.046  1.00  0.00     0.009 C 
HETATM   40  C16 UNL     1       6.963  18.223  61.341  1.00  0.00     0.009 C 
ENDBRANCH  37  38
ENDBRANCH   6  37
BRANCH  15  41
HETATM   41  C25 UNL     1       1.071  17.032  67.357  1.00  0.00     0.038 C 
BRANCH  41  42
HETATM   42  C26 UNL     1       0.927  16.516  68.730  1.00  0.00    -0.020 C 
HETATM   43  C27 UNL     1       0.135  17.284  69.720  1.00  0.00     0.009 C 
HETATM   44  C28 UNL     1       2.329  16.327  69.338  1.00  0.00     0.009 C 
ENDBRANCH  41  42
ENDBRANCH  15  41
BRANCH  11  45
HETATM   45  C19 UNL     1       3.210  16.580  62.479  1.00  0.00     0.065 C 
BRANCH  45  46
HETATM   46  C20 UNL     1       2.595  16.129  61.148  1.00  0.00    -0.017 C 
HETATM   47  C21 UNL     1       2.666  14.618  61.096  1.00  0.00     0.010 C 
HETATM   48  C22 UNL     1       1.119  16.473  61.258  1.00  0.00     0.010 C 
ENDBRANCH  45  46
ENDBRANCH  11  45
BRANCH  12  49
HETATM   49  O4  UNL     1       1.153  15.099  64.052  1.00  0.00    -0.345 OA
ATOM     50  H4  UNL     1       0.522  15.794  64.199  1.00  0.00     0.219 HD
ENDBRANCH  12  49
TORSDOF 17
ENDMDL
MODEL 4
REMARK VINA RESULT: -6.315117684      1.522      2.129
REMARK  17 active torsions:
REMARK  status: ('A' for Active; 'I' for Inactive)
REMARK    1  A    between atoms: C2_2  and  C3_3 
REMARK    2  A    between atoms: C3_3  and  C4_5 
REMARK    3  A    between atoms: C4_5  and  C5_6 
REMARK    4  A    between atoms: C5_6  and  C6_7 
REMARK    5  A    between atoms: C6_7  and  C7_8 
REMARK    6  A    between atoms: C7_8  and  C8_9 
REMARK    7  A    between atoms: C8_9  and  C9_10 
REMARK    8  A    between atoms: C9_10  and  C10_11 
REMARK    9  A    between atoms: C12_16  and  C13_17 
REMARK   10  A    between atoms: C13_17  and  C14_18 
REMARK   11  A    between atoms: C18_25  and  C19_26 
REMARK   12  A    between atoms: C19_26  and  C20_27 
REMARK   13  A    between atoms: C23_30  and  O4_31 
REMARK   14  A    between atoms: C24_35  and  C25_36 
REMARK   15  A    between atoms: C25_36  and  C26_37 
REMARK   16  A    between atoms: C30_44  and  C31_45 
REMARK   17  A    between atoms: C31_45  and  C32_46 
ROOT
HETATM    1  C10 UNL     1       6.979  19.018  66.057  1.00  0.00     0.149 C 
HETATM    2  C11 UNL     1       6.856  17.595  66.276  1.00  0.00     0.229 C 
HETATM    3  O2  UNL     1       6.503  17.166  67.395  1.00  0.00    -0.273 OA
HETATM    4  N1  UNL     1       7.120  16.630  65.281  1.00  0.00    -0.347 N 
ATOM      5  H1  UNL     1       7.564  15.759  65.573  1.00  0.00     0.163 HD
HETATM    6  C12 UNL     1       6.799  16.789  63.850  1.00  0.00     0.177 C 
HETATM    7  C17 UNL     1       6.236  15.466  63.453  1.00  0.00     0.244 C 
HETATM    8  O3  UNL     1       7.102  14.744  62.822  1.00  0.00    -0.271 OA
HETATM    9  N2  UNL     1       4.983  14.940  63.662  1.00  0.00    -0.325 N 
ATOM     10  H2  UNL     1       5.009  14.064  64.184  1.00  0.00     0.169 HD
HETATM   11  C18 UNL     1       3.659  15.332  63.319  1.00  0.00     0.063 C 
HETATM   12  C23 UNL     1       2.650  15.296  64.397  1.00  0.00     0.159 C 
HETATM   13  N3  UNL     1       2.712  15.524  65.765  1.00  0.00    -0.356 N 
ATOM     14  H3  UNL     1       2.782  14.665  66.311  1.00  0.00     0.162 HD
HETATM   15  C24 UNL     1       2.700  16.705  66.573  1.00  0.00     0.176 C 
HETATM   16  C29 UNL     1       2.945  17.978  65.810  1.00  0.00     0.241 C 
HETATM   17  O5  UNL     1       1.944  18.221  65.026  1.00  0.00    -0.271 OA
HETATM   18  N4  UNL     1       4.009  18.842  65.840  1.00  0.00    -0.348 N 
ATOM     19  H4  UNL     1       4.524  18.892  64.962  1.00  0.00     0.163 HD
HETATM   20  C30 UNL     1       4.541  19.694  66.877  1.00  0.00     0.155 C 
HETATM   21  C35 UNL     1       5.987  19.922  66.647  1.00  0.00     0.162 C 
HETATM   22  O6  UNL     1       6.465  21.021  66.987  1.00  0.00    -0.295 OA
ENDROOT
BRANCH   1  23
HETATM   23  C9  UNL     1       8.382  19.422  66.478  1.00  0.00     0.022 C 
BRANCH  23  24
HETATM   24  C8  UNL     1       9.257  19.856  65.370  1.00  0.00     0.001 C 
BRANCH  24  25
HETATM   25  C7  UNL     1      10.077  21.055  65.842  1.00  0.00     0.000 C 
BRANCH  25  26
HETATM   26  C6  UNL     1      10.970  21.627  64.808  1.00  0.00     0.000 C 
BRANCH  26  27
HETATM   27  C5  UNL     1      10.904  20.834  63.548  1.00  0.00     0.007 C 
BRANCH  27  28
HETATM   28  C4  UNL     1      12.258  20.533  62.957  1.00  0.00     0.078 C 
BRANCH  28  29
HETATM   29  C3  UNL     1      12.871  19.384  63.722  1.00  0.00     0.126 C 
HETATM   30  O1  UNL     1      12.206  18.397  63.985  1.00  0.00    -0.298 OA
BRANCH  29  31
HETATM   31  C2  UNL     1      14.289  19.434  64.165  1.00  0.00     0.074 C 
HETATM   32  C1  UNL     1      14.572  20.774  64.858  1.00  0.00     0.013 C 
ENDBRANCH  29  31
ENDBRANCH  28  29
ENDBRANCH  27  28
ENDBRANCH  26  27
ENDBRANCH  25  26
ENDBRANCH  24  25
ENDBRANCH  23  24
ENDBRANCH   1  23
BRANCH  20  33
HETATM   33  C31 UNL     1       4.143  19.365  68.262  1.00  0.00     0.037 C 
BRANCH  33  34
HETATM   34  C32 UNL     1       3.290  20.484  68.849  1.00  0.00    -0.020 C 
HETATM   35  C33 UNL     1       2.787  19.891  70.189  1.00  0.00     0.009 C 
HETATM   36  C34 UNL     1       2.050  20.589  67.989  1.00  0.00     0.009 C 
ENDBRANCH  33  34
ENDBRANCH  20  33
BRANCH   6  37
HETATM   37  C13 UNL     1       8.153  17.049  63.209  1.00  0.00     0.038 C 
BRANCH  37  38
HETATM   38  C14 UNL     1       8.124  18.250  62.347  1.00  0.00    -0.020 C 
HETATM   39  C15 UNL     1       9.359  18.279  61.467  1.00  0.00     0.009 C 
HETATM   40  C16 UNL     1       6.916  18.208  61.399  1.00  0.00     0.009 C 
ENDBRANCH  37  38
ENDBRANCH   6  37
BRANCH  15  41
HETATM   41  C25 UNL     1       1.387  16.946  67.246  1.00  0.00     0.038 C 
BRANCH  41  42
HETATM   42  C26 UNL     1       1.394  16.921  68.720  1.00  0.00    -0.020 C 
HETATM   43  C27 UNL     1       2.020  15.780  69.428  1.00  0.00     0.009 C 
HETATM   44  C28 UNL     1      -0.058  17.010  69.224  1.00  0.00     0.009 C 
ENDBRANCH  41  42
ENDBRANCH  15  41
BRANCH  11  45
HETATM   45  C19 UNL     1       3.497  16.465  62.358  1.00  0.00     0.065 C 
BRANCH  45  46
HETATM   46  C20 UNL     1       2.796  16.013  61.071  1.00  0.00    -0.017 C 
HETATM   47  C21 UNL     1       2.810  14.500  61.045  1.00  0.00     0.010 C 
HETATM   48  C22 UNL     1       1.341  16.413  61.251  1.00  0.00     0.010 C 
ENDBRANCH  45  46
ENDBRANCH  11  45
BRANCH  12  49
HETATM   49  O4  UNL     1       1.464  14.982  63.959  1.00  0.00    -0.345 OA
ATOM     50  H4  UNL     1       1.150  14.160  64.318  1.00  0.00     0.219 HD
ENDBRANCH  12  49
TORSDOF 17
ENDMDL
MODEL 5
REMARK VINA RESULT: -6.294011153      5.638     12.061
REMARK  17 active torsions:
REMARK  status: ('A' for Active; 'I' for Inactive)
REMARK    1  A    between atoms: C2_2  and  C3_3 
REMARK    2  A    between atoms: C3_3  and  C4_5 
REMARK    3  A    between atoms: C4_5  and  C5_6 
REMARK    4  A    between atoms: C5_6  and  C6_7 
REMARK    5  A    between atoms: C6_7  and  C7_8 
REMARK    6  A    between atoms: C7_8  and  C8_9 
REMARK    7  A    between atoms: C8_9  and  C9_10 
REMARK    8  A    between atoms: C9_10  and  C10_11 
REMARK    9  A    between atoms: C12_16  and  C13_17 
REMARK   10  A    between atoms: C13_17  and  C14_18 
REMARK   11  A    between atoms: C18_25  and  C19_26 
REMARK   12  A    between atoms: C19_26  and  C20_27 
REMARK   13  A    between atoms: C23_30  and  O4_31 
REMARK   14  A    between atoms: C24_35  and  C25_36 
REMARK   15  A    between atoms: C25_36  and  C26_37 
REMARK   16  A    between atoms: C30_44  and  C31_45 
REMARK   17  A    between atoms: C31_45  and  C32_46 
ROOT
HETATM    1  C10 UNL     1      13.932  21.847  65.061  1.00  0.00     0.149 C 
HETATM    2  C11 UNL     1      13.829  22.859  64.034  1.00  0.00     0.229 C 
HETATM    3  O2  UNL     1      13.790  24.066  64.351  1.00  0.00    -0.273 OA
HETATM    4  N1  UNL     1      13.766  22.563  62.656  1.00  0.00    -0.347 N 
ATOM      5  H1  UNL     1      13.164  23.146  62.074  1.00  0.00     0.163 HD
HETATM    6  C12 UNL     1      14.507  21.472  61.995  1.00  0.00     0.177 C 
HETATM    7  C17 UNL     1      15.015  22.087  60.734  1.00  0.00     0.244 C 
HETATM    8  O3  UNL     1      14.299  21.751  59.713  1.00  0.00    -0.271 OA
HETATM    9  N2  UNL     1      16.087  22.923  60.527  1.00  0.00    -0.325 N 
ATOM     10  H2  UNL     1      15.814  23.812  60.108  1.00  0.00     0.169 HD
HETATM   11  C18 UNL     1      17.487  22.837  60.762  1.00  0.00     0.063 C 
HETATM   12  C23 UNL     1      18.126  23.988  61.432  1.00  0.00     0.159 C 
HETATM   13  N3  UNL     1      17.691  24.889  62.394  1.00  0.00    -0.356 N 
ATOM     14  H3  UNL     1      17.371  25.774  61.999  1.00  0.00     0.162 HD
HETATM   15  C24 UNL     1      17.593  24.843  63.821  1.00  0.00     0.176 C 
HETATM   16  C29 UNL     1      17.723  23.463  64.404  1.00  0.00     0.241 C 
HETATM   17  O5  UNL     1      18.930  23.025  64.239  1.00  0.00    -0.271 OA
HETATM   18  N4  UNL     1      16.797  22.676  65.039  1.00  0.00    -0.348 N 
ATOM     19  H4  UNL     1      16.571  21.819  64.536  1.00  0.00     0.163 HD
HETATM   20  C30 UNL     1      16.080  22.828  66.283  1.00  0.00     0.155 C 
HETATM   21  C35 UNL     1      14.798  22.086  66.218  1.00  0.00     0.162 C 
HETATM   22  O6  UNL     1      14.364  21.580  67.270  1.00  0.00    -0.295 OA
ENDROOT
BRANCH   1  23
HETATM   23  C9  UNL     1      12.519  21.518  65.514  1.00  0.00     0.022 C 
BRANCH  23  24
HETATM   24  C8  UNL     1      11.480  21.706  64.481  1.00  0.00     0.001 C 
BRANCH  24  25
HETATM   25  C7  UNL     1      10.189  21.051  64.968  1.00  0.00     0.000 C 
BRANCH  25  26
HETATM   26  C6  UNL     1      10.394  19.830  65.782  1.00  0.00     0.000 C 
BRANCH  26  27
HETATM   27  C5  UNL     1       9.422  18.767  65.402  1.00  0.00     0.007 C 
BRANCH  27  28
HETATM   28  C4  UNL     1       8.687  19.058  64.118  1.00  0.00     0.078 C 
BRANCH  28  29
HETATM   29  C3  UNL     1       9.052  17.999  63.104  1.00  0.00     0.126 C 
HETATM   30  O1  UNL     1       9.480  16.920  63.473  1.00  0.00    -0.298 OA
BRANCH  29  31
HETATM   31  C2  UNL     1       8.895  18.252  61.648  1.00  0.00     0.074 C 
HETATM   32  C1  UNL     1       7.404  18.293  61.283  1.00  0.00     0.013 C 
ENDBRANCH  29  31
ENDBRANCH  28  29
ENDBRANCH  27  28
ENDBRANCH  26  27
ENDBRANCH  25  26
ENDBRANCH  24  25
ENDBRANCH  23  24
ENDBRANCH   1  23
BRANCH  20  33
HETATM   33  C31 UNL     1      16.016  24.197  66.838  1.00  0.00     0.037 C 
BRANCH  33  34
HETATM   34  C32 UNL     1      17.012  24.352  67.982  1.00  0.00    -0.020 C 
HETATM   35  C33 UNL     1      16.111  24.609  69.215  1.00  0.00     0.009 C 
HETATM   36  C34 UNL     1      17.736  25.661  67.760  1.00  0.00     0.009 C 
ENDBRANCH  33  34
ENDBRANCH  20  33
BRANCH   6  37
HETATM   37  C13 UNL     1      13.438  20.426  61.729  1.00  0.00     0.038 C 
BRANCH  37  38
HETATM   38  C14 UNL     1      13.807  19.112  62.300  1.00  0.00    -0.020 C 
HETATM   39  C15 UNL     1      15.069  19.250  63.129  1.00  0.00     0.009 C 
HETATM   40  C16 UNL     1      12.713  18.609  63.254  1.00  0.00     0.009 C 
ENDBRANCH  37  38
ENDBRANCH   6  37
BRANCH  15  41
HETATM   41  C25 UNL     1      18.670  25.619  64.511  1.00  0.00     0.038 C 
BRANCH  41  42
HETATM   42  C26 UNL     1      18.886  26.998  64.039  1.00  0.00    -0.020 C 
HETATM   43  C27 UNL     1      19.544  27.228  62.731  1.00  0.00     0.009 C 
HETATM   44  C28 UNL     1      19.717  27.757  65.090  1.00  0.00     0.009 C 
ENDBRANCH  41  42
ENDBRANCH  15  41
BRANCH  11  45
HETATM   45  C19 UNL     1      18.046  21.507  61.152  1.00  0.00     0.065 C 
BRANCH  45  46
HETATM   46  C20 UNL     1      19.580  21.516  61.141  1.00  0.00    -0.017 C 
HETATM   47  C21 UNL     1      20.055  20.682  62.311  1.00  0.00     0.010 C 
HETATM   48  C22 UNL     1      19.971  20.743  59.892  1.00  0.00     0.010 C 
ENDBRANCH  45  46
ENDBRANCH  11  45
BRANCH  12  49
HETATM   49  O4  UNL     1      19.347  24.188  61.024  1.00  0.00    -0.345 OA
ATOM     50  H4  UNL     1      19.672  25.050  61.255  1.00  0.00     0.219 HD
ENDBRANCH  12  49
TORSDOF 17
ENDMDL
