MODEL 1
REMARK VINA RESULT: -6.689085293      0.000      0.000
REMARK  14 active torsions:
REMARK  status: ('A' for Active; 'I' for Inactive)
REMARK    1  A    between atoms: C2_2  and  C3_3 
REMARK    2  A    between atoms: C3_3  and  C4_4 
REMARK    3  A    between atoms: C4_4  and  N1_5 
REMARK    4  A    between atoms: C4_4  and  C34_45 
REMARK       I    between atoms: N1_5  and  C5_7 
REMARK    5  A    between atoms: C5_7  and  C6_9 
REMARK    6  A    between atoms: C11_14  and  C12_15 
REMARK    7  A    between atoms: C12_15  and  N2_16 
REMARK    8  A    between atoms: N2_16  and  C13_19 
REMARK       I    between atoms: N3_23  and  C17_24 
REMARK    9  A    between atoms: C17_24  and  C18_26 
REMARK   10  A    between atoms: C18_26  and  C19_27 
REMARK   11  A    between atoms: C18_26  and  N4_34 
REMARK   12  A    between atoms: C19_27  and  C20_28 
REMARK       I    between atoms: N4_34  and  C26_36 
REMARK   13  A    between atoms: C28_39  and  C29_40 
REMARK   14  A    between atoms: C34_45  and  C35_47 
ROOT
HETATM    1  C6  UNL     1       6.921  16.823  64.277  1.00  0.00     0.105 C 
HETATM    2  C7  UNL     1       7.371  17.951  63.425  1.00  0.00     0.007 C 
HETATM    3  C8  UNL     1       8.243  17.457  62.295  1.00  0.00     0.006 C 
HETATM    4  C9  UNL     1       9.225  18.546  61.820  1.00  0.00     0.001 C 
HETATM    5  C10 UNL     1      10.234  18.678  62.922  1.00  0.00     0.007 C 
HETATM    6  C11 UNL     1       9.548  19.007  64.191  1.00  0.00     0.017 C 
HETATM    7  C15 UNL     1       8.042  19.075  64.134  1.00  0.00     0.014 C 
HETATM    8  C16 UNL     1       7.595  19.294  65.554  1.00  0.00     0.132 C 
HETATM    9  N3  UNL     1       6.366  18.612  65.816  1.00  0.00    -0.344 N 
HETATM   10  C17 UNL     1       5.298  19.373  66.372  1.00  0.00     0.243 C 
HETATM   11  O2  UNL     1       5.565  20.597  66.642  1.00  0.00    -0.271 OA
HETATM   12  C28 UNL     1       6.281  17.187  65.557  1.00  0.00     0.104 C 
ENDROOT
BRANCH  10  13
HETATM   13  C18 UNL     1       3.934  18.859  66.655  1.00  0.00     0.177 C 
BRANCH  13  14
HETATM   14  C19 UNL     1       2.974  19.891  66.053  1.00  0.00     0.039 C 
BRANCH  14  15
HETATM   15  C20 UNL     1       1.686  19.312  65.589  1.00  0.00    -0.012 C 
HETATM   16  C21 UNL     1       1.893  18.459  64.389  1.00  0.00     0.005 C 
HETATM   17  C22 UNL     1       0.537  17.821  64.040  1.00  0.00     0.000 C 
HETATM   18  C23 UNL     1      -0.368  18.927  63.589  1.00  0.00     0.000 C 
HETATM   19  C24 UNL     1      -0.596  19.834  64.778  1.00  0.00     0.000 C 
HETATM   20  C25 UNL     1       0.711  20.421  65.259  1.00  0.00     0.005 C 
ENDBRANCH  14  15
ENDBRANCH  13  14
BRANCH  13  21
HETATM   21  N4  UNL     1       3.766  18.905  68.116  1.00  0.00    -0.348 N 
HETATM   22  C26 UNL     1       3.356  17.796  68.865  1.00  0.00     0.214 C 
HETATM   23  C27 UNL     1       3.204  17.906  70.330  1.00  0.00     0.117 C 
HETATM   24  O3  UNL     1       3.106  16.679  68.323  1.00  0.00    -0.274 OA
ATOM     25  H4  UNL     1       3.956  19.782  68.603  1.00  0.00     0.163 HD
ENDBRANCH  13  21
ENDBRANCH  10  13
BRANCH  12  26
HETATM   26  C29 UNL     1       6.701  16.432  66.783  1.00  0.00     0.009 C 
HETATM   27  C30 UNL     1       7.001  17.176  68.010  1.00  0.00     0.007 C 
HETATM   28  C31 UNL     1       7.954  16.306  68.831  1.00  0.00     0.000 C 
HETATM   29  C32 UNL     1       8.648  15.413  67.861  1.00  0.00     0.000 C 
HETATM   30  C33 UNL     1       7.904  15.546  66.579  1.00  0.00     0.007 C 
ENDBRANCH  12  26
BRANCH   1  31
HETATM   31  C5  UNL     1       5.994  15.963  63.490  1.00  0.00     0.224 C 
HETATM   32  N1  UNL     1       4.669  16.216  63.152  1.00  0.00    -0.349 N 
ATOM     33  H1  UNL     1       4.225  17.082  63.458  1.00  0.00     0.163 HD
HETATM   34  O1  UNL     1       6.481  14.841  63.068  1.00  0.00    -0.273 OA
BRANCH  32  35
HETATM   35  C4  UNL     1       3.915  15.258  62.367  1.00  0.00     0.164 C 
BRANCH  35  36
HETATM   36  C3  UNL     1       2.730  15.993  61.716  1.00  0.00     0.033 C 
BRANCH  36  37
HETATM   37  C2  UNL     1       2.021  15.011  60.808  1.00  0.00    -0.002 C 
HETATM   38  C1  UNL     1       0.524  15.148  61.018  1.00  0.00     0.005 C 
ENDBRANCH  36  37
ENDBRANCH  35  36
BRANCH  35  39
HETATM   39  C34 UNL     1       3.312  14.223  63.243  1.00  0.00     0.236 C 
HETATM   40  O4  UNL     1       3.470  12.993  62.959  1.00  0.00    -0.285 OA
BRANCH  39  41
HETATM   41  C35 UNL     1       2.536  14.558  64.430  1.00  0.00     0.302 C 
HETATM   42  N5  UNL     1       1.168  14.171  64.519  1.00  0.00    -0.054 NA
HETATM   43  O5  UNL     1       3.020  15.185  65.400  1.00  0.00    -0.268 OA
ENDBRANCH  39  41
ENDBRANCH  35  39
ENDBRANCH  32  35
ENDBRANCH   1  31
BRANCH   6  44
HETATM   44  C12 UNL     1      10.031  20.366  64.666  1.00  0.00     0.237 C 
BRANCH  44  45
HETATM   45  N2  UNL     1      11.149  20.154  65.542  1.00  0.00    -0.075 N 
ATOM     46  H22 UNL     1      11.581  19.245  65.369  1.00  0.00     0.277 HD
ATOM     47  H21 UNL     1      11.931  20.758  65.291  1.00  0.00     0.277 HD
BRANCH  45  48
HETATM   48  C13 UNL     1      10.802  20.307  66.941  1.00  0.00     0.228 C 
HETATM   49  C14 UNL     1      10.745  18.921  67.550  1.00  0.00     0.034 C 
ENDBRANCH  45  48
ENDBRANCH  44  45
ENDBRANCH   6  44
TORSDOF 14
ENDMDL
MODEL 2
REMARK VINA RESULT: -6.537700782      0.735      1.145
REMARK  14 active torsions:
REMARK  status: ('A' for Active; 'I' for Inactive)
REMARK    1  A    between atoms: C2_2  and  C3_3 
REMARK    2  A    between atoms: C3_3  and  C4_4 
REMARK    3  A    between atoms: C4_4  and  N1_5 
REMARK    4  A    between atoms: C4_4  and  C34_45 
REMARK       I    between atoms: N1_5  and  C5_7 
REMARK    5  A    between atoms: C5_7  and  C6_9 
REMARK    6  A    between atoms: C11_14  and  C12_15 
REMARK    7  A    between atoms: C12_15  and  N2_16 
REMARK    8  A    between atoms: N2_16  and  C13_19 
REMARK       I    between atoms: N3_23  and  C17_24 
REMARK    9  A    between atoms: C17_24  and  C18_26 
REMARK   10  A    between atoms: C18_26  and  C19_27 
REMARK   11  A    between atoms: C18_26  and  N4_34 
REMARK   12  A    between atoms: C19_27  and  C20_28 
REMARK       I    between atoms: N4_34  and  C26_36 
REMARK   13  A    between atoms: C28_39  and  C29_40 
REMARK   14  A    between atoms: C34_45  and  C35_47 
ROOT
HETATM    1  C6  UNL     1       7.104  17.066  64.482  1.00  0.00     0.105 C 
HETATM    2  C7  UNL     1       7.635  18.189  63.672  1.00  0.00     0.007 C 
HETATM    3  C8  UNL     1       8.553  17.682  62.585  1.00  0.00     0.006 C 
HETATM    4  C9  UNL     1       9.593  18.745  62.180  1.00  0.00     0.001 C 
HETATM    5  C10 UNL     1      10.543  18.831  63.338  1.00  0.00     0.007 C 
HETATM    6  C11 UNL     1       9.798  19.166  64.572  1.00  0.00     0.017 C 
HETATM    7  C15 UNL     1       8.300  19.283  64.433  1.00  0.00     0.014 C 
HETATM    8  C16 UNL     1       7.783  19.497  65.829  1.00  0.00     0.132 C 
HETATM    9  N3  UNL     1       6.521  18.852  66.013  1.00  0.00    -0.344 N 
HETATM   10  C17 UNL     1       5.447  19.639  66.521  1.00  0.00     0.243 C 
HETATM   11  O2  UNL     1       5.737  20.851  66.823  1.00  0.00    -0.271 OA
HETATM   12  C28 UNL     1       6.406  17.434  65.730  1.00  0.00     0.104 C 
ENDROOT
BRANCH  10  13
HETATM   13  C18 UNL     1       4.054  19.165  66.721  1.00  0.00     0.177 C 
BRANCH  13  14
HETATM   14  C19 UNL     1       3.159  20.302  66.216  1.00  0.00     0.039 C 
BRANCH  14  15
HETATM   15  C20 UNL     1       1.959  19.833  65.473  1.00  0.00    -0.012 C 
HETATM   16  C21 UNL     1       0.736  19.968  66.308  1.00  0.00     0.005 C 
HETATM   17  C22 UNL     1      -0.463  19.562  65.435  1.00  0.00     0.000 C 
HETATM   18  C23 UNL     1      -0.331  18.095  65.157  1.00  0.00     0.000 C 
HETATM   19  C24 UNL     1       0.914  17.906  64.319  1.00  0.00     0.000 C 
HETATM   20  C25 UNL     1       2.136  18.387  65.066  1.00  0.00     0.005 C 
ENDBRANCH  14  15
ENDBRANCH  13  14
BRANCH  13  21
HETATM   21  N4  UNL     1       3.854  19.064  68.175  1.00  0.00    -0.348 N 
HETATM   22  C26 UNL     1       3.466  17.874  68.802  1.00  0.00     0.214 C 
HETATM   23  C27 UNL     1       3.279  17.836  70.267  1.00  0.00     0.117 C 
HETATM   24  O3  UNL     1       3.265  16.809  68.150  1.00  0.00    -0.274 OA
ATOM     25  H4  UNL     1       4.004  19.894  68.748  1.00  0.00     0.163 HD
ENDBRANCH  13  21
ENDBRANCH  10  13
BRANCH  12  26
HETATM   26  C29 UNL     1       6.733  16.651  66.966  1.00  0.00     0.009 C 
HETATM   27  C30 UNL     1       7.072  17.370  68.197  1.00  0.00     0.007 C 
HETATM   28  C31 UNL     1       7.929  16.425  69.040  1.00  0.00     0.000 C 
HETATM   29  C32 UNL     1       8.563  15.472  68.087  1.00  0.00     0.000 C 
HETATM   30  C33 UNL     1       7.860  15.663  66.790  1.00  0.00     0.007 C 
ENDBRANCH  12  26
BRANCH   1  31
HETATM   31  C5  UNL     1       6.196  16.245  63.633  1.00  0.00     0.224 C 
HETATM   32  N1  UNL     1       4.900  16.545  63.225  1.00  0.00    -0.349 N 
ATOM     33  H1  UNL     1       4.467  17.421  63.518  1.00  0.00     0.163 HD
HETATM   34  O1  UNL     1       6.670  15.113  63.223  1.00  0.00    -0.273 OA
BRANCH  32  35
HETATM   35  C4  UNL     1       4.162  15.622  62.386  1.00  0.00     0.164 C 
BRANCH  35  36
HETATM   36  C3  UNL     1       2.916  16.348  61.849  1.00  0.00     0.033 C 
BRANCH  36  37
HETATM   37  C2  UNL     1       2.121  15.353  61.029  1.00  0.00    -0.002 C 
HETATM   38  C1  UNL     1       0.644  15.564  61.309  1.00  0.00     0.005 C 
ENDBRANCH  36  37
ENDBRANCH  35  36
BRANCH  35  39
HETATM   39  C34 UNL     1       3.647  14.483  63.188  1.00  0.00     0.236 C 
HETATM   40  O4  UNL     1       3.864  13.293  62.797  1.00  0.00    -0.285 OA
BRANCH  39  41
HETATM   41  C35 UNL     1       2.894  14.673  64.421  1.00  0.00     0.302 C 
HETATM   42  N5  UNL     1       1.578  14.141  64.540  1.00  0.00    -0.054 NA
HETATM   43  O5  UNL     1       3.353  15.295  65.406  1.00  0.00    -0.268 OA
ENDBRANCH  39  41
ENDBRANCH  35  39
ENDBRANCH  32  35
ENDBRANCH   1  31
BRANCH   6  44
HETATM   44  C12 UNL     1      10.296  20.503  65.092  1.00  0.00     0.237 C 
BRANCH  44  45
HETATM   45  N2  UNL     1      11.324  20.242  66.061  1.00  0.00    -0.075 N 
ATOM     46  H22 UNL     1      10.947  20.269  67.009  1.00  0.00     0.277 HD
ATOM     47  H21 UNL     1      11.618  19.266  66.028  1.00  0.00     0.277 HD
BRANCH  45  48
HETATM   48  C13 UNL     1      12.460  21.132  65.926  1.00  0.00     0.228 C 
HETATM   49  C14 UNL     1      12.125  22.136  64.842  1.00  0.00     0.034 C 
ENDBRANCH  45  48
ENDBRANCH  44  45
ENDBRANCH   6  44
TORSDOF 14
ENDMDL
MODEL 3
REMARK VINA RESULT: -6.524373362      1.150      1.449
REMARK  14 active torsions:
REMARK  status: ('A' for Active; 'I' for Inactive)
REMARK    1  A    between atoms: C2_2  and  C3_3 
REMARK    2  A    between atoms: C3_3  and  C4_4 
REMARK    3  A    between atoms: C4_4  and  N1_5 
REMARK    4  A    between atoms: C4_4  and  C34_45 
REMARK       I    between atoms: N1_5  and  C5_7 
REMARK    5  A    between atoms: C5_7  and  C6_9 
REMARK    6  A    between atoms: C11_14  and  C12_15 
REMARK    7  A    between atoms: C12_15  and  N2_16 
REMARK    8  A    between atoms: N2_16  and  C13_19 
REMARK       I    between atoms: N3_23  and  C17_24 
REMARK    9  A    between atoms: C17_24  and  C18_26 
REMARK   10  A    between atoms: C18_26  and  C19_27 
REMARK   11  A    between atoms: C18_26  and  N4_34 
REMARK   12  A    between atoms: C19_27  and  C20_28 
REMARK       I    between atoms: N4_34  and  C26_36 
REMARK   13  A    between atoms: C28_39  and  C29_40 
REMARK   14  A    between atoms: C34_45  and  C35_47 
ROOT
HETATM    1  C6  UNL     1       7.066  17.056  64.433  1.00  0.00     0.105 C 
HETATM    2  C7  UNL     1       7.616  18.159  63.609  1.00  0.00     0.007 C 
HETATM    3  C8  UNL     1       8.469  17.618  62.486  1.00  0.00     0.006 C 
HETATM    4  C9  UNL     1       9.541  18.636  62.047  1.00  0.00     0.001 C 
HETATM    5  C10 UNL     1      10.535  18.672  63.169  1.00  0.00     0.007 C 
HETATM    6  C11 UNL     1       9.853  19.033  64.431  1.00  0.00     0.017 C 
HETATM    7  C15 UNL     1       8.358  19.217  64.350  1.00  0.00     0.014 C 
HETATM    8  C16 UNL     1       7.903  19.446  65.764  1.00  0.00     0.132 C 
HETATM    9  N3  UNL     1       6.621  18.857  65.994  1.00  0.00    -0.344 N 
HETATM   10  C17 UNL     1       5.603  19.688  66.545  1.00  0.00     0.243 C 
HETATM   11  O2  UNL     1       5.959  20.884  66.841  1.00  0.00    -0.271 OA
HETATM   12  C28 UNL     1       6.432  17.447  65.708  1.00  0.00     0.104 C 
ENDROOT
BRANCH  10  13
HETATM   13  C18 UNL     1       4.199  19.276  66.795  1.00  0.00     0.177 C 
BRANCH  13  14
HETATM   14  C19 UNL     1       3.342  20.487  66.407  1.00  0.00     0.039 C 
BRANCH  14  15
HETATM   15  C20 UNL     1       1.882  20.208  66.398  1.00  0.00    -0.012 C 
HETATM   16  C21 UNL     1       1.585  18.980  65.615  1.00  0.00     0.005 C 
HETATM   17  C22 UNL     1       0.076  18.708  65.743  1.00  0.00     0.000 C 
HETATM   18  C23 UNL     1      -0.635  19.817  65.028  1.00  0.00     0.000 C 
HETATM   19  C24 UNL     1      -0.347  21.095  65.782  1.00  0.00     0.000 C 
HETATM   20  C25 UNL     1       1.137  21.381  65.801  1.00  0.00     0.005 C 
ENDBRANCH  14  15
ENDBRANCH  13  14
BRANCH  13  21
HETATM   21  N4  UNL     1       4.071  19.097  68.249  1.00  0.00    -0.348 N 
HETATM   22  C26 UNL     1       3.631  17.900  68.826  1.00  0.00     0.214 C 
HETATM   23  C27 UNL     1       3.521  17.781  70.295  1.00  0.00     0.117 C 
HETATM   24  O3  UNL     1       3.318  16.894  68.124  1.00  0.00    -0.274 OA
ATOM     25  H4  UNL     1       4.312  19.876  68.861  1.00  0.00     0.163 HD
ENDBRANCH  13  21
ENDBRANCH  10  13
BRANCH  12  26
HETATM   26  C29 UNL     1       6.769  16.643  66.928  1.00  0.00     0.009 C 
HETATM   27  C30 UNL     1       7.161  17.340  68.156  1.00  0.00     0.007 C 
HETATM   28  C31 UNL     1       8.013  16.362  68.966  1.00  0.00     0.000 C 
HETATM   29  C32 UNL     1       8.593  15.400  67.988  1.00  0.00     0.000 C 
HETATM   30  C33 UNL     1       7.862  15.625  66.712  1.00  0.00     0.007 C 
ENDBRANCH  12  26
BRANCH   1  31
HETATM   31  C5  UNL     1       6.091  16.282  63.616  1.00  0.00     0.224 C 
HETATM   32  N1  UNL     1       4.771  16.608  63.319  1.00  0.00    -0.349 N 
ATOM     33  H1  UNL     1       4.368  17.472  63.685  1.00  0.00     0.163 HD
HETATM   34  O1  UNL     1       6.523  15.169  63.118  1.00  0.00    -0.273 OA
BRANCH  32  35
HETATM   35  C4  UNL     1       3.965  15.730  62.494  1.00  0.00     0.164 C 
BRANCH  35  36
HETATM   36  C3  UNL     1       3.031  16.599  61.633  1.00  0.00     0.033 C 
BRANCH  36  37
HETATM   37  C2  UNL     1       2.397  17.632  62.540  1.00  0.00    -0.002 C 
HETATM   38  C1  UNL     1       1.009  17.952  62.017  1.00  0.00     0.005 C 
ENDBRANCH  36  37
ENDBRANCH  35  36
BRANCH  35  39
HETATM   39  C34 UNL     1       3.072  14.894  63.336  1.00  0.00     0.236 C 
HETATM   40  O4  UNL     1       3.135  14.989  64.602  1.00  0.00    -0.285 OA
BRANCH  39  41
HETATM   41  C35 UNL     1       2.112  13.958  62.766  1.00  0.00     0.302 C 
HETATM   42  N5  UNL     1       2.562  12.901  61.924  1.00  0.00    -0.054 NA
HETATM   43  O5  UNL     1       0.880  14.035  62.983  1.00  0.00    -0.268 OA
ENDBRANCH  39  41
ENDBRANCH  35  39
ENDBRANCH  32  35
ENDBRANCH   1  31
BRANCH   6  44
HETATM   44  C12 UNL     1      10.430  20.342  64.938  1.00  0.00     0.237 C 
BRANCH  44  45
HETATM   45  N2  UNL     1      11.468  20.030  65.880  1.00  0.00    -0.075 N 
ATOM     46  H22 UNL     1      11.077  19.835  66.803  1.00  0.00     0.277 HD
ATOM     47  H21 UNL     1      11.881  19.119  65.681  1.00  0.00     0.277 HD
BRANCH  45  48
HETATM   48  C13 UNL     1      12.486  21.059  65.954  1.00  0.00     0.228 C 
HETATM   49  C14 UNL     1      12.135  22.121  64.932  1.00  0.00     0.034 C 
ENDBRANCH  45  48
ENDBRANCH  44  45
ENDBRANCH   6  44
TORSDOF 14
ENDMDL
MODEL 4
REMARK VINA RESULT: -6.474789010      0.867      1.433
REMARK  14 active torsions:
REMARK  status: ('A' for Active; 'I' for Inactive)
REMARK    1  A    between atoms: C2_2  and  C3_3 
REMARK    2  A    between atoms: C3_3  and  C4_4 
REMARK    3  A    between atoms: C4_4  and  N1_5 
REMARK    4  A    between atoms: C4_4  and  C34_45 
REMARK       I    between atoms: N1_5  and  C5_7 
REMARK    5  A    between atoms: C5_7  and  C6_9 
REMARK    6  A    between atoms: C11_14  and  C12_15 
REMARK    7  A    between atoms: C12_15  and  N2_16 
REMARK    8  A    between atoms: N2_16  and  C13_19 
REMARK       I    between atoms: N3_23  and  C17_24 
REMARK    9  A    between atoms: C17_24  and  C18_26 
REMARK   10  A    between atoms: C18_26  and  C19_27 
REMARK   11  A    between atoms: C18_26  and  N4_34 
REMARK   12  A    between atoms: C19_27  and  C20_28 
REMARK       I    between atoms: N4_34  and  C26_36 
REMARK   13  A    between atoms: C28_39  and  C29_40 
REMARK   14  A    between atoms: C34_45  and  C35_47 
ROOT
HETATM    1  C6  UNL     1       6.940  16.823  64.315  1.00  0.00     0.105 C 
HETATM    2  C7  UNL     1       7.365  17.953  63.456  1.00  0.00     0.007 C 
HETATM    3  C8  UNL     1       8.276  17.475  62.350  1.00  0.00     0.006 C 
HETATM    4  C9  UNL     1       9.228  18.591  61.877  1.00  0.00     0.001 C 
HETATM    5  C10 UNL     1      10.211  18.773  62.995  1.00  0.00     0.007 C 
HETATM    6  C11 UNL     1       9.490  19.096  64.246  1.00  0.00     0.017 C 
HETATM    7  C15 UNL     1       7.984  19.110  64.161  1.00  0.00     0.014 C 
HETATM    8  C16 UNL     1       7.503  19.333  65.568  1.00  0.00     0.132 C 
HETATM    9  N3  UNL     1       6.294  18.612  65.818  1.00  0.00    -0.344 N 
HETATM   10  C17 UNL     1       5.189  19.342  66.344  1.00  0.00     0.243 C 
HETATM   11  O2  UNL     1       5.409  20.579  66.601  1.00  0.00    -0.271 OA
HETATM   12  C28 UNL     1       6.264  17.182  65.578  1.00  0.00     0.104 C 
ENDROOT
BRANCH  10  13
HETATM   13  C18 UNL     1       3.839  18.785  66.609  1.00  0.00     0.177 C 
BRANCH  13  14
HETATM   14  C19 UNL     1       2.897  19.520  65.649  1.00  0.00     0.039 C 
BRANCH  14  15
HETATM   15  C20 UNL     1       2.055  20.552  66.310  1.00  0.00    -0.012 C 
HETATM   16  C21 UNL     1       0.610  20.252  66.123  1.00  0.00     0.005 C 
HETATM   17  C22 UNL     1      -0.183  21.302  66.919  1.00  0.00     0.000 C 
HETATM   18  C23 UNL     1       0.038  22.624  66.249  1.00  0.00     0.000 C 
HETATM   19  C24 UNL     1       1.503  22.965  66.399  1.00  0.00     0.000 C 
HETATM   20  C25 UNL     1       2.365  21.916  65.736  1.00  0.00     0.005 C 
ENDBRANCH  14  15
ENDBRANCH  13  14
BRANCH  13  21
HETATM   21  N4  UNL     1       3.480  19.197  67.975  1.00  0.00    -0.348 N 
HETATM   22  C26 UNL     1       3.299  18.280  69.017  1.00  0.00     0.214 C 
HETATM   23  C27 UNL     1       2.937  18.754  70.368  1.00  0.00     0.117 C 
HETATM   24  O3  UNL     1       3.438  17.034  68.843  1.00  0.00    -0.274 OA
ATOM     25  H4  UNL     1       3.358  20.190  68.171  1.00  0.00     0.163 HD
ENDBRANCH  13  21
ENDBRANCH  10  13
BRANCH  12  26
HETATM   26  C29 UNL     1       6.686  16.459  66.823  1.00  0.00     0.009 C 
HETATM   27  C30 UNL     1       6.975  17.233  68.033  1.00  0.00     0.007 C 
HETATM   28  C31 UNL     1       7.933  16.391  68.877  1.00  0.00     0.000 C 
HETATM   29  C32 UNL     1       8.639  15.483  67.930  1.00  0.00     0.000 C 
HETATM   30  C33 UNL     1       7.899  15.580  66.643  1.00  0.00     0.007 C 
ENDBRANCH  12  26
BRANCH   1  31
HETATM   31  C5  UNL     1       6.058  15.919  63.525  1.00  0.00     0.224 C 
HETATM   32  N1  UNL     1       4.709  16.085  63.225  1.00  0.00    -0.349 N 
ATOM     33  H1  UNL     1       4.211  16.906  63.568  1.00  0.00     0.163 HD
HETATM   34  O1  UNL     1       6.614  14.849  63.057  1.00  0.00    -0.273 OA
BRANCH  32  35
HETATM   35  C4  UNL     1       4.007  15.097  62.429  1.00  0.00     0.164 C 
BRANCH  35  36
HETATM   36  C3  UNL     1       2.880  15.808  61.661  1.00  0.00     0.033 C 
BRANCH  36  37
HETATM   37  C2  UNL     1       2.820  17.239  62.151  1.00  0.00    -0.002 C 
HETATM   38  C1  UNL     1       1.364  17.647  62.283  1.00  0.00     0.005 C 
ENDBRANCH  36  37
ENDBRANCH  35  36
BRANCH  35  39
HETATM   39  C34 UNL     1       3.333  14.103  63.302  1.00  0.00     0.236 C 
HETATM   40  O4  UNL     1       3.419  12.865  63.025  1.00  0.00    -0.285 OA
BRANCH  39  41
HETATM   41  C35 UNL     1       2.567  14.490  64.480  1.00  0.00     0.302 C 
HETATM   42  N5  UNL     1       1.169  14.226  64.538  1.00  0.00    -0.054 NA
HETATM   43  O5  UNL     1       3.086  15.058  65.468  1.00  0.00    -0.268 OA
ENDBRANCH  39  41
ENDBRANCH  35  39
ENDBRANCH  32  35
ENDBRANCH   1  31
BRANCH   6  44
HETATM   44  C12 UNL     1       9.917  20.477  64.710  1.00  0.00     0.237 C 
BRANCH  44  45
HETATM   45  N2  UNL     1      11.022  20.316  65.613  1.00  0.00    -0.075 N 
ATOM     46  H22 UNL     1      11.535  19.456  65.413  1.00  0.00     0.277 HD
ATOM     47  H21 UNL     1      11.757  20.995  65.416  1.00  0.00     0.277 HD
BRANCH  45  48
HETATM   48  C13 UNL     1      10.621  20.370  67.005  1.00  0.00     0.228 C 
HETATM   49  C14 UNL     1      10.691  18.960  67.554  1.00  0.00     0.034 C 
ENDBRANCH  45  48
ENDBRANCH  44  45
ENDBRANCH   6  44
TORSDOF 14
ENDMDL
MODEL 5
REMARK VINA RESULT: -5.884551080      2.245      7.748
REMARK  14 active torsions:
REMARK  status: ('A' for Active; 'I' for Inactive)
REMARK    1  A    between atoms: C2_2  and  C3_3 
REMARK    2  A    between atoms: C3_3  and  C4_4 
REMARK    3  A    between atoms: C4_4  and  N1_5 
REMARK    4  A    between atoms: C4_4  and  C34_45 
REMARK       I    between atoms: N1_5  and  C5_7 
REMARK    5  A    between atoms: C5_7  and  C6_9 
REMARK    6  A    between atoms: C11_14  and  C12_15 
REMARK    7  A    between atoms: C12_15  and  N2_16 
REMARK    8  A    between atoms: N2_16  and  C13_19 
REMARK       I    between atoms: N3_23  and  C17_24 
REMARK    9  A    between atoms: C17_24  and  C18_26 
REMARK   10  A    between atoms: C18_26  and  C19_27 
REMARK   11  A    between atoms: C18_26  and  N4_34 
REMARK   12  A    between atoms: C19_27  and  C20_28 
REMARK       I    between atoms: N4_34  and  C26_36 
REMARK   13  A    between atoms: C28_39  and  C29_40 
REMARK   14  A    between atoms: C34_45  and  C35_47 
ROOT
HETATM    1  C6  UNL     1       4.370  17.880  65.897  1.00  0.00     0.105 C 
HETATM    2  C7  UNL     1       3.800  17.674  64.544  1.00  0.00     0.007 C 
HETATM    3  C8  UNL     1       2.302  17.488  64.615  1.00  0.00     0.006 C 
HETATM    4  C9  UNL     1       1.779  16.652  63.430  1.00  0.00     0.001 C 
HETATM    5  C10 UNL     1       2.252  15.253  63.692  1.00  0.00     0.007 C 
HETATM    6  C11 UNL     1       3.726  15.241  63.824  1.00  0.00     0.017 C 
HETATM    7  C15 UNL     1       4.412  16.582  63.738  1.00  0.00     0.014 C 
HETATM    8  C16 UNL     1       5.863  16.310  64.027  1.00  0.00     0.132 C 
HETATM    9  N3  UNL     1       6.452  17.390  64.756  1.00  0.00    -0.344 N 
HETATM   10  C17 UNL     1       7.650  17.958  64.235  1.00  0.00     0.243 C 
HETATM   11  O2  UNL     1       8.122  17.399  63.181  1.00  0.00    -0.271 OA
HETATM   12  C28 UNL     1       5.842  17.816  66.001  1.00  0.00     0.104 C 
ENDROOT
BRANCH  10  13
HETATM   13  C18 UNL     1       8.372  19.120  64.812  1.00  0.00     0.177 C 
BRANCH  13  14
HETATM   14  C19 UNL     1       8.973  19.865  63.615  1.00  0.00     0.039 C 
BRANCH  14  15
HETATM   15  C20 UNL     1      10.459  19.924  63.631  1.00  0.00    -0.012 C 
HETATM   16  C21 UNL     1      10.930  21.328  63.762  1.00  0.00     0.005 C 
HETATM   17  C22 UNL     1      12.464  21.289  63.873  1.00  0.00     0.000 C 
HETATM   18  C23 UNL     1      12.991  20.815  62.553  1.00  0.00     0.000 C 
HETATM   19  C24 UNL     1      12.521  19.390  62.367  1.00  0.00     0.000 C 
HETATM   20  C25 UNL     1      11.011  19.323  62.357  1.00  0.00     0.005 C 
ENDBRANCH  14  15
ENDBRANCH  13  14
BRANCH  13  21
HETATM   21  N4  UNL     1       9.492  18.569  65.592  1.00  0.00    -0.348 N 
HETATM   22  C26 UNL     1      10.014  19.211  66.721  1.00  0.00     0.214 C 
HETATM   23  C27 UNL     1      11.141  18.608  67.461  1.00  0.00     0.117 C 
HETATM   24  O3  UNL     1       9.547  20.310  67.141  1.00  0.00    -0.274 OA
ATOM     25  H4  UNL     1       9.904  17.684  65.297  1.00  0.00     0.163 HD
ENDBRANCH  13  21
ENDBRANCH  10  13
BRANCH  12  26
HETATM   26  C29 UNL     1       6.425  17.030  67.136  1.00  0.00     0.009 C 
HETATM   27  C30 UNL     1       7.087  17.743  68.232  1.00  0.00     0.007 C 
HETATM   28  C31 UNL     1       8.080  16.765  68.860  1.00  0.00     0.000 C 
HETATM   29  C32 UNL     1       8.418  15.772  67.802  1.00  0.00     0.000 C 
HETATM   30  C33 UNL     1       7.428  15.986  66.711  1.00  0.00     0.007 C 
ENDBRANCH  12  26
BRANCH   1  31
HETATM   31  C5  UNL     1       3.896  19.189  66.428  1.00  0.00     0.224 C 
HETATM   32  N1  UNL     1       2.622  19.519  66.880  1.00  0.00    -0.349 N 
ATOM     33  H1  UNL     1       1.881  18.817  66.864  1.00  0.00     0.163 HD
HETATM   34  O1  UNL     1       4.776  20.135  66.476  1.00  0.00    -0.273 OA
BRANCH  32  35
HETATM   35  C4  UNL     1       2.341  20.853  67.373  1.00  0.00     0.164 C 
BRANCH  35  36
HETATM   36  C3  UNL     1       1.288  20.742  68.491  1.00  0.00     0.033 C 
BRANCH  36  37
HETATM   37  C2  UNL     1       1.646  19.544  69.344  1.00  0.00    -0.002 C 
HETATM   38  C1  UNL     1       2.507  20.013  70.503  1.00  0.00     0.005 C 
ENDBRANCH  36  37
ENDBRANCH  35  36
BRANCH  35  39
HETATM   39  C34 UNL     1       1.714  21.682  66.313  1.00  0.00     0.236 C 
HETATM   40  O4  UNL     1       0.634  21.291  65.768  1.00  0.00    -0.285 OA
BRANCH  39  41
HETATM   41  C35 UNL     1       2.291  22.943  65.864  1.00  0.00     0.302 C 
HETATM   42  N5  UNL     1       1.624  24.169  66.141  1.00  0.00    -0.054 NA
HETATM   43  O5  UNL     1       3.369  23.006  65.230  1.00  0.00    -0.268 OA
ENDBRANCH  39  41
ENDBRANCH  35  39
ENDBRANCH  32  35
ENDBRANCH   1  31
BRANCH   6  44
HETATM   44  C12 UNL     1       4.306  14.379  62.717  1.00  0.00     0.237 C 
BRANCH  44  45
HETATM   45  N2  UNL     1       3.320  13.396  62.363  1.00  0.00    -0.075 N 
ATOM     46  H22 UNL     1       2.405  13.645  62.740  1.00  0.00     0.277 HD
ATOM     47  H21 UNL     1       3.105  13.436  61.367  1.00  0.00     0.277 HD
BRANCH  45  48
HETATM   48  C13 UNL     1       3.698  12.055  62.760  1.00  0.00     0.228 C 
HETATM   49  C14 UNL     1       2.639  11.547  63.717  1.00  0.00     0.034 C 
ENDBRANCH  45  48
ENDBRANCH  44  45
ENDBRANCH   6  44
TORSDOF 14
ENDMDL
