MODEL 1
REMARK VINA RESULT: -9.129177624      0.000      0.000
REMARK  15 active torsions:
REMARK  status: ('A' for Active; 'I' for Inactive)
REMARK       I    between atoms: C2_2  and  N1_4 
REMARK    1  A    between atoms: N1_4  and  C3_6 
REMARK    2  A    between atoms: C3_6  and  C4_7 
REMARK    3  A    between atoms: C3_6  and  C32_46 
REMARK       I    between atoms: C4_7  and  N2_9 
REMARK    4  A    between atoms: N2_9  and  C5_11 
REMARK    5  A    between atoms: C5_11  and  C6_12 
REMARK    6  A    between atoms: C7_13  and  C8_14 
REMARK    7  A    between atoms: C8_14  and  C9_15 
REMARK    8  A    between atoms: C9_15  and  C10_16 
REMARK    9  A    between atoms: C10_16  and  C11_17 
REMARK   10  A    between atoms: C11_17  and  C12_18 
REMARK   11  A    between atoms: C12_18  and  C13_19 
REMARK   12  A    between atoms: N3_22  and  C14_23 
REMARK   13  A    between atoms: C14_23  and  C15_24 
REMARK   14  A    between atoms: C14_23  and  C19_28 
REMARK   15  A    between atoms: C15_24  and  C16_25 
REMARK       I    between atoms: C19_28  and  N4_30 
REMARK       I    between atoms: N4_30  and  C20_32 
REMARK       I    between atoms: C20_32  and  N5_34 
ROOT
HETATM    1  C6  UNL     1       6.662  17.657  64.078  1.00  0.00     0.275 A 
HETATM    2  C7  UNL     1       8.187  17.813  63.826  1.00  0.00     0.259 A 
HETATM    3  N3  UNL     1       7.506  18.564  64.778  1.00  0.00     0.117 N 
ENDROOT
BRANCH   3   4
HETATM    4  C14 UNL     1       7.626  18.618  66.198  1.00  0.00     0.316 C 
BRANCH   4   5
HETATM    5  C15 UNL     1       6.838  19.830  66.618  1.00  0.00     0.049 C 
BRANCH   5   6
HETATM    6  C16 UNL     1       5.750  19.649  67.595  1.00  0.00    -0.020 C 
HETATM    7  C17 UNL     1       5.577  18.146  67.829  1.00  0.00     0.009 C 
HETATM    8  C18 UNL     1       4.452  20.107  66.901  1.00  0.00     0.009 C 
ENDBRANCH   5   6
ENDBRANCH   4   5
BRANCH   4   9
HETATM    9  C19 UNL     1       9.049  18.748  66.597  1.00  0.00     0.259 C 
HETATM   10  O5  UNL     1       9.484  18.006  67.561  1.00  0.00    -0.271 OA
HETATM   11  N4  UNL     1      10.017  19.615  66.035  1.00  0.00    -0.277 N 
HETATM   12  C20 UNL     1      11.358  19.656  66.533  1.00  0.00     0.325 C 
ATOM     13  H4  UNL     1       9.753  20.222  65.258  1.00  0.00     0.173 HD
HETATM   14  O6  UNL     1      11.662  18.911  67.523  1.00  0.00    -0.247 OA
HETATM   15  N5  UNL     1      12.359  20.468  65.997  1.00  0.00    -0.334 N 
HETATM   16  C21 UNL     1      13.687  20.474  66.618  1.00  0.00     0.128 C 
HETATM   17  C31 UNL     1      12.172  21.279  64.840  1.00  0.00     0.128 C 
HETATM   18  C22 UNL     1      14.222  21.868  66.792  1.00  0.00     0.029 C 
HETATM   19  C23 UNL     1      14.101  22.663  65.501  1.00  0.00    -0.037 C 
HETATM   20  C24 UNL     1      14.944  22.075  64.420  1.00  0.00     0.010 C 
HETATM   21  C29 UNL     1      14.459  24.096  65.810  1.00  0.00     0.010 C 
HETATM   22  C30 UNL     1      12.625  22.683  65.098  1.00  0.00     0.029 C 
HETATM   23  C25 UNL     1      16.298  22.684  64.260  1.00  0.00     0.005 C 
HETATM   24  C26 UNL     1      16.844  23.366  65.472  1.00  0.00    -0.019 C 
HETATM   25  C27 UNL     1      18.059  24.180  64.994  1.00  0.00     0.010 C 
HETATM   26  C28 UNL     1      15.901  24.318  66.128  1.00  0.00     0.005 C 
ENDBRANCH   4   9
ENDBRANCH   3   4
BRANCH   1  27
HETATM   27  C5  UNL     1       6.383  16.269  64.590  1.00  0.00     0.161 C 
BRANCH  27  28
HETATM   28  N2  UNL     1       5.141  15.677  64.269  1.00  0.00    -0.357 N 
HETATM   29  C4  UNL     1       4.798  15.098  63.027  1.00  0.00     0.240 C 
HETATM   30  O2  UNL     1       5.721  15.136  62.140  1.00  0.00    -0.271 OA
ATOM     31  H2  UNL     1       4.428  15.668  64.999  1.00  0.00     0.162 HD
BRANCH  29  32
HETATM   32  C3  UNL     1       3.522  14.469  62.672  1.00  0.00     0.179 C 
BRANCH  32  33
HETATM   33  N1  UNL     1       3.723  13.053  62.326  1.00  0.00    -0.348 N 
HETATM   34  C2  UNL     1       3.273  12.009  63.155  1.00  0.00     0.214 C 
HETATM   35  C1  UNL     1       3.446  10.576  62.847  1.00  0.00     0.117 C 
HETATM   36  O1  UNL     1       2.691  12.333  64.217  1.00  0.00    -0.274 OA
ATOM     37  H1  UNL     1       4.204  12.820  61.456  1.00  0.00     0.163 HD
ENDBRANCH  32  33
BRANCH  32  38
HETATM   38  C32 UNL     1       2.815  15.134  61.525  1.00  0.00     0.009 C 
HETATM   39  C33 UNL     1       1.451  14.489  61.285  1.00  0.00     0.012 C 
HETATM   40  C34 UNL     1       2.563  16.602  61.674  1.00  0.00     0.012 C 
ENDBRANCH  32  38
ENDBRANCH  29  32
ENDBRANCH  27  28
ENDBRANCH   1  27
BRANCH   2  41
HETATM   41  C8  UNL     1       8.567  18.559  62.561  1.00  0.00     0.038 C 
BRANCH  41  42
HETATM   42  C9  UNL     1       9.971  19.108  62.598  1.00  0.00     0.002 C 
BRANCH  42  43
HETATM   43  C10 UNL     1      10.860  18.060  61.954  1.00  0.00     0.001 C 
BRANCH  43  44
HETATM   44  C11 UNL     1      10.283  17.456  60.717  1.00  0.00     0.010 C 
BRANCH  44  45
HETATM   45  C12 UNL     1      10.358  15.955  60.745  1.00  0.00     0.113 C 
BRANCH  45  46
HETATM   46  C13 UNL     1       9.022  15.329  60.841  1.00  0.00     0.172 C 
HETATM   47  O3  UNL     1       8.075  15.513  60.045  1.00  0.00    -0.648 OA
HETATM   48  O4  UNL     1       8.803  14.457  61.915  1.00  0.00    -0.648 OA
ENDBRANCH  45  46
ENDBRANCH  44  45
ENDBRANCH  43  44
ENDBRANCH  42  43
ENDBRANCH  41  42
ENDBRANCH   2  41
TORSDOF 15
ENDMDL
MODEL 2
REMARK VINA RESULT: -9.101362471      2.009      2.680
REMARK  15 active torsions:
REMARK  status: ('A' for Active; 'I' for Inactive)
REMARK       I    between atoms: C2_2  and  N1_4 
REMARK    1  A    between atoms: N1_4  and  C3_6 
REMARK    2  A    between atoms: C3_6  and  C4_7 
REMARK    3  A    between atoms: C3_6  and  C32_46 
REMARK       I    between atoms: C4_7  and  N2_9 
REMARK    4  A    between atoms: N2_9  and  C5_11 
REMARK    5  A    between atoms: C5_11  and  C6_12 
REMARK    6  A    between atoms: C7_13  and  C8_14 
REMARK    7  A    between atoms: C8_14  and  C9_15 
REMARK    8  A    between atoms: C9_15  and  C10_16 
REMARK    9  A    between atoms: C10_16  and  C11_17 
REMARK   10  A    between atoms: C11_17  and  C12_18 
REMARK   11  A    between atoms: C12_18  and  C13_19 
REMARK   12  A    between atoms: N3_22  and  C14_23 
REMARK   13  A    between atoms: C14_23  and  C15_24 
REMARK   14  A    between atoms: C14_23  and  C19_28 
REMARK   15  A    between atoms: C15_24  and  C16_25 
REMARK       I    between atoms: C19_28  and  N4_30 
REMARK       I    between atoms: N4_30  and  C20_32 
REMARK       I    between atoms: C20_32  and  N5_34 
ROOT
HETATM    1  C6  UNL     1       7.473  17.812  64.516  1.00  0.00     0.275 A 
HETATM    2  C7  UNL     1       8.827  17.687  63.765  1.00  0.00     0.259 A 
HETATM    3  N3  UNL     1       8.668  18.487  64.891  1.00  0.00     0.117 N 
ENDROOT
BRANCH   3   4
HETATM    4  C14 UNL     1       9.257  18.417  66.188  1.00  0.00     0.316 C 
BRANCH   4   5
HETATM    5  C15 UNL     1       8.265  19.074  67.112  1.00  0.00     0.049 C 
BRANCH   5   6
HETATM    6  C16 UNL     1       7.531  20.252  66.620  1.00  0.00    -0.020 C 
HETATM    7  C17 UNL     1       8.147  21.493  67.274  1.00  0.00     0.009 C 
HETATM    8  C18 UNL     1       6.103  20.154  67.192  1.00  0.00     0.009 C 
ENDBRANCH   5   6
ENDBRANCH   4   5
BRANCH   4   9
HETATM    9  C19 UNL     1      10.556  19.133  66.210  1.00  0.00     0.259 C 
HETATM   10  O5  UNL     1      10.949  19.653  67.326  1.00  0.00    -0.271 OA
HETATM   11  N4  UNL     1      11.443  19.326  65.123  1.00  0.00    -0.277 N 
HETATM   12  C20 UNL     1      12.661  20.061  65.278  1.00  0.00     0.325 C 
ATOM     13  H4  UNL     1      11.209  18.932  64.212  1.00  0.00     0.173 HD
HETATM   14  O6  UNL     1      12.923  20.572  66.417  1.00  0.00    -0.247 OA
HETATM   15  N5  UNL     1      13.585  20.255  64.249  1.00  0.00    -0.334 N 
HETATM   16  C21 UNL     1      14.776  21.071  64.500  1.00  0.00     0.128 C 
HETATM   17  C31 UNL     1      13.453  19.666  62.959  1.00  0.00     0.128 C 
HETATM   18  C22 UNL     1      15.037  22.047  63.386  1.00  0.00     0.029 C 
HETATM   19  C23 UNL     1      14.992  21.353  62.034  1.00  0.00    -0.037 C 
HETATM   20  C24 UNL     1      16.084  20.344  61.905  1.00  0.00     0.010 C 
HETATM   21  C29 UNL     1      15.052  22.421  60.969  1.00  0.00     0.010 C 
HETATM   22  C30 UNL     1      13.617  20.698  61.886  1.00  0.00     0.029 C 
HETATM   23  C25 UNL     1      17.325  20.826  61.228  1.00  0.00     0.005 C 
HETATM   24  C26 UNL     1      17.549  22.302  61.269  1.00  0.00    -0.019 C 
HETATM   25  C27 UNL     1      18.672  22.593  60.257  1.00  0.00     0.010 C 
HETATM   26  C28 UNL     1      16.367  23.121  60.869  1.00  0.00     0.005 C 
ENDBRANCH   4   9
ENDBRANCH   3   4
BRANCH   1  27
HETATM   27  C5  UNL     1       7.098  16.472  65.090  1.00  0.00     0.161 C 
BRANCH  27  28
HETATM   28  N2  UNL     1       5.950  15.826  64.580  1.00  0.00    -0.357 N 
HETATM   29  C4  UNL     1       4.612  16.224  64.797  1.00  0.00     0.240 C 
HETATM   30  O2  UNL     1       4.472  17.265  65.530  1.00  0.00    -0.271 OA
ATOM     31  H2  UNL     1       6.100  14.997  64.003  1.00  0.00     0.162 HD
BRANCH  29  32
HETATM   32  C3  UNL     1       3.406  15.578  64.272  1.00  0.00     0.179 C 
BRANCH  32  33
HETATM   33  N1  UNL     1       3.762  14.462  63.383  1.00  0.00    -0.348 N 
HETATM   34  C2  UNL     1       3.198  13.181  63.527  1.00  0.00     0.214 C 
HETATM   35  C1  UNL     1       3.520  12.033  62.658  1.00  0.00     0.117 C 
HETATM   36  O1  UNL     1       2.372  13.022  64.458  1.00  0.00    -0.274 OA
ATOM     37  H1  UNL     1       4.440  14.621  62.637  1.00  0.00     0.163 HD
ENDBRANCH  32  33
BRANCH  32  38
HETATM   38  C32 UNL     1       2.500  16.508  63.514  1.00  0.00     0.009 C 
HETATM   39  C33 UNL     1       2.889  16.556  62.038  1.00  0.00     0.012 C 
HETATM   40  C34 UNL     1       1.041  16.173  63.551  1.00  0.00     0.012 C 
ENDBRANCH  32  38
ENDBRANCH  29  32
ENDBRANCH  27  28
ENDBRANCH   1  27
BRANCH   2  41
HETATM   41  C8  UNL     1       8.914  18.432  62.446  1.00  0.00     0.038 C 
BRANCH  41  42
HETATM   42  C9  UNL     1      10.213  18.193  61.717  1.00  0.00     0.002 C 
BRANCH  42  43
HETATM   43  C10 UNL     1       9.864  17.409  60.466  1.00  0.00     0.001 C 
BRANCH  43  44
HETATM   44  C11 UNL     1       9.673  15.947  60.702  1.00  0.00     0.010 C 
BRANCH  44  45
HETATM   45  C12 UNL     1       8.271  15.511  60.379  1.00  0.00     0.113 C 
BRANCH  45  46
HETATM   46  C13 UNL     1       7.521  15.101  61.586  1.00  0.00     0.172 C 
HETATM   47  O3  UNL     1       7.986  14.442  62.542  1.00  0.00    -0.648 OA
HETATM   48  O4  UNL     1       6.176  15.485  61.661  1.00  0.00    -0.648 OA
ENDBRANCH  45  46
ENDBRANCH  44  45
ENDBRANCH  43  44
ENDBRANCH  42  43
ENDBRANCH  41  42
ENDBRANCH   2  41
TORSDOF 15
ENDMDL
MODEL 3
REMARK VINA RESULT: -9.083342407      1.337      2.163
REMARK  15 active torsions:
REMARK  status: ('A' for Active; 'I' for Inactive)
REMARK       I    between atoms: C2_2  and  N1_4 
REMARK    1  A    between atoms: N1_4  and  C3_6 
REMARK    2  A    between atoms: C3_6  and  C4_7 
REMARK    3  A    between atoms: C3_6  and  C32_46 
REMARK       I    between atoms: C4_7  and  N2_9 
REMARK    4  A    between atoms: N2_9  and  C5_11 
REMARK    5  A    between atoms: C5_11  and  C6_12 
REMARK    6  A    between atoms: C7_13  and  C8_14 
REMARK    7  A    between atoms: C8_14  and  C9_15 
REMARK    8  A    between atoms: C9_15  and  C10_16 
REMARK    9  A    between atoms: C10_16  and  C11_17 
REMARK   10  A    between atoms: C11_17  and  C12_18 
REMARK   11  A    between atoms: C12_18  and  C13_19 
REMARK   12  A    between atoms: N3_22  and  C14_23 
REMARK   13  A    between atoms: C14_23  and  C15_24 
REMARK   14  A    between atoms: C14_23  and  C19_28 
REMARK   15  A    between atoms: C15_24  and  C16_25 
REMARK       I    between atoms: C19_28  and  N4_30 
REMARK       I    between atoms: N4_30  and  C20_32 
REMARK       I    between atoms: C20_32  and  N5_34 
ROOT
HETATM    1  C6  UNL     1       6.863  18.419  63.649  1.00  0.00     0.275 A 
HETATM    2  C7  UNL     1       8.345  18.003  63.440  1.00  0.00     0.259 A 
HETATM    3  N3  UNL     1       7.944  18.843  64.473  1.00  0.00     0.117 N 
ENDROOT
BRANCH   3   4
HETATM    4  C14 UNL     1       7.985  18.681  65.890  1.00  0.00     0.316 C 
BRANCH   4   5
HETATM    5  C15 UNL     1       7.060  19.736  66.438  1.00  0.00     0.049 C 
BRANCH   5   6
HETATM    6  C16 UNL     1       6.184  19.375  67.566  1.00  0.00    -0.020 C 
HETATM    7  C17 UNL     1       6.067  17.849  67.597  1.00  0.00     0.009 C 
HETATM    8  C18 UNL     1       4.774  19.887  67.211  1.00  0.00     0.009 C 
ENDBRANCH   5   6
ENDBRANCH   4   5
BRANCH   4   9
HETATM    9  C19 UNL     1       9.366  18.873  66.396  1.00  0.00     0.259 C 
HETATM   10  O5  UNL     1       9.747  18.174  67.414  1.00  0.00    -0.271 OA
HETATM   11  N4  UNL     1      10.346  19.759  65.887  1.00  0.00    -0.277 N 
HETATM   12  C20 UNL     1      11.640  19.863  66.489  1.00  0.00     0.325 C 
ATOM     13  H4  UNL     1      10.125  20.335  65.074  1.00  0.00     0.173 HD
HETATM   14  O6  UNL     1      11.889  19.157  67.522  1.00  0.00    -0.247 OA
HETATM   15  N5  UNL     1      12.653  20.696  66.010  1.00  0.00    -0.334 N 
HETATM   16  C21 UNL     1      13.926  20.767  66.734  1.00  0.00     0.128 C 
HETATM   17  C31 UNL     1      12.532  21.468  64.818  1.00  0.00     0.128 C 
HETATM   18  C22 UNL     1      14.398  22.184  66.908  1.00  0.00     0.029 C 
HETATM   19  C23 UNL     1      14.353  22.938  65.588  1.00  0.00    -0.037 C 
HETATM   20  C24 UNL     1      15.301  22.352  64.596  1.00  0.00     0.010 C 
HETATM   21  C29 UNL     1      14.637  24.391  65.881  1.00  0.00     0.010 C 
HETATM   22  C30 UNL     1      12.915  22.894  65.069  1.00  0.00     0.029 C 
HETATM   23  C25 UNL     1      16.642  23.005  64.525  1.00  0.00     0.005 C 
HETATM   24  C26 UNL     1      17.065  23.740  65.756  1.00  0.00    -0.019 C 
HETATM   25  C27 UNL     1      18.286  24.584  65.352  1.00  0.00     0.010 C 
HETATM   26  C28 UNL     1      16.040  24.674  66.306  1.00  0.00     0.005 C 
ENDBRANCH   4   9
ENDBRANCH   3   4
BRANCH   1  27
HETATM   27  C5  UNL     1       6.045  17.197  63.970  1.00  0.00     0.161 C 
BRANCH  27  28
HETATM   28  N2  UNL     1       4.708  17.152  63.516  1.00  0.00    -0.357 N 
HETATM   29  C4  UNL     1       4.214  16.328  62.481  1.00  0.00     0.240 C 
HETATM   30  O2  UNL     1       5.089  15.573  61.928  1.00  0.00    -0.271 OA
ATOM     31  H2  UNL     1       4.040  17.770  63.977  1.00  0.00     0.162 HD
BRANCH  29  32
HETATM   32  C3  UNL     1       2.833  16.254  61.998  1.00  0.00     0.179 C 
BRANCH  32  33
HETATM   33  N1  UNL     1       1.912  16.867  62.970  1.00  0.00    -0.348 N 
HETATM   34  C2  UNL     1       1.152  18.009  62.662  1.00  0.00     0.214 C 
HETATM   35  C1  UNL     1       0.213  18.655  63.599  1.00  0.00     0.117 C 
HETATM   36  O1  UNL     1       1.291  18.497  61.515  1.00  0.00    -0.274 OA
ATOM     37  H1  UNL     1       1.823  16.450  63.897  1.00  0.00     0.163 HD
ENDBRANCH  32  33
BRANCH  32  38
HETATM   38  C32 UNL     1       2.357  14.854  61.725  1.00  0.00     0.009 C 
HETATM   39  C33 UNL     1       1.892  14.181  63.014  1.00  0.00     0.012 C 
HETATM   40  C34 UNL     1       1.226  14.727  60.753  1.00  0.00     0.012 C 
ENDBRANCH  32  38
ENDBRANCH  29  32
ENDBRANCH  27  28
ENDBRANCH   1  27
BRANCH   2  41
HETATM   41  C8  UNL     1       9.060  18.686  62.289  1.00  0.00     0.038 C 
BRANCH  41  42
HETATM   42  C9  UNL     1      10.541  18.845  62.525  1.00  0.00     0.002 C 
BRANCH  42  43
HETATM   43  C10 UNL     1      11.229  17.828  61.633  1.00  0.00     0.001 C 
BRANCH  43  44
HETATM   44  C11 UNL     1      10.325  17.196  60.627  1.00  0.00     0.010 C 
BRANCH  44  45
HETATM   45  C12 UNL     1      10.224  15.710  60.828  1.00  0.00     0.113 C 
BRANCH  45  46
HETATM   46  C13 UNL     1       8.821  15.254  60.936  1.00  0.00     0.172 C 
HETATM   47  O3  UNL     1       7.907  15.519  60.125  1.00  0.00    -0.648 OA
HETATM   48  O4  UNL     1       8.493  14.457  62.040  1.00  0.00    -0.648 OA
ENDBRANCH  45  46
ENDBRANCH  44  45
ENDBRANCH  43  44
ENDBRANCH  42  43
ENDBRANCH  41  42
ENDBRANCH   2  41
TORSDOF 15
ENDMDL
MODEL 4
REMARK VINA RESULT: -8.910635996      2.544      3.665
REMARK  15 active torsions:
REMARK  status: ('A' for Active; 'I' for Inactive)
REMARK       I    between atoms: C2_2  and  N1_4 
REMARK    1  A    between atoms: N1_4  and  C3_6 
REMARK    2  A    between atoms: C3_6  and  C4_7 
REMARK    3  A    between atoms: C3_6  and  C32_46 
REMARK       I    between atoms: C4_7  and  N2_9 
REMARK    4  A    between atoms: N2_9  and  C5_11 
REMARK    5  A    between atoms: C5_11  and  C6_12 
REMARK    6  A    between atoms: C7_13  and  C8_14 
REMARK    7  A    between atoms: C8_14  and  C9_15 
REMARK    8  A    between atoms: C9_15  and  C10_16 
REMARK    9  A    between atoms: C10_16  and  C11_17 
REMARK   10  A    between atoms: C11_17  and  C12_18 
REMARK   11  A    between atoms: C12_18  and  C13_19 
REMARK   12  A    between atoms: N3_22  and  C14_23 
REMARK   13  A    between atoms: C14_23  and  C15_24 
REMARK   14  A    between atoms: C14_23  and  C19_28 
REMARK   15  A    between atoms: C15_24  and  C16_25 
REMARK       I    between atoms: C19_28  and  N4_30 
REMARK       I    between atoms: N4_30  and  C20_32 
REMARK       I    between atoms: C20_32  and  N5_34 
ROOT
HETATM    1  C6  UNL     1       7.550  18.331  63.026  1.00  0.00     0.275 A 
HETATM    2  C7  UNL     1       9.005  17.789  62.991  1.00  0.00     0.259 A 
HETATM    3  N3  UNL     1       8.564  18.683  63.960  1.00  0.00     0.117 N 
ENDROOT
BRANCH   3   4
HETATM    4  C14 UNL     1       8.434  18.551  65.375  1.00  0.00     0.316 C 
BRANCH   4   5
HETATM    5  C15 UNL     1       7.394  19.564  65.775  1.00  0.00     0.049 C 
BRANCH   5   6
HETATM    6  C16 UNL     1       6.892  19.535  67.160  1.00  0.00    -0.020 C 
HETATM    7  C17 UNL     1       6.518  18.088  67.492  1.00  0.00     0.009 C 
HETATM    8  C18 UNL     1       5.560  20.313  67.163  1.00  0.00     0.009 C 
ENDBRANCH   5   6
ENDBRANCH   4   5
BRANCH   4   9
HETATM    9  C19 UNL     1       9.729  18.829  66.045  1.00  0.00     0.259 C 
HETATM   10  O5  UNL     1      10.011  18.176  67.124  1.00  0.00    -0.271 OA
HETATM   11  N4  UNL     1      10.719  19.754  65.636  1.00  0.00    -0.277 N 
HETATM   12  C20 UNL     1      11.920  19.941  66.393  1.00  0.00     0.325 C 
ATOM     13  H4  UNL     1      10.575  20.297  64.785  1.00  0.00     0.173 HD
HETATM   14  O6  UNL     1      12.070  19.274  67.470  1.00  0.00    -0.247 OA
HETATM   15  N5  UNL     1      12.943  20.815  66.020  1.00  0.00    -0.334 N 
HETATM   16  C21 UNL     1      14.107  20.972  66.896  1.00  0.00     0.128 C 
HETATM   17  C31 UNL     1      12.936  21.551  64.799  1.00  0.00     0.128 C 
HETATM   18  C22 UNL     1      14.482  22.416  67.084  1.00  0.00     0.029 C 
HETATM   19  C23 UNL     1      14.568  23.135  65.747  1.00  0.00    -0.037 C 
HETATM   20  C24 UNL     1      15.662  22.576  64.900  1.00  0.00     0.010 C 
HETATM   21  C29 UNL     1      14.739  24.607  66.029  1.00  0.00     0.010 C 
HETATM   22  C30 UNL     1      13.212  23.001  65.052  1.00  0.00     0.029 C 
HETATM   23  C25 UNL     1      16.967  23.298  64.979  1.00  0.00     0.005 C 
HETATM   24  C26 UNL     1      17.193  24.084  66.230  1.00  0.00    -0.019 C 
HETATM   25  C27 UNL     1      18.412  24.982  65.957  1.00  0.00     0.010 C 
HETATM   26  C28 UNL     1      16.060  24.975  66.618  1.00  0.00     0.005 C 
ENDBRANCH   4   9
ENDBRANCH   3   4
BRANCH   1  27
HETATM   27  C5  UNL     1       6.600  17.189  63.270  1.00  0.00     0.161 C 
BRANCH  27  28
HETATM   28  N2  UNL     1       5.253  17.493  63.567  1.00  0.00    -0.357 N 
HETATM   29  C4  UNL     1       4.478  16.901  64.588  1.00  0.00     0.240 C 
HETATM   30  O2  UNL     1       5.086  16.012  65.281  1.00  0.00    -0.271 OA
ATOM     31  H2  UNL     1       4.800  18.204  62.992  1.00  0.00     0.162 HD
BRANCH  29  32
HETATM   32  C3  UNL     1       3.084  17.205  64.924  1.00  0.00     0.179 C 
BRANCH  32  33
HETATM   33  N1  UNL     1       2.468  18.031  63.873  1.00  0.00    -0.348 N 
HETATM   34  C2  UNL     1       1.591  17.491  62.915  1.00  0.00     0.214 C 
HETATM   35  C1  UNL     1       0.945  18.279  61.847  1.00  0.00     0.117 C 
HETATM   36  O1  UNL     1       1.352  16.262  62.987  1.00  0.00    -0.274 OA
ATOM     37  H1  UNL     1       2.684  19.028  63.837  1.00  0.00     0.163 HD
ENDBRANCH  32  33
BRANCH  32  38
HETATM   38  C32 UNL     1       2.916  17.919  66.236  1.00  0.00     0.009 C 
HETATM   39  C33 UNL     1       2.214  19.261  66.035  1.00  0.00     0.012 C 
HETATM   40  C34 UNL     1       2.131  17.189  67.281  1.00  0.00     0.012 C 
ENDBRANCH  32  38
ENDBRANCH  29  32
ENDBRANCH  27  28
ENDBRANCH   1  27
BRANCH   2  41
HETATM   41  C8  UNL     1       9.898  18.384  61.918  1.00  0.00     0.038 C 
BRANCH  41  42
HETATM   42  C9  UNL     1      11.279  17.777  61.895  1.00  0.00     0.002 C 
BRANCH  42  43
HETATM   43  C10 UNL     1      12.220  18.829  62.452  1.00  0.00     0.001 C 
BRANCH  43  44
HETATM   44  C11 UNL     1      12.414  20.004  61.552  1.00  0.00     0.010 C 
BRANCH  44  45
HETATM   45  C12 UNL     1      13.833  20.499  61.584  1.00  0.00     0.113 C 
BRANCH  45  46
HETATM   46  C13 UNL     1      14.096  21.511  60.539  1.00  0.00     0.172 C 
HETATM   47  O3  UNL     1      13.611  21.508  59.386  1.00  0.00    -0.648 OA
HETATM   48  O4  UNL     1      14.962  22.561  60.872  1.00  0.00    -0.648 OA
ENDBRANCH  45  46
ENDBRANCH  44  45
ENDBRANCH  43  44
ENDBRANCH  42  43
ENDBRANCH  41  42
ENDBRANCH   2  41
TORSDOF 15
ENDMDL
MODEL 5
REMARK VINA RESULT: -8.885962870      2.127      3.151
REMARK  15 active torsions:
REMARK  status: ('A' for Active; 'I' for Inactive)
REMARK       I    between atoms: C2_2  and  N1_4 
REMARK    1  A    between atoms: N1_4  and  C3_6 
REMARK    2  A    between atoms: C3_6  and  C4_7 
REMARK    3  A    between atoms: C3_6  and  C32_46 
REMARK       I    between atoms: C4_7  and  N2_9 
REMARK    4  A    between atoms: N2_9  and  C5_11 
REMARK    5  A    between atoms: C5_11  and  C6_12 
REMARK    6  A    between atoms: C7_13  and  C8_14 
REMARK    7  A    between atoms: C8_14  and  C9_15 
REMARK    8  A    between atoms: C9_15  and  C10_16 
REMARK    9  A    between atoms: C10_16  and  C11_17 
REMARK   10  A    between atoms: C11_17  and  C12_18 
REMARK   11  A    between atoms: C12_18  and  C13_19 
REMARK   12  A    between atoms: N3_22  and  C14_23 
REMARK   13  A    between atoms: C14_23  and  C15_24 
REMARK   14  A    between atoms: C14_23  and  C19_28 
REMARK   15  A    between atoms: C15_24  and  C16_25 
REMARK       I    between atoms: C19_28  and  N4_30 
REMARK       I    between atoms: N4_30  and  C20_32 
REMARK       I    between atoms: C20_32  and  N5_34 
ROOT
HETATM    1  C6  UNL     1       7.185  17.862  64.490  1.00  0.00     0.275 A 
HETATM    2  C7  UNL     1       8.529  17.689  63.730  1.00  0.00     0.259 A 
HETATM    3  N3  UNL     1       8.417  18.454  64.886  1.00  0.00     0.117 N 
ENDROOT
BRANCH   3   4
HETATM    4  C14 UNL     1       9.003  18.301  66.177  1.00  0.00     0.316 C 
BRANCH   4   5
HETATM    5  C15 UNL     1       8.034  18.947  67.133  1.00  0.00     0.049 C 
BRANCH   5   6
HETATM    6  C16 UNL     1       7.260  20.108  66.660  1.00  0.00    -0.020 C 
HETATM    7  C17 UNL     1       7.910  21.369  67.236  1.00  0.00     0.009 C 
HETATM    8  C18 UNL     1       5.875  20.018  67.332  1.00  0.00     0.009 C 
ENDBRANCH   5   6
ENDBRANCH   4   5
BRANCH   4   9
HETATM    9  C19 UNL     1      10.326  18.971  66.232  1.00  0.00     0.259 C 
HETATM   10  O5  UNL     1      10.732  19.432  67.369  1.00  0.00    -0.271 OA
HETATM   11  N4  UNL     1      11.223  19.177  65.156  1.00  0.00    -0.277 N 
HETATM   12  C20 UNL     1      12.465  19.864  65.344  1.00  0.00     0.325 C 
ATOM     13  H4  UNL     1      10.979  18.829  64.229  1.00  0.00     0.173 HD
HETATM   14  O6  UNL     1      12.740  20.318  66.504  1.00  0.00    -0.247 OA
HETATM   15  N5  UNL     1      13.399  20.067  64.326  1.00  0.00    -0.334 N 
HETATM   16  C21 UNL     1      14.617  20.831  64.613  1.00  0.00     0.128 C 
HETATM   17  C31 UNL     1      13.252  19.536  63.012  1.00  0.00     0.128 C 
HETATM   18  C22 UNL     1      14.915  21.841  63.541  1.00  0.00     0.029 C 
HETATM   19  C23 UNL     1      14.852  21.205  62.161  1.00  0.00    -0.037 C 
HETATM   20  C24 UNL     1      15.909  20.165  61.994  1.00  0.00     0.010 C 
HETATM   21  C29 UNL     1      14.953  22.313  61.141  1.00  0.00     0.010 C 
HETATM   22  C30 UNL     1      13.456  20.605  61.983  1.00  0.00     0.029 C 
HETATM   23  C25 UNL     1      17.168  20.631  61.340  1.00  0.00     0.005 C 
HETATM   24  C26 UNL     1      17.443  22.096  61.441  1.00  0.00    -0.019 C 
HETATM   25  C27 UNL     1      18.579  22.389  60.446  1.00  0.00     0.010 C 
HETATM   26  C28 UNL     1      16.291  22.971  61.073  1.00  0.00     0.005 C 
ENDBRANCH   4   9
ENDBRANCH   3   4
BRANCH   1  27
HETATM   27  C5  UNL     1       6.736  16.524  65.015  1.00  0.00     0.161 C 
BRANCH  27  28
HETATM   28  N2  UNL     1       5.656  15.883  64.368  1.00  0.00    -0.357 N 
HETATM   29  C4  UNL     1       4.302  15.944  64.765  1.00  0.00     0.240 C 
HETATM   30  O2  UNL     1       4.077  16.650  65.809  1.00  0.00    -0.271 OA
ATOM     31  H2  UNL     1       5.873  15.326  63.541  1.00  0.00     0.162 HD
BRANCH  29  32
HETATM   32  C3  UNL     1       3.162  15.298  64.107  1.00  0.00     0.179 C 
BRANCH  32  33
HETATM   33  N1  UNL     1       2.155  16.299  63.719  1.00  0.00    -0.348 N 
HETATM   34  C2  UNL     1       2.087  16.825  62.417  1.00  0.00     0.214 C 
HETATM   35  C1  UNL     1       1.092  17.824  61.980  1.00  0.00     0.117 C 
HETATM   36  O1  UNL     1       2.930  16.410  61.587  1.00  0.00    -0.274 OA
ATOM     37  H1  UNL     1       1.484  16.621  64.418  1.00  0.00     0.163 HD
ENDBRANCH  32  33
BRANCH  32  38
HETATM   38  C32 UNL     1       2.483  14.256  64.951  1.00  0.00     0.009 C 
HETATM   39  C33 UNL     1       1.090  14.722  65.368  1.00  0.00     0.012 C 
HETATM   40  C34 UNL     1       2.302  12.915  64.311  1.00  0.00     0.012 C 
ENDBRANCH  32  38
ENDBRANCH  29  32
ENDBRANCH  27  28
ENDBRANCH   1  27
BRANCH   2  41
HETATM   41  C8  UNL     1       8.656  18.478  62.440  1.00  0.00     0.038 C 
BRANCH  41  42
HETATM   42  C9  UNL     1       9.995  18.299  61.768  1.00  0.00     0.002 C 
BRANCH  42  43
HETATM   43  C10 UNL     1       9.737  17.495  60.506  1.00  0.00     0.001 C 
BRANCH  43  44
HETATM   44  C11 UNL     1       9.661  16.022  60.733  1.00  0.00     0.010 C 
BRANCH  44  45
HETATM   45  C12 UNL     1       8.309  15.474  60.370  1.00  0.00     0.113 C 
BRANCH  45  46
HETATM   46  C13 UNL     1       7.513  15.111  61.562  1.00  0.00     0.172 C 
HETATM   47  O3  UNL     1       7.924  14.436  62.532  1.00  0.00    -0.648 OA
HETATM   48  O4  UNL     1       6.188  15.563  61.606  1.00  0.00    -0.648 OA
ENDBRANCH  45  46
ENDBRANCH  44  45
ENDBRANCH  43  44
ENDBRANCH  42  43
ENDBRANCH  41  42
ENDBRANCH   2  41
TORSDOF 15
ENDMDL
