MODEL 1
REMARK VINA RESULT: -9.078919538      0.000      0.000
REMARK  15 active torsions:
REMARK  status: ('A' for Active; 'I' for Inactive)
REMARK    1  A    between atoms: C7_10  and  C8_11 
REMARK    2  A    between atoms: C8_11  and  C9_12 
REMARK    3  A    between atoms: C9_12  and  C10_13 
REMARK    4  A    between atoms: C10_13  and  C11_14 
REMARK    5  A    between atoms: C11_14  and  N2_15 
REMARK    6  A    between atoms: N2_15  and  C12_17 
REMARK    7  A    between atoms: C12_17  and  C13_18 
REMARK    8  A    between atoms: C13_18  and  C14_19 
REMARK    9  A    between atoms: C14_19  and  C15_20 
REMARK   10  A    between atoms: C15_20  and  C16_21 
REMARK   11  A    between atoms: C16_21  and  C17_22 
REMARK       I    between atoms: N3_25  and  C20_26 
REMARK       I    between atoms: C20_26  and  N5_30 
REMARK   12  A    between atoms: C23_33  and  N6_34 
REMARK   13  A    between atoms: N6_34  and  S1_36 
REMARK   14  A    between atoms: S1_36  and  N7_39 
REMARK   15  A    between atoms: N7_39  and  C25_41 
ROOT
HETATM    1  C17 UNL     1      16.535  23.114  66.021  1.00  0.00     0.006 C 
HETATM    2  C18 UNL     1      15.778  23.620  67.200  1.00  0.00     0.027 C 
HETATM    3  C19 UNL     1      14.629  22.605  67.348  1.00  0.00     0.141 C 
HETATM    4  N3  UNL     1      14.340  22.293  65.965  1.00  0.00    -0.218 N 
HETATM    5  C20 UNL     1      13.057  22.206  65.371  1.00  0.00     0.671 C 
HETATM    6  N4  UNL     1      12.663  23.088  64.536  1.00  0.00    -0.235 N 
ATOM      7  H41 UNL     1      11.739  23.026  64.108  1.00  0.00     0.174 HD
ATOM      8  H42 UNL     1      13.279  23.864  64.297  1.00  0.00     0.174 HD
HETATM    9  N5  UNL     1      12.202  21.129  65.704  1.00  0.00    -0.218 N 
HETATM   10  C21 UNL     1      10.794  21.327  65.921  1.00  0.00     0.143 C 
HETATM   11  C22 UNL     1       9.959  20.265  65.231  1.00  0.00     0.046 C 
HETATM   12  C23 UNL     1      10.543  18.899  65.377  1.00  0.00     0.097 C 
HETATM   13  C28 UNL     1      11.667  18.911  66.404  1.00  0.00     0.046 C 
HETATM   14  C29 UNL     1      12.759  19.778  65.831  1.00  0.00     0.143 C 
HETATM   15  C30 UNL     1      15.629  22.090  65.344  1.00  0.00     0.145 C 
ENDROOT
BRANCH   1  16
HETATM   16  C16 UNL     1      16.940  24.127  65.015  1.00  0.00     0.006 C 
BRANCH  16  17
HETATM   17  C15 UNL     1      17.286  25.504  65.461  1.00  0.00     0.000 C 
BRANCH  17  18
HETATM   18  C14 UNL     1      18.704  25.869  65.533  1.00  0.00     0.002 C 
BRANCH  18  19
HETATM   19  C13 UNL     1      19.103  27.198  64.952  1.00  0.00     0.019 C 
BRANCH  19  20
HETATM   20  C12 UNL     1      19.739  27.187  63.605  1.00  0.00     0.113 C 
BRANCH  20  21
HETATM   21  N2  UNL     1      18.834  27.471  62.551  1.00  0.00    -0.421 N 
ATOM     22  H2  UNL     1      18.537  28.423  62.334  1.00  0.00     0.153 HD
BRANCH  21  23
HETATM   23  C11 UNL     1      18.363  26.346  61.813  1.00  0.00     0.113 C 
BRANCH  23  24
HETATM   24  C10 UNL     1      18.134  26.646  60.354  1.00  0.00     0.019 C 
BRANCH  24  25
HETATM   25  C9  UNL     1      16.992  25.890  59.751  1.00  0.00     0.006 C 
BRANCH  25  26
HETATM   26  C8  UNL     1      17.338  24.570  59.153  1.00  0.00     0.044 C 
BRANCH  26  27
HETATM   27  C7  UNL     1      16.918  23.400  59.958  1.00  0.00     0.011 A 
HETATM   28  C6  UNL     1      17.876  22.619  60.607  1.00  0.00     0.252 A 
HETATM   29  N1  UNL     1      17.531  21.553  61.350  1.00  0.00    -0.322 N 
HETATM   30  O1  UNL     1      19.081  22.965  60.459  1.00  0.00    -0.268 OA
HETATM   31  C5  UNL     1      16.241  21.165  61.521  1.00  0.00     0.045 A 
ATOM     32  H1  UNL     1      18.268  21.014  61.804  1.00  0.00     0.169 HD
HETATM   33  C4  UNL     1      15.896  20.069  62.288  1.00  0.00     0.031 A 
HETATM   34  C32 UNL     1      15.250  21.904  60.900  1.00  0.00    -0.008 A 
HETATM   35  C3  UNL     1      14.560  19.706  62.438  1.00  0.00     0.009 A 
HETATM   36  C2  UNL     1      13.565  20.432  61.826  1.00  0.00    -0.061 A 
HETATM   37  C1  UNL     1      12.158  20.002  62.019  1.00  0.00     0.048 C 
HETATM   38  C33 UNL     1      13.939  21.520  61.067  1.00  0.00     0.020 A 
HETATM   39  C31 UNL     1      15.612  22.999  60.137  1.00  0.00     0.026 A 
ENDBRANCH  26  27
ENDBRANCH  25  26
ENDBRANCH  24  25
ENDBRANCH  23  24
ENDBRANCH  21  23
ENDBRANCH  20  21
ENDBRANCH  19  20
ENDBRANCH  18  19
ENDBRANCH  17  18
ENDBRANCH  16  17
ENDBRANCH   1  16
BRANCH  12  40
HETATM   40  N6  UNL     1       9.502  17.974  65.765  1.00  0.00    -0.302 N 
ATOM     41  H6  UNL     1       9.305  17.704  66.728  1.00  0.00     0.173 HD
BRANCH  40  42
HETATM   42  S1  UNL     1       8.633  17.380  64.393  1.00  0.00     0.299 S 
HETATM   43  O2  UNL     1       7.201  17.782  64.500  1.00  0.00    -0.188 OA
HETATM   44  O3  UNL     1       8.724  15.881  64.412  1.00  0.00    -0.188 OA
BRANCH  42  45
HETATM   45  N7  UNL     1       9.277  17.935  62.911  1.00  0.00    -0.193 NA
HETATM   46  C24 UNL     1       8.365  18.900  62.327  1.00  0.00     0.131 C 
BRANCH  45  47
HETATM   47  C25 UNL     1       9.486  16.823  62.026  1.00  0.00     0.075 A 
HETATM   48  C26 UNL     1       9.509  17.073  60.535  1.00  0.00     0.022 A 
HETATM   49  C27 UNL     1      10.793  16.802  61.265  1.00  0.00     0.022 A 
ENDBRANCH  45  47
ENDBRANCH  42  45
ENDBRANCH  40  42
ENDBRANCH  12  40
TORSDOF 15
ENDMDL
MODEL 2
REMARK VINA RESULT: -8.950698099      2.082      2.658
REMARK  15 active torsions:
REMARK  status: ('A' for Active; 'I' for Inactive)
REMARK    1  A    between atoms: C7_10  and  C8_11 
REMARK    2  A    between atoms: C8_11  and  C9_12 
REMARK    3  A    between atoms: C9_12  and  C10_13 
REMARK    4  A    between atoms: C10_13  and  C11_14 
REMARK    5  A    between atoms: C11_14  and  N2_15 
REMARK    6  A    between atoms: N2_15  and  C12_17 
REMARK    7  A    between atoms: C12_17  and  C13_18 
REMARK    8  A    between atoms: C13_18  and  C14_19 
REMARK    9  A    between atoms: C14_19  and  C15_20 
REMARK   10  A    between atoms: C15_20  and  C16_21 
REMARK   11  A    between atoms: C16_21  and  C17_22 
REMARK       I    between atoms: N3_25  and  C20_26 
REMARK       I    between atoms: C20_26  and  N5_30 
REMARK   12  A    between atoms: C23_33  and  N6_34 
REMARK   13  A    between atoms: N6_34  and  S1_36 
REMARK   14  A    between atoms: S1_36  and  N7_39 
REMARK   15  A    between atoms: N7_39  and  C25_41 
ROOT
HETATM    1  C17 UNL     1      15.800  22.255  65.691  1.00  0.00     0.006 C 
HETATM    2  C18 UNL     1      15.239  23.125  66.762  1.00  0.00     0.027 C 
HETATM    3  C19 UNL     1      14.040  22.315  67.289  1.00  0.00     0.141 C 
HETATM    4  N3  UNL     1      13.556  21.693  66.075  1.00  0.00    -0.218 N 
HETATM    5  C20 UNL     1      12.207  21.600  65.658  1.00  0.00     0.671 C 
HETATM    6  N4  UNL     1      11.782  22.278  64.662  1.00  0.00    -0.235 N 
ATOM      7  H41 UNL     1      10.810  22.210  64.360  1.00  0.00     0.174 HD
ATOM      8  H42 UNL     1      12.424  22.894  64.164  1.00  0.00     0.174 HD
HETATM    9  N5  UNL     1      11.316  20.744  66.349  1.00  0.00    -0.218 N 
HETATM   10  C21 UNL     1       9.967  21.145  66.645  1.00  0.00     0.143 C 
HETATM   11  C22 UNL     1       8.970  20.040  66.349  1.00  0.00     0.046 C 
HETATM   12  C23 UNL     1       9.457  18.700  66.795  1.00  0.00     0.097 C 
HETATM   13  C28 UNL     1      10.698  18.850  67.663  1.00  0.00     0.046 C 
HETATM   14  C29 UNL     1      11.775  19.417  66.774  1.00  0.00     0.143 C 
HETATM   15  C30 UNL     1      14.737  21.198  65.405  1.00  0.00     0.145 C 
ENDROOT
BRANCH   1  16
HETATM   16  C16 UNL     1      16.155  22.928  64.416  1.00  0.00     0.006 C 
BRANCH  16  17
HETATM   17  C15 UNL     1      17.574  23.287  64.148  1.00  0.00     0.000 C 
BRANCH  17  18
HETATM   18  C14 UNL     1      18.241  24.201  65.081  1.00  0.00     0.002 C 
BRANCH  18  19
HETATM   19  C13 UNL     1      17.806  25.641  65.063  1.00  0.00     0.019 C 
BRANCH  19  20
HETATM   20  C12 UNL     1      18.848  26.661  64.761  1.00  0.00     0.113 C 
BRANCH  20  21
HETATM   21  N2  UNL     1      19.476  26.470  63.504  1.00  0.00    -0.421 N 
ATOM     22  H2  UNL     1      20.395  26.035  63.418  1.00  0.00     0.153 HD
BRANCH  21  23
HETATM   23  C11 UNL     1      18.745  26.923  62.367  1.00  0.00     0.113 C 
BRANCH  23  24
HETATM   24  C10 UNL     1      18.887  26.019  61.170  1.00  0.00     0.019 C 
BRANCH  24  25
HETATM   25  C9  UNL     1      17.606  25.779  60.436  1.00  0.00     0.006 C 
BRANCH  25  26
HETATM   26  C8  UNL     1      17.589  24.585  59.544  1.00  0.00     0.044 C 
BRANCH  26  27
HETATM   27  C7  UNL     1      17.109  23.341  60.187  1.00  0.00     0.011 A 
HETATM   28  C6  UNL     1      18.026  22.399  60.656  1.00  0.00     0.252 A 
HETATM   29  N1  UNL     1      17.626  21.261  61.251  1.00  0.00    -0.322 N 
HETATM   30  O1  UNL     1      19.247  22.670  60.493  1.00  0.00    -0.268 OA
HETATM   31  C5  UNL     1      16.316  20.952  61.436  1.00  0.00     0.045 A 
ATOM     32  H1  UNL     1      18.335  20.603  61.576  1.00  0.00     0.169 HD
HETATM   33  C4  UNL     1      15.915  19.781  62.050  1.00  0.00     0.031 A 
HETATM   34  C32 UNL     1      15.364  21.851  60.991  1.00  0.00    -0.008 A 
HETATM   35  C3  UNL     1      14.562  19.502  62.221  1.00  0.00     0.009 A 
HETATM   36  C2  UNL     1      13.605  20.388  61.782  1.00  0.00    -0.061 A 
HETATM   37  C1  UNL     1      12.177  20.043  61.990  1.00  0.00     0.048 C 
HETATM   38  C33 UNL     1      14.034  21.548  61.174  1.00  0.00     0.020 A 
HETATM   39  C31 UNL     1      15.783  23.019  60.380  1.00  0.00     0.026 A 
ENDBRANCH  26  27
ENDBRANCH  25  26
ENDBRANCH  24  25
ENDBRANCH  23  24
ENDBRANCH  21  23
ENDBRANCH  20  21
ENDBRANCH  19  20
ENDBRANCH  18  19
ENDBRANCH  17  18
ENDBRANCH  16  17
ENDBRANCH   1  16
BRANCH  12  40
HETATM   40  N6  UNL     1       8.402  18.025  67.516  1.00  0.00    -0.302 N 
ATOM     41  H6  UNL     1       8.057  18.316  68.430  1.00  0.00     0.173 HD
BRANCH  40  42
HETATM   42  S1  UNL     1       7.798  16.664  66.638  1.00  0.00     0.299 S 
HETATM   43  O2  UNL     1       8.226  15.406  67.315  1.00  0.00    -0.188 OA
HETATM   44  O3  UNL     1       8.401  16.709  65.263  1.00  0.00    -0.188 OA
BRANCH  42  45
HETATM   45  N7  UNL     1       6.098  16.681  66.476  1.00  0.00    -0.193 NA
HETATM   46  C24 UNL     1       5.747  16.348  65.109  1.00  0.00     0.131 C 
BRANCH  45  47
HETATM   47  C25 UNL     1       5.588  17.974  66.839  1.00  0.00     0.075 A 
HETATM   48  C26 UNL     1       4.108  18.241  66.690  1.00  0.00     0.022 A 
HETATM   49  C27 UNL     1       4.693  18.030  68.056  1.00  0.00     0.022 A 
ENDBRANCH  45  47
ENDBRANCH  42  45
ENDBRANCH  40  42
ENDBRANCH  12  40
TORSDOF 15
ENDMDL
MODEL 3
REMARK VINA RESULT: -8.862594108      4.062      8.265
REMARK  15 active torsions:
REMARK  status: ('A' for Active; 'I' for Inactive)
REMARK    1  A    between atoms: C7_10  and  C8_11 
REMARK    2  A    between atoms: C8_11  and  C9_12 
REMARK    3  A    between atoms: C9_12  and  C10_13 
REMARK    4  A    between atoms: C10_13  and  C11_14 
REMARK    5  A    between atoms: C11_14  and  N2_15 
REMARK    6  A    between atoms: N2_15  and  C12_17 
REMARK    7  A    between atoms: C12_17  and  C13_18 
REMARK    8  A    between atoms: C13_18  and  C14_19 
REMARK    9  A    between atoms: C14_19  and  C15_20 
REMARK   10  A    between atoms: C15_20  and  C16_21 
REMARK   11  A    between atoms: C16_21  and  C17_22 
REMARK       I    between atoms: N3_25  and  C20_26 
REMARK       I    between atoms: C20_26  and  N5_30 
REMARK   12  A    between atoms: C23_33  and  N6_34 
REMARK   13  A    between atoms: N6_34  and  S1_36 
REMARK   14  A    between atoms: S1_36  and  N7_39 
REMARK   15  A    between atoms: N7_39  and  C25_41 
ROOT
HETATM    1  C17 UNL     1      12.328  18.953  62.186  1.00  0.00     0.006 C 
HETATM    2  C18 UNL     1      12.408  18.542  63.616  1.00  0.00     0.027 C 
HETATM    3  C19 UNL     1      11.217  17.578  63.776  1.00  0.00     0.141 C 
HETATM    4  N3  UNL     1      10.233  18.188  62.909  1.00  0.00    -0.218 N 
HETATM    5  C20 UNL     1       8.865  18.398  63.205  1.00  0.00     0.671 C 
HETATM    6  N4  UNL     1       8.412  19.576  63.402  1.00  0.00    -0.235 N 
ATOM      7  H41 UNL     1       7.426  19.728  63.615  1.00  0.00     0.174 HD
ATOM      8  H42 UNL     1       9.046  20.373  63.347  1.00  0.00     0.174 HD
HETATM    9  N5  UNL     1       7.985  17.292  63.282  1.00  0.00    -0.218 N 
HETATM   10  C21 UNL     1       6.980  17.201  64.307  1.00  0.00     0.143 C 
HETATM   11  C22 UNL     1       5.642  16.753  63.750  1.00  0.00     0.046 C 
HETATM   12  C23 UNL     1       5.781  15.651  62.753  1.00  0.00     0.097 C 
HETATM   13  C28 UNL     1       7.199  15.098  62.769  1.00  0.00     0.046 C 
HETATM   14  C29 UNL     1       8.098  16.212  62.296  1.00  0.00     0.143 C 
HETATM   15  C30 UNL     1      10.948  18.522  61.698  1.00  0.00     0.145 C 
ENDROOT
BRANCH   1  16
HETATM   16  C16 UNL     1      12.497  20.402  61.908  1.00  0.00     0.006 C 
BRANCH  16  17
HETATM   17  C15 UNL     1      13.622  20.855  61.046  1.00  0.00     0.000 C 
BRANCH  17  18
HETATM   18  C14 UNL     1      14.982  20.774  61.589  1.00  0.00     0.002 C 
BRANCH  18  19
HETATM   19  C13 UNL     1      15.452  21.920  62.443  1.00  0.00     0.019 C 
BRANCH  19  20
HETATM   20  C12 UNL     1      15.364  21.746  63.920  1.00  0.00     0.113 C 
BRANCH  20  21
HETATM   21  N2  UNL     1      14.524  22.700  64.551  1.00  0.00    -0.421 N 
ATOM     22  H2  UNL     1      14.721  23.700  64.516  1.00  0.00     0.153 HD
BRANCH  21  23
HETATM   23  C11 UNL     1      13.390  22.175  65.236  1.00  0.00     0.113 C 
BRANCH  23  24
HETATM   24  C10 UNL     1      12.084  22.494  64.556  1.00  0.00     0.019 C 
BRANCH  24  25
HETATM   25  C9  UNL     1      10.945  21.628  64.991  1.00  0.00     0.006 C 
BRANCH  25  26
HETATM   26  C8  UNL     1      10.999  21.155  66.403  1.00  0.00     0.044 C 
BRANCH  26  27
HETATM   27  C7  UNL     1       9.920  20.215  66.780  1.00  0.00     0.011 A 
HETATM   28  C6  UNL     1      10.234  18.912  67.170  1.00  0.00     0.252 A 
HETATM   29  N1  UNL     1       9.280  18.033  67.525  1.00  0.00    -0.322 N 
HETATM   30  O1  UNL     1      11.457  18.602  67.172  1.00  0.00    -0.268 OA
HETATM   31  C5  UNL     1       7.959  18.347  67.530  1.00  0.00     0.045 A 
ATOM     32  H1  UNL     1       9.560  17.092  67.802  1.00  0.00     0.169 HD
HETATM   33  C4  UNL     1       6.986  17.438  67.898  1.00  0.00     0.031 A 
HETATM   34  C32 UNL     1       7.590  19.626  67.153  1.00  0.00    -0.008 A 
HETATM   35  C3  UNL     1       5.642  17.801  67.890  1.00  0.00     0.009 A 
HETATM   36  C2  UNL     1       5.263  19.069  67.516  1.00  0.00    -0.061 A 
HETATM   37  C1  UNL     1       3.817  19.405  67.526  1.00  0.00     0.048 C 
HETATM   38  C33 UNL     1       6.254  19.955  67.154  1.00  0.00     0.020 A 
HETATM   39  C31 UNL     1       8.577  20.524  66.789  1.00  0.00     0.026 A 
ENDBRANCH  26  27
ENDBRANCH  25  26
ENDBRANCH  24  25
ENDBRANCH  23  24
ENDBRANCH  21  23
ENDBRANCH  20  21
ENDBRANCH  19  20
ENDBRANCH  18  19
ENDBRANCH  17  18
ENDBRANCH  16  17
ENDBRANCH   1  16
BRANCH  12  40
HETATM   40  N6  UNL     1       4.820  14.613  63.051  1.00  0.00    -0.302 N 
ATOM     41  H6  UNL     1       5.026  13.785  63.609  1.00  0.00     0.173 HD
BRANCH  40  42
HETATM   42  S1  UNL     1       3.278  14.949  62.345  1.00  0.00     0.299 S 
HETATM   43  O2  UNL     1       2.935  13.876  61.369  1.00  0.00    -0.188 OA
HETATM   44  O3  UNL     1       3.390  16.258  61.616  1.00  0.00    -0.188 OA
BRANCH  42  45
HETATM   45  N7  UNL     1       2.034  15.091  63.507  1.00  0.00    -0.193 NA
HETATM   46  C24 UNL     1       0.779  14.674  62.913  1.00  0.00     0.131 C 
BRANCH  45  47
HETATM   47  C25 UNL     1       1.959  16.446  63.975  1.00  0.00     0.075 A 
HETATM   48  C26 UNL     1       0.884  16.813  64.973  1.00  0.00     0.022 A 
HETATM   49  C27 UNL     1       2.308  16.680  65.428  1.00  0.00     0.022 A 
ENDBRANCH  45  47
ENDBRANCH  42  45
ENDBRANCH  40  42
ENDBRANCH  12  40
TORSDOF 15
ENDMDL
MODEL 4
REMARK VINA RESULT: -8.810956944      2.382      5.334
REMARK  15 active torsions:
REMARK  status: ('A' for Active; 'I' for Inactive)
REMARK    1  A    between atoms: C7_10  and  C8_11 
REMARK    2  A    between atoms: C8_11  and  C9_12 
REMARK    3  A    between atoms: C9_12  and  C10_13 
REMARK    4  A    between atoms: C10_13  and  C11_14 
REMARK    5  A    between atoms: C11_14  and  N2_15 
REMARK    6  A    between atoms: N2_15  and  C12_17 
REMARK    7  A    between atoms: C12_17  and  C13_18 
REMARK    8  A    between atoms: C13_18  and  C14_19 
REMARK    9  A    between atoms: C14_19  and  C15_20 
REMARK   10  A    between atoms: C15_20  and  C16_21 
REMARK   11  A    between atoms: C16_21  and  C17_22 
REMARK       I    between atoms: N3_25  and  C20_26 
REMARK       I    between atoms: C20_26  and  N5_30 
REMARK   12  A    between atoms: C23_33  and  N6_34 
REMARK   13  A    between atoms: N6_34  and  S1_36 
REMARK   14  A    between atoms: S1_36  and  N7_39 
REMARK   15  A    between atoms: N7_39  and  C25_41 
ROOT
HETATM    1  C17 UNL     1      14.371  21.873  62.333  1.00  0.00     0.006 C 
HETATM    2  C18 UNL     1      14.262  21.059  61.091  1.00  0.00     0.027 C 
HETATM    3  C19 UNL     1      12.860  20.430  61.197  1.00  0.00     0.141 C 
HETATM    4  N3  UNL     1      12.755  20.198  62.622  1.00  0.00    -0.218 N 
HETATM    5  C20 UNL     1      12.278  19.022  63.250  1.00  0.00     0.671 C 
HETATM    6  N4  UNL     1      13.076  18.248  63.880  1.00  0.00    -0.235 N 
ATOM      7  H41 UNL     1      12.733  17.402  64.333  1.00  0.00     0.174 HD
ATOM      8  H42 UNL     1      14.068  18.481  63.928  1.00  0.00     0.174 HD
HETATM    9  N5  UNL     1      10.902  18.700  63.183  1.00  0.00    -0.218 N 
HETATM   10  C21 UNL     1      10.457  17.350  62.962  1.00  0.00     0.143 C 
HETATM   11  C22 UNL     1       9.317  16.971  63.888  1.00  0.00     0.046 C 
HETATM   12  C23 UNL     1       8.312  18.065  64.032  1.00  0.00     0.097 C 
HETATM   13  C28 UNL     1       8.567  19.156  63.002  1.00  0.00     0.046 C 
HETATM   14  C29 UNL     1       9.904  19.763  63.343  1.00  0.00     0.143 C 
HETATM   15  C30 UNL     1      13.233  21.413  63.241  1.00  0.00     0.145 C 
ENDROOT
BRANCH   1  16
HETATM   16  C16 UNL     1      15.648  21.763  63.083  1.00  0.00     0.006 C 
BRANCH  16  17
HETATM   17  C15 UNL     1      16.913  21.518  62.339  1.00  0.00     0.000 C 
BRANCH  17  18
HETATM   18  C14 UNL     1      17.715  22.680  61.942  1.00  0.00     0.002 C 
BRANCH  18  19
HETATM   19  C13 UNL     1      17.884  22.929  60.468  1.00  0.00     0.019 C 
BRANCH  19  20
HETATM   20  C12 UNL     1      16.827  23.729  59.788  1.00  0.00     0.113 C 
BRANCH  20  21
HETATM   21  N2  UNL     1      16.683  25.037  60.318  1.00  0.00    -0.421 N 
ATOM     22  H2  UNL     1      16.024  25.247  61.068  1.00  0.00     0.153 HD
BRANCH  21  23
HETATM   23  C11 UNL     1      17.514  26.039  59.737  1.00  0.00     0.113 C 
BRANCH  23  24
HETATM   24  C10 UNL     1      18.205  26.904  60.760  1.00  0.00     0.019 C 
BRANCH  24  25
HETATM   25  C9  UNL     1      18.867  26.134  61.858  1.00  0.00     0.006 C 
BRANCH  25  26
HETATM   26  C8  UNL     1      19.265  26.931  63.053  1.00  0.00     0.044 C 
BRANCH  26  27
HETATM   27  C7  UNL     1      18.771  26.398  64.343  1.00  0.00     0.011 A 
HETATM   28  C6  UNL     1      19.386  26.779  65.537  1.00  0.00     0.252 A 
HETATM   29  N1  UNL     1      18.960  26.319  66.726  1.00  0.00    -0.322 N 
HETATM   30  O1  UNL     1      20.359  27.576  65.441  1.00  0.00    -0.268 OA
HETATM   31  C5  UNL     1      17.914  25.462  66.850  1.00  0.00     0.045 A 
ATOM     32  H1  UNL     1      19.443  26.626  67.571  1.00  0.00     0.169 HD
HETATM   33  C4  UNL     1      17.483  24.996  68.077  1.00  0.00     0.031 A 
HETATM   34  C32 UNL     1      17.267  25.051  65.698  1.00  0.00    -0.008 A 
HETATM   35  C3  UNL     1      16.405  24.118  68.159  1.00  0.00     0.009 A 
HETATM   36  C2  UNL     1      15.754  23.702  67.021  1.00  0.00    -0.061 A 
HETATM   37  C1  UNL     1      14.611  22.767  67.165  1.00  0.00     0.048 C 
HETATM   38  C33 UNL     1      16.206  24.183  65.811  1.00  0.00     0.020 A 
HETATM   39  C31 UNL     1      17.711  25.528  64.477  1.00  0.00     0.026 A 
ENDBRANCH  26  27
ENDBRANCH  25  26
ENDBRANCH  24  25
ENDBRANCH  23  24
ENDBRANCH  21  23
ENDBRANCH  20  21
ENDBRANCH  19  20
ENDBRANCH  18  19
ENDBRANCH  17  18
ENDBRANCH  16  17
ENDBRANCH   1  16
BRANCH  12  40
HETATM   40  N6  UNL     1       6.983  17.516  63.883  1.00  0.00    -0.302 N 
ATOM     41  H6  UNL     1       6.537  17.333  62.985  1.00  0.00     0.173 HD
BRANCH  40  42
HETATM   42  S1  UNL     1       6.245  17.207  65.415  1.00  0.00     0.299 S 
HETATM   43  O2  UNL     1       6.377  15.759  65.747  1.00  0.00    -0.188 OA
HETATM   44  O3  UNL     1       4.788  17.551  65.294  1.00  0.00    -0.188 OA
BRANCH  42  45
HETATM   45  N7  UNL     1       6.912  18.149  66.674  1.00  0.00    -0.193 NA
HETATM   46  C24 UNL     1       6.499  17.599  67.950  1.00  0.00     0.131 C 
BRANCH  45  47
HETATM   47  C25 UNL     1       6.486  19.514  66.538  1.00  0.00     0.075 A 
HETATM   48  C26 UNL     1       6.513  20.409  67.755  1.00  0.00     0.022 A 
HETATM   49  C27 UNL     1       7.555  20.573  66.687  1.00  0.00     0.022 A 
ENDBRANCH  45  47
ENDBRANCH  42  45
ENDBRANCH  40  42
ENDBRANCH  12  40
TORSDOF 15
ENDMDL
MODEL 5
REMARK VINA RESULT: -8.801334138      2.848      9.029
REMARK  15 active torsions:
REMARK  status: ('A' for Active; 'I' for Inactive)
REMARK    1  A    between atoms: C7_10  and  C8_11 
REMARK    2  A    between atoms: C8_11  and  C9_12 
REMARK    3  A    between atoms: C9_12  and  C10_13 
REMARK    4  A    between atoms: C10_13  and  C11_14 
REMARK    5  A    between atoms: C11_14  and  N2_15 
REMARK    6  A    between atoms: N2_15  and  C12_17 
REMARK    7  A    between atoms: C12_17  and  C13_18 
REMARK    8  A    between atoms: C13_18  and  C14_19 
REMARK    9  A    between atoms: C14_19  and  C15_20 
REMARK   10  A    between atoms: C15_20  and  C16_21 
REMARK   11  A    between atoms: C16_21  and  C17_22 
REMARK       I    between atoms: N3_25  and  C20_26 
REMARK       I    between atoms: C20_26  and  N5_30 
REMARK   12  A    between atoms: C23_33  and  N6_34 
REMARK   13  A    between atoms: N6_34  and  S1_36 
REMARK   14  A    between atoms: S1_36  and  N7_39 
REMARK   15  A    between atoms: N7_39  and  C25_41 
ROOT
HETATM    1  C17 UNL     1       9.121  19.718  65.059  1.00  0.00     0.006 C 
HETATM    2  C18 UNL     1       9.107  19.993  66.523  1.00  0.00     0.027 C 
HETATM    3  C19 UNL     1      10.173  21.092  66.689  1.00  0.00     0.141 C 
HETATM    4  N3  UNL     1      11.153  20.696  65.702  1.00  0.00    -0.218 N 
HETATM    5  C20 UNL     1      12.557  20.649  65.880  1.00  0.00     0.671 C 
HETATM    6  N4  UNL     1      13.172  19.530  65.933  1.00  0.00    -0.235 N 
ATOM      7  H41 UNL     1      14.183  19.496  66.062  1.00  0.00     0.174 HD
ATOM      8  H42 UNL     1      12.643  18.663  65.848  1.00  0.00     0.174 HD
HETATM    9  N5  UNL     1      13.290  21.854  65.998  1.00  0.00    -0.218 N 
HETATM   10  C21 UNL     1      14.356  21.993  66.954  1.00  0.00     0.143 C 
HETATM   11  C22 UNL     1      15.575  22.663  66.349  1.00  0.00     0.046 C 
HETATM   12  C23 UNL     1      15.214  23.817  65.472  1.00  0.00     0.097 C 
HETATM   13  C28 UNL     1      13.743  24.169  65.640  1.00  0.00     0.046 C 
HETATM   14  C29 UNL     1      12.959  22.987  65.129  1.00  0.00     0.143 C 
HETATM   15  C30 UNL     1      10.390  20.371  64.518  1.00  0.00     0.145 C 
ENDROOT
BRANCH   1  16
HETATM   16  C16 UNL     1       9.118  18.288  64.659  1.00  0.00     0.006 C 
BRANCH  16  17
HETATM   17  C15 UNL     1       7.821  17.582  64.477  1.00  0.00     0.000 C 
BRANCH  17  18
HETATM   18  C14 UNL     1       7.586  16.886  63.208  1.00  0.00     0.002 C 
BRANCH  18  19
HETATM   19  C13 UNL     1       8.652  15.935  62.738  1.00  0.00     0.019 C 
BRANCH  19  20
HETATM   20  C12 UNL     1       8.959  15.924  61.280  1.00  0.00     0.113 C 
BRANCH  20  21
HETATM   21  N2  UNL     1      10.209  16.512  60.962  1.00  0.00    -0.421 N 
ATOM     22  H2  UNL     1      10.992  15.962  60.608  1.00  0.00     0.153 HD
BRANCH  21  23
HETATM   23  C11 UNL     1      10.306  17.919  61.167  1.00  0.00     0.113 C 
BRANCH  23  24
HETATM   24  C10 UNL     1      11.585  18.336  61.846  1.00  0.00     0.019 C 
BRANCH  24  25
HETATM   25  C9  UNL     1      12.196  19.579  61.281  1.00  0.00     0.006 C 
BRANCH  25  26
HETATM   26  C8  UNL     1      12.784  20.517  62.278  1.00  0.00     0.044 C 
BRANCH  26  27
HETATM   27  C7  UNL     1      14.161  20.964  61.966  1.00  0.00     0.011 A 
HETATM   28  C6  UNL     1      15.250  20.363  62.601  1.00  0.00     0.252 A 
HETATM   29  N1  UNL     1      16.514  20.739  62.339  1.00  0.00    -0.322 N 
HETATM   30  O1  UNL     1      14.986  19.451  63.433  1.00  0.00    -0.268 OA
HETATM   31  C5  UNL     1      16.818  21.717  61.447  1.00  0.00     0.045 A 
ATOM     32  H1  UNL     1      17.276  20.270  62.829  1.00  0.00     0.169 HD
HETATM   33  C4  UNL     1      18.120  22.095  61.183  1.00  0.00     0.031 A 
HETATM   34  C32 UNL     1      15.777  22.346  60.788  1.00  0.00    -0.008 A 
HETATM   35  C3  UNL     1      18.389  23.103  60.261  1.00  0.00     0.009 A 
HETATM   36  C2  UNL     1      17.363  23.737  59.600  1.00  0.00    -0.061 A 
HETATM   37  C1  UNL     1      17.703  24.804  58.626  1.00  0.00     0.048 C 
HETATM   38  C33 UNL     1      16.074  23.339  59.883  1.00  0.00     0.020 A 
HETATM   39  C31 UNL     1      14.479  21.955  61.064  1.00  0.00     0.026 A 
ENDBRANCH  26  27
ENDBRANCH  25  26
ENDBRANCH  24  25
ENDBRANCH  23  24
ENDBRANCH  21  23
ENDBRANCH  20  21
ENDBRANCH  19  20
ENDBRANCH  18  19
ENDBRANCH  17  18
ENDBRANCH  16  17
ENDBRANCH   1  16
BRANCH  12  40
HETATM   40  N6  UNL     1      16.055  24.946  65.798  1.00  0.00    -0.302 N 
ATOM     41  H6  UNL     1      15.746  25.751  66.342  1.00  0.00     0.173 HD
BRANCH  40  42
HETATM   42  S1  UNL     1      17.649  24.762  65.153  1.00  0.00     0.299 S 
HETATM   43  O2  UNL     1      17.689  23.568  64.262  1.00  0.00    -0.188 OA
HETATM   44  O3  UNL     1      18.583  24.543  66.309  1.00  0.00    -0.188 OA
BRANCH  42  45
HETATM   45  N7  UNL     1      18.178  26.140  64.294  1.00  0.00    -0.193 NA
HETATM   46  C24 UNL     1      18.302  25.806  62.889  1.00  0.00     0.131 C 
BRANCH  45  47
HETATM   47  C25 UNL     1      19.431  26.594  64.829  1.00  0.00     0.075 A 
HETATM   48  C26 UNL     1      20.167  27.705  64.115  1.00  0.00     0.022 A 
HETATM   49  C27 UNL     1      19.453  27.993  65.403  1.00  0.00     0.022 A 
ENDBRANCH  45  47
ENDBRANCH  42  45
ENDBRANCH  40  42
ENDBRANCH  12  40
TORSDOF 15
ENDMDL
