MODEL 1
REMARK VINA RESULT: -9.522402020      0.000      0.000
REMARK  16 active torsions:
REMARK  status: ('A' for Active; 'I' for Inactive)
REMARK    1  A    between atoms: C2_2  and  C3_3 
REMARK    2  A    between atoms: C3_3  and  C5_5 
REMARK    3  A    between atoms: C5_5  and  C6_6 
REMARK    4  A    between atoms: C5_5  and  N1_13 
REMARK    5  A    between atoms: C6_6  and  C7_7 
REMARK       I    between atoms: N1_13  and  C13_15 
REMARK    6  A    between atoms: C13_15  and  C14_17 
REMARK    7  A    between atoms: C14_17  and  N2_18 
REMARK    8  A    between atoms: C14_17  and  C23_32 
REMARK       I    between atoms: N2_18  and  C15_20 
REMARK    9  A    between atoms: C15_20  and  C16_22 
REMARK   10  A    between atoms: C16_22  and  C18_24 
REMARK   11  A    between atoms: C18_24  and  C19_25 
REMARK   12  A    between atoms: C23_32  and  O4_33 
REMARK   13  A    between atoms: C23_32  and  C24_35 
REMARK       I    between atoms: C24_35  and  N4_37 
REMARK   14  A    between atoms: N4_37  and  C25_39 
REMARK   15  A    between atoms: C25_39  and  C26_40 
REMARK   16  A    between atoms: C26_40  and  C27_41 
ROOT
HETATM    1  C14 UNL     1      13.683  21.034  63.258  1.00  0.00     0.239 C 
ENDROOT
BRANCH   1   2
HETATM    2  C13 UNL     1      12.274  20.653  63.347  1.00  0.00     0.247 C 
HETATM    3  N1  UNL     1      11.715  19.371  63.452  1.00  0.00    -0.354 N 
ATOM      4  H1  UNL     1      12.341  18.566  63.474  1.00  0.00     0.162 HD
HETATM    5  O1  UNL     1      11.390  21.602  63.336  1.00  0.00    -0.271 OA
BRANCH   3   6
HETATM    6  C5  UNL     1      10.245  19.138  63.533  1.00  0.00     0.088 C 
BRANCH   6   7
HETATM    7  C3  UNL     1       9.779  18.675  62.177  1.00  0.00     0.004 C 
HETATM    8  C4  UNL     1       8.497  17.883  62.207  1.00  0.00     0.012 C 
BRANCH   7   9
HETATM    9  C2  UNL     1      10.816  18.084  61.290  1.00  0.00     0.002 C 
HETATM   10  C1  UNL     1      10.526  16.741  60.726  1.00  0.00     0.005 C 
ENDBRANCH   7   9
ENDBRANCH   6   7
BRANCH   6  11
HETATM   11  C6  UNL     1       9.957  18.217  64.661  1.00  0.00     0.030 C 
BRANCH  11  12
HETATM   12  C7  UNL     1       9.163  18.834  65.792  1.00  0.00    -0.013 C 
HETATM   13  C8  UNL     1       9.748  18.623  67.145  1.00  0.00     0.005 C 
HETATM   14  C9  UNL     1      11.058  19.353  67.345  1.00  0.00     0.000 C 
HETATM   15  C10 UNL     1      11.070  20.729  66.758  1.00  0.00     0.000 C 
HETATM   16  C11 UNL     1       9.641  21.171  66.565  1.00  0.00     0.000 C 
HETATM   17  C12 UNL     1       9.005  20.297  65.504  1.00  0.00     0.005 C 
ENDBRANCH  11  12
ENDBRANCH   6  11
ENDBRANCH   3   6
ENDBRANCH   1   2
BRANCH   1  18
HETATM   18  N2  UNL     1      13.863  22.124  64.245  1.00  0.00    -0.342 N 
HETATM   19  C15 UNL     1      14.483  22.055  65.475  1.00  0.00     0.222 C 
HETATM   20  O2  UNL     1      15.010  21.047  65.984  1.00  0.00    -0.273 OA
ATOM     21  H2  UNL     1      13.483  23.034  63.984  1.00  0.00     0.163 HD
BRANCH  19  22
HETATM   22  C16 UNL     1      14.542  23.317  66.308  1.00  0.00     0.075 C 
HETATM   23  C17 UNL     1      14.866  22.936  67.710  1.00  0.00     0.020 C 
BRANCH  22  24
HETATM   24  C18 UNL     1      15.574  24.182  65.649  1.00  0.00     0.038 C 
BRANCH  24  25
HETATM   25  C19 UNL     1      16.992  23.827  65.951  1.00  0.00     0.085 C 
HETATM   26  C20 UNL     1      17.786  25.068  66.372  1.00  0.00     0.034 C 
HETATM   27  C21 UNL     1      18.061  25.703  65.016  1.00  0.00     0.105 C 
HETATM   28  C22 UNL     1      18.281  24.523  64.147  1.00  0.00     0.217 C 
HETATM   29  O3  UNL     1      18.848  24.501  63.046  1.00  0.00    -0.274 OA
HETATM   30  N3  UNL     1      17.722  23.366  64.791  1.00  0.00    -0.356 N 
ATOM     31  H3  UNL     1      17.822  22.398  64.485  1.00  0.00     0.162 HD
ENDBRANCH  24  25
ENDBRANCH  22  24
ENDBRANCH  19  22
ENDBRANCH   1  18
BRANCH   1  32
HETATM   32  C23 UNL     1      14.134  21.501  61.940  1.00  0.00     0.143 C 
BRANCH  32  33
HETATM   33  O4  UNL     1      13.355  21.292  60.920  1.00  0.00    -0.357 OA
ATOM     34  H4  UNL     1      12.417  21.353  61.057  1.00  0.00     0.217 HD
ENDBRANCH  32  33
BRANCH  32  35
HETATM   35  C24 UNL     1      15.353  22.190  61.586  1.00  0.00     0.273 C 
HETATM   36  O5  UNL     1      16.423  22.112  62.222  1.00  0.00    -0.266 OA
HETATM   37  N4  UNL     1      15.412  23.044  60.428  1.00  0.00    -0.355 N 
ATOM     38  H4  UNL     1      14.565  23.143  59.869  1.00  0.00     0.162 HD
BRANCH  37  39
HETATM   39  C25 UNL     1      16.575  23.763  60.006  1.00  0.00     0.123 C 
BRANCH  39  40
HETATM   40  C26 UNL     1      16.393  25.176  59.616  1.00  0.00     0.029 C 
BRANCH  40  41
HETATM   41  C27 UNL     1      17.544  25.892  59.008  1.00  0.00    -0.038 C 
HETATM   42  C28 UNL     1      17.175  26.636  57.741  1.00  0.00     0.014 C 
HETATM   43  C29 UNL     1      18.399  27.118  57.034  1.00  0.00    -0.013 C 
HETATM   44  C30 UNL     1      19.161  28.074  57.931  1.00  0.00     0.009 C 
HETATM   45  C34 UNL     1      19.334  26.001  56.630  1.00  0.00     0.009 C 
HETATM   46  C31 UNL     1      19.522  27.341  59.195  1.00  0.00    -0.013 C 
HETATM   47  C32 UNL     1      20.453  26.219  58.872  1.00  0.00     0.009 C 
HETATM   48  C36 UNL     1      18.275  26.833  59.900  1.00  0.00     0.014 C 
HETATM   49  C33 UNL     1      19.739  25.297  57.906  1.00  0.00    -0.013 C 
HETATM   50  C35 UNL     1      18.506  24.773  58.558  1.00  0.00     0.014 C 
ENDBRANCH  40  41
ENDBRANCH  39  40
ENDBRANCH  37  39
ENDBRANCH  32  35
ENDBRANCH   1  32
TORSDOF 16
ENDMDL
MODEL 2
REMARK VINA RESULT: -9.228897629      1.023      2.774
REMARK  16 active torsions:
REMARK  status: ('A' for Active; 'I' for Inactive)
REMARK    1  A    between atoms: C2_2  and  C3_3 
REMARK    2  A    between atoms: C3_3  and  C5_5 
REMARK    3  A    between atoms: C5_5  and  C6_6 
REMARK    4  A    between atoms: C5_5  and  N1_13 
REMARK    5  A    between atoms: C6_6  and  C7_7 
REMARK       I    between atoms: N1_13  and  C13_15 
REMARK    6  A    between atoms: C13_15  and  C14_17 
REMARK    7  A    between atoms: C14_17  and  N2_18 
REMARK    8  A    between atoms: C14_17  and  C23_32 
REMARK       I    between atoms: N2_18  and  C15_20 
REMARK    9  A    between atoms: C15_20  and  C16_22 
REMARK   10  A    between atoms: C16_22  and  C18_24 
REMARK   11  A    between atoms: C18_24  and  C19_25 
REMARK   12  A    between atoms: C23_32  and  O4_33 
REMARK   13  A    between atoms: C23_32  and  C24_35 
REMARK       I    between atoms: C24_35  and  N4_37 
REMARK   14  A    between atoms: N4_37  and  C25_39 
REMARK   15  A    between atoms: C25_39  and  C26_40 
REMARK   16  A    between atoms: C26_40  and  C27_41 
ROOT
HETATM    1  C14 UNL     1      14.865  21.315  63.608  1.00  0.00     0.239 C 
ENDROOT
BRANCH   1   2
HETATM    2  C13 UNL     1      14.083  20.284  64.291  1.00  0.00     0.247 C 
HETATM    3  N1  UNL     1      12.753  20.337  64.731  1.00  0.00    -0.354 N 
ATOM      4  H1  UNL     1      12.220  21.192  64.574  1.00  0.00     0.162 HD
HETATM    5  O1  UNL     1      14.663  19.149  64.534  1.00  0.00    -0.271 OA
BRANCH   3   6
HETATM    6  C5  UNL     1      12.087  19.195  65.419  1.00  0.00     0.088 C 
BRANCH   6   7
HETATM    7  C3  UNL     1      11.285  19.756  66.565  1.00  0.00     0.004 C 
HETATM    8  C4  UNL     1      10.316  18.775  67.174  1.00  0.00     0.012 C 
BRANCH   7   9
HETATM    9  C2  UNL     1      10.702  21.109  66.362  1.00  0.00     0.002 C 
HETATM   10  C1  UNL     1       9.253  21.263  66.652  1.00  0.00     0.005 C 
ENDBRANCH   7   9
ENDBRANCH   6   7
BRANCH   6  11
HETATM   11  C6  UNL     1      11.320  18.403  64.425  1.00  0.00     0.030 C 
BRANCH  11  12
HETATM   12  C7  UNL     1      10.732  19.214  63.291  1.00  0.00    -0.013 C 
HETATM   13  C8  UNL     1      11.148  18.769  61.933  1.00  0.00     0.005 C 
HETATM   14  C9  UNL     1      10.604  17.408  61.560  1.00  0.00     0.000 C 
HETATM   15  C10 UNL     1       9.186  17.196  61.988  1.00  0.00     0.000 C 
HETATM   16  C11 UNL     1       8.560  18.546  62.230  1.00  0.00     0.000 C 
HETATM   17  C12 UNL     1       9.238  19.185  63.425  1.00  0.00     0.005 C 
ENDBRANCH  11  12
ENDBRANCH   6  11
ENDBRANCH   3   6
ENDBRANCH   1   2
BRANCH   1  18
HETATM   18  N2  UNL     1      14.810  22.504  64.490  1.00  0.00    -0.342 N 
HETATM   19  C15 UNL     1      14.889  22.537  65.867  1.00  0.00     0.222 C 
HETATM   20  O2  UNL     1      15.020  21.558  66.627  1.00  0.00    -0.273 OA
ATOM     21  H2  UNL     1      14.702  23.404  64.024  1.00  0.00     0.163 HD
BRANCH  19  22
HETATM   22  C16 UNL     1      14.809  23.887  66.546  1.00  0.00     0.075 C 
HETATM   23  C17 UNL     1      15.020  23.688  68.006  1.00  0.00     0.020 C 
BRANCH  22  24
HETATM   24  C18 UNL     1      15.857  24.730  65.881  1.00  0.00     0.038 C 
BRANCH  24  25
HETATM   25  C19 UNL     1      17.261  24.252  66.047  1.00  0.00     0.085 C 
HETATM   26  C20 UNL     1      18.176  25.398  66.491  1.00  0.00     0.034 C 
HETATM   27  C21 UNL     1      18.401  26.113  65.166  1.00  0.00     0.105 C 
HETATM   28  C22 UNL     1      18.466  24.990  64.201  1.00  0.00     0.217 C 
HETATM   29  O3  UNL     1      18.949  25.010  63.061  1.00  0.00    -0.274 OA
HETATM   30  N3  UNL     1      17.868  23.830  64.804  1.00  0.00    -0.356 N 
ATOM     31  H3  UNL     1      17.870  22.883  64.425  1.00  0.00     0.162 HD
ENDBRANCH  24  25
ENDBRANCH  22  24
ENDBRANCH  19  22
ENDBRANCH   1  18
BRANCH   1  32
HETATM   32  C23 UNL     1      14.393  21.689  62.269  1.00  0.00     0.143 C 
BRANCH  32  33
HETATM   33  O4  UNL     1      13.143  21.474  61.981  1.00  0.00    -0.357 OA
ATOM     34  H4  UNL     1      12.676  22.145  61.498  1.00  0.00     0.217 HD
ENDBRANCH  32  33
BRANCH  32  35
HETATM   35  C24 UNL     1      15.126  22.290  61.179  1.00  0.00     0.273 C 
HETATM   36  O5  UNL     1      14.754  22.293  59.989  1.00  0.00    -0.266 OA
HETATM   37  N4  UNL     1      16.383  22.954  61.409  1.00  0.00    -0.355 N 
ATOM     38  H4  UNL     1      16.734  22.985  62.366  1.00  0.00     0.162 HD
BRANCH  37  39
HETATM   39  C25 UNL     1      17.174  23.575  60.391  1.00  0.00     0.123 C 
BRANCH  39  40
HETATM   40  C26 UNL     1      16.892  24.992  60.084  1.00  0.00     0.029 C 
BRANCH  40  41
HETATM   41  C27 UNL     1      17.904  25.758  59.312  1.00  0.00    -0.038 C 
HETATM   42  C28 UNL     1      17.369  26.282  57.995  1.00  0.00     0.014 C 
HETATM   43  C29 UNL     1      18.477  26.815  57.147  1.00  0.00    -0.013 C 
HETATM   44  C30 UNL     1      19.158  27.964  57.864  1.00  0.00     0.009 C 
HETATM   45  C34 UNL     1      19.525  25.778  56.814  1.00  0.00     0.009 C 
HETATM   46  C31 UNL     1      19.683  27.450  59.177  1.00  0.00    -0.013 C 
HETATM   47  C32 UNL     1      20.732  26.419  58.925  1.00  0.00     0.009 C 
HETATM   48  C36 UNL     1      18.556  26.889  60.028  1.00  0.00     0.014 C 
HETATM   49  C33 UNL     1      20.091  25.299  58.132  1.00  0.00    -0.013 C 
HETATM   50  C35 UNL     1      18.976  24.717  58.931  1.00  0.00     0.014 C 
ENDBRANCH  40  41
ENDBRANCH  39  40
ENDBRANCH  37  39
ENDBRANCH  32  35
ENDBRANCH   1  32
TORSDOF 16
ENDMDL
MODEL 3
REMARK VINA RESULT: -9.219937650      2.178      8.219
REMARK  16 active torsions:
REMARK  status: ('A' for Active; 'I' for Inactive)
REMARK    1  A    between atoms: C2_2  and  C3_3 
REMARK    2  A    between atoms: C3_3  and  C5_5 
REMARK    3  A    between atoms: C5_5  and  C6_6 
REMARK    4  A    between atoms: C5_5  and  N1_13 
REMARK    5  A    between atoms: C6_6  and  C7_7 
REMARK       I    between atoms: N1_13  and  C13_15 
REMARK    6  A    between atoms: C13_15  and  C14_17 
REMARK    7  A    between atoms: C14_17  and  N2_18 
REMARK    8  A    between atoms: C14_17  and  C23_32 
REMARK       I    between atoms: N2_18  and  C15_20 
REMARK    9  A    between atoms: C15_20  and  C16_22 
REMARK   10  A    between atoms: C16_22  and  C18_24 
REMARK   11  A    between atoms: C18_24  and  C19_25 
REMARK   12  A    between atoms: C23_32  and  O4_33 
REMARK   13  A    between atoms: C23_32  and  C24_35 
REMARK       I    between atoms: C24_35  and  N4_37 
REMARK   14  A    between atoms: N4_37  and  C25_39 
REMARK   15  A    between atoms: C25_39  and  C26_40 
REMARK   16  A    between atoms: C26_40  and  C27_41 
ROOT
HETATM    1  C14 UNL     1      17.063  22.672  62.623  1.00  0.00     0.239 C 
ENDROOT
BRANCH   1   2
HETATM    2  C13 UNL     1      16.758  22.728  64.052  1.00  0.00     0.247 C 
HETATM    3  N1  UNL     1      15.509  22.820  64.682  1.00  0.00    -0.354 N 
ATOM      4  H1  UNL     1      14.671  22.855  64.101  1.00  0.00     0.162 HD
HETATM    5  O1  UNL     1      17.753  22.683  64.883  1.00  0.00    -0.271 OA
BRANCH   3   6
HETATM    6  C5  UNL     1      15.355  22.870  66.163  1.00  0.00     0.088 C 
BRANCH   6   7
HETATM    7  C3  UNL     1      15.255  24.319  66.565  1.00  0.00     0.004 C 
HETATM    8  C4  UNL     1      14.271  25.116  65.748  1.00  0.00     0.012 C 
BRANCH   7   9
HETATM    9  C2  UNL     1      16.542  25.030  66.793  1.00  0.00     0.002 C 
HETATM   10  C1  UNL     1      17.337  24.609  67.975  1.00  0.00     0.005 C 
ENDBRANCH   7   9
ENDBRANCH   6   7
BRANCH   6  11
HETATM   11  C6  UNL     1      14.213  22.011  66.567  1.00  0.00     0.030 C 
BRANCH  11  12
HETATM   12  C7  UNL     1      13.457  21.385  65.416  1.00  0.00    -0.013 C 
HETATM   13  C8  UNL     1      12.967  20.004  65.676  1.00  0.00     0.005 C 
HETATM   14  C9  UNL     1      11.884  19.947  66.732  1.00  0.00     0.000 C 
HETATM   15  C10 UNL     1      10.891  21.061  66.626  1.00  0.00     0.000 C 
HETATM   16  C11 UNL     1      10.968  21.631  65.233  1.00  0.00     0.000 C 
HETATM   17  C12 UNL     1      12.319  22.294  65.058  1.00  0.00     0.005 C 
ENDBRANCH  11  12
ENDBRANCH   6  11
ENDBRANCH   3   6
ENDBRANCH   1   2
BRANCH   1  18
HETATM   18  N2  UNL     1      17.402  24.061  62.234  1.00  0.00    -0.342 N 
HETATM   19  C15 UNL     1      18.369  24.475  61.342  1.00  0.00     0.222 C 
HETATM   20  O2  UNL     1      19.144  23.743  60.695  1.00  0.00    -0.273 OA
ATOM     21  H2  UNL     1      16.856  24.798  62.679  1.00  0.00     0.163 HD
BRANCH  19  22
HETATM   22  C16 UNL     1      18.525  25.962  61.110  1.00  0.00     0.075 C 
HETATM   23  C17 UNL     1      17.483  26.394  60.138  1.00  0.00     0.020 C 
BRANCH  22  24
HETATM   24  C18 UNL     1      18.403  26.592  62.465  1.00  0.00     0.038 C 
BRANCH  24  25
HETATM   25  C19 UNL     1      19.552  26.352  63.386  1.00  0.00     0.085 C 
HETATM   26  C20 UNL     1      19.151  26.624  64.840  1.00  0.00     0.034 C 
HETATM   27  C21 UNL     1      19.226  28.144  64.876  1.00  0.00     0.105 C 
HETATM   28  C22 UNL     1      20.391  28.430  64.005  1.00  0.00     0.217 C 
HETATM   29  O3  UNL     1      21.058  29.473  63.965  1.00  0.00    -0.274 OA
HETATM   30  N3  UNL     1      20.646  27.277  63.185  1.00  0.00    -0.356 N 
ATOM     31  H3  UNL     1      21.450  27.138  62.572  1.00  0.00     0.162 HD
ENDBRANCH  24  25
ENDBRANCH  22  24
ENDBRANCH  19  22
ENDBRANCH   1  18
BRANCH   1  32
HETATM   32  C23 UNL     1      15.980  22.184  61.760  1.00  0.00     0.143 C 
BRANCH  32  33
HETATM   33  O4  UNL     1      15.540  22.975  60.826  1.00  0.00    -0.357 OA
ATOM     34  H4  UNL     1      15.130  22.581  60.066  1.00  0.00     0.217 HD
ENDBRANCH  32  33
BRANCH  32  35
HETATM   35  C24 UNL     1      15.304  20.907  61.781  1.00  0.00     0.273 C 
HETATM   36  O5  UNL     1      15.849  19.811  61.542  1.00  0.00    -0.266 OA
HETATM   37  N4  UNL     1      13.902  20.816  62.095  1.00  0.00    -0.355 N 
ATOM     38  H4  UNL     1      13.405  21.682  62.302  1.00  0.00     0.162 HD
BRANCH  37  39
HETATM   39  C25 UNL     1      13.155  19.596  62.138  1.00  0.00     0.123 C 
BRANCH  39  40
HETATM   40  C26 UNL     1      11.769  19.632  61.630  1.00  0.00     0.029 C 
BRANCH  40  41
HETATM   41  C27 UNL     1      10.748  18.796  62.313  1.00  0.00    -0.038 C 
HETATM   42  C28 UNL     1       9.848  18.054  61.346  1.00  0.00     0.014 C 
HETATM   43  C29 UNL     1       8.689  17.442  62.063  1.00  0.00    -0.013 C 
HETATM   44  C30 UNL     1       9.195  16.445  63.087  1.00  0.00     0.009 C 
HETATM   45  C34 UNL     1       7.825  18.457  62.776  1.00  0.00     0.009 C 
HETATM   46  C31 UNL     1      10.097  17.177  64.045  1.00  0.00    -0.013 C 
HETATM   47  C32 UNL     1       9.306  18.199  64.793  1.00  0.00     0.009 C 
HETATM   48  C36 UNL     1      11.262  17.817  63.309  1.00  0.00     0.014 C 
HETATM   49  C33 UNL     1       8.719  19.155  63.776  1.00  0.00    -0.013 C 
HETATM   50  C35 UNL     1       9.830  19.809  63.029  1.00  0.00     0.014 C 
ENDBRANCH  40  41
ENDBRANCH  39  40
ENDBRANCH  37  39
ENDBRANCH  32  35
ENDBRANCH   1  32
TORSDOF 16
ENDMDL
MODEL 4
REMARK VINA RESULT: -9.203813443      2.389      9.224
REMARK  16 active torsions:
REMARK  status: ('A' for Active; 'I' for Inactive)
REMARK    1  A    between atoms: C2_2  and  C3_3 
REMARK    2  A    between atoms: C3_3  and  C5_5 
REMARK    3  A    between atoms: C5_5  and  C6_6 
REMARK    4  A    between atoms: C5_5  and  N1_13 
REMARK    5  A    between atoms: C6_6  and  C7_7 
REMARK       I    between atoms: N1_13  and  C13_15 
REMARK    6  A    between atoms: C13_15  and  C14_17 
REMARK    7  A    between atoms: C14_17  and  N2_18 
REMARK    8  A    between atoms: C14_17  and  C23_32 
REMARK       I    between atoms: N2_18  and  C15_20 
REMARK    9  A    between atoms: C15_20  and  C16_22 
REMARK   10  A    between atoms: C16_22  and  C18_24 
REMARK   11  A    between atoms: C18_24  and  C19_25 
REMARK   12  A    between atoms: C23_32  and  O4_33 
REMARK   13  A    between atoms: C23_32  and  C24_35 
REMARK       I    between atoms: C24_35  and  N4_37 
REMARK   14  A    between atoms: N4_37  and  C25_39 
REMARK   15  A    between atoms: C25_39  and  C26_40 
REMARK   16  A    between atoms: C26_40  and  C27_41 
ROOT
HETATM    1  C14 UNL     1      17.717  23.296  60.910  1.00  0.00     0.239 C 
ENDROOT
BRANCH   1   2
HETATM    2  C13 UNL     1      18.238  23.617  62.239  1.00  0.00     0.247 C 
HETATM    3  N1  UNL     1      17.720  24.500  63.196  1.00  0.00    -0.354 N 
ATOM      4  H1  UNL     1      16.864  25.009  62.979  1.00  0.00     0.162 HD
HETATM    5  O1  UNL     1      19.322  23.017  62.622  1.00  0.00    -0.271 OA
BRANCH   3   6
HETATM    6  C5  UNL     1      18.370  24.725  64.519  1.00  0.00     0.088 C 
BRANCH   6   7
HETATM    7  C3  UNL     1      18.509  26.212  64.714  1.00  0.00     0.004 C 
HETATM    8  C4  UNL     1      18.527  27.000  63.429  1.00  0.00     0.012 C 
BRANCH   7   9
HETATM    9  C2  UNL     1      19.541  26.656  65.690  1.00  0.00     0.002 C 
HETATM   10  C1  UNL     1      20.241  27.930  65.389  1.00  0.00     0.005 C 
ENDBRANCH   7   9
ENDBRANCH   6   7
BRANCH   6  11
HETATM   11  C6  UNL     1      17.605  24.008  65.570  1.00  0.00     0.030 C 
BRANCH  11  12
HETATM   12  C7  UNL     1      16.745  24.897  66.441  1.00  0.00    -0.013 C 
HETATM   13  C8  UNL     1      15.320  24.983  66.022  1.00  0.00     0.005 C 
HETATM   14  C9  UNL     1      14.570  23.681  66.197  1.00  0.00     0.000 C 
HETATM   15  C10 UNL     1      14.910  22.963  67.465  1.00  0.00     0.000 C 
HETATM   16  C11 UNL     1      15.523  23.957  68.419  1.00  0.00     0.000 C 
HETATM   17  C12 UNL     1      16.855  24.408  67.855  1.00  0.00     0.005 C 
ENDBRANCH  11  12
ENDBRANCH   6  11
ENDBRANCH   3   6
ENDBRANCH   1   2
BRANCH   1  18
HETATM   18  N2  UNL     1      17.824  24.551  60.128  1.00  0.00    -0.342 N 
HETATM   19  C15 UNL     1      18.889  24.980  59.363  1.00  0.00     0.222 C 
HETATM   20  O2  UNL     1      19.968  24.380  59.191  1.00  0.00    -0.273 OA
ATOM     21  H2  UNL     1      17.015  25.170  60.160  1.00  0.00     0.163 HD
BRANCH  19  22
HETATM   22  C16 UNL     1      18.757  26.308  58.652  1.00  0.00     0.075 C 
HETATM   23  C17 UNL     1      17.379  26.405  58.095  1.00  0.00     0.020 C 
BRANCH  22  24
HETATM   24  C18 UNL     1      19.078  27.347  59.685  1.00  0.00     0.038 C 
BRANCH  24  25
HETATM   25  C19 UNL     1      20.421  27.984  59.554  1.00  0.00     0.085 C 
HETATM   26  C20 UNL     1      21.038  28.242  60.932  1.00  0.00     0.034 C 
HETATM   27  C21 UNL     1      20.296  29.507  61.343  1.00  0.00     0.105 C 
HETATM   28  C22 UNL     1      20.172  30.238  60.061  1.00  0.00     0.217 C 
HETATM   29  O3  UNL     1      19.941  31.446  59.907  1.00  0.00    -0.274 OA
HETATM   30  N3  UNL     1      20.367  29.310  58.980  1.00  0.00    -0.356 N 
ATOM     31  H3  UNL     1      20.452  29.545  57.991  1.00  0.00     0.162 HD
ENDBRANCH  24  25
ENDBRANCH  22  24
ENDBRANCH  19  22
ENDBRANCH   1  18
BRANCH   1  32
HETATM   32  C23 UNL     1      16.327  22.823  60.869  1.00  0.00     0.143 C 
BRANCH  32  33
HETATM   33  O4  UNL     1      15.431  23.607  60.346  1.00  0.00    -0.357 OA
ATOM     34  H4  UNL     1      14.517  23.396  60.489  1.00  0.00     0.217 HD
ENDBRANCH  32  33
BRANCH  32  35
HETATM   35  C24 UNL     1      15.779  21.568  61.329  1.00  0.00     0.273 C 
HETATM   36  O5  UNL     1      16.455  20.610  61.751  1.00  0.00    -0.266 OA
HETATM   37  N4  UNL     1      14.357  21.337  61.331  1.00  0.00    -0.355 N 
ATOM     38  H4  UNL     1      13.755  22.089  60.998  1.00  0.00     0.162 HD
BRANCH  37  39
HETATM   39  C25 UNL     1      13.730  20.128  61.768  1.00  0.00     0.123 C 
BRANCH  39  40
HETATM   40  C26 UNL     1      12.293  20.192  62.101  1.00  0.00     0.029 C 
BRANCH  40  41
HETATM   41  C27 UNL     1      11.903  20.235  63.534  1.00  0.00    -0.038 C 
HETATM   42  C28 UNL     1      12.400  19.039  64.319  1.00  0.00     0.014 C 
HETATM   43  C29 UNL     1      11.773  18.995  65.673  1.00  0.00    -0.013 C 
HETATM   44  C30 UNL     1      12.146  20.246  66.445  1.00  0.00     0.009 C 
HETATM   45  C34 UNL     1      10.265  18.897  65.630  1.00  0.00     0.009 C 
HETATM   46  C31 UNL     1      11.662  21.438  65.665  1.00  0.00    -0.013 C 
HETATM   47  C32 UNL     1      10.171  21.410  65.585  1.00  0.00     0.009 C 
HETATM   48  C36 UNL     1      12.285  21.466  64.279  1.00  0.00     0.014 C 
HETATM   49  C33 UNL     1       9.776  20.123  64.892  1.00  0.00    -0.013 C 
HETATM   50  C35 UNL     1      10.366  20.108  63.525  1.00  0.00     0.014 C 
ENDBRANCH  40  41
ENDBRANCH  39  40
ENDBRANCH  37  39
ENDBRANCH  32  35
ENDBRANCH   1  32
TORSDOF 16
ENDMDL
MODEL 5
REMARK VINA RESULT: -9.194149035      1.094      2.914
REMARK  16 active torsions:
REMARK  status: ('A' for Active; 'I' for Inactive)
REMARK    1  A    between atoms: C2_2  and  C3_3 
REMARK    2  A    between atoms: C3_3  and  C5_5 
REMARK    3  A    between atoms: C5_5  and  C6_6 
REMARK    4  A    between atoms: C5_5  and  N1_13 
REMARK    5  A    between atoms: C6_6  and  C7_7 
REMARK       I    between atoms: N1_13  and  C13_15 
REMARK    6  A    between atoms: C13_15  and  C14_17 
REMARK    7  A    between atoms: C14_17  and  N2_18 
REMARK    8  A    between atoms: C14_17  and  C23_32 
REMARK       I    between atoms: N2_18  and  C15_20 
REMARK    9  A    between atoms: C15_20  and  C16_22 
REMARK   10  A    between atoms: C16_22  and  C18_24 
REMARK   11  A    between atoms: C18_24  and  C19_25 
REMARK   12  A    between atoms: C23_32  and  O4_33 
REMARK   13  A    between atoms: C23_32  and  C24_35 
REMARK       I    between atoms: C24_35  and  N4_37 
REMARK   14  A    between atoms: N4_37  and  C25_39 
REMARK   15  A    between atoms: C25_39  and  C26_40 
REMARK   16  A    between atoms: C26_40  and  C27_41 
ROOT
HETATM    1  C14 UNL     1      14.874  20.862  64.109  1.00  0.00     0.239 C 
ENDROOT
BRANCH   1   2
HETATM    2  C13 UNL     1      13.750  20.049  64.575  1.00  0.00     0.247 C 
HETATM    3  N1  UNL     1      12.413  20.425  64.766  1.00  0.00    -0.354 N 
ATOM      4  H1  UNL     1      12.143  21.387  64.564  1.00  0.00     0.162 HD
HETATM    5  O1  UNL     1      13.982  18.804  64.853  1.00  0.00    -0.271 OA
BRANCH   3   6
HETATM    6  C5  UNL     1      11.372  19.476  65.252  1.00  0.00     0.088 C 
BRANCH   6   7
HETATM    7  C3  UNL     1      10.673  20.121  66.420  1.00  0.00     0.004 C 
HETATM    8  C4  UNL     1      10.227  19.148  67.482  1.00  0.00     0.012 C 
BRANCH   7   9
HETATM    9  C2  UNL     1       9.645  21.144  66.091  1.00  0.00     0.002 C 
HETATM   10  C1  UNL     1       8.680  21.491  67.165  1.00  0.00     0.005 C 
ENDBRANCH   7   9
ENDBRANCH   6   7
BRANCH   6  11
HETATM   11  C6  UNL     1      10.498  19.083  64.117  1.00  0.00     0.030 C 
BRANCH  11  12
HETATM   12  C7  UNL     1      10.726  17.679  63.603  1.00  0.00    -0.013 C 
HETATM   13  C8  UNL     1       9.483  16.890  63.388  1.00  0.00     0.005 C 
HETATM   14  C9  UNL     1       8.629  17.422  62.258  1.00  0.00     0.000 C 
HETATM   15  C10 UNL     1       9.422  17.862  61.068  1.00  0.00     0.000 C 
HETATM   16  C11 UNL     1      10.780  17.210  61.140  1.00  0.00     0.000 C 
HETATM   17  C12 UNL     1      11.522  17.772  62.335  1.00  0.00     0.005 C 
ENDBRANCH  11  12
ENDBRANCH   6  11
ENDBRANCH   3   6
ENDBRANCH   1   2
BRANCH   1  18
HETATM   18  N2  UNL     1      15.101  21.871  65.171  1.00  0.00    -0.342 N 
HETATM   19  C15 UNL     1      14.323  22.969  65.471  1.00  0.00     0.222 C 
HETATM   20  O2  UNL     1      13.275  23.316  64.893  1.00  0.00    -0.273 OA
ATOM     21  H2  UNL     1      15.931  21.736  65.747  1.00  0.00     0.163 HD
BRANCH  19  22
HETATM   22  C16 UNL     1      14.767  23.858  66.613  1.00  0.00     0.075 C 
HETATM   23  C17 UNL     1      15.212  22.987  67.736  1.00  0.00     0.020 C 
BRANCH  22  24
HETATM   24  C18 UNL     1      15.847  24.729  66.043  1.00  0.00     0.038 C 
BRANCH  24  25
HETATM   25  C19 UNL     1      17.235  24.202  66.188  1.00  0.00     0.085 C 
HETATM   26  C20 UNL     1      18.198  25.314  66.616  1.00  0.00     0.034 C 
HETATM   27  C21 UNL     1      18.427  26.020  65.287  1.00  0.00     0.105 C 
HETATM   28  C22 UNL     1      18.437  24.895  64.323  1.00  0.00     0.217 C 
HETATM   29  O3  UNL     1      18.903  24.897  63.175  1.00  0.00    -0.274 OA
HETATM   30  N3  UNL     1      17.808  23.757  64.936  1.00  0.00    -0.356 N 
ATOM     31  H3  UNL     1      17.771  22.811  64.557  1.00  0.00     0.162 HD
ENDBRANCH  24  25
ENDBRANCH  22  24
ENDBRANCH  19  22
ENDBRANCH   1  18
BRANCH   1  32
HETATM   32  C23 UNL     1      14.672  21.552  62.828  1.00  0.00     0.143 C 
BRANCH  32  33
HETATM   33  O4  UNL     1      13.463  21.617  62.355  1.00  0.00    -0.357 OA
ATOM     34  H4  UNL     1      12.837  22.168  62.808  1.00  0.00     0.217 HD
ENDBRANCH  32  33
BRANCH  32  35
HETATM   35  C24 UNL     1      15.645  22.203  61.981  1.00  0.00     0.273 C 
HETATM   36  O5  UNL     1      16.855  22.327  62.256  1.00  0.00    -0.266 OA
HETATM   37  N4  UNL     1      15.263  22.769  60.714  1.00  0.00    -0.355 N 
ATOM     38  H4  UNL     1      14.285  22.693  60.437  1.00  0.00     0.162 HD
BRANCH  37  39
HETATM   39  C25 UNL     1      16.159  23.430  59.814  1.00  0.00     0.123 C 
BRANCH  39  40
HETATM   40  C26 UNL     1      16.039  24.896  59.696  1.00  0.00     0.029 C 
BRANCH  40  41
HETATM   41  C27 UNL     1      17.192  25.654  59.144  1.00  0.00    -0.038 C 
HETATM   42  C28 UNL     1      16.813  26.538  57.974  1.00  0.00     0.014 C 
HETATM   43  C29 UNL     1      18.031  27.073  57.296  1.00  0.00    -0.013 C 
HETATM   44  C30 UNL     1      18.829  27.912  58.275  1.00  0.00     0.009 C 
HETATM   45  C34 UNL     1      18.936  25.990  56.753  1.00  0.00     0.009 C 
HETATM   46  C31 UNL     1      19.202  27.040  59.444  1.00  0.00    -0.013 C 
HETATM   47  C32 UNL     1      20.103  25.944  58.981  1.00  0.00     0.009 C 
HETATM   48  C36 UNL     1      17.959  26.480  60.117  1.00  0.00     0.014 C 
HETATM   49  C33 UNL     1      19.352  25.145  57.936  1.00  0.00    -0.013 C 
HETATM   50  C35 UNL     1      18.123  24.575  58.555  1.00  0.00     0.014 C 
ENDBRANCH  40  41
ENDBRANCH  39  40
ENDBRANCH  37  39
ENDBRANCH  32  35
ENDBRANCH   1  32
TORSDOF 16
ENDMDL
