MODEL 1
REMARK VINA RESULT: -9.544284831      0.000      0.000
REMARK  14 active torsions:
REMARK  status: ('A' for Active; 'I' for Inactive)
REMARK    1  A    between atoms: C3_3  and  C4_4 
REMARK    2  A    between atoms: C4_4  and  O1_5 
REMARK    3  A    between atoms: O1_5  and  C5_6 
REMARK    4  A    between atoms: C5_6  and  C6_8 
REMARK    5  A    between atoms: C7_9  and  C8_10 
REMARK    6  A    between atoms: C8_10  and  C9_11 
REMARK    7  A    between atoms: C9_11  and  C10_12 
REMARK    8  A    between atoms: C10_12  and  C11_13 
REMARK    9  A    between atoms: C11_13  and  C12_14 
REMARK       I    between atoms: N3_20  and  C14_22 
REMARK       I    between atoms: C14_22  and  N4_24 
REMARK   10  A    between atoms: C18_32  and  N7_33 
REMARK       I    between atoms: N7_33  and  C19_35 
REMARK   11  A    between atoms: C19_35  and  C20_37 
REMARK   12  A    between atoms: C21_38  and  C22_39 
REMARK   13  A    between atoms: C25_42  and  O5_43 
REMARK   14  A    between atoms: C27_45  and  O6_46 
ROOT
HETATM    1  C1  UNL     1      14.115  20.255  14.090  1.00  0.00     0.012 C 
HETATM    2  C2  UNL     1      13.956  21.349  14.574  1.00  0.00    -0.115 C 
HETATM    3  C3  UNL     1      13.778  22.683  15.150  1.00  0.00     0.119 C 
ENDROOT
BRANCH   3   4
HETATM    4  C4  UNL     1      14.928  22.902  16.143  1.00  0.00     0.191 C 
BRANCH   4   5
HETATM    5  O1  UNL     1      16.109  22.646  15.440  1.00  0.00    -0.316 OA
BRANCH   5   6
HETATM    6  C5  UNL     1      17.311  22.436  16.141  1.00  0.00     0.299 C 
HETATM    7  O2  UNL     1      17.991  21.464  15.797  1.00  0.00    -0.259 OA
BRANCH   6   8
HETATM    8  C6  UNL     1      17.633  23.383  17.204  1.00  0.00     0.108 A 
HETATM    9  C7  UNL     1      17.841  24.734  17.117  1.00  0.00     0.046 A 
HETATM   10  N5  UNL     1      18.107  25.206  18.347  1.00  0.00    -0.300 N 
HETATM   11  N6  UNL     1      18.078  24.210  19.231  1.00  0.00    -0.280 N 
ATOM     12  H5  UNL     1      18.302  26.181  18.570  1.00  0.00     0.187 HD
HETATM   13  C17 UNL     1      18.322  24.392  20.640  1.00  0.00     0.179 C 
HETATM   14  C18 UNL     1      17.793  23.078  18.582  1.00  0.00     0.143 A 
BRANCH   9  15
HETATM   15  C8  UNL     1      17.800  25.582  15.874  1.00  0.00     0.060 C 
BRANCH  15  16
HETATM   16  C9  UNL     1      19.160  25.607  15.195  1.00  0.00     0.006 C 
BRANCH  16  17
HETATM   17  C10 UNL     1      19.644  27.015  15.013  1.00  0.00     0.007 C 
BRANCH  17  18
HETATM   18  C11 UNL     1      20.893  27.101  14.216  1.00  0.00     0.066 C 
BRANCH  18  19
HETATM   19  C12 UNL     1      22.037  27.526  15.069  1.00  0.00     0.069 A 
HETATM   20  N1  UNL     1      22.938  28.478  14.948  1.00  0.00    -0.296 N 
HETATM   21  N2  UNL     1      23.836  28.662  15.821  1.00  0.00    -0.279 N 
ATOM     22  H1  UNL     1      22.911  29.085  14.128  1.00  0.00     0.187 HD
HETATM   23  C13 UNL     1      23.859  27.856  16.891  1.00  0.00     0.169 A 
ATOM     24  H2  UNL     1      24.527  29.405  15.712  1.00  0.00     0.189 HD
HETATM   25  N3  UNL     1      24.705  27.887  17.896  1.00  0.00    -0.288 N 
HETATM   26  S1  UNL     1      22.535  26.828  16.587  1.00  0.00    -0.038 SA
HETATM   27  C14 UNL     1      24.531  26.931  18.920  1.00  0.00     0.323 C 
ATOM     28  H3  UNL     1      25.457  28.575  17.935  1.00  0.00     0.172 HD
HETATM   29  O3  UNL     1      23.822  27.217  19.904  1.00  0.00    -0.247 OA
HETATM   30  N4  UNL     1      25.171  25.672  18.794  1.00  0.00    -0.343 N 
HETATM   31  C15 UNL     1      25.990  25.355  17.648  1.00  0.00     0.154 C 
HETATM   32  C16 UNL     1      25.033  24.645  19.810  1.00  0.00     0.154 C 
ENDBRANCH  18  19
ENDBRANCH  17  18
ENDBRANCH  16  17
ENDBRANCH  15  16
ENDBRANCH   9  15
BRANCH  14  33
HETATM   33  N7  UNL     1      17.653  21.872  18.963  1.00  0.00    -0.307 N 
HETATM   34  C19 UNL     1      16.447  21.078  18.911  1.00  0.00     0.246 C 
HETATM   35  O4  UNL     1      15.578  21.395  19.724  1.00  0.00    -0.268 OA
ATOM     36  H7  UNL     1      18.482  21.417  19.345  1.00  0.00     0.170 HD
BRANCH  34  37
HETATM   37  C20 UNL     1      16.367  20.030  17.960  1.00  0.00     0.075 C 
HETATM   38  C21 UNL     1      15.498  19.173  17.641  1.00  0.00     0.017 C 
BRANCH  38  39
HETATM   39  C22 UNL     1      14.185  18.799  18.052  1.00  0.00    -0.033 A 
HETATM   40  C23 UNL     1      14.058  17.730  18.972  1.00  0.00     0.014 A 
HETATM   41  C24 UNL     1      12.862  17.349  19.485  1.00  0.00     0.040 A 
HETATM   42  C25 UNL     1      11.706  18.010  19.114  1.00  0.00     0.101 A 
HETATM   43  C27 UNL     1      11.774  19.054  18.224  1.00  0.00     0.102 A 
HETATM   44  C29 UNL     1      13.023  19.442  17.700  1.00  0.00     0.051 A 
BRANCH  42  45
HETATM   45  O5  UNL     1      10.461  17.653  19.611  1.00  0.00    -0.353 OA
HETATM   46  C26 UNL     1       9.846  16.499  19.069  1.00  0.00     0.210 C 
ENDBRANCH  42  45
BRANCH  43  47
HETATM   47  O6  UNL     1      10.606  19.706  17.864  1.00  0.00    -0.353 OA
HETATM   48  C28 UNL     1      10.147  19.806  16.543  1.00  0.00     0.210 C 
ENDBRANCH  43  47
ENDBRANCH  38  39
ENDBRANCH  34  37
ENDBRANCH  14  33
ENDBRANCH   6   8
ENDBRANCH   5   6
ENDBRANCH   4   5
ENDBRANCH   3   4
TORSDOF 14
ENDMDL
MODEL 2
REMARK VINA RESULT: -9.462781571      1.130      1.343
REMARK  14 active torsions:
REMARK  status: ('A' for Active; 'I' for Inactive)
REMARK    1  A    between atoms: C3_3  and  C4_4 
REMARK    2  A    between atoms: C4_4  and  O1_5 
REMARK    3  A    between atoms: O1_5  and  C5_6 
REMARK    4  A    between atoms: C5_6  and  C6_8 
REMARK    5  A    between atoms: C7_9  and  C8_10 
REMARK    6  A    between atoms: C8_10  and  C9_11 
REMARK    7  A    between atoms: C9_11  and  C10_12 
REMARK    8  A    between atoms: C10_12  and  C11_13 
REMARK    9  A    between atoms: C11_13  and  C12_14 
REMARK       I    between atoms: N3_20  and  C14_22 
REMARK       I    between atoms: C14_22  and  N4_24 
REMARK   10  A    between atoms: C18_32  and  N7_33 
REMARK       I    between atoms: N7_33  and  C19_35 
REMARK   11  A    between atoms: C19_35  and  C20_37 
REMARK   12  A    between atoms: C21_38  and  C22_39 
REMARK   13  A    between atoms: C25_42  and  O5_43 
REMARK   14  A    between atoms: C27_45  and  O6_46 
ROOT
HETATM    1  C1  UNL     1      14.143  20.102  13.963  1.00  0.00     0.012 C 
HETATM    2  C2  UNL     1      13.933  21.176  14.471  1.00  0.00    -0.115 C 
HETATM    3  C3  UNL     1      13.691  22.486  15.077  1.00  0.00     0.119 C 
ENDROOT
BRANCH   3   4
HETATM    4  C4  UNL     1      14.818  22.727  16.092  1.00  0.00     0.191 C 
BRANCH   4   5
HETATM    5  O1  UNL     1      16.017  22.520  15.405  1.00  0.00    -0.316 OA
BRANCH   5   6
HETATM    6  C5  UNL     1      17.218  22.360  16.122  1.00  0.00     0.299 C 
HETATM    7  O2  UNL     1      17.935  21.408  15.800  1.00  0.00    -0.259 OA
BRANCH   6   8
HETATM    8  C6  UNL     1      17.495  23.333  17.175  1.00  0.00     0.108 A 
HETATM    9  C7  UNL     1      17.657  24.689  17.071  1.00  0.00     0.046 A 
HETATM   10  N5  UNL     1      17.892  25.187  18.297  1.00  0.00    -0.300 N 
HETATM   11  N6  UNL     1      17.888  24.203  19.194  1.00  0.00    -0.280 N 
ATOM     12  H5  UNL     1      18.051  26.171  18.508  1.00  0.00     0.187 HD
HETATM   13  C17 UNL     1      18.110  24.412  20.603  1.00  0.00     0.179 C 
HETATM   14  C18 UNL     1      17.650  23.053  18.559  1.00  0.00     0.143 A 
BRANCH   9  15
HETATM   15  C8  UNL     1      17.600  25.518  15.815  1.00  0.00     0.060 C 
BRANCH  15  16
HETATM   16  C9  UNL     1      18.952  25.534  15.120  1.00  0.00     0.006 C 
BRANCH  16  17
HETATM   17  C10 UNL     1      19.547  26.911  15.135  1.00  0.00     0.007 C 
BRANCH  17  18
HETATM   18  C11 UNL     1      20.918  26.957  14.567  1.00  0.00     0.066 C 
BRANCH  18  19
HETATM   19  C12 UNL     1      21.938  26.746  15.631  1.00  0.00     0.069 A 
HETATM   20  N1  UNL     1      23.221  26.455  15.594  1.00  0.00    -0.296 N 
HETATM   21  N2  UNL     1      23.906  26.324  16.650  1.00  0.00    -0.279 N 
ATOM     22  H1  UNL     1      23.676  26.330  14.689  1.00  0.00     0.187 HD
HETATM   23  C13 UNL     1      23.295  26.490  17.831  1.00  0.00     0.169 A 
ATOM     24  H2  UNL     1      24.901  26.099  16.604  1.00  0.00     0.189 HD
HETATM   25  N3  UNL     1      23.831  26.397  19.027  1.00  0.00    -0.288 N 
HETATM   26  S1  UNL     1      21.697  26.840  17.354  1.00  0.00    -0.038 SA
HETATM   27  C14 UNL     1      22.984  26.614  20.135  1.00  0.00     0.323 C 
ATOM     28  H3  UNL     1      24.819  26.176  19.150  1.00  0.00     0.172 HD
HETATM   29  O3  UNL     1      22.880  27.764  20.604  1.00  0.00    -0.247 OA
HETATM   30  N4  UNL     1      22.276  25.512  20.680  1.00  0.00    -0.343 N 
HETATM   31  C15 UNL     1      22.406  24.186  20.126  1.00  0.00     0.154 C 
HETATM   32  C16 UNL     1      21.389  25.668  21.819  1.00  0.00     0.154 C 
ENDBRANCH  18  19
ENDBRANCH  17  18
ENDBRANCH  16  17
ENDBRANCH  15  16
ENDBRANCH   9  15
BRANCH  14  33
HETATM   33  N7  UNL     1      17.548  21.848  18.955  1.00  0.00    -0.307 N 
HETATM   34  C19 UNL     1      16.365  21.019  18.924  1.00  0.00     0.246 C 
HETATM   35  O4  UNL     1      15.495  21.321  19.741  1.00  0.00    -0.268 OA
ATOM     36  H7  UNL     1      18.393  21.421  19.334  1.00  0.00     0.170 HD
BRANCH  34  37
HETATM   37  C20 UNL     1      16.306  19.958  17.986  1.00  0.00     0.075 C 
HETATM   38  C21 UNL     1      15.442  19.099  17.656  1.00  0.00     0.017 C 
BRANCH  38  39
HETATM   39  C22 UNL     1      14.117  18.736  18.038  1.00  0.00    -0.033 A 
HETATM   40  C23 UNL     1      13.957  17.633  18.908  1.00  0.00     0.014 A 
HETATM   41  C24 UNL     1      12.748  17.255  19.392  1.00  0.00     0.040 A 
HETATM   42  C25 UNL     1      11.610  17.956  19.039  1.00  0.00     0.101 A 
HETATM   43  C27 UNL     1      11.710  19.036  18.195  1.00  0.00     0.102 A 
HETATM   44  C29 UNL     1      12.973  19.419  17.702  1.00  0.00     0.051 A 
BRANCH  42  45
HETATM   45  O5  UNL     1      10.353  17.605  19.507  1.00  0.00    -0.353 OA
HETATM   46  C26 UNL     1       9.786  16.402  19.021  1.00  0.00     0.210 C 
ENDBRANCH  42  45
BRANCH  43  47
HETATM   47  O6  UNL     1      10.560  19.727  17.851  1.00  0.00    -0.353 OA
HETATM   48  C28 UNL     1      10.123  19.902  16.530  1.00  0.00     0.210 C 
ENDBRANCH  43  47
ENDBRANCH  38  39
ENDBRANCH  34  37
ENDBRANCH  14  33
ENDBRANCH   6   8
ENDBRANCH   5   6
ENDBRANCH   4   5
ENDBRANCH   3   4
TORSDOF 14
ENDMDL
MODEL 3
REMARK VINA RESULT: -9.389348545      4.523     11.354
REMARK  14 active torsions:
REMARK  status: ('A' for Active; 'I' for Inactive)
REMARK    1  A    between atoms: C3_3  and  C4_4 
REMARK    2  A    between atoms: C4_4  and  O1_5 
REMARK    3  A    between atoms: O1_5  and  C5_6 
REMARK    4  A    between atoms: C5_6  and  C6_8 
REMARK    5  A    between atoms: C7_9  and  C8_10 
REMARK    6  A    between atoms: C8_10  and  C9_11 
REMARK    7  A    between atoms: C9_11  and  C10_12 
REMARK    8  A    between atoms: C10_12  and  C11_13 
REMARK    9  A    between atoms: C11_13  and  C12_14 
REMARK       I    between atoms: N3_20  and  C14_22 
REMARK       I    between atoms: C14_22  and  N4_24 
REMARK   10  A    between atoms: C18_32  and  N7_33 
REMARK       I    between atoms: N7_33  and  C19_35 
REMARK   11  A    between atoms: C19_35  and  C20_37 
REMARK   12  A    between atoms: C21_38  and  C22_39 
REMARK   13  A    between atoms: C25_42  and  O5_43 
REMARK   14  A    between atoms: C27_45  and  O6_46 
ROOT
HETATM    1  C1  UNL     1      17.022  24.565  18.847  1.00  0.00     0.012 C 
HETATM    2  C2  UNL     1      17.673  23.764  19.473  1.00  0.00    -0.115 C 
HETATM    3  C3  UNL     1      18.476  22.796  20.221  1.00  0.00     0.119 C 
ENDROOT
BRANCH   3   4
HETATM    4  C4  UNL     1      18.514  21.506  19.390  1.00  0.00     0.191 C 
BRANCH   4   5
HETATM    5  O1  UNL     1      17.184  21.130  19.185  1.00  0.00    -0.316 OA
BRANCH   5   6
HETATM    6  C5  UNL     1      16.785  20.612  17.939  1.00  0.00     0.299 C 
HETATM    7  O2  UNL     1      17.544  19.795  17.409  1.00  0.00    -0.259 OA
BRANCH   6   8
HETATM    8  C6  UNL     1      15.517  21.091  17.398  1.00  0.00     0.108 A 
HETATM    9  C7  UNL     1      14.263  21.002  17.939  1.00  0.00     0.046 A 
HETATM   10  N5  UNL     1      13.391  21.581  17.097  1.00  0.00    -0.300 N 
HETATM   11  N6  UNL     1      14.034  22.045  16.027  1.00  0.00    -0.280 N 
ATOM     12  H5  UNL     1      12.386  21.655  17.254  1.00  0.00     0.187 HD
HETATM   13  C17 UNL     1      13.377  22.722  14.937  1.00  0.00     0.179 C 
HETATM   14  C18 UNL     1      15.334  21.770  16.163  1.00  0.00     0.143 A 
BRANCH   9  15
HETATM   15  C8  UNL     1      13.881  20.362  19.247  1.00  0.00     0.060 C 
BRANCH  15  16
HETATM   16  C9  UNL     1      13.403  18.935  19.029  1.00  0.00     0.006 C 
BRANCH  16  17
HETATM   17  C10 UNL     1      12.050  18.723  19.641  1.00  0.00     0.007 C 
BRANCH  17  18
HETATM   18  C11 UNL     1      11.088  18.078  18.712  1.00  0.00     0.066 C 
BRANCH  18  19
HETATM   19  C12 UNL     1      10.873  18.922  17.504  1.00  0.00     0.069 A 
HETATM   20  N1  UNL     1      10.292  20.089  17.321  1.00  0.00    -0.296 N 
HETATM   21  N2  UNL     1      10.229  20.631  16.178  1.00  0.00    -0.279 N 
ATOM     22  H1  UNL     1       9.881  20.570  18.121  1.00  0.00     0.187 HD
HETATM   23  C13 UNL     1      10.772  19.986  15.137  1.00  0.00     0.169 A 
ATOM     24  H2  UNL     1       9.776  21.537  16.053  1.00  0.00     0.189 HD
HETATM   25  N3  UNL     1      10.808  20.381  13.884  1.00  0.00    -0.288 N 
HETATM   26  S1  UNL     1      11.375  18.572  15.872  1.00  0.00    -0.038 SA
HETATM   27  C14 UNL     1      11.440  19.528  12.953  1.00  0.00     0.323 C 
ATOM     28  H3  UNL     1      10.396  21.269  13.595  1.00  0.00     0.172 HD
HETATM   29  O3  UNL     1      12.654  19.679  12.718  1.00  0.00    -0.247 OA
HETATM   30  N4  UNL     1      10.668  18.524  12.315  1.00  0.00    -0.343 N 
HETATM   31  C15 UNL     1       9.262  18.361  12.598  1.00  0.00     0.154 C 
HETATM   32  C16 UNL     1      11.257  17.615  11.348  1.00  0.00     0.154 C 
ENDBRANCH  18  19
ENDBRANCH  17  18
ENDBRANCH  16  17
ENDBRANCH  15  16
ENDBRANCH   9  15
BRANCH  14  33
HETATM   33  N7  UNL     1      16.350  21.996  15.431  1.00  0.00    -0.307 N 
HETATM   34  C19 UNL     1      17.334  23.039  15.608  1.00  0.00     0.246 C 
HETATM   35  O4  UNL     1      16.940  24.177  15.347  1.00  0.00    -0.268 OA
ATOM     36  H7  UNL     1      16.484  21.373  14.635  1.00  0.00     0.170 HD
BRANCH  34  37
HETATM   37  C20 UNL     1      18.631  22.678  16.049  1.00  0.00     0.075 C 
HETATM   38  C21 UNL     1      19.704  23.299  16.285  1.00  0.00     0.017 C 
BRANCH  38  39
HETATM   39  C22 UNL     1      20.178  24.643  16.227  1.00  0.00    -0.033 A 
HETATM   40  C23 UNL     1      20.488  25.182  14.956  1.00  0.00     0.014 A 
HETATM   41  C24 UNL     1      20.872  26.471  14.784  1.00  0.00     0.040 A 
HETATM   42  C25 UNL     1      20.973  27.315  15.874  1.00  0.00     0.101 A 
HETATM   43  C27 UNL     1      20.683  26.842  17.131  1.00  0.00     0.102 A 
HETATM   44  C29 UNL     1      20.284  25.501  17.295  1.00  0.00     0.051 A 
BRANCH  42  45
HETATM   45  O5  UNL     1      21.363  28.640  15.746  1.00  0.00    -0.353 OA
HETATM   46  C26 UNL     1      22.750  28.921  15.794  1.00  0.00     0.210 C 
ENDBRANCH  42  45
BRANCH  43  47
HETATM   47  O6  UNL     1      20.789  27.702  18.212  1.00  0.00    -0.353 OA
HETATM   48  C28 UNL     1      21.462  27.379  19.399  1.00  0.00     0.210 C 
ENDBRANCH  43  47
ENDBRANCH  38  39
ENDBRANCH  34  37
ENDBRANCH  14  33
ENDBRANCH   6   8
ENDBRANCH   5   6
ENDBRANCH   4   5
ENDBRANCH   3   4
TORSDOF 14
ENDMDL
MODEL 4
REMARK VINA RESULT: -9.229857275      2.751      4.953
REMARK  14 active torsions:
REMARK  status: ('A' for Active; 'I' for Inactive)
REMARK    1  A    between atoms: C3_3  and  C4_4 
REMARK    2  A    between atoms: C4_4  and  O1_5 
REMARK    3  A    between atoms: O1_5  and  C5_6 
REMARK    4  A    between atoms: C5_6  and  C6_8 
REMARK    5  A    between atoms: C7_9  and  C8_10 
REMARK    6  A    between atoms: C8_10  and  C9_11 
REMARK    7  A    between atoms: C9_11  and  C10_12 
REMARK    8  A    between atoms: C10_12  and  C11_13 
REMARK    9  A    between atoms: C11_13  and  C12_14 
REMARK       I    between atoms: N3_20  and  C14_22 
REMARK       I    between atoms: C14_22  and  N4_24 
REMARK   10  A    between atoms: C18_32  and  N7_33 
REMARK       I    between atoms: N7_33  and  C19_35 
REMARK   11  A    between atoms: C19_35  and  C20_37 
REMARK   12  A    between atoms: C21_38  and  C22_39 
REMARK   13  A    between atoms: C25_42  and  O5_43 
REMARK   14  A    between atoms: C27_45  and  O6_46 
ROOT
HETATM    1  C1  UNL     1      16.386  24.788  18.351  1.00  0.00     0.012 C 
HETATM    2  C2  UNL     1      17.123  24.883  17.400  1.00  0.00    -0.115 C 
HETATM    3  C3  UNL     1      18.001  25.002  16.236  1.00  0.00     0.119 C 
ENDROOT
BRANCH   3   4
HETATM    4  C4  UNL     1      17.827  23.722  15.407  1.00  0.00     0.191 C 
BRANCH   4   5
HETATM    5  O1  UNL     1      16.456  23.449  15.389  1.00  0.00    -0.316 OA
BRANCH   5   6
HETATM    6  C5  UNL     1      16.006  22.126  15.219  1.00  0.00     0.299 C 
HETATM    7  O2  UNL     1      16.100  21.649  14.084  1.00  0.00    -0.259 OA
BRANCH   6   8
HETATM    8  C6  UNL     1      15.473  21.451  16.398  1.00  0.00     0.108 A 
HETATM    9  C7  UNL     1      16.144  20.975  17.493  1.00  0.00     0.046 A 
HETATM   10  N5  UNL     1      15.253  20.430  18.338  1.00  0.00    -0.300 N 
HETATM   11  N6  UNL     1      14.025  20.536  17.833  1.00  0.00    -0.280 N 
ATOM     12  H5  UNL     1      15.482  19.999  19.233  1.00  0.00     0.187 HD
HETATM   13  C17 UNL     1      12.846  20.048  18.501  1.00  0.00     0.179 C 
HETATM   14  C18 UNL     1      14.107  21.152  16.650  1.00  0.00     0.143 A 
BRANCH   9  15
HETATM   15  C8  UNL     1      17.629  21.022  17.741  1.00  0.00     0.060 C 
BRANCH  15  16
HETATM   16  C9  UNL     1      17.921  21.421  19.178  1.00  0.00     0.006 C 
BRANCH  16  17
HETATM   17  C10 UNL     1      19.105  22.338  19.251  1.00  0.00     0.007 C 
BRANCH  17  18
HETATM   18  C11 UNL     1      19.127  23.159  20.488  1.00  0.00     0.066 C 
BRANCH  18  19
HETATM   19  C12 UNL     1      19.838  24.447  20.256  1.00  0.00     0.069 A 
HETATM   20  N1  UNL     1      19.802  25.611  20.868  1.00  0.00    -0.296 N 
HETATM   21  N2  UNL     1      20.514  26.587  20.490  1.00  0.00    -0.279 N 
ATOM     22  H1  UNL     1      19.182  25.731  21.670  1.00  0.00     0.187 HD
HETATM   23  C13 UNL     1      21.322  26.414  19.435  1.00  0.00     0.169 A 
ATOM     24  H2  UNL     1      20.474  27.483  20.977  1.00  0.00     0.189 HD
HETATM   25  N3  UNL     1      22.130  27.299  18.895  1.00  0.00    -0.288 N 
HETATM   26  S1  UNL     1      21.011  24.793  19.014  1.00  0.00    -0.038 SA
HETATM   27  C14 UNL     1      22.891  26.886  17.780  1.00  0.00     0.323 C 
ATOM     28  H3  UNL     1      22.206  28.246  19.268  1.00  0.00     0.172 HD
HETATM   29  O3  UNL     1      24.027  26.409  17.963  1.00  0.00    -0.247 OA
HETATM   30  N4  UNL     1      22.333  27.030  16.483  1.00  0.00    -0.343 N 
HETATM   31  C15 UNL     1      21.016  27.585  16.288  1.00  0.00     0.154 C 
HETATM   32  C16 UNL     1      23.063  26.625  15.295  1.00  0.00     0.154 C 
ENDBRANCH  18  19
ENDBRANCH  17  18
ENDBRANCH  16  17
ENDBRANCH  15  16
ENDBRANCH   9  15
BRANCH  14  33
HETATM   33  N7  UNL     1      13.237  21.487  15.784  1.00  0.00    -0.307 N 
HETATM   34  C19 UNL     1      12.523  20.609  14.885  1.00  0.00     0.246 C 
HETATM   35  O4  UNL     1      13.199  20.139  13.969  1.00  0.00    -0.268 OA
ATOM     36  H7  UNL     1      13.020  22.481  15.718  1.00  0.00     0.170 HD
BRANCH  34  37
HETATM   37  C20 UNL     1      11.146  20.372  15.122  1.00  0.00     0.075 C 
HETATM   38  C21 UNL     1      10.458  19.385  15.501  1.00  0.00     0.017 C 
BRANCH  38  39
HETATM   39  C22 UNL     1      10.680  18.026  15.869  1.00  0.00    -0.033 A 
HETATM   40  C23 UNL     1      10.423  17.652  17.210  1.00  0.00     0.014 A 
HETATM   41  C24 UNL     1      10.527  16.370  17.642  1.00  0.00     0.040 A 
HETATM   42  C25 UNL     1      10.896  15.370  16.763  1.00  0.00     0.101 A 
HETATM   43  C27 UNL     1      11.157  15.680  15.450  1.00  0.00     0.102 A 
HETATM   44  C29 UNL     1      11.043  17.014  15.013  1.00  0.00     0.051 A 
BRANCH  42  45
HETATM   45  O5  UNL     1      11.017  14.047  17.161  1.00  0.00    -0.353 OA
HETATM   46  C26 UNL     1       9.968  13.499  17.938  1.00  0.00     0.210 C 
ENDBRANCH  42  45
BRANCH  43  47
HETATM   47  O6  UNL     1      11.525  14.664  14.582  1.00  0.00    -0.353 OA
HETATM   48  C28 UNL     1      11.890  14.878  13.245  1.00  0.00     0.210 C 
ENDBRANCH  43  47
ENDBRANCH  38  39
ENDBRANCH  34  37
ENDBRANCH  14  33
ENDBRANCH   6   8
ENDBRANCH   5   6
ENDBRANCH   4   5
ENDBRANCH   3   4
TORSDOF 14
ENDMDL
MODEL 5
REMARK VINA RESULT: -9.207912083      4.709     11.900
REMARK  14 active torsions:
REMARK  status: ('A' for Active; 'I' for Inactive)
REMARK    1  A    between atoms: C3_3  and  C4_4 
REMARK    2  A    between atoms: C4_4  and  O1_5 
REMARK    3  A    between atoms: O1_5  and  C5_6 
REMARK    4  A    between atoms: C5_6  and  C6_8 
REMARK    5  A    between atoms: C7_9  and  C8_10 
REMARK    6  A    between atoms: C8_10  and  C9_11 
REMARK    7  A    between atoms: C9_11  and  C10_12 
REMARK    8  A    between atoms: C10_12  and  C11_13 
REMARK    9  A    between atoms: C11_13  and  C12_14 
REMARK       I    between atoms: N3_20  and  C14_22 
REMARK       I    between atoms: C14_22  and  N4_24 
REMARK   10  A    between atoms: C18_32  and  N7_33 
REMARK       I    between atoms: N7_33  and  C19_35 
REMARK   11  A    between atoms: C19_35  and  C20_37 
REMARK   12  A    between atoms: C21_38  and  C22_39 
REMARK   13  A    between atoms: C25_42  and  O5_43 
REMARK   14  A    between atoms: C27_45  and  O6_46 
ROOT
HETATM    1  C1  UNL     1      15.401  21.393  13.248  1.00  0.00     0.012 C 
HETATM    2  C2  UNL     1      14.502  20.595  13.358  1.00  0.00    -0.115 C 
HETATM    3  C3  UNL     1      13.401  19.641  13.486  1.00  0.00     0.119 C 
ENDROOT
BRANCH   3   4
HETATM    4  C4  UNL     1      12.633  20.009  14.764  1.00  0.00     0.191 C 
BRANCH   4   5
HETATM    5  O1  UNL     1      13.524  19.826  15.825  1.00  0.00    -0.316 OA
BRANCH   5   6
HETATM    6  C5  UNL     1      13.132  20.156  17.135  1.00  0.00     0.299 C 
HETATM    7  O2  UNL     1      11.918  20.198  17.357  1.00  0.00    -0.259 OA
BRANCH   6   8
HETATM    8  C6  UNL     1      14.195  20.416  18.100  1.00  0.00     0.108 A 
HETATM    9  C7  UNL     1      14.303  19.988  19.397  1.00  0.00     0.046 A 
HETATM   10  N5  UNL     1      15.451  20.463  19.910  1.00  0.00    -0.300 N 
HETATM   11  N6  UNL     1      16.093  21.185  18.993  1.00  0.00    -0.280 N 
ATOM     12  H5  UNL     1      15.780  20.297  20.860  1.00  0.00     0.187 HD
HETATM   13  C17 UNL     1      17.359  21.831  19.235  1.00  0.00     0.179 C 
HETATM   14  C18 UNL     1      15.367  21.186  17.872  1.00  0.00     0.143 A 
BRANCH   9  15
HETATM   15  C8  UNL     1      13.321  19.138  20.158  1.00  0.00     0.060 C 
BRANCH  15  16
HETATM   16  C9  UNL     1      13.523  17.666  19.838  1.00  0.00     0.006 C 
BRANCH  16  17
HETATM   17  C10 UNL     1      12.280  16.878  20.131  1.00  0.00     0.007 C 
BRANCH  17  18
HETATM   18  C11 UNL     1      11.037  17.589  19.739  1.00  0.00     0.066 C 
BRANCH  18  19
HETATM   19  C12 UNL     1      10.334  16.863  18.647  1.00  0.00     0.069 A 
HETATM   20  N1  UNL     1       9.397  15.938  18.647  1.00  0.00    -0.296 N 
HETATM   21  N2  UNL     1       8.935  15.456  17.571  1.00  0.00    -0.279 N 
ATOM     22  H1  UNL     1       9.034  15.599  19.538  1.00  0.00     0.187 HD
HETATM   23  C13 UNL     1       9.422  15.910  16.408  1.00  0.00     0.169 A 
ATOM     24  H2  UNL     1       8.208  14.740  17.589  1.00  0.00     0.189 HD
HETATM   25  N3  UNL     1       9.074  15.539  15.197  1.00  0.00    -0.288 N 
HETATM   26  S1  UNL     1      10.571  17.056  16.931  1.00  0.00    -0.038 SA
HETATM   27  C14 UNL     1       9.731  16.162  14.114  1.00  0.00     0.323 C 
ATOM     28  H3  UNL     1       8.358  14.828  15.045  1.00  0.00     0.172 HD
HETATM   29  O3  UNL     1       9.234  17.189  13.613  1.00  0.00    -0.247 OA
HETATM   30  N4  UNL     1      10.938  15.596  13.631  1.00  0.00    -0.343 N 
HETATM   31  C15 UNL     1      11.501  14.405  14.222  1.00  0.00     0.154 C 
HETATM   32  C16 UNL     1      11.662  16.187  12.520  1.00  0.00     0.154 C 
ENDBRANCH  18  19
ENDBRANCH  17  18
ENDBRANCH  16  17
ENDBRANCH  15  16
ENDBRANCH   9  15
BRANCH  14  33
HETATM   33  N7  UNL     1      15.537  21.718  16.729  1.00  0.00    -0.307 N 
HETATM   34  C19 UNL     1      16.310  22.902  16.427  1.00  0.00     0.246 C 
HETATM   35  O4  UNL     1      15.809  23.962  16.805  1.00  0.00    -0.268 OA
ATOM     36  H7  UNL     1      15.079  21.260  15.941  1.00  0.00     0.170 HD
BRANCH  34  37
HETATM   37  C20 UNL     1      17.540  22.750  15.740  1.00  0.00     0.075 C 
HETATM   38  C21 UNL     1      18.639  23.370  15.720  1.00  0.00     0.017 C 
BRANCH  38  39
HETATM   39  C22 UNL     1      19.212  24.518  16.341  1.00  0.00    -0.033 A 
HETATM   40  C23 UNL     1      19.582  24.421  17.703  1.00  0.00     0.014 A 
HETATM   41  C24 UNL     1      20.205  25.428  18.363  1.00  0.00     0.040 A 
HETATM   42  C25 UNL     1      20.503  26.608  17.707  1.00  0.00     0.101 A 
HETATM   43  C27 UNL     1      20.165  26.754  16.383  1.00  0.00     0.102 A 
HETATM   44  C29 UNL     1      19.520  25.699  15.709  1.00  0.00     0.051 A 
BRANCH  42  45
HETATM   45  O5  UNL     1      21.137  27.665  18.342  1.00  0.00    -0.353 OA
HETATM   46  C26 UNL     1      21.553  27.469  19.681  1.00  0.00     0.210 C 
ENDBRANCH  42  45
BRANCH  43  47
HETATM   47  O6  UNL     1      20.471  27.943  15.741  1.00  0.00    -0.353 OA
HETATM   48  C28 UNL     1      21.547  28.093  14.854  1.00  0.00     0.210 C 
ENDBRANCH  43  47
ENDBRANCH  38  39
ENDBRANCH  34  37
ENDBRANCH  14  33
ENDBRANCH   6   8
ENDBRANCH   5   6
ENDBRANCH   4   5
ENDBRANCH   3   4
TORSDOF 14
ENDMDL
