MODEL 1
REMARK VINA RESULT: -8.781144433      0.000      0.000
REMARK  14 active torsions:
REMARK  status: ('A' for Active; 'I' for Inactive)
REMARK    1  A    between atoms: C3_3  and  N1_4 
REMARK    2  A    between atoms: C6_8  and  O1_9 
REMARK    3  A    between atoms: C6_8  and  N2_11 
REMARK    4  A    between atoms: N2_11  and  C7_13 
REMARK    5  A    between atoms: C12_19  and  C13_20 
REMARK    6  A    between atoms: C13_20  and  O3_22 
REMARK    7  A    between atoms: C19_30  and  C20_31 
REMARK       I    between atoms: C20_31  and  N4_33 
REMARK    8  A    between atoms: N4_33  and  C21_34 
REMARK    9  A    between atoms: N4_33  and  C25_43 
REMARK   10  A    between atoms: C21_34  and  C22_35 
REMARK   11  A    between atoms: C22_35  and  C23_36 
REMARK   12  A    between atoms: C23_36  and  N5_37 
REMARK   13  A    between atoms: N5_37  and  S2_39 
REMARK   14  A    between atoms: C25_43  and  C27_45 
ROOT
HETATM    1  C1  UNL     1      14.092  19.368  20.833  1.00  0.00     0.018 C 
HETATM    2  C2  UNL     1      14.537  20.211  20.096  1.00  0.00    -0.072 C 
HETATM    3  C3  UNL     1      15.061  21.255  19.174  1.00  0.00     0.152 C 
ENDROOT
BRANCH   3   4
HETATM    4  N1  UNL     1      14.479  21.270  17.929  1.00  0.00    -0.360 N 
HETATM    5  C4  UNL     1      14.577  21.818  16.791  1.00  0.00     0.044 C 
HETATM    6  C5  UNL     1      15.653  22.852  16.504  1.00  0.00     0.061 C 
HETATM    7  C19 UNL     1      13.737  21.384  15.652  1.00  0.00     0.174 C 
HETATM    8  C6  UNL     1      15.855  23.939  17.397  1.00  0.00     0.155 C 
HETATM    9  C15 UNL     1      16.314  22.528  15.409  1.00  0.00     0.021 C 
HETATM   10  C16 UNL     1      17.443  23.372  14.937  1.00  0.00     0.069 C 
HETATM   11  N3  UNL     1      15.774  21.556  14.491  1.00  0.00    -0.365 N 
HETATM   12  C17 UNL     1      14.665  20.954  14.591  1.00  0.00     0.002 C 
ATOM     13  H3  UNL     1      16.345  21.330  13.677  1.00  0.00     0.165 HD
HETATM   14  C18 UNL     1      14.318  19.980  13.542  1.00  0.00     0.064 C 
ATOM     15  H1  UNL     1      13.698  20.614  17.917  1.00  0.00     0.165 HD
BRANCH   8  16
HETATM   16  O1  UNL     1      14.922  24.040  18.329  1.00  0.00    -0.345 OA
ATOM     17  H1  UNL     1      14.412  23.247  18.447  1.00  0.00     0.219 HD
ENDBRANCH   8  16
BRANCH   8  18
HETATM   18  N2  UNL     1      16.854  24.898  17.459  1.00  0.00    -0.330 N 
ATOM     19  H2  UNL     1      16.680  25.798  17.012  1.00  0.00     0.168 HD
BRANCH  18  20
HETATM   20  C7  UNL     1      18.143  24.699  18.126  1.00  0.00     0.093 A 
HETATM   21  S1  UNL     1      18.450  23.397  19.231  1.00  0.00    -0.076 SA
HETATM   22  C8  UNL     1      20.076  23.706  19.559  1.00  0.00    -0.012 A 
HETATM   23  C9  UNL     1      20.985  22.924  20.483  1.00  0.00     0.057 C 
HETATM   24  C10 UNL     1      20.357  24.804  18.808  1.00  0.00    -0.030 A 
HETATM   25  C11 UNL     1      21.765  25.385  18.866  1.00  0.00     0.050 C 
HETATM   26  C12 UNL     1      19.335  25.323  18.047  1.00  0.00     0.080 A 
BRANCH  26  27
HETATM   27  C13 UNL     1      19.667  26.332  16.986  1.00  0.00     0.296 C 
HETATM   28  O2  UNL     1      20.319  27.369  17.183  1.00  0.00    -0.259 OA
BRANCH  27  29
HETATM   29  O3  UNL     1      19.251  26.166  15.658  1.00  0.00    -0.322 OA
HETATM   30  C14 UNL     1      19.591  27.087  14.640  1.00  0.00     0.213 C 
ENDBRANCH  27  29
ENDBRANCH  26  27
ENDBRANCH  18  20
ENDBRANCH   8  18
BRANCH   7  31
HETATM   31  C20 UNL     1      12.783  20.374  16.078  1.00  0.00     0.235 C 
HETATM   32  O4  UNL     1      13.198  19.477  16.857  1.00  0.00    -0.272 OA
HETATM   33  N4  UNL     1      11.415  20.279  15.705  1.00  0.00    -0.347 N 
BRANCH  33  34
HETATM   34  C21 UNL     1      10.873  21.278  14.857  1.00  0.00     0.128 C 
BRANCH  34  35
HETATM   35  C22 UNL     1       9.351  21.303  14.859  1.00  0.00     0.040 C 
BRANCH  35  36
HETATM   36  C23 UNL     1       8.915  21.304  13.410  1.00  0.00     0.133 C 
BRANCH  36  37
HETATM   37  N5  UNL     1       9.839  20.454  12.673  1.00  0.00    -0.320 N 
ATOM     38  H5  UNL     1      10.853  20.567  12.683  1.00  0.00     0.172 HD
BRANCH  37  39
HETATM   39  S2  UNL     1       9.013  19.235  11.782  1.00  0.00     0.222 S 
HETATM   40  C24 UNL     1       9.988  18.706  10.401  1.00  0.00     0.185 C 
HETATM   41  O5  UNL     1       7.731  19.827  11.266  1.00  0.00    -0.206 OA
HETATM   42  O6  UNL     1       8.653  18.074  12.663  1.00  0.00    -0.206 OA
ENDBRANCH  37  39
ENDBRANCH  36  37
ENDBRANCH  35  36
ENDBRANCH  34  35
ENDBRANCH  33  34
BRANCH  33  43
HETATM   43  C25 UNL     1      10.633  19.223  16.229  1.00  0.00     0.082 C 
HETATM   44  C26 UNL     1      10.748  17.897  15.562  1.00  0.00     0.032 C 
BRANCH  43  45
HETATM   45  C27 UNL     1      10.656  19.001  17.715  1.00  0.00     0.020 C 
HETATM   46  C28 UNL     1      10.638  17.601  18.206  1.00  0.00     0.007 C 
ENDBRANCH  43  45
ENDBRANCH  33  43
ENDBRANCH   7  31
ENDBRANCH   3   4
TORSDOF 14
ENDMDL
MODEL 2
REMARK VINA RESULT: -8.447610852      2.229      9.553
REMARK  14 active torsions:
REMARK  status: ('A' for Active; 'I' for Inactive)
REMARK    1  A    between atoms: C3_3  and  N1_4 
REMARK    2  A    between atoms: C6_8  and  O1_9 
REMARK    3  A    between atoms: C6_8  and  N2_11 
REMARK    4  A    between atoms: N2_11  and  C7_13 
REMARK    5  A    between atoms: C12_19  and  C13_20 
REMARK    6  A    between atoms: C13_20  and  O3_22 
REMARK    7  A    between atoms: C19_30  and  C20_31 
REMARK       I    between atoms: C20_31  and  N4_33 
REMARK    8  A    between atoms: N4_33  and  C21_34 
REMARK    9  A    between atoms: N4_33  and  C25_43 
REMARK   10  A    between atoms: C21_34  and  C22_35 
REMARK   11  A    between atoms: C22_35  and  C23_36 
REMARK   12  A    between atoms: C23_36  and  N5_37 
REMARK   13  A    between atoms: N5_37  and  S2_39 
REMARK   14  A    between atoms: C25_43  and  C27_45 
ROOT
HETATM    1  C1  UNL     1      15.938  22.080  13.472  1.00  0.00     0.018 C 
HETATM    2  C2  UNL     1      15.123  21.249  13.783  1.00  0.00    -0.072 C 
HETATM    3  C3  UNL     1      14.110  20.237  14.192  1.00  0.00     0.152 C 
ENDROOT
BRANCH   3   4
HETATM    4  N1  UNL     1      14.033  20.012  15.545  1.00  0.00    -0.360 N 
HETATM    5  C4  UNL     1      13.209  19.707  16.457  1.00  0.00     0.044 C 
HETATM    6  C5  UNL     1      11.741  19.469  16.146  1.00  0.00     0.061 C 
HETATM    7  C19 UNL     1      13.657  19.440  17.843  1.00  0.00     0.174 C 
HETATM    8  C6  UNL     1      11.015  20.408  15.365  1.00  0.00     0.155 C 
HETATM    9  C15 UNL     1      11.351  18.313  16.651  1.00  0.00     0.021 C 
HETATM   10  C16 UNL     1       9.956  17.840  16.450  1.00  0.00     0.069 C 
HETATM   11  N3  UNL     1      12.148  17.648  17.651  1.00  0.00    -0.365 N 
HETATM   12  C17 UNL     1      13.228  18.067  18.161  1.00  0.00     0.002 C 
ATOM     13  H3  UNL     1      11.806  16.747  17.983  1.00  0.00     0.165 HD
HETATM   14  C18 UNL     1      13.891  17.211  19.161  1.00  0.00     0.064 C 
ATOM     15  H1  UNL     1      14.958  20.131  15.958  1.00  0.00     0.165 HD
BRANCH   8  16
HETATM   16  O1  UNL     1      11.676  21.530  15.134  1.00  0.00    -0.345 OA
ATOM     17  H1  UNL     1      11.113  22.286  15.010  1.00  0.00     0.219 HD
ENDBRANCH   8  16
BRANCH   8  18
HETATM   18  N2  UNL     1       9.748  20.347  14.806  1.00  0.00    -0.330 N 
ATOM     19  H2  UNL     1       8.947  20.476  15.424  1.00  0.00     0.168 HD
BRANCH  18  20
HETATM   20  C7  UNL     1       9.488  20.110  13.384  1.00  0.00     0.093 A 
HETATM   21  S1  UNL     1       8.513  21.163  12.408  1.00  0.00    -0.076 SA
HETATM   22  C8  UNL     1       8.680  20.378  10.924  1.00  0.00    -0.012 A 
HETATM   23  C9  UNL     1       8.059  20.781   9.604  1.00  0.00     0.057 C 
HETATM   24  C10 UNL     1       9.488  19.321  11.203  1.00  0.00    -0.030 A 
HETATM   25  C11 UNL     1       9.851  18.363  10.075  1.00  0.00     0.050 C 
HETATM   26  C12 UNL     1       9.919  19.185  12.503  1.00  0.00     0.080 A 
BRANCH  26  27
HETATM   27  C13 UNL     1      11.038  18.228  12.796  1.00  0.00     0.296 C 
HETATM   28  O2  UNL     1      12.238  18.470  12.600  1.00  0.00    -0.259 OA
BRANCH  27  29
HETATM   29  O3  UNL     1      10.794  16.956  13.331  1.00  0.00    -0.322 OA
HETATM   30  C14 UNL     1      11.608  15.840  13.025  1.00  0.00     0.213 C 
ENDBRANCH  27  29
ENDBRANCH  26  27
ENDBRANCH  18  20
ENDBRANCH   8  18
BRANCH   7  31
HETATM   31  C20 UNL     1      15.085  19.682  17.972  1.00  0.00     0.235 C 
HETATM   32  O4  UNL     1      15.863  18.754  17.631  1.00  0.00    -0.272 OA
HETATM   33  N4  UNL     1      15.711  20.864  18.453  1.00  0.00    -0.347 N 
BRANCH  33  34
HETATM   34  C21 UNL     1      14.893  21.963  18.821  1.00  0.00     0.128 C 
BRANCH  34  35
HETATM   35  C22 UNL     1      14.610  22.912  17.665  1.00  0.00     0.040 C 
BRANCH  35  36
HETATM   36  C23 UNL     1      15.685  23.976  17.703  1.00  0.00     0.133 C 
BRANCH  36  37
HETATM   37  N5  UNL     1      16.005  24.326  16.326  1.00  0.00    -0.320 N 
ATOM     38  H5  UNL     1      15.327  24.329  15.564  1.00  0.00     0.172 HD
BRANCH  37  39
HETATM   39  S2  UNL     1      17.667  24.732  16.140  1.00  0.00     0.222 S 
HETATM   40  C24 UNL     1      18.432  24.959  17.721  1.00  0.00     0.185 C 
HETATM   41  O5  UNL     1      17.745  26.026  15.379  1.00  0.00    -0.206 OA
HETATM   42  O6  UNL     1      18.390  23.689  15.337  1.00  0.00    -0.206 OA
ENDBRANCH  37  39
ENDBRANCH  36  37
ENDBRANCH  35  36
ENDBRANCH  34  35
ENDBRANCH  33  34
BRANCH  33  43
HETATM   43  C25 UNL     1      17.123  20.920  18.501  1.00  0.00     0.082 C 
HETATM   44  C26 UNL     1      17.839  21.131  17.211  1.00  0.00     0.032 C 
BRANCH  43  45
HETATM   45  C27 UNL     1      17.758  21.804  19.536  1.00  0.00     0.020 C 
HETATM   46  C28 UNL     1      19.192  21.582  19.851  1.00  0.00     0.007 C 
ENDBRANCH  43  45
ENDBRANCH  33  43
ENDBRANCH   7  31
ENDBRANCH   3   4
TORSDOF 14
ENDMDL
MODEL 3
REMARK VINA RESULT: -8.320740171      2.096      9.732
REMARK  14 active torsions:
REMARK  status: ('A' for Active; 'I' for Inactive)
REMARK    1  A    between atoms: C3_3  and  N1_4 
REMARK    2  A    between atoms: C6_8  and  O1_9 
REMARK    3  A    between atoms: C6_8  and  N2_11 
REMARK    4  A    between atoms: N2_11  and  C7_13 
REMARK    5  A    between atoms: C12_19  and  C13_20 
REMARK    6  A    between atoms: C13_20  and  O3_22 
REMARK    7  A    between atoms: C19_30  and  C20_31 
REMARK       I    between atoms: C20_31  and  N4_33 
REMARK    8  A    between atoms: N4_33  and  C21_34 
REMARK    9  A    between atoms: N4_33  and  C25_43 
REMARK   10  A    between atoms: C21_34  and  C22_35 
REMARK   11  A    between atoms: C22_35  and  C23_36 
REMARK   12  A    between atoms: C23_36  and  N5_37 
REMARK   13  A    between atoms: N5_37  and  S2_39 
REMARK   14  A    between atoms: C25_43  and  C27_45 
ROOT
HETATM    1  C1  UNL     1      15.990  22.337  13.433  1.00  0.00     0.018 C 
HETATM    2  C2  UNL     1      15.298  21.390  13.710  1.00  0.00    -0.072 C 
HETATM    3  C3  UNL     1      14.432  20.236  14.076  1.00  0.00     0.152 C 
ENDROOT
BRANCH   3   4
HETATM    4  N1  UNL     1      14.209  20.085  15.423  1.00  0.00    -0.360 N 
HETATM    5  C4  UNL     1      13.284  19.867  16.260  1.00  0.00     0.044 C 
HETATM    6  C5  UNL     1      11.844  19.684  15.813  1.00  0.00     0.061 C 
HETATM    7  C19 UNL     1      13.578  19.651  17.696  1.00  0.00     0.174 C 
HETATM    8  C6  UNL     1      11.249  20.615  14.920  1.00  0.00     0.155 C 
HETATM    9  C15 UNL     1      11.345  18.576  16.329  1.00  0.00     0.021 C 
HETATM   10  C16 UNL     1       9.954  18.160  16.010  1.00  0.00     0.069 C 
HETATM   11  N3  UNL     1      12.003  17.926  17.435  1.00  0.00    -0.365 N 
HETATM   12  C17 UNL     1      13.048  18.318  18.032  1.00  0.00     0.002 C 
ATOM     13  H3  UNL     1      11.583  17.060  17.772  1.00  0.00     0.165 HD
HETATM   14  C18 UNL     1      13.562  17.484  19.132  1.00  0.00     0.064 C 
ATOM     15  H1  UNL     1      15.094  20.181  15.921  1.00  0.00     0.165 HD
BRANCH   8  16
HETATM   16  O1  UNL     1      11.987  21.691  14.705  1.00  0.00    -0.345 OA
ATOM     17  H1  UNL     1      11.490  22.440  14.401  1.00  0.00     0.219 HD
ENDBRANCH   8  16
BRANCH   8  18
HETATM   18  N2  UNL     1      10.042  20.586  14.239  1.00  0.00    -0.330 N 
ATOM     19  H2  UNL     1       9.212  20.930  14.722  1.00  0.00     0.168 HD
BRANCH  18  20
HETATM   20  C7  UNL     1       9.883  20.093  12.868  1.00  0.00     0.093 A 
HETATM   21  S1  UNL     1      10.794  18.762  12.226  1.00  0.00    -0.076 SA
HETATM   22  C8  UNL     1      10.097  18.680  10.692  1.00  0.00    -0.012 A 
HETATM   23  C9  UNL     1      10.445  17.712   9.582  1.00  0.00     0.057 C 
HETATM   24  C10 UNL     1       9.170  19.676  10.701  1.00  0.00    -0.030 A 
HETATM   25  C11 UNL     1       8.338  19.908   9.446  1.00  0.00     0.050 C 
HETATM   26  C12 UNL     1       9.055  20.416  11.855  1.00  0.00     0.080 A 
BRANCH  26  27
HETATM   27  C13 UNL     1       7.861  21.312  12.022  1.00  0.00     0.296 C 
HETATM   28  O2  UNL     1       7.884  22.412  12.594  1.00  0.00    -0.259 OA
BRANCH  27  29
HETATM   29  O3  UNL     1       6.601  20.955  11.525  1.00  0.00    -0.322 OA
HETATM   30  C14 UNL     1       5.795  21.857  10.792  1.00  0.00     0.213 C 
ENDBRANCH  27  29
ENDBRANCH  26  27
ENDBRANCH  18  20
ENDBRANCH   8  18
BRANCH   7  31
HETATM   31  C20 UNL     1      14.997  19.831  17.957  1.00  0.00     0.235 C 
HETATM   32  O4  UNL     1      15.753  18.846  17.754  1.00  0.00    -0.272 OA
HETATM   33  N4  UNL     1      15.635  21.010  18.429  1.00  0.00    -0.347 N 
BRANCH  33  34
HETATM   34  C21 UNL     1      14.847  22.168  18.645  1.00  0.00     0.128 C 
BRANCH  34  35
HETATM   35  C22 UNL     1      14.775  23.079  17.427  1.00  0.00     0.040 C 
BRANCH  35  36
HETATM   36  C23 UNL     1      15.882  24.098  17.581  1.00  0.00     0.133 C 
BRANCH  36  37
HETATM   37  N5  UNL     1      16.231  24.572  16.249  1.00  0.00    -0.320 N 
ATOM     38  H5  UNL     1      15.552  24.751  15.509  1.00  0.00     0.172 HD
BRANCH  37  39
HETATM   39  S2  UNL     1      17.928  24.794  16.074  1.00  0.00     0.222 S 
HETATM   40  C24 UNL     1      18.690  25.042  17.653  1.00  0.00     0.185 C 
HETATM   41  O5  UNL     1      18.150  26.022  15.235  1.00  0.00    -0.206 OA
HETATM   42  O6  UNL     1      18.552  23.634  15.352  1.00  0.00    -0.206 OA
ENDBRANCH  37  39
ENDBRANCH  36  37
ENDBRANCH  35  36
ENDBRANCH  34  35
ENDBRANCH  33  34
BRANCH  33  43
HETATM   43  C25 UNL     1      17.037  20.999  18.620  1.00  0.00     0.082 C 
HETATM   44  C26 UNL     1      17.889  21.128  17.405  1.00  0.00     0.032 C 
BRANCH  43  45
HETATM   45  C27 UNL     1      17.609  21.889  19.687  1.00  0.00     0.020 C 
HETATM   46  C28 UNL     1      19.084  21.909  19.854  1.00  0.00     0.007 C 
ENDBRANCH  43  45
ENDBRANCH  33  43
ENDBRANCH   7  31
ENDBRANCH   3   4
TORSDOF 14
ENDMDL
MODEL 4
REMARK VINA RESULT: -8.285645269      2.691     10.103
REMARK  14 active torsions:
REMARK  status: ('A' for Active; 'I' for Inactive)
REMARK    1  A    between atoms: C3_3  and  N1_4 
REMARK    2  A    between atoms: C6_8  and  O1_9 
REMARK    3  A    between atoms: C6_8  and  N2_11 
REMARK    4  A    between atoms: N2_11  and  C7_13 
REMARK    5  A    between atoms: C12_19  and  C13_20 
REMARK    6  A    between atoms: C13_20  and  O3_22 
REMARK    7  A    between atoms: C19_30  and  C20_31 
REMARK       I    between atoms: C20_31  and  N4_33 
REMARK    8  A    between atoms: N4_33  and  C21_34 
REMARK    9  A    between atoms: N4_33  and  C25_43 
REMARK   10  A    between atoms: C21_34  and  C22_35 
REMARK   11  A    between atoms: C22_35  and  C23_36 
REMARK   12  A    between atoms: C23_36  and  N5_37 
REMARK   13  A    between atoms: N5_37  and  S2_39 
REMARK   14  A    between atoms: C25_43  and  C27_45 
ROOT
HETATM    1  C1  UNL     1      12.632  17.758  20.529  1.00  0.00     0.018 C 
HETATM    2  C2  UNL     1      12.116  18.384  19.638  1.00  0.00    -0.072 C 
HETATM    3  C3  UNL     1      11.502  19.154  18.521  1.00  0.00     0.152 C 
ENDROOT
BRANCH   3   4
HETATM    4  N1  UNL     1      12.395  19.846  17.738  1.00  0.00    -0.360 N 
HETATM    5  C4  UNL     1      12.609  20.185  16.537  1.00  0.00     0.044 C 
HETATM    6  C5  UNL     1      11.660  19.779  15.422  1.00  0.00     0.061 C 
HETATM    7  C19 UNL     1      13.717  21.101  16.180  1.00  0.00     0.174 C 
HETATM    8  C6  UNL     1      11.240  18.428  15.298  1.00  0.00     0.155 C 
HETATM    9  C15 UNL     1      11.311  20.838  14.715  1.00  0.00     0.021 C 
HETATM   10  C16 UNL     1      10.358  20.701  13.582  1.00  0.00     0.069 C 
HETATM   11  N3  UNL     1      12.065  22.063  14.814  1.00  0.00    -0.365 N 
HETATM   12  C17 UNL     1      13.100  22.261  15.514  1.00  0.00     0.002 C 
ATOM     13  H3  UNL     1      11.729  22.852  14.262  1.00  0.00     0.165 HD
HETATM   14  C18 UNL     1      13.703  23.605  15.480  1.00  0.00     0.064 C 
ATOM     15  H1  UNL     1      13.143  20.212  18.326  1.00  0.00     0.165 HD
BRANCH   8  16
HETATM   16  O1  UNL     1      11.893  17.595  16.091  1.00  0.00    -0.345 OA
ATOM     17  H1  UNL     1      12.597  17.127  15.657  1.00  0.00     0.219 HD
ENDBRANCH   8  16
BRANCH   8  18
HETATM   18  N2  UNL     1      10.272  17.841  14.499  1.00  0.00    -0.330 N 
ATOM     19  H2  UNL     1       9.360  18.294  14.442  1.00  0.00     0.168 HD
BRANCH  18  20
HETATM   20  C7  UNL     1      10.476  16.610  13.730  1.00  0.00     0.093 A 
HETATM   21  S1  UNL     1      11.174  16.586  12.142  1.00  0.00    -0.076 SA
HETATM   22  C8  UNL     1      11.183  14.920  11.882  1.00  0.00    -0.012 A 
HETATM   23  C9  UNL     1      11.673  14.191  10.648  1.00  0.00     0.057 C 
HETATM   24  C10 UNL     1      10.654  14.408  13.025  1.00  0.00    -0.030 A 
HETATM   25  C11 UNL     1      10.495  12.897  13.142  1.00  0.00     0.050 C 
HETATM   26  C12 UNL     1      10.287  15.303  14.003  1.00  0.00     0.080 A 
BRANCH  26  27
HETATM   27  C13 UNL     1       9.986  14.785  15.380  1.00  0.00     0.296 C 
HETATM   28  O2  UNL     1       8.860  14.438  15.768  1.00  0.00    -0.259 OA
BRANCH  27  29
HETATM   29  O3  UNL     1      10.988  14.650  16.349  1.00  0.00    -0.322 OA
HETATM   30  C14 UNL     1      10.729  14.810  17.731  1.00  0.00     0.213 C 
ENDBRANCH  27  29
ENDBRANCH  26  27
ENDBRANCH  18  20
ENDBRANCH   8  18
BRANCH   7  31
HETATM   31  C20 UNL     1      14.512  21.419  17.355  1.00  0.00     0.235 C 
HETATM   32  O4  UNL     1      13.894  21.679  18.420  1.00  0.00    -0.272 OA
HETATM   33  N4  UNL     1      15.930  21.478  17.437  1.00  0.00    -0.347 N 
BRANCH  33  34
HETATM   34  C21 UNL     1      16.689  21.162  16.282  1.00  0.00     0.128 C 
BRANCH  34  35
HETATM   35  C22 UNL     1      16.820  22.330  15.314  1.00  0.00     0.040 C 
BRANCH  35  36
HETATM   36  C23 UNL     1      18.080  23.074  15.698  1.00  0.00     0.133 C 
BRANCH  36  37
HETATM   37  N5  UNL     1      17.732  24.481  15.840  1.00  0.00    -0.320 N 
ATOM     38  H5  UNL     1      16.803  24.819  16.092  1.00  0.00     0.172 HD
BRANCH  37  39
HETATM   39  S2  UNL     1      19.079  25.506  15.531  1.00  0.00     0.222 S 
HETATM   40  C24 UNL     1      20.500  24.548  15.083  1.00  0.00     0.185 C 
HETATM   41  O5  UNL     1      19.388  26.258  16.796  1.00  0.00    -0.206 OA
HETATM   42  O6  UNL     1      18.755  26.518  14.470  1.00  0.00    -0.206 OA
ENDBRANCH  37  39
ENDBRANCH  36  37
ENDBRANCH  35  36
ENDBRANCH  34  35
ENDBRANCH  33  34
BRANCH  33  43
HETATM   43  C25 UNL     1      16.531  21.801  18.676  1.00  0.00     0.082 C 
HETATM   44  C26 UNL     1      17.780  21.073  19.035  1.00  0.00     0.032 C 
BRANCH  43  45
HETATM   45  C27 UNL     1      16.727  23.253  19.006  1.00  0.00     0.020 C 
HETATM   46  C28 UNL     1      18.086  23.696  19.404  1.00  0.00     0.007 C 
ENDBRANCH  43  45
ENDBRANCH  33  43
ENDBRANCH   7  31
ENDBRANCH   3   4
TORSDOF 14
ENDMDL
MODEL 5
REMARK VINA RESULT: -8.284734017      2.719      4.737
REMARK  14 active torsions:
REMARK  status: ('A' for Active; 'I' for Inactive)
REMARK    1  A    between atoms: C3_3  and  N1_4 
REMARK    2  A    between atoms: C6_8  and  O1_9 
REMARK    3  A    between atoms: C6_8  and  N2_11 
REMARK    4  A    between atoms: N2_11  and  C7_13 
REMARK    5  A    between atoms: C12_19  and  C13_20 
REMARK    6  A    between atoms: C13_20  and  O3_22 
REMARK    7  A    between atoms: C19_30  and  C20_31 
REMARK       I    between atoms: C20_31  and  N4_33 
REMARK    8  A    between atoms: N4_33  and  C21_34 
REMARK    9  A    between atoms: N4_33  and  C25_43 
REMARK   10  A    between atoms: C21_34  and  C22_35 
REMARK   11  A    between atoms: C22_35  and  C23_36 
REMARK   12  A    between atoms: C23_36  and  N5_37 
REMARK   13  A    between atoms: N5_37  and  S2_39 
REMARK   14  A    between atoms: C25_43  and  C27_45 
ROOT
HETATM    1  C1  UNL     1      20.032  21.684  21.676  1.00  0.00     0.018 C 
HETATM    2  C2  UNL     1      20.091  22.067  20.535  1.00  0.00    -0.072 C 
HETATM    3  C3  UNL     1      20.138  22.550  19.128  1.00  0.00     0.152 C 
ENDROOT
BRANCH   3   4
HETATM    4  N1  UNL     1      18.927  22.552  18.478  1.00  0.00    -0.360 N 
HETATM    5  C4  UNL     1      18.245  23.222  17.647  1.00  0.00     0.044 C 
HETATM    6  C5  UNL     1      18.781  24.508  17.042  1.00  0.00     0.061 C 
HETATM    7  C19 UNL     1      16.954  22.718  17.125  1.00  0.00     0.174 C 
HETATM    8  C6  UNL     1      19.335  25.514  17.879  1.00  0.00     0.155 C 
HETATM    9  C15 UNL     1      18.683  24.468  15.726  1.00  0.00     0.021 C 
HETATM   10  C16 UNL     1      19.175  25.604  14.903  1.00  0.00     0.069 C 
HETATM   11  N3  UNL     1      17.833  23.494  15.088  1.00  0.00    -0.365 N 
HETATM   12  C17 UNL     1      17.101  22.636  15.661  1.00  0.00     0.002 C 
ATOM     13  H3  UNL     1      17.821  23.498  14.068  1.00  0.00     0.165 HD
HETATM   14  C18 UNL     1      16.324  21.720  14.808  1.00  0.00     0.064 C 
ATOM     15  H1  UNL     1      18.392  21.732  18.764  1.00  0.00     0.165 HD
BRANCH   8  16
HETATM   16  O1  UNL     1      19.151  25.291  19.170  1.00  0.00    -0.345 OA
ATOM     17  H1  UNL     1      18.622  25.954  19.600  1.00  0.00     0.219 HD
ENDBRANCH   8  16
BRANCH   8  18
HETATM   18  N2  UNL     1      20.031  26.674  17.577  1.00  0.00    -0.330 N 
ATOM     19  H2  UNL     1      19.492  27.514  17.368  1.00  0.00     0.168 HD
BRANCH  18  20
HETATM   20  C7  UNL     1      21.493  26.769  17.541  1.00  0.00     0.093 A 
HETATM   21  S1  UNL     1      22.390  27.059  16.083  1.00  0.00    -0.076 SA
HETATM   22  C8  UNL     1      23.944  27.119  16.737  1.00  0.00    -0.012 A 
HETATM   23  C9  UNL     1      25.241  27.342  15.988  1.00  0.00     0.057 C 
HETATM   24  C10 UNL     1      23.746  26.920  18.068  1.00  0.00    -0.030 A 
HETATM   25  C11 UNL     1      24.960  26.898  18.989  1.00  0.00     0.050 C 
HETATM   26  C12 UNL     1      22.449  26.742  18.490  1.00  0.00     0.080 A 
BRANCH  26  27
HETATM   27  C13 UNL     1      22.152  26.821  19.960  1.00  0.00     0.296 C 
HETATM   28  O2  UNL     1      22.291  27.842  20.650  1.00  0.00    -0.259 OA
BRANCH  27  29
HETATM   29  O3  UNL     1      21.680  25.712  20.675  1.00  0.00    -0.322 OA
HETATM   30  C14 UNL     1      22.552  24.796  21.309  1.00  0.00     0.213 C 
ENDBRANCH  27  29
ENDBRANCH  26  27
ENDBRANCH  18  20
ENDBRANCH   8  18
BRANCH   7  31
HETATM   31  C20 UNL     1      16.595  21.468  17.776  1.00  0.00     0.235 C 
HETATM   32  O4  UNL     1      17.511  20.625  17.958  1.00  0.00    -0.272 OA
HETATM   33  N4  UNL     1      15.305  21.083  18.231  1.00  0.00    -0.347 N 
BRANCH  33  34
HETATM   34  C21 UNL     1      14.233  22.001  18.089  1.00  0.00     0.128 C 
BRANCH  34  35
HETATM   35  C22 UNL     1      13.689  22.070  16.669  1.00  0.00     0.040 C 
BRANCH  35  36
HETATM   36  C23 UNL     1      13.060  20.725  16.379  1.00  0.00     0.133 C 
BRANCH  36  37
HETATM   37  N5  UNL     1      11.727  20.969  15.846  1.00  0.00    -0.320 N 
ATOM     38  H5  UNL     1      11.482  21.768  15.261  1.00  0.00     0.172 HD
BRANCH  37  39
HETATM   39  S2  UNL     1      10.614  19.746  16.323  1.00  0.00     0.222 S 
HETATM   40  C24 UNL     1      11.122  18.167  15.703  1.00  0.00     0.185 C 
HETATM   41  O5  UNL     1       9.274  20.085  15.732  1.00  0.00    -0.206 OA
HETATM   42  O6  UNL     1      10.456  19.714  17.816  1.00  0.00    -0.206 OA
ENDBRANCH  37  39
ENDBRANCH  36  37
ENDBRANCH  35  36
ENDBRANCH  34  35
ENDBRANCH  33  34
BRANCH  33  43
HETATM   43  C25 UNL     1      15.147  19.822  18.852  1.00  0.00     0.082 C 
HETATM   44  C26 UNL     1      14.298  19.768  20.075  1.00  0.00     0.032 C 
BRANCH  43  45
HETATM   45  C27 UNL     1      14.788  18.650  17.984  1.00  0.00     0.020 C 
HETATM   46  C28 UNL     1      14.247  17.437  18.646  1.00  0.00     0.007 C 
ENDBRANCH  43  45
ENDBRANCH  33  43
ENDBRANCH   7  31
ENDBRANCH   3   4
TORSDOF 14
ENDMDL
