MODEL 1
REMARK VINA RESULT: -8.391479488      0.000      0.000
REMARK  11 active torsions:
REMARK  status: ('A' for Active; 'I' for Inactive)
REMARK    1  A    between atoms: C5_6  and  O1_7 
REMARK    2  A    between atoms: O1_7  and  C6_8 
REMARK    3  A    between atoms: C6_8  and  C7_9 
REMARK    4  A    between atoms: C7_9  and  N1_10 
REMARK    5  A    between atoms: N1_10  and  C8_13 
REMARK    6  A    between atoms: C8_13  and  C9_14 
REMARK    7  A    between atoms: C9_14  and  C10_15 
REMARK    8  A    between atoms: C10_15  and  N2_16 
REMARK    9  A    between atoms: N2_16  and  C11_19 
REMARK   10  A    between atoms: N4_24  and  C15_25 
REMARK   11  A    between atoms: C15_25  and  C16_26 
ROOT
HETATM    1  C11 UNL     1      14.548  22.212  18.778  1.00  0.00     0.231 C 
HETATM    2  C12 UNL     1      13.378  22.524  17.921  1.00  0.00     0.100 C 
HETATM    3  N3  UNL     1      12.471  22.777  17.245  1.00  0.00    -0.195 NA
HETATM    4  C13 UNL     1      14.549  23.148  19.941  1.00  0.00     0.086 C 
HETATM    5  C14 UNL     1      14.891  24.525  19.519  1.00  0.00     0.276 C 
HETATM    6  N4  UNL     1      16.045  24.703  18.676  1.00  0.00     0.097 N 
HETATM    7  C19 UNL     1      16.665  23.500  18.260  1.00  0.00     0.295 C 
HETATM    8  C20 UNL     1      15.763  22.359  17.917  1.00  0.00     0.171 C 
HETATM    9  C21 UNL     1      15.418  22.377  16.492  1.00  0.00     0.069 C 
HETATM   10  N7  UNL     1      15.166  22.395  15.351  1.00  0.00    -0.197 NA
ENDROOT
BRANCH   1  11
HETATM   11  N2  UNL     1      14.364  20.853  19.246  1.00  0.00    -0.052 N 
ATOM     12  H22 UNL     1      13.633  20.779  19.953  1.00  0.00     0.279 HD
ATOM     13  H21 UNL     1      15.144  20.527  19.817  1.00  0.00     0.279 HD
BRANCH  11  14
HETATM   14  C10 UNL     1      14.120  20.004  18.109  1.00  0.00     0.236 C 
BRANCH  14  15
HETATM   15  C9  UNL     1      13.112  18.921  18.478  1.00  0.00     0.055 C 
BRANCH  15  16
HETATM   16  C8  UNL     1      11.989  19.502  19.278  1.00  0.00     0.234 C 
BRANCH  16  17
HETATM   17  N1  UNL     1      11.443  18.585  20.226  1.00  0.00    -0.073 N 
ATOM     18  H12 UNL     1      12.020  18.542  21.066  1.00  0.00     0.277 HD
ATOM     19  H11 UNL     1      11.546  17.622  19.904  1.00  0.00     0.277 HD
BRANCH  17  20
HETATM   20  C7  UNL     1      10.071  18.872  20.559  1.00  0.00     0.258 C 
BRANCH  20  21
HETATM   21  C6  UNL     1       9.285  19.598  19.569  1.00  0.00     0.203 C 
BRANCH  21  22
HETATM   22  O1  UNL     1       8.622  19.094  18.515  1.00  0.00    -0.347 OA
BRANCH  22  23
HETATM   23  C5  UNL     1       8.772  18.227  17.516  1.00  0.00     0.103 A 
HETATM   24  C4  UNL     1       9.459  18.421  16.363  1.00  0.00     0.046 A 
HETATM   25  C3  UNL     1       9.536  17.414  15.375  1.00  0.00     0.028 A 
HETATM   26 BR1  UNL     1      10.437  20.000  15.951  1.00  0.00    -0.048 Br
HETATM   27  C2  UNL     1       8.914  16.196  15.555  1.00  0.00    -0.059 A 
HETATM   28  C1  UNL     1       9.000  15.121  14.519  1.00  0.00     0.048 C 
HETATM   29  C23 UNL     1       8.227  16.020  16.729  1.00  0.00     0.028 A 
HETATM   30  C22 UNL     1       8.140  16.976  17.691  1.00  0.00     0.046 A 
HETATM   31 BR2  UNL     1       7.147  16.625  19.303  1.00  0.00    -0.048 Br
ENDBRANCH  22  23
ENDBRANCH  21  22
ENDBRANCH  20  21
ENDBRANCH  17  20
ENDBRANCH  16  17
ENDBRANCH  15  16
ENDBRANCH  14  15
ENDBRANCH  11  14
ENDBRANCH   1  11
BRANCH   6  32
HETATM   32  C15 UNL     1      16.952  25.664  19.205  1.00  0.00     0.347 C 
BRANCH  32  33
HETATM   33  C16 UNL     1      17.647  26.443  18.178  1.00  0.00     0.101 C 
HETATM   34  N5  UNL     1      17.447  26.187  16.896  1.00  0.00    -0.377 N 
HETATM   35  C17 UNL     1      18.208  27.052  16.064  1.00  0.00     0.140 C 
ATOM     36  H5  UNL     1      16.823  25.460  16.547  1.00  0.00     0.160 HD
HETATM   37  C18 UNL     1      19.217  27.687  16.971  1.00  0.00     0.140 C 
HETATM   38  N6  UNL     1      18.565  27.519  18.266  1.00  0.00    -0.377 N 
ATOM     39  H6  UNL     1      18.741  28.083  19.097  1.00  0.00     0.160 HD
ENDBRANCH  32  33
ENDBRANCH   6  32
TORSDOF 11
ENDMDL
MODEL 2
REMARK VINA RESULT: -8.373048848      0.105      1.646
REMARK  11 active torsions:
REMARK  status: ('A' for Active; 'I' for Inactive)
REMARK    1  A    between atoms: C5_6  and  O1_7 
REMARK    2  A    between atoms: O1_7  and  C6_8 
REMARK    3  A    between atoms: C6_8  and  C7_9 
REMARK    4  A    between atoms: C7_9  and  N1_10 
REMARK    5  A    between atoms: N1_10  and  C8_13 
REMARK    6  A    between atoms: C8_13  and  C9_14 
REMARK    7  A    between atoms: C9_14  and  C10_15 
REMARK    8  A    between atoms: C10_15  and  N2_16 
REMARK    9  A    between atoms: N2_16  and  C11_19 
REMARK   10  A    between atoms: N4_24  and  C15_25 
REMARK   11  A    between atoms: C15_25  and  C16_26 
ROOT
HETATM    1  C11 UNL     1      14.581  22.208  18.795  1.00  0.00     0.231 C 
HETATM    2  C12 UNL     1      13.404  22.526  17.951  1.00  0.00     0.100 C 
HETATM    3  N3  UNL     1      12.491  22.785  17.284  1.00  0.00    -0.195 NA
HETATM    4  C13 UNL     1      14.593  23.136  19.965  1.00  0.00     0.086 C 
HETATM    5  C14 UNL     1      14.931  24.516  19.549  1.00  0.00     0.276 C 
HETATM    6  N4  UNL     1      16.078  24.700  18.697  1.00  0.00     0.097 N 
HETATM    7  C19 UNL     1      16.694  23.500  18.267  1.00  0.00     0.295 C 
HETATM    8  C20 UNL     1      15.789  22.361  17.924  1.00  0.00     0.171 C 
HETATM    9  C21 UNL     1      15.431  22.390  16.502  1.00  0.00     0.069 C 
HETATM   10  N7  UNL     1      15.169  22.416  15.364  1.00  0.00    -0.197 NA
ENDROOT
BRANCH   1  11
HETATM   11  N2  UNL     1      14.401  20.846  19.255  1.00  0.00    -0.052 N 
ATOM     12  H22 UNL     1      13.644  20.760  19.933  1.00  0.00     0.279 HD
ATOM     13  H21 UNL     1      15.164  20.532  19.856  1.00  0.00     0.279 HD
BRANCH  11  14
HETATM   14  C10 UNL     1      14.215  19.995  18.109  1.00  0.00     0.236 C 
BRANCH  14  15
HETATM   15  C9  UNL     1      13.162  18.935  18.416  1.00  0.00     0.055 C 
BRANCH  15  16
HETATM   16  C8  UNL     1      12.065  19.514  19.253  1.00  0.00     0.234 C 
BRANCH  16  17
HETATM   17  N1  UNL     1      11.453  18.556  20.116  1.00  0.00    -0.073 N 
ATOM     18  H12 UNL     1      12.025  18.391  20.943  1.00  0.00     0.277 HD
ATOM     19  H11 UNL     1      11.483  17.623  19.704  1.00  0.00     0.277 HD
BRANCH  17  20
HETATM   20  C7  UNL     1      10.106  18.913  20.484  1.00  0.00     0.258 C 
BRANCH  20  21
HETATM   21  C6  UNL     1       9.346  19.714  19.531  1.00  0.00     0.203 C 
BRANCH  21  22
HETATM   22  O1  UNL     1       8.885  19.340  18.327  1.00  0.00    -0.347 OA
BRANCH  22  23
HETATM   23  C5  UNL     1       8.855  18.289  17.510  1.00  0.00     0.103 A 
HETATM   24  C4  UNL     1       8.221  17.109  17.721  1.00  0.00     0.046 A 
HETATM   25  C3  UNL     1       8.273  16.067  16.769  1.00  0.00     0.028 A 
HETATM   26 BR1  UNL     1       7.152  16.725  19.247  1.00  0.00    -0.048 Br
HETATM   27  C2  UNL     1       8.973  16.218  15.590  1.00  0.00    -0.059 A 
HETATM   28  C1  UNL     1       9.024  15.123  14.573  1.00  0.00     0.048 C 
HETATM   29  C23 UNL     1       9.605  17.419  15.397  1.00  0.00     0.028 A 
HETATM   30  C22 UNL     1       9.568  18.435  16.299  1.00  0.00     0.046 A 
HETATM   31 BR2  UNL     1      10.494  20.081  15.928  1.00  0.00    -0.048 Br
ENDBRANCH  22  23
ENDBRANCH  21  22
ENDBRANCH  20  21
ENDBRANCH  17  20
ENDBRANCH  16  17
ENDBRANCH  15  16
ENDBRANCH  14  15
ENDBRANCH  11  14
ENDBRANCH   1  11
BRANCH   6  32
HETATM   32  C15 UNL     1      16.990  25.656  19.225  1.00  0.00     0.347 C 
BRANCH  32  33
HETATM   33  C16 UNL     1      17.688  26.432  18.197  1.00  0.00     0.101 C 
HETATM   34  N5  UNL     1      17.441  26.217  16.916  1.00  0.00    -0.377 N 
HETATM   35  C17 UNL     1      18.215  27.070  16.083  1.00  0.00     0.140 C 
ATOM     36  H5  UNL     1      16.777  25.525  16.568  1.00  0.00     0.160 HD
HETATM   37  C18 UNL     1      19.276  27.639  16.975  1.00  0.00     0.140 C 
HETATM   38  N6  UNL     1      18.654  27.465  18.284  1.00  0.00    -0.377 N 
ATOM     39  H6  UNL     1      18.877  28.000  19.123  1.00  0.00     0.160 HD
ENDBRANCH  32  33
ENDBRANCH   6  32
TORSDOF 11
ENDMDL
MODEL 3
REMARK VINA RESULT: -8.367368566      4.733      9.922
REMARK  11 active torsions:
REMARK  status: ('A' for Active; 'I' for Inactive)
REMARK    1  A    between atoms: C5_6  and  O1_7 
REMARK    2  A    between atoms: O1_7  and  C6_8 
REMARK    3  A    between atoms: C6_8  and  C7_9 
REMARK    4  A    between atoms: C7_9  and  N1_10 
REMARK    5  A    between atoms: N1_10  and  C8_13 
REMARK    6  A    between atoms: C8_13  and  C9_14 
REMARK    7  A    between atoms: C9_14  and  C10_15 
REMARK    8  A    between atoms: C10_15  and  N2_16 
REMARK    9  A    between atoms: N2_16  and  C11_19 
REMARK   10  A    between atoms: N4_24  and  C15_25 
REMARK   11  A    between atoms: C15_25  and  C16_26 
ROOT
HETATM    1  C11 UNL     1       5.911  18.016  19.663  1.00  0.00     0.231 C 
HETATM    2  C12 UNL     1       5.144  17.337  20.736  1.00  0.00     0.100 C 
HETATM    3  N3  UNL     1       4.547  16.794  21.568  1.00  0.00    -0.195 NA
HETATM    4  C13 UNL     1       4.989  18.298  18.524  1.00  0.00     0.086 C 
HETATM    5  C14 UNL     1       4.605  17.051  17.824  1.00  0.00     0.276 C 
HETATM    6  N4  UNL     1       5.654  16.134  17.461  1.00  0.00     0.097 N 
HETATM    7  C19 UNL     1       6.943  16.497  17.919  1.00  0.00     0.295 C 
HETATM    8  C20 UNL     1       7.030  17.095  19.286  1.00  0.00     0.171 C 
HETATM    9  C21 UNL     1       7.240  16.055  20.298  1.00  0.00     0.069 C 
HETATM   10  N7  UNL     1       7.424  15.217  21.091  1.00  0.00    -0.197 NA
ENDROOT
BRANCH   1  11
HETATM   11  N2  UNL     1       6.388  19.263  20.226  1.00  0.00    -0.052 N 
ATOM     12  H22 UNL     1       6.331  19.280  21.244  1.00  0.00     0.279 HD
ATOM     13  H21 UNL     1       5.758  20.043  20.037  1.00  0.00     0.279 HD
BRANCH  11  14
HETATM   14  C10 UNL     1       7.724  19.503  19.744  1.00  0.00     0.236 C 
BRANCH  14  15
HETATM   15  C9  UNL     1       8.611  19.972  20.893  1.00  0.00     0.055 C 
BRANCH  15  16
HETATM   16  C8  UNL     1       9.837  19.118  20.989  1.00  0.00     0.234 C 
BRANCH  16  17
HETATM   17  N1  UNL     1      10.265  18.608  19.727  1.00  0.00    -0.073 N 
ATOM     18  H12 UNL     1       9.611  18.864  18.988  1.00  0.00     0.277 HD
ATOM     19  H11 UNL     1      10.167  17.593  19.691  1.00  0.00     0.277 HD
BRANCH  17  20
HETATM   20  C7  UNL     1      11.608  19.007  19.388  1.00  0.00     0.258 C 
BRANCH  20  21
HETATM   21  C6  UNL     1      11.865  20.436  19.264  1.00  0.00     0.203 C 
BRANCH  21  22
HETATM   22  O1  UNL     1      11.953  21.161  18.136  1.00  0.00    -0.347 OA
BRANCH  22  23
HETATM   23  C5  UNL     1      12.690  21.276  17.034  1.00  0.00     0.103 A 
HETATM   24  C4  UNL     1      13.912  21.855  16.927  1.00  0.00     0.046 A 
HETATM   25  C3  UNL     1      14.590  21.917  15.690  1.00  0.00     0.028 A 
HETATM   26 BR1  UNL     1      14.884  22.584  18.391  1.00  0.00    -0.048 Br
HETATM   27  C2  UNL     1      14.028  21.387  14.546  1.00  0.00    -0.059 A 
HETATM   28  C1  UNL     1      14.745  21.440  13.235  1.00  0.00     0.048 C 
HETATM   29  C23 UNL     1      12.794  20.805  14.678  1.00  0.00     0.028 A 
HETATM   30  C22 UNL     1      12.125  20.735  15.859  1.00  0.00     0.046 A 
HETATM   31 BR2  UNL     1      10.393  19.897  15.931  1.00  0.00    -0.048 Br
ENDBRANCH  22  23
ENDBRANCH  21  22
ENDBRANCH  20  21
ENDBRANCH  17  20
ENDBRANCH  16  17
ENDBRANCH  15  16
ENDBRANCH  14  15
ENDBRANCH  11  14
ENDBRANCH   1  11
BRANCH   6  32
HETATM   32  C15 UNL     1       5.611  15.791  16.080  1.00  0.00     0.347 C 
BRANCH  32  33
HETATM   33  C16 UNL     1       6.908  15.896  15.408  1.00  0.00     0.101 C 
HETATM   34  N5  UNL     1       7.663  14.823  15.242  1.00  0.00    -0.377 N 
HETATM   35  C17 UNL     1       8.875  15.134  14.569  1.00  0.00     0.140 C 
ATOM     36  H5  UNL     1       7.406  13.888  15.557  1.00  0.00     0.160 HD
HETATM   37  C18 UNL     1       8.986  16.628  14.623  1.00  0.00     0.140 C 
HETATM   38  N6  UNL     1       7.591  16.998  14.835  1.00  0.00    -0.377 N 
ATOM     39  H6  UNL     1       7.175  17.902  14.609  1.00  0.00     0.160 HD
ENDBRANCH  32  33
ENDBRANCH   6  32
TORSDOF 11
ENDMDL
MODEL 4
REMARK VINA RESULT: -8.363816330      4.833     11.744
REMARK  11 active torsions:
REMARK  status: ('A' for Active; 'I' for Inactive)
REMARK    1  A    between atoms: C5_6  and  O1_7 
REMARK    2  A    between atoms: O1_7  and  C6_8 
REMARK    3  A    between atoms: C6_8  and  C7_9 
REMARK    4  A    between atoms: C7_9  and  N1_10 
REMARK    5  A    between atoms: N1_10  and  C8_13 
REMARK    6  A    between atoms: C8_13  and  C9_14 
REMARK    7  A    between atoms: C9_14  and  C10_15 
REMARK    8  A    between atoms: C10_15  and  N2_16 
REMARK    9  A    between atoms: N2_16  and  C11_19 
REMARK   10  A    between atoms: N4_24  and  C15_25 
REMARK   11  A    between atoms: C15_25  and  C16_26 
ROOT
HETATM    1  C11 UNL     1       6.696  16.911  17.311  1.00  0.00     0.231 C 
HETATM    2  C12 UNL     1       7.555  15.986  18.090  1.00  0.00     0.100 C 
HETATM    3  N3  UNL     1       8.221  15.253  18.692  1.00  0.00    -0.195 NA
HETATM    4  C13 UNL     1       5.345  16.954  17.944  1.00  0.00     0.086 C 
HETATM    5  C14 UNL     1       4.617  15.681  17.739  1.00  0.00     0.276 C 
HETATM    6  N4  UNL     1       4.575  15.137  16.405  1.00  0.00     0.097 N 
HETATM    7  C19 UNL     1       5.342  15.850  15.452  1.00  0.00     0.295 C 
HETATM    8  C20 UNL     1       6.660  16.386  15.909  1.00  0.00     0.171 C 
HETATM    9  C21 UNL     1       7.730  15.413  15.668  1.00  0.00     0.069 C 
HETATM   10  N7  UNL     1       8.575  14.635  15.454  1.00  0.00    -0.197 NA
ENDROOT
BRANCH   1  11
HETATM   11  N2  UNL     1       7.316  18.217  17.395  1.00  0.00    -0.052 N 
ATOM     12  H22 UNL     1       7.142  18.787  16.567  1.00  0.00     0.279 HD
ATOM     13  H21 UNL     1       8.333  18.173  17.324  1.00  0.00     0.279 HD
BRANCH  11  14
HETATM   14  C10 UNL     1       6.876  18.857  18.608  1.00  0.00     0.236 C 
BRANCH  14  15
HETATM   15  C9  UNL     1       7.995  19.729  19.168  1.00  0.00     0.055 C 
BRANCH  15  16
HETATM   16  C8  UNL     1       9.052  18.881  19.802  1.00  0.00     0.234 C 
BRANCH  16  17
HETATM   17  N1  UNL     1      10.342  19.494  19.795  1.00  0.00    -0.073 N 
ATOM     18  H12 UNL     1      10.940  19.077  19.081  1.00  0.00     0.277 HD
ATOM     19  H11 UNL     1      10.872  19.238  20.628  1.00  0.00     0.277 HD
BRANCH  17  20
HETATM   20  C7  UNL     1      10.280  20.926  19.644  1.00  0.00     0.258 C 
BRANCH  20  21
HETATM   21  C6  UNL     1      11.459  21.588  19.099  1.00  0.00     0.203 C 
BRANCH  21  22
HETATM   22  O1  UNL     1      12.386  21.071  18.277  1.00  0.00    -0.347 OA
BRANCH  22  23
HETATM   23  C5  UNL     1      12.791  21.122  17.010  1.00  0.00     0.103 A 
HETATM   24  C4  UNL     1      12.145  20.626  15.926  1.00  0.00     0.046 A 
HETATM   25  C3  UNL     1      12.690  20.743  14.628  1.00  0.00     0.028 A 
HETATM   26 BR1  UNL     1      10.438  19.788  15.986  1.00  0.00    -0.048 Br
HETATM   27  C2  UNL     1      13.902  21.370  14.423  1.00  0.00    -0.059 A 
HETATM   28  C1  UNL     1      14.481  21.507  13.050  1.00  0.00     0.048 C 
HETATM   29  C23 UNL     1      14.538  21.865  15.532  1.00  0.00     0.028 A 
HETATM   30  C22 UNL     1      14.030  21.763  16.789  1.00  0.00     0.046 A 
HETATM   31 BR2  UNL     1      15.008  22.491  18.279  1.00  0.00    -0.048 Br
ENDBRANCH  22  23
ENDBRANCH  21  22
ENDBRANCH  20  21
ENDBRANCH  17  20
ENDBRANCH  16  17
ENDBRANCH  15  16
ENDBRANCH  14  15
ENDBRANCH  11  14
ENDBRANCH   1  11
BRANCH   6  32
HETATM   32  C15 UNL     1       3.246  14.859  15.982  1.00  0.00     0.347 C 
BRANCH  32  33
HETATM   33  C16 UNL     1       2.973  13.430  15.808  1.00  0.00     0.101 C 
HETATM   34  N5  UNL     1       1.738  13.008  15.590  1.00  0.00    -0.377 N 
HETATM   35  C17 UNL     1       1.685  11.595  15.447  1.00  0.00     0.140 C 
ATOM     36  H5  UNL     1       0.925  13.621  15.532  1.00  0.00     0.160 HD
HETATM   37  C18 UNL     1       3.005  11.096  15.953  1.00  0.00     0.140 C 
HETATM   38  N6  UNL     1       3.823  12.296  15.813  1.00  0.00    -0.377 N 
ATOM     39  H6  UNL     1       4.840  12.316  15.732  1.00  0.00     0.160 HD
ENDBRANCH  32  33
ENDBRANCH   6  32
TORSDOF 11
ENDMDL
MODEL 5
REMARK VINA RESULT: -8.357199877      4.531      9.990
REMARK  11 active torsions:
REMARK  status: ('A' for Active; 'I' for Inactive)
REMARK    1  A    between atoms: C5_6  and  O1_7 
REMARK    2  A    between atoms: O1_7  and  C6_8 
REMARK    3  A    between atoms: C6_8  and  C7_9 
REMARK    4  A    between atoms: C7_9  and  N1_10 
REMARK    5  A    between atoms: N1_10  and  C8_13 
REMARK    6  A    between atoms: C8_13  and  C9_14 
REMARK    7  A    between atoms: C9_14  and  C10_15 
REMARK    8  A    between atoms: C10_15  and  N2_16 
REMARK    9  A    between atoms: N2_16  and  C11_19 
REMARK   10  A    between atoms: N4_24  and  C15_25 
REMARK   11  A    between atoms: C15_25  and  C16_26 
ROOT
HETATM    1  C11 UNL     1       6.228  17.912  19.840  1.00  0.00     0.231 C 
HETATM    2  C12 UNL     1       5.452  17.290  20.940  1.00  0.00     0.100 C 
HETATM    3  N3  UNL     1       4.846  16.792  21.794  1.00  0.00    -0.195 NA
HETATM    4  C13 UNL     1       5.295  18.229  18.719  1.00  0.00     0.086 C 
HETATM    5  C14 UNL     1       4.826  16.996  18.047  1.00  0.00     0.276 C 
HETATM    6  N4  UNL     1       5.814  16.018  17.672  1.00  0.00     0.097 N 
HETATM    7  C19 UNL     1       7.132  16.315  18.094  1.00  0.00     0.295 C 
HETATM    8  C20 UNL     1       7.285  16.925  19.450  1.00  0.00     0.171 C 
HETATM    9  C21 UNL     1       7.462  15.889  20.471  1.00  0.00     0.069 C 
HETATM   10  N7  UNL     1       7.620  15.053  21.272  1.00  0.00    -0.197 NA
ENDROOT
BRANCH   1  11
HETATM   11  N2  UNL     1       6.787  19.137  20.372  1.00  0.00    -0.052 N 
ATOM     12  H22 UNL     1       7.105  19.036  21.336  1.00  0.00     0.279 HD
ATOM     13  H21 UNL     1       6.076  19.852  20.534  1.00  0.00     0.279 HD
BRANCH  11  14
HETATM   14  C10 UNL     1       7.832  19.588  19.491  1.00  0.00     0.236 C 
BRANCH  14  15
HETATM   15  C9  UNL     1       8.953  20.228  20.302  1.00  0.00     0.055 C 
BRANCH  15  16
HETATM   16  C8  UNL     1       9.737  19.180  21.029  1.00  0.00     0.234 C 
BRANCH  16  17
HETATM   17  N1  UNL     1      11.136  19.228  20.745  1.00  0.00    -0.073 N 
ATOM     18  H12 UNL     1      11.585  18.341  20.972  1.00  0.00     0.277 HD
ATOM     19  H11 UNL     1      11.622  19.835  21.405  1.00  0.00     0.277 HD
BRANCH  17  20
HETATM   20  C7  UNL     1      11.418  19.615  19.385  1.00  0.00     0.258 C 
BRANCH  20  21
HETATM   21  C6  UNL     1      12.447  20.628  19.182  1.00  0.00     0.203 C 
BRANCH  21  22
HETATM   22  O1  UNL     1      12.612  21.429  18.117  1.00  0.00    -0.347 OA
BRANCH  22  23
HETATM   23  C5  UNL     1      13.052  21.403  16.861  1.00  0.00     0.103 A 
HETATM   24  C4  UNL     1      12.417  20.878  15.784  1.00  0.00     0.046 A 
HETATM   25  C3  UNL     1      13.001  20.911  14.498  1.00  0.00     0.028 A 
HETATM   26 BR1  UNL     1      10.680  20.104  15.837  1.00  0.00    -0.048 Br
HETATM   27  C2  UNL     1      14.240  21.485  14.297  1.00  0.00    -0.059 A 
HETATM   28  C1  UNL     1      14.859  21.534  12.936  1.00  0.00     0.048 C 
HETATM   29  C23 UNL     1      14.863  22.011  15.399  1.00  0.00     0.028 A 
HETATM   30  C22 UNL     1      14.319  21.989  16.644  1.00  0.00     0.046 A 
HETATM   31 BR2  UNL     1      15.282  22.756  18.124  1.00  0.00    -0.048 Br
ENDBRANCH  22  23
ENDBRANCH  21  22
ENDBRANCH  20  21
ENDBRANCH  17  20
ENDBRANCH  16  17
ENDBRANCH  15  16
ENDBRANCH  14  15
ENDBRANCH  11  14
ENDBRANCH   1  11
BRANCH   6  32
HETATM   32  C15 UNL     1       5.718  15.660  16.298  1.00  0.00     0.347 C 
BRANCH  32  33
HETATM   33  C16 UNL     1       6.967  15.843  15.555  1.00  0.00     0.101 C 
HETATM   34  N5  UNL     1       7.755  14.810  15.308  1.00  0.00    -0.377 N 
HETATM   35  C17 UNL     1       8.911  15.196  14.575  1.00  0.00     0.140 C 
ATOM     36  H5  UNL     1       7.558  13.855  15.606  1.00  0.00     0.160 HD
HETATM   37  C18 UNL     1       8.961  16.691  14.674  1.00  0.00     0.140 C 
HETATM   38  N6  UNL     1       7.566  16.991  14.980  1.00  0.00    -0.377 N 
ATOM     39  H6  UNL     1       7.100  17.882  14.809  1.00  0.00     0.160 HD
ENDBRANCH  32  33
ENDBRANCH   6  32
TORSDOF 11
ENDMDL
