MODEL 1
REMARK VINA RESULT: -7.772748185      0.000      0.000
REMARK  15 active torsions:
REMARK  status: ('A' for Active; 'I' for Inactive)
REMARK    1  A    between atoms: C2_2  and  C3_3 
REMARK    2  A    between atoms: C3_3  and  C4_4 
REMARK    3  A    between atoms: C4_4  and  C5_5 
REMARK    4  A    between atoms: C5_5  and  C6_6 
REMARK    5  A    between atoms: C6_6  and  C7_7 
REMARK    6  A    between atoms: C8_8  and  C9_9 
REMARK    7  A    between atoms: C9_9  and  C10_10 
REMARK    8  A    between atoms: C10_10  and  O1_11 
REMARK    9  A    between atoms: C10_10  and  C11_13 
REMARK   10  A    between atoms: C12_14  and  C13_15 
REMARK   11  A    between atoms: C13_15  and  O2_16 
REMARK   12  A    between atoms: C13_15  and  C14_19 
REMARK   13  A    between atoms: C16_22  and  O4_23 
REMARK   14  A    between atoms: C20_29  and  O5_30 
REMARK   15  A    between atoms: C21_32  and  O6_33 
ROOT
HETATM    1  C14 UNL     1       4.924  16.200  18.102  1.00  0.00     0.122 C 
HETATM    2  C15 UNL     1       3.570  15.749  18.657  1.00  0.00     0.164 C 
HETATM    3  O3  UNL     1       3.363  14.571  18.775  1.00  0.00    -0.295 OA
HETATM    4  C16 UNL     1       2.527  16.685  19.049  1.00  0.00     0.188 C 
HETATM    5  C17 UNL     1       2.844  18.131  19.088  1.00  0.00     0.048 C 
HETATM    6  C18 UNL     1       4.062  18.438  18.333  1.00  0.00     0.041 C 
HETATM    7  C19 UNL     1       4.983  19.521  18.804  1.00  0.00     0.216 C 
HETATM    8  F1  UNL     1       4.633  19.985  20.022  1.00  0.00    -0.246 F 
HETATM    9  C20 UNL     1       6.103  18.466  18.761  1.00  0.00     0.159 C 
HETATM   10  C21 UNL     1       6.503  18.131  20.182  1.00  0.00     0.229 C 
HETATM   11  O7  UNL     1       7.557  17.236  20.312  1.00  0.00    -0.314 OA
HETATM   12  C23 UNL     1       7.013  16.222  21.109  1.00  0.00     0.161 C 
HETATM   13  C24 UNL     1       6.849  16.637  22.534  1.00  0.00     0.078 C 
HETATM   14  C25 UNL     1       7.922  15.039  21.047  1.00  0.00     0.078 C 
HETATM   15  O8  UNL     1       5.744  16.001  20.565  1.00  0.00    -0.344 OA
HETATM   16  C26 UNL     1       5.273  17.298  20.243  1.00  0.00     0.204 C 
HETATM   17  C27 UNL     1       5.139  17.455  18.735  1.00  0.00     0.051 C 
ENDROOT
BRANCH   1  18
HETATM   18  C13 UNL     1       4.957  15.946  16.652  1.00  0.00     0.144 C 
HETATM   19 BR1  UNL     1       3.236  15.221  16.074  1.00  0.00    -0.049 Br
BRANCH  18  20
HETATM   20  C12 UNL     1       6.013  15.059  16.157  1.00  0.00     0.022 C 
HETATM   21  C11 UNL     1       7.306  15.184  16.068  1.00  0.00     0.005 C 
BRANCH  21  22
HETATM   22  C10 UNL     1       8.241  16.248  16.423  1.00  0.00     0.144 C 
BRANCH  22  23
HETATM   23  C9  UNL     1       9.465  16.230  15.559  1.00  0.00     0.062 C 
BRANCH  23  24
HETATM   24  C8  UNL     1      10.082  17.554  15.461  1.00  0.00    -0.028 C 
HETATM   25  C7  UNL     1      11.359  17.782  15.641  1.00  0.00    -0.031 C 
BRANCH  25  26
HETATM   26  C6  UNL     1      11.836  19.200  15.503  1.00  0.00     0.027 C 
BRANCH  26  27
HETATM   27  C5  UNL     1      10.662  20.140  15.777  1.00  0.00     0.004 C 
BRANCH  27  28
HETATM   28  C4  UNL     1      11.020  20.951  16.979  1.00  0.00     0.000 C 
BRANCH  28  29
HETATM   29  C3  UNL     1      10.323  20.511  18.236  1.00  0.00    -0.000 C 
BRANCH  29  30
HETATM   30  C2  UNL     1      10.811  21.301  19.438  1.00  0.00    -0.005 C 
HETATM   31  C1  UNL     1      12.137  21.965  19.145  1.00  0.00     0.005 C 
ENDBRANCH  29  30
ENDBRANCH  28  29
ENDBRANCH  27  28
ENDBRANCH  26  27
ENDBRANCH  25  26
ENDBRANCH  23  24
ENDBRANCH  22  23
BRANCH  22  32
HETATM   32  O1  UNL     1       8.735  15.917  17.733  1.00  0.00    -0.391 OA
ATOM     33  H1  UNL     1       8.804  16.756  18.172  1.00  0.00     0.210 HD
ENDBRANCH  22  32
ENDBRANCH  21  22
ENDBRANCH  18  20
BRANCH  18  34
HETATM   34  O2  UNL     1       5.057  17.125  15.880  1.00  0.00    -0.374 OA
ATOM     35  H2  UNL     1       5.854  17.553  16.168  1.00  0.00     0.212 HD
ENDBRANCH  18  34
ENDBRANCH   1  18
BRANCH   4  36
HETATM   36  O4  UNL     1       1.949  16.353  20.299  1.00  0.00    -0.388 OA
ATOM     37  H4  UNL     1       1.460  17.076  20.674  1.00  0.00     0.210 HD
ENDBRANCH   4  36
BRANCH   9  38
HETATM   38  O5  UNL     1       7.109  18.720  17.899  1.00  0.00    -0.380 OA
ATOM     39  H5  UNL     1       7.653  17.974  17.673  1.00  0.00     0.211 HD
ENDBRANCH   9  38
BRANCH  10  40
HETATM   40  O6  UNL     1       6.606  19.163  21.073  1.00  0.00    -0.355 OA
HETATM   41  C22 UNL     1       7.835  19.768  21.101  1.00  0.00     0.205 C 
ENDBRANCH  10  40
TORSDOF 15
ENDMDL
MODEL 2
REMARK VINA RESULT: -7.619051735      3.063      5.433
REMARK  15 active torsions:
REMARK  status: ('A' for Active; 'I' for Inactive)
REMARK    1  A    between atoms: C2_2  and  C3_3 
REMARK    2  A    between atoms: C3_3  and  C4_4 
REMARK    3  A    between atoms: C4_4  and  C5_5 
REMARK    4  A    between atoms: C5_5  and  C6_6 
REMARK    5  A    between atoms: C6_6  and  C7_7 
REMARK    6  A    between atoms: C8_8  and  C9_9 
REMARK    7  A    between atoms: C9_9  and  C10_10 
REMARK    8  A    between atoms: C10_10  and  O1_11 
REMARK    9  A    between atoms: C10_10  and  C11_13 
REMARK   10  A    between atoms: C12_14  and  C13_15 
REMARK   11  A    between atoms: C13_15  and  O2_16 
REMARK   12  A    between atoms: C13_15  and  C14_19 
REMARK   13  A    between atoms: C16_22  and  O4_23 
REMARK   14  A    between atoms: C20_29  and  O5_30 
REMARK   15  A    between atoms: C21_32  and  O6_33 
ROOT
HETATM    1  C14 UNL     1       7.978  18.307  19.845  1.00  0.00     0.122 C 
HETATM    2  C15 UNL     1       7.851  17.717  21.253  1.00  0.00     0.164 C 
HETATM    3  O3  UNL     1       7.800  18.471  22.187  1.00  0.00    -0.295 OA
HETATM    4  C16 UNL     1       7.786  16.285  21.505  1.00  0.00     0.188 C 
HETATM    5  C17 UNL     1       7.653  15.363  20.354  1.00  0.00     0.048 C 
HETATM    6  C18 UNL     1       8.013  16.019  19.093  1.00  0.00     0.041 C 
HETATM    7  C19 UNL     1       7.289  15.663  17.831  1.00  0.00     0.216 C 
HETATM    8  F1  UNL     1       6.230  14.860  18.067  1.00  0.00    -0.246 F 
HETATM    9  C20 UNL     1       6.997  17.167  17.679  1.00  0.00     0.159 C 
HETATM   10  C21 UNL     1       5.521  17.397  17.925  1.00  0.00     0.229 C 
HETATM   11  O7  UNL     1       5.084  18.705  17.758  1.00  0.00    -0.314 OA
HETATM   12  C23 UNL     1       4.486  18.997  18.989  1.00  0.00     0.161 C 
HETATM   13  C24 UNL     1       3.174  18.307  19.168  1.00  0.00     0.078 C 
HETATM   14  C25 UNL     1       4.275  20.474  19.069  1.00  0.00     0.078 C 
HETATM   15  O8  UNL     1       5.383  18.493  19.935  1.00  0.00    -0.344 OA
HETATM   16  C26 UNL     1       5.829  17.271  19.374  1.00  0.00     0.204 C 
HETATM   17  C27 UNL     1       7.309  17.355  19.027  1.00  0.00     0.051 C 
ENDROOT
BRANCH   1  18
HETATM   18  C13 UNL     1       9.352  18.798  19.654  1.00  0.00     0.144 C 
HETATM   19 BR1  UNL     1       9.395  20.738  19.888  1.00  0.00    -0.049 Br
BRANCH  18  20
HETATM   20  C12 UNL     1      10.000  18.480  18.379  1.00  0.00     0.022 C 
HETATM   21  C11 UNL     1      11.234  18.549  17.970  1.00  0.00     0.005 C 
BRANCH  21  22
HETATM   22  C10 UNL     1      12.482  18.967  18.602  1.00  0.00     0.144 C 
BRANCH  22  23
HETATM   23  C9  UNL     1      13.340  19.770  17.672  1.00  0.00     0.062 C 
BRANCH  23  24
HETATM   24  C8  UNL     1      13.772  21.029  18.281  1.00  0.00    -0.028 C 
HETATM   25  C7  UNL     1      13.195  21.574  19.324  1.00  0.00    -0.031 C 
BRANCH  25  26
HETATM   26  C6  UNL     1      13.761  22.870  19.830  1.00  0.00     0.027 C 
BRANCH  26  27
HETATM   27  C5  UNL     1      14.028  23.788  18.636  1.00  0.00     0.004 C 
BRANCH  27  28
HETATM   28  C4  UNL     1      14.836  24.938  19.138  1.00  0.00     0.000 C 
BRANCH  28  29
HETATM   29  C3  UNL     1      15.251  24.804  20.577  1.00  0.00    -0.000 C 
BRANCH  29  30
HETATM   30  C2  UNL     1      16.761  24.871  20.720  1.00  0.00    -0.005 C 
HETATM   31  C1  UNL     1      17.423  25.083  19.377  1.00  0.00     0.005 C 
ENDBRANCH  29  30
ENDBRANCH  28  29
ENDBRANCH  27  28
ENDBRANCH  26  27
ENDBRANCH  25  26
ENDBRANCH  23  24
ENDBRANCH  22  23
BRANCH  22  32
HETATM   32  O1  UNL     1      13.236  17.761  18.818  1.00  0.00    -0.391 OA
ATOM     33  H1  UNL     1      13.241  17.658  19.762  1.00  0.00     0.210 HD
ENDBRANCH  22  32
ENDBRANCH  21  22
ENDBRANCH  18  20
BRANCH  18  34
HETATM   34  O2  UNL     1      10.247  18.359  20.655  1.00  0.00    -0.374 OA
ATOM     35  H2  UNL     1      10.690  17.602  20.289  1.00  0.00     0.212 HD
ENDBRANCH  18  34
ENDBRANCH   1  18
BRANCH   4  36
HETATM   36  O4  UNL     1       6.764  15.948  22.427  1.00  0.00    -0.388 OA
ATOM     37  H4  UNL     1       7.070  15.353  23.102  1.00  0.00     0.210 HD
ENDBRANCH   4  36
BRANCH   9  38
HETATM   38  O5  UNL     1       7.521  17.753  16.582  1.00  0.00    -0.380 OA
ATOM     39  H5  UNL     1       6.890  18.043  15.933  1.00  0.00     0.211 HD
ENDBRANCH   9  38
BRANCH  10  40
HETATM   40  O6  UNL     1       4.640  16.500  17.390  1.00  0.00    -0.355 OA
HETATM   41  C22 UNL     1       4.412  16.658  16.048  1.00  0.00     0.205 C 
ENDBRANCH  10  40
TORSDOF 15
ENDMDL
MODEL 3
REMARK VINA RESULT: -7.564656041      4.182      8.468
REMARK  15 active torsions:
REMARK  status: ('A' for Active; 'I' for Inactive)
REMARK    1  A    between atoms: C2_2  and  C3_3 
REMARK    2  A    between atoms: C3_3  and  C4_4 
REMARK    3  A    between atoms: C4_4  and  C5_5 
REMARK    4  A    between atoms: C5_5  and  C6_6 
REMARK    5  A    between atoms: C6_6  and  C7_7 
REMARK    6  A    between atoms: C8_8  and  C9_9 
REMARK    7  A    between atoms: C9_9  and  C10_10 
REMARK    8  A    between atoms: C10_10  and  O1_11 
REMARK    9  A    between atoms: C10_10  and  C11_13 
REMARK   10  A    between atoms: C12_14  and  C13_15 
REMARK   11  A    between atoms: C13_15  and  O2_16 
REMARK   12  A    between atoms: C13_15  and  C14_19 
REMARK   13  A    between atoms: C16_22  and  O4_23 
REMARK   14  A    between atoms: C20_29  and  O5_30 
REMARK   15  A    between atoms: C21_32  and  O6_33 
ROOT
HETATM    1  C14 UNL     1      12.011  20.200  18.475  1.00  0.00     0.122 C 
HETATM    2  C15 UNL     1      10.806  20.801  17.745  1.00  0.00     0.164 C 
HETATM    3  O3  UNL     1       9.907  21.254  18.402  1.00  0.00    -0.295 OA
HETATM    4  C16 UNL     1      10.705  20.847  16.294  1.00  0.00     0.188 C 
HETATM    5  C17 UNL     1      11.886  20.469  15.485  1.00  0.00     0.048 C 
HETATM    6  C18 UNL     1      12.863  19.713  16.274  1.00  0.00     0.041 C 
HETATM    7  C19 UNL     1      14.328  19.882  16.014  1.00  0.00     0.216 C 
HETATM    8  F1  UNL     1      14.573  20.888  15.150  1.00  0.00    -0.246 F 
HETATM    9  C20 UNL     1      14.467  20.207  17.513  1.00  0.00     0.159 C 
HETATM   10  C21 UNL     1      14.783  21.680  17.657  1.00  0.00     0.229 C 
HETATM   11  O7  UNL     1      15.006  22.120  18.955  1.00  0.00    -0.314 OA
HETATM   12  C23 UNL     1      14.077  23.156  19.101  1.00  0.00     0.161 C 
HETATM   13  C24 UNL     1      14.463  24.384  18.343  1.00  0.00     0.078 C 
HETATM   14  C25 UNL     1      13.973  23.492  20.552  1.00  0.00     0.078 C 
HETATM   15  O8  UNL     1      12.901  22.645  18.544  1.00  0.00    -0.344 OA
HETATM   16  C26 UNL     1      13.340  21.930  17.403  1.00  0.00     0.204 C 
HETATM   17  C27 UNL     1      13.090  20.439  17.581  1.00  0.00     0.051 C 
ENDROOT
BRANCH   1  18
HETATM   18  C13 UNL     1      11.628  18.895  19.038  1.00  0.00     0.144 C 
HETATM   19 BR1  UNL     1      10.532  17.918  17.748  1.00  0.00    -0.049 Br
BRANCH  18  20
HETATM   20  C12 UNL     1      10.918  18.908  20.320  1.00  0.00     0.022 C 
HETATM   21  C11 UNL     1       9.729  18.515  20.679  1.00  0.00     0.005 C 
BRANCH  21  22
HETATM   22  C10 UNL     1       8.614  17.900  19.964  1.00  0.00     0.144 C 
BRANCH  22  23
HETATM   23  C9  UNL     1       7.545  18.896  19.630  1.00  0.00     0.062 C 
BRANCH  23  24
HETATM   24  C8  UNL     1       6.537  18.330  18.732  1.00  0.00    -0.028 C 
HETATM   25  C7  UNL     1       6.805  17.477  17.774  1.00  0.00    -0.031 C 
BRANCH  25  26
HETATM   26  C6  UNL     1       5.656  16.988  16.940  1.00  0.00     0.027 C 
BRANCH  26  27
HETATM   27  C5  UNL     1       6.212  16.236  15.731  1.00  0.00     0.004 C 
BRANCH  27  28
HETATM   28  C4  UNL     1       7.431  15.506  16.191  1.00  0.00     0.000 C 
BRANCH  28  29
HETATM   29  C3  UNL     1       8.383  15.157  15.081  1.00  0.00    -0.000 C 
BRANCH  29  30
HETATM   30  C2  UNL     1       8.821  16.400  14.325  1.00  0.00    -0.005 C 
HETATM   31  C1  UNL     1      10.328  16.525  14.318  1.00  0.00     0.005 C 
ENDBRANCH  29  30
ENDBRANCH  28  29
ENDBRANCH  27  28
ENDBRANCH  26  27
ENDBRANCH  25  26
ENDBRANCH  23  24
ENDBRANCH  22  23
BRANCH  22  32
HETATM   32  O1  UNL     1       7.982  17.016  20.908  1.00  0.00    -0.391 OA
ATOM     33  H1  UNL     1       8.709  16.585  21.342  1.00  0.00     0.210 HD
ENDBRANCH  22  32
ENDBRANCH  21  22
ENDBRANCH  18  20
BRANCH  18  34
HETATM   34  O2  UNL     1      12.723  18.021  19.219  1.00  0.00    -0.374 OA
ATOM     35  H2  UNL     1      13.414  18.357  18.661  1.00  0.00     0.212 HD
ENDBRANCH  18  34
ENDBRANCH   1  18
BRANCH   4  36
HETATM   36  O4  UNL     1      10.269  22.112  15.826  1.00  0.00    -0.388 OA
ATOM     37  H4  UNL     1      10.941  22.562  15.328  1.00  0.00     0.210 HD
ENDBRANCH   4  36
BRANCH   9  38
HETATM   38  O5  UNL     1      15.234  19.357  18.224  1.00  0.00    -0.380 OA
ATOM     39  H5  UNL     1      15.922  19.760  18.740  1.00  0.00     0.211 HD
ENDBRANCH   9  38
BRANCH  10  40
HETATM   40  O6  UNL     1      15.679  22.227  16.781  1.00  0.00    -0.355 OA
HETATM   41  C22 UNL     1      16.886  22.561  17.336  1.00  0.00     0.205 C 
ENDBRANCH  10  40
TORSDOF 15
ENDMDL
MODEL 4
REMARK VINA RESULT: -7.499406348      1.039      1.772
REMARK  15 active torsions:
REMARK  status: ('A' for Active; 'I' for Inactive)
REMARK    1  A    between atoms: C2_2  and  C3_3 
REMARK    2  A    between atoms: C3_3  and  C4_4 
REMARK    3  A    between atoms: C4_4  and  C5_5 
REMARK    4  A    between atoms: C5_5  and  C6_6 
REMARK    5  A    between atoms: C6_6  and  C7_7 
REMARK    6  A    between atoms: C8_8  and  C9_9 
REMARK    7  A    between atoms: C9_9  and  C10_10 
REMARK    8  A    between atoms: C10_10  and  O1_11 
REMARK    9  A    between atoms: C10_10  and  C11_13 
REMARK   10  A    between atoms: C12_14  and  C13_15 
REMARK   11  A    between atoms: C13_15  and  O2_16 
REMARK   12  A    between atoms: C13_15  and  C14_19 
REMARK   13  A    between atoms: C16_22  and  O4_23 
REMARK   14  A    between atoms: C20_29  and  O5_30 
REMARK   15  A    between atoms: C21_32  and  O6_33 
ROOT
HETATM    1  C14 UNL     1       4.929  16.185  18.085  1.00  0.00     0.122 C 
HETATM    2  C15 UNL     1       3.581  15.717  18.642  1.00  0.00     0.164 C 
HETATM    3  O3  UNL     1       3.388  14.536  18.755  1.00  0.00    -0.295 OA
HETATM    4  C16 UNL     1       2.530  16.640  19.042  1.00  0.00     0.188 C 
HETATM    5  C17 UNL     1       2.832  18.089  19.087  1.00  0.00     0.048 C 
HETATM    6  C18 UNL     1       4.044  18.412  18.328  1.00  0.00     0.041 C 
HETATM    7  C19 UNL     1       4.955  19.503  18.801  1.00  0.00     0.216 C 
HETATM    8  F1  UNL     1       4.604  19.957  20.023  1.00  0.00    -0.246 F 
HETATM    9  C20 UNL     1       6.086  18.459  18.750  1.00  0.00     0.159 C 
HETATM   10  C21 UNL     1       6.494  18.123  20.168  1.00  0.00     0.229 C 
HETATM   11  O7  UNL     1       7.558  17.238  20.291  1.00  0.00    -0.314 OA
HETATM   12  C23 UNL     1       7.028  16.215  21.084  1.00  0.00     0.161 C 
HETATM   13  C24 UNL     1       6.865  16.622  22.512  1.00  0.00     0.078 C 
HETATM   14  C25 UNL     1       7.949  15.042  21.014  1.00  0.00     0.078 C 
HETATM   15  O8  UNL     1       5.759  15.983  20.543  1.00  0.00    -0.344 OA
HETATM   16  C26 UNL     1       5.274  17.276  20.230  1.00  0.00     0.204 C 
HETATM   17  C27 UNL     1       5.132  17.439  18.723  1.00  0.00     0.051 C 
ENDROOT
BRANCH   1  18
HETATM   18  C13 UNL     1       4.959  15.937  16.634  1.00  0.00     0.144 C 
HETATM   19 BR1  UNL     1       3.229  15.241  16.050  1.00  0.00    -0.049 Br
BRANCH  18  20
HETATM   20  C12 UNL     1       6.002  15.038  16.135  1.00  0.00     0.022 C 
HETATM   21  C11 UNL     1       7.295  15.152  16.027  1.00  0.00     0.005 C 
BRANCH  21  22
HETATM   22  C10 UNL     1       8.242  16.214  16.356  1.00  0.00     0.144 C 
BRANCH  22  23
HETATM   23  C9  UNL     1       9.458  16.171  15.482  1.00  0.00     0.062 C 
BRANCH  23  24
HETATM   24  C8  UNL     1      10.275  17.378  15.627  1.00  0.00    -0.028 C 
HETATM   25  C7  UNL     1       9.783  18.590  15.699  1.00  0.00    -0.031 C 
BRANCH  25  26
HETATM   26  C6  UNL     1      10.757  19.724  15.849  1.00  0.00     0.027 C 
BRANCH  26  27
HETATM   27  C5  UNL     1      11.984  19.220  16.610  1.00  0.00     0.004 C 
BRANCH  27  28
HETATM   28  C4  UNL     1      13.188  19.728  15.888  1.00  0.00     0.000 C 
BRANCH  28  29
HETATM   29  C3  UNL     1      12.874  20.751  14.832  1.00  0.00    -0.000 C 
BRANCH  29  30
HETATM   30  C2  UNL     1      14.144  21.359  14.264  1.00  0.00    -0.005 C 
HETATM   31  C1  UNL     1      14.048  21.510  12.762  1.00  0.00     0.005 C 
ENDBRANCH  29  30
ENDBRANCH  28  29
ENDBRANCH  27  28
ENDBRANCH  26  27
ENDBRANCH  25  26
ENDBRANCH  23  24
ENDBRANCH  22  23
BRANCH  22  32
HETATM   32  O1  UNL     1       8.745  15.900  17.667  1.00  0.00    -0.391 OA
ATOM     33  H1  UNL     1       9.628  15.590  17.506  1.00  0.00     0.210 HD
ENDBRANCH  22  32
ENDBRANCH  21  22
ENDBRANCH  18  20
BRANCH  18  34
HETATM   34  O2  UNL     1       5.077  17.118  15.868  1.00  0.00    -0.374 OA
ATOM     35  H2  UNL     1       4.643  16.934  15.044  1.00  0.00     0.212 HD
ENDBRANCH  18  34
ENDBRANCH   1  18
BRANCH   4  36
HETATM   36  O4  UNL     1       1.961  16.295  20.293  1.00  0.00    -0.388 OA
ATOM     37  H4  UNL     1       1.864  15.356  20.398  1.00  0.00     0.210 HD
ENDBRANCH   4  36
BRANCH   9  38
HETATM   38  O5  UNL     1       7.086  18.728  17.886  1.00  0.00    -0.380 OA
ATOM     39  H5  UNL     1       7.312  19.647  17.793  1.00  0.00     0.211 HD
ENDBRANCH   9  38
BRANCH  10  40
HETATM   40  O6  UNL     1       6.590  19.151  21.063  1.00  0.00    -0.355 OA
HETATM   41  C22 UNL     1       7.809  19.776  21.083  1.00  0.00     0.205 C 
ENDBRANCH  10  40
TORSDOF 15
ENDMDL
MODEL 5
REMARK VINA RESULT: -7.479602577      2.476      4.996
REMARK  15 active torsions:
REMARK  status: ('A' for Active; 'I' for Inactive)
REMARK    1  A    between atoms: C2_2  and  C3_3 
REMARK    2  A    between atoms: C3_3  and  C4_4 
REMARK    3  A    between atoms: C4_4  and  C5_5 
REMARK    4  A    between atoms: C5_5  and  C6_6 
REMARK    5  A    between atoms: C6_6  and  C7_7 
REMARK    6  A    between atoms: C8_8  and  C9_9 
REMARK    7  A    between atoms: C9_9  and  C10_10 
REMARK    8  A    between atoms: C10_10  and  O1_11 
REMARK    9  A    between atoms: C10_10  and  C11_13 
REMARK   10  A    between atoms: C12_14  and  C13_15 
REMARK   11  A    between atoms: C13_15  and  O2_16 
REMARK   12  A    between atoms: C13_15  and  C14_19 
REMARK   13  A    between atoms: C16_22  and  O4_23 
REMARK   14  A    between atoms: C20_29  and  O5_30 
REMARK   15  A    between atoms: C21_32  and  O6_33 
ROOT
HETATM    1  C14 UNL     1       7.357  18.220  20.807  1.00  0.00     0.122 C 
HETATM    2  C15 UNL     1       7.785  16.816  21.245  1.00  0.00     0.164 C 
HETATM    3  O3  UNL     1       8.108  16.648  22.390  1.00  0.00    -0.295 OA
HETATM    4  C16 UNL     1       7.813  15.681  20.335  1.00  0.00     0.188 C 
HETATM    5  C17 UNL     1       7.235  15.838  18.981  1.00  0.00     0.048 C 
HETATM    6  C18 UNL     1       7.079  17.250  18.620  1.00  0.00     0.041 C 
HETATM    7  C19 UNL     1       5.918  17.685  17.780  1.00  0.00     0.216 C 
HETATM    8  F1  UNL     1       5.028  16.687  17.595  1.00  0.00    -0.246 F 
HETATM    9  C20 UNL     1       5.601  18.695  18.898  1.00  0.00     0.159 C 
HETATM   10  C21 UNL     1       4.340  18.249  19.606  1.00  0.00     0.229 C 
HETATM   11  O7  UNL     1       3.882  19.098  20.605  1.00  0.00    -0.314 OA
HETATM   12  C23 UNL     1       3.813  18.261  21.724  1.00  0.00     0.161 C 
HETATM   13  C24 UNL     1       2.669  17.303  21.655  1.00  0.00     0.078 C 
HETATM   14  C25 UNL     1       3.661  19.115  22.939  1.00  0.00     0.078 C 
HETATM   15  O8  UNL     1       5.004  17.530  21.680  1.00  0.00    -0.344 OA
HETATM   16  C26 UNL     1       5.187  17.246  20.305  1.00  0.00     0.204 C 
HETATM   17  C27 UNL     1       6.415  17.971  19.771  1.00  0.00     0.051 C 
ENDROOT
BRANCH   1  18
HETATM   18  C13 UNL     1       8.552  19.074  20.702  1.00  0.00     0.144 C 
HETATM   19 BR1  UNL     1       8.481  20.474  22.064  1.00  0.00    -0.049 Br
BRANCH  18  20
HETATM   20  C12 UNL     1       8.801  19.712  19.407  1.00  0.00     0.022 C 
HETATM   21  C11 UNL     1       9.745  20.496  18.972  1.00  0.00     0.005 C 
BRANCH  21  22
HETATM   22  C10 UNL     1      10.943  21.064  19.583  1.00  0.00     0.144 C 
BRANCH  22  23
HETATM   23  C9  UNL     1      11.794  21.786  18.584  1.00  0.00     0.062 C 
BRANCH  23  24
HETATM   24  C8  UNL     1      12.101  20.947  17.424  1.00  0.00    -0.028 C 
HETATM   25  C7  UNL     1      11.512  21.064  16.259  1.00  0.00    -0.031 C 
BRANCH  25  26
HETATM   26  C6  UNL     1      11.943  20.127  15.168  1.00  0.00     0.027 C 
BRANCH  26  27
HETATM   27  C5  UNL     1      11.623  18.694  15.597  1.00  0.00     0.004 C 
BRANCH  27  28
HETATM   28  C4  UNL     1      10.137  18.585  15.688  1.00  0.00     0.000 C 
BRANCH  28  29
HETATM   29  C3  UNL     1       9.649  17.193  15.981  1.00  0.00    -0.000 C 
BRANCH  29  30
HETATM   30  C2  UNL     1       8.677  16.718  14.916  1.00  0.00    -0.005 C 
HETATM   31  C1  UNL     1       8.487  15.219  14.987  1.00  0.00     0.005 C 
ENDBRANCH  29  30
ENDBRANCH  28  29
ENDBRANCH  27  28
ENDBRANCH  26  27
ENDBRANCH  25  26
ENDBRANCH  23  24
ENDBRANCH  22  23
BRANCH  22  32
HETATM   32  O1  UNL     1      11.751  19.940  19.980  1.00  0.00    -0.391 OA
ATOM     33  H1  UNL     1      11.992  20.136  20.877  1.00  0.00     0.210 HD
ENDBRANCH  22  32
ENDBRANCH  21  22
ENDBRANCH  18  20
BRANCH  18  34
HETATM   34  O2  UNL     1       9.750  18.401  21.031  1.00  0.00    -0.374 OA
ATOM     35  H2  UNL     1       9.488  17.529  21.300  1.00  0.00     0.212 HD
ENDBRANCH  18  34
ENDBRANCH   1  18
BRANCH   4  36
HETATM   36  O4  UNL     1       7.228  14.522  20.904  1.00  0.00    -0.388 OA
ATOM     37  H4  UNL     1       7.466  13.731  20.435  1.00  0.00     0.210 HD
ENDBRANCH   4  36
BRANCH   9  38
HETATM   38  O5  UNL     1       5.660  19.995  18.541  1.00  0.00    -0.380 OA
ATOM     39  H5  UNL     1       6.485  20.279  18.165  1.00  0.00     0.211 HD
ENDBRANCH   9  38
BRANCH  10  40
HETATM   40  O6  UNL     1       3.313  17.776  18.838  1.00  0.00    -0.355 OA
HETATM   41  C22 UNL     1       2.482  18.745  18.341  1.00  0.00     0.205 C 
ENDBRANCH  10  40
TORSDOF 15
ENDMDL
