MODEL 1
REMARK VINA RESULT: -8.780886731      0.000      0.000
REMARK  6 active torsions:
REMARK  status: ('A' for Active; 'I' for Inactive)
REMARK    1  A    between atoms: C3_3  and  C4_4 
REMARK    2  A    between atoms: C12_15  and  C13_16 
REMARK    3  A    between atoms: C13_16  and  C14_17 
REMARK    4  A    between atoms: C14_17  and  C15_18 
REMARK    5  A    between atoms: C15_18  and  C16_19 
REMARK    6  A    between atoms: C16_19  and  C17_20 
ROOT
HETATM    1  C4  UNL     1     -24.905  21.316   4.602  1.00  0.00     0.065 C 
HETATM    2  C5  UNL     1     -25.292  22.078   5.610  1.00  0.00     0.010 C 
HETATM    3  C6  UNL     1     -26.293  23.152   5.795  1.00  0.00     0.037 C 
HETATM    4  C7  UNL     1     -26.775  23.491   4.363  1.00  0.00     0.031 C 
HETATM    5  C8  UNL     1     -25.543  23.892   3.621  1.00  0.00     0.184 A 
HETATM    6  O1  UNL     1     -25.693  25.185   2.858  1.00  0.00    -0.348 OA
HETATM    7  C9  UNL     1     -25.452  23.919   2.241  1.00  0.00     0.290 A 
HETATM    8  O2  UNL     1     -26.462  23.545   1.415  1.00  0.00    -0.350 OA
HETATM    9  C10 UNL     1     -26.674  22.195   1.443  1.00  0.00     0.164 C 
HETATM   10  C11 UNL     1     -27.923  21.798   0.695  1.00  0.00     0.109 C 
HETATM   11  S1  UNL     1     -29.246  21.596   1.880  1.00  0.00    -0.161 SA
HETATM   12  C12 UNL     1     -28.945  22.526   3.440  1.00  0.00     0.054 C 
HETATM   13  C20 UNL     1     -27.532  22.330   3.818  1.00  0.00     0.038 C 
HETATM   14  C21 UNL     1     -26.700  21.561   2.778  1.00  0.00     0.164 C 
HETATM   15  O3  UNL     1     -25.419  21.358   3.325  1.00  0.00    -0.343 OA
ENDROOT
BRANCH  12  16
HETATM   16  C13 UNL     1     -29.451  23.887   3.242  1.00  0.00     0.015 C 
BRANCH  16  17
HETATM   17  C14 UNL     1     -30.620  24.226   4.137  1.00  0.00     0.001 C 
BRANCH  17  18
HETATM   18  C15 UNL     1     -30.349  24.134   5.595  1.00  0.00     0.005 C 
BRANCH  18  19
HETATM   19  C16 UNL     1     -30.914  25.344   6.318  1.00  0.00     0.041 C 
BRANCH  19  20
HETATM   20  C17 UNL     1     -32.384  25.469   6.177  1.00  0.00    -0.024 A 
HETATM   21  C18 UNL     1     -33.368  24.564   6.508  1.00  0.00     0.115 A 
HETATM   22  N1  UNL     1     -34.581  25.083   6.212  1.00  0.00    -0.312 N 
HETATM   23  N2  UNL     1     -34.379  26.288   5.705  1.00  0.00    -0.312 N 
ATOM     24  H1  UNL     1     -35.484  24.630   6.354  1.00  0.00     0.186 HD
HETATM   25  C19 UNL     1     -33.055  26.563   5.666  1.00  0.00     0.115 A 
ATOM     26  H2  UNL     1     -35.115  26.919   5.389  1.00  0.00     0.186 HD
ENDBRANCH  19  20
ENDBRANCH  18  19
ENDBRANCH  17  18
ENDBRANCH  16  17
ENDBRANCH  12  16
BRANCH   1  27
HETATM   27  C3  UNL     1     -23.845  20.350   4.868  1.00  0.00     0.032 C 
HETATM   28  C2  UNL     1     -23.784  19.738   6.029  1.00  0.00    -0.028 C 
HETATM   29  C1  UNL     1     -22.718  18.748   6.331  1.00  0.00     0.036 C 
ENDBRANCH   1  27
TORSDOF 6
ENDMDL
MODEL 2
REMARK VINA RESULT: -8.702871240      5.095      8.290
REMARK  6 active torsions:
REMARK  status: ('A' for Active; 'I' for Inactive)
REMARK    1  A    between atoms: C3_3  and  C4_4 
REMARK    2  A    between atoms: C12_15  and  C13_16 
REMARK    3  A    between atoms: C13_16  and  C14_17 
REMARK    4  A    between atoms: C14_17  and  C15_18 
REMARK    5  A    between atoms: C15_18  and  C16_19 
REMARK    6  A    between atoms: C16_19  and  C17_20 
ROOT
HETATM    1  C4  UNL     1     -27.846  25.038   3.121  1.00  0.00     0.065 C 
HETATM    2  C5  UNL     1     -27.977  24.715   4.395  1.00  0.00     0.010 C 
HETATM    3  C6  UNL     1     -27.622  23.544   5.227  1.00  0.00     0.037 C 
HETATM    4  C7  UNL     1     -27.195  22.456   4.211  1.00  0.00     0.031 C 
HETATM    5  C8  UNL     1     -28.379  22.267   3.322  1.00  0.00     0.184 A 
HETATM    6  O1  UNL     1     -28.765  20.821   3.131  1.00  0.00    -0.348 OA
HETATM    7  C9  UNL     1     -28.315  21.672   2.075  1.00  0.00     0.290 A 
HETATM    8  O2  UNL     1     -27.160  21.232   1.511  1.00  0.00    -0.350 OA
HETATM    9  C10 UNL     1     -26.347  22.264   1.136  1.00  0.00     0.164 C 
HETATM   10  C11 UNL     1     -24.981  21.787   0.705  1.00  0.00     0.109 C 
HETATM   11  S1  UNL     1     -23.862  21.974   2.086  1.00  0.00    -0.161 SA
HETATM   12  C12 UNL     1     -24.737  22.017   3.704  1.00  0.00     0.054 C 
HETATM   13  C20 UNL     1     -25.927  22.876   3.553  1.00  0.00     0.038 C 
HETATM   14  C21 UNL     1     -26.180  23.359   2.115  1.00  0.00     0.164 C 
HETATM   15  O3  UNL     1     -27.270  24.249   2.150  1.00  0.00    -0.343 OA
ENDROOT
BRANCH  12  16
HETATM   16  C13 UNL     1     -24.907  20.630   4.147  1.00  0.00     0.015 C 
BRANCH  16  17
HETATM   17  C14 UNL     1     -24.176  20.319   5.431  1.00  0.00     0.001 C 
BRANCH  17  18
HETATM   18  C15 UNL     1     -23.410  19.046   5.433  1.00  0.00     0.005 C 
BRANCH  18  19
HETATM   19  C16 UNL     1     -22.057  19.239   4.771  1.00  0.00     0.041 C 
BRANCH  19  20
HETATM   20  C17 UNL     1     -21.815  18.287   3.660  1.00  0.00    -0.024 A 
HETATM   21  C18 UNL     1     -22.062  16.933   3.608  1.00  0.00     0.115 A 
HETATM   22  N1  UNL     1     -21.689  16.450   2.401  1.00  0.00    -0.312 N 
HETATM   23  N2  UNL     1     -21.216  17.467   1.700  1.00  0.00    -0.312 N 
ATOM     24  H1  UNL     1     -21.760  15.481   2.090  1.00  0.00     0.186 HD
HETATM   25  C19 UNL     1     -21.275  18.605   2.430  1.00  0.00     0.115 A 
ATOM     26  H2  UNL     1     -20.858  17.403   0.747  1.00  0.00     0.186 HD
ENDBRANCH  19  20
ENDBRANCH  18  19
ENDBRANCH  17  18
ENDBRANCH  16  17
ENDBRANCH  12  16
BRANCH   1  27
HETATM   27  C3  UNL     1     -28.354  26.343   2.710  1.00  0.00     0.032 C 
HETATM   28  C2  UNL     1     -27.743  27.023   1.767  1.00  0.00    -0.028 C 
HETATM   29  C1  UNL     1     -28.236  28.354   1.326  1.00  0.00     0.036 C 
ENDBRANCH   1  27
TORSDOF 6
ENDMDL
MODEL 3
REMARK VINA RESULT: -8.419725119      1.448      1.783
REMARK  6 active torsions:
REMARK  status: ('A' for Active; 'I' for Inactive)
REMARK    1  A    between atoms: C3_3  and  C4_4 
REMARK    2  A    between atoms: C12_15  and  C13_16 
REMARK    3  A    between atoms: C13_16  and  C14_17 
REMARK    4  A    between atoms: C14_17  and  C15_18 
REMARK    5  A    between atoms: C15_18  and  C16_19 
REMARK    6  A    between atoms: C16_19  and  C17_20 
ROOT
HETATM    1  C4  UNL     1     -25.386  21.911   4.578  1.00  0.00     0.065 C 
HETATM    2  C5  UNL     1     -25.482  22.543   5.734  1.00  0.00     0.010 C 
HETATM    3  C6  UNL     1     -26.340  23.620   6.278  1.00  0.00     0.037 C 
HETATM    4  C7  UNL     1     -27.109  24.167   5.051  1.00  0.00     0.031 C 
HETATM    5  C8  UNL     1     -26.053  24.618   4.098  1.00  0.00     0.184 A 
HETATM    6  O1  UNL     1     -26.284  26.008   3.556  1.00  0.00    -0.348 OA
HETATM    7  C9  UNL     1     -26.274  24.829   2.749  1.00  0.00     0.290 A 
HETATM    8  O2  UNL     1     -27.468  24.608   2.141  1.00  0.00    -0.350 OA
HETATM    9  C10 UNL     1     -27.760  23.276   2.051  1.00  0.00     0.164 C 
HETATM   10  C11 UNL     1     -29.169  23.031   1.571  1.00  0.00     0.109 C 
HETATM   11  S1  UNL     1     -30.201  22.721   2.998  1.00  0.00    -0.161 SA
HETATM   12  C12 UNL     1     -29.492  23.419   4.547  1.00  0.00     0.054 C 
HETATM   13  C20 UNL     1     -28.047  23.120   4.558  1.00  0.00     0.038 C 
HETATM   14  C21 UNL     1     -27.526  22.468   3.267  1.00  0.00     0.164 C 
HETATM   15  O3  UNL     1     -26.171  22.145   3.471  1.00  0.00    -0.343 OA
ENDROOT
BRANCH  12  16
HETATM   16  C13 UNL     1     -29.936  24.812   4.642  1.00  0.00     0.015 C 
BRANCH  16  17
HETATM   17  C14 UNL     1     -30.645  25.126   5.938  1.00  0.00     0.001 C 
BRANCH  17  18
HETATM   18  C15 UNL     1     -32.000  25.717   5.792  1.00  0.00     0.005 C 
BRANCH  18  19
HETATM   19  C16 UNL     1     -32.409  26.431   7.069  1.00  0.00     0.041 C 
BRANCH  19  20
HETATM   20  C17 UNL     1     -33.581  25.810   7.730  1.00  0.00    -0.024 A 
HETATM   21  C18 UNL     1     -34.471  26.367   8.623  1.00  0.00     0.115 A 
HETATM   22  N1  UNL     1     -35.394  25.446   8.978  1.00  0.00    -0.312 N 
HETATM   23  N2  UNL     1     -35.104  24.329   8.331  1.00  0.00    -0.312 N 
ATOM     24  H1  UNL     1     -36.170  25.586   9.625  1.00  0.00     0.186 HD
HETATM   25  C19 UNL     1     -34.008  24.507   7.559  1.00  0.00     0.115 A 
ATOM     26  H2  UNL     1     -35.631  23.459   8.404  1.00  0.00     0.186 HD
ENDBRANCH  19  20
ENDBRANCH  18  19
ENDBRANCH  17  18
ENDBRANCH  16  17
ENDBRANCH  12  16
BRANCH   1  27
HETATM   27  C3  UNL     1     -24.361  20.878   4.469  1.00  0.00     0.032 C 
HETATM   28  C2  UNL     1     -24.014  20.178   5.525  1.00  0.00    -0.028 C 
HETATM   29  C1  UNL     1     -22.975  19.119   5.447  1.00  0.00     0.036 C 
ENDBRANCH   1  27
TORSDOF 6
ENDMDL
MODEL 4
REMARK VINA RESULT: -8.381314049      4.215      7.419
REMARK  6 active torsions:
REMARK  status: ('A' for Active; 'I' for Inactive)
REMARK    1  A    between atoms: C3_3  and  C4_4 
REMARK    2  A    between atoms: C12_15  and  C13_16 
REMARK    3  A    between atoms: C13_16  and  C14_17 
REMARK    4  A    between atoms: C14_17  and  C15_18 
REMARK    5  A    between atoms: C15_18  and  C16_19 
REMARK    6  A    between atoms: C16_19  and  C17_20 
ROOT
HETATM    1  C4  UNL     1     -29.551  24.525   4.438  1.00  0.00     0.065 C 
HETATM    2  C5  UNL     1     -28.719  24.020   5.331  1.00  0.00     0.010 C 
HETATM    3  C6  UNL     1     -27.548  23.116   5.287  1.00  0.00     0.037 C 
HETATM    4  C7  UNL     1     -27.537  22.558   3.843  1.00  0.00     0.031 C 
HETATM    5  C8  UNL     1     -28.861  21.891   3.671  1.00  0.00     0.184 A 
HETATM    6  O1  UNL     1     -28.765  20.498   3.100  1.00  0.00    -0.348 OA
HETATM    7  C9  UNL     1     -29.414  21.586   2.441  1.00  0.00     0.290 A 
HETATM    8  O2  UNL     1     -28.828  21.898   1.256  1.00  0.00    -0.350 OA
HETATM    9  C10 UNL     1     -28.852  23.243   1.011  1.00  0.00     0.164 C 
HETATM   10  C11 UNL     1     -28.023  23.618  -0.193  1.00  0.00     0.109 C 
HETATM   11  S1  UNL     1     -26.428  24.186   0.381  1.00  0.00    -0.161 SA
HETATM   12  C12 UNL     1     -26.013  23.551   2.058  1.00  0.00     0.054 C 
HETATM   13  C20 UNL     1     -27.222  23.665   2.897  1.00  0.00     0.038 C 
HETATM   14  C21 UNL     1     -28.478  24.123   2.137  1.00  0.00     0.164 C 
HETATM   15  O3  UNL     1     -29.508  24.291   3.082  1.00  0.00    -0.343 OA
ENDROOT
BRANCH  12  16
HETATM   16  C13 UNL     1     -25.382  22.240   1.885  1.00  0.00     0.015 C 
BRANCH  16  17
HETATM   17  C14 UNL     1     -24.272  21.976   2.875  1.00  0.00     0.001 C 
BRANCH  17  18
HETATM   18  C15 UNL     1     -24.299  20.636   3.515  1.00  0.00     0.005 C 
BRANCH  18  19
HETATM   19  C16 UNL     1     -24.269  20.769   5.028  1.00  0.00     0.041 C 
BRANCH  19  20
HETATM   20  C17 UNL     1     -23.673  19.590   5.701  1.00  0.00    -0.024 A 
HETATM   21  C18 UNL     1     -23.070  19.509   6.937  1.00  0.00     0.115 A 
HETATM   22  N1  UNL     1     -22.664  18.240   7.162  1.00  0.00    -0.312 N 
HETATM   23  N2  UNL     1     -22.997  17.526   6.099  1.00  0.00    -0.312 N 
ATOM     24  H1  UNL     1     -22.189  17.896   7.997  1.00  0.00     0.186 HD
HETATM   25  C19 UNL     1     -23.614  18.310   5.185  1.00  0.00     0.115 A 
ATOM     26  H2  UNL     1     -22.815  16.530   5.985  1.00  0.00     0.186 HD
ENDBRANCH  19  20
ENDBRANCH  18  19
ENDBRANCH  17  18
ENDBRANCH  16  17
ENDBRANCH  12  16
BRANCH   1  27
HETATM   27  C3  UNL     1     -30.603  25.406   4.934  1.00  0.00     0.032 C 
HETATM   28  C2  UNL     1     -31.032  25.293   6.171  1.00  0.00    -0.028 C 
HETATM   29  C1  UNL     1     -32.102  26.174   6.706  1.00  0.00     0.036 C 
ENDBRANCH   1  27
TORSDOF 6
ENDMDL
MODEL 5
REMARK VINA RESULT: -8.086348388      4.638      6.744
REMARK  6 active torsions:
REMARK  status: ('A' for Active; 'I' for Inactive)
REMARK    1  A    between atoms: C3_3  and  C4_4 
REMARK    2  A    between atoms: C12_15  and  C13_16 
REMARK    3  A    between atoms: C13_16  and  C14_17 
REMARK    4  A    between atoms: C14_17  and  C15_18 
REMARK    5  A    between atoms: C15_18  and  C16_19 
REMARK    6  A    between atoms: C16_19  and  C17_20 
ROOT
HETATM    1  C4  UNL     1     -24.509  20.940   4.775  1.00  0.00     0.065 C 
HETATM    2  C5  UNL     1     -24.016  20.861   3.552  1.00  0.00     0.010 C 
HETATM    3  C6  UNL     1     -24.310  21.510   2.255  1.00  0.00     0.037 C 
HETATM    4  C7  UNL     1     -25.638  22.271   2.488  1.00  0.00     0.031 C 
HETATM    5  C8  UNL     1     -26.617  21.227   2.911  1.00  0.00     0.184 A 
HETATM    6  O1  UNL     1     -27.923  21.285   2.157  1.00  0.00    -0.348 OA
HETATM    7  C9  UNL     1     -27.804  21.506   3.564  1.00  0.00     0.290 A 
HETATM    8  O2  UNL     1     -28.185  22.759   3.925  1.00  0.00    -0.350 OA
HETATM    9  C10 UNL     1     -27.426  23.251   4.950  1.00  0.00     0.164 C 
HETATM   10  C11 UNL     1     -27.702  24.711   5.214  1.00  0.00     0.109 C 
HETATM   11  S1  UNL     1     -26.444  25.676   4.390  1.00  0.00    -0.161 SA
HETATM   12  C12 UNL     1     -25.655  24.768   2.997  1.00  0.00     0.054 C 
HETATM   13  C20 UNL     1     -25.398  23.386   3.446  1.00  0.00     0.038 C 
HETATM   14  C21 UNL     1     -25.966  23.057   4.837  1.00  0.00     0.164 C 
HETATM   15  O3  UNL     1     -25.547  21.755   5.170  1.00  0.00    -0.343 OA
ENDROOT
BRANCH  12  16
HETATM   16  C13 UNL     1     -26.479  24.992   1.806  1.00  0.00     0.015 C 
BRANCH  16  17
HETATM   17  C14 UNL     1     -25.669  25.284   0.565  1.00  0.00     0.001 C 
BRANCH  17  18
HETATM   18  C15 UNL     1     -25.851  24.321  -0.551  1.00  0.00     0.005 C 
BRANCH  18  19
HETATM   19  C16 UNL     1     -24.555  23.582  -0.832  1.00  0.00     0.041 C 
BRANCH  19  20
HETATM   20  C17 UNL     1     -24.748  22.369  -1.662  1.00  0.00    -0.024 A 
HETATM   21  C18 UNL     1     -25.540  22.196  -2.776  1.00  0.00     0.115 A 
HETATM   22  N1  UNL     1     -25.420  20.927  -3.226  1.00  0.00    -0.312 N 
HETATM   23  N2  UNL     1     -24.575  20.303  -2.423  1.00  0.00    -0.312 N 
ATOM     24  H1  UNL     1     -25.894  20.525  -4.035  1.00  0.00     0.186 HD
HETATM   25  C19 UNL     1     -24.141  21.145  -1.456  1.00  0.00     0.115 A 
ATOM     26  H2  UNL     1     -24.291  19.329  -2.517  1.00  0.00     0.186 HD
ENDBRANCH  19  20
ENDBRANCH  18  19
ENDBRANCH  17  18
ENDBRANCH  16  17
ENDBRANCH  12  16
BRANCH   1  27
HETATM   27  C3  UNL     1     -23.899  20.090   5.793  1.00  0.00     0.032 C 
HETATM   28  C2  UNL     1     -23.629  18.832   5.529  1.00  0.00    -0.028 C 
HETATM   29  C1  UNL     1     -23.008  17.941   6.542  1.00  0.00     0.036 C 
ENDBRANCH   1  27
TORSDOF 6
ENDMDL
