MODEL 1
REMARK VINA RESULT: -8.356407009      0.000      0.000
REMARK  8 active torsions:
REMARK  status: ('A' for Active; 'I' for Inactive)
REMARK    1  A    between atoms: C2_2  and  N1_3 
REMARK    2  A    between atoms: N1_3  and  C3_4 
REMARK    3  A    between atoms: N1_3  and  C5_6 
REMARK    4  A    between atoms: C5_6  and  C6_7 
REMARK    5  A    between atoms: C7_8  and  O1_9 
REMARK    6  A    between atoms: C14_18  and  C15_19 
REMARK    7  A    between atoms: C21_25  and  O4_26 
REMARK    8  A    between atoms: C22_28  and  N2_29 
ROOT
HETATM    1  C6  UNL     1     -26.175  21.898   0.320  1.00  0.00     0.040 A 
HETATM    2  C7  UNL     1     -26.795  21.879   1.577  1.00  0.00     0.086 A 
HETATM    3  C9  UNL     1     -26.029  21.708   2.697  1.00  0.00    -0.013 A 
HETATM    4  C10 UNL     1     -24.638  21.546   2.666  1.00  0.00    -0.006 A 
HETATM    5  C11 UNL     1     -24.029  21.568   1.439  1.00  0.00     0.113 A 
HETATM    6  C12 UNL     1     -24.806  21.743   0.285  1.00  0.00     0.116 A 
HETATM    7  O2  UNL     1     -23.904  21.724  -0.780  1.00  0.00    -0.322 OA
HETATM    8  C13 UNL     1     -22.567  21.705  -0.348  1.00  0.00     0.352 C 
HETATM    9  O3  UNL     1     -22.690  21.449   1.013  1.00  0.00    -0.322 OA
HETATM   10  C14 UNL     1     -24.144  21.371   4.045  1.00  0.00     0.063 C 
HETATM   11  C22 UNL     1     -25.220  22.142   4.814  1.00  0.00     0.197 C 
HETATM   12  C23 UNL     1     -26.506  21.712   4.115  1.00  0.00     0.075 C 
ENDROOT
BRANCH  10  13
HETATM   13  C15 UNL     1     -24.148  19.923   4.533  1.00  0.00     0.052 C 
HETATM   14  C16 UNL     1     -24.130  19.856   5.991  1.00  0.00    -0.019 C 
HETATM   15  C17 UNL     1     -23.408  19.010   6.664  1.00  0.00    -0.003 C 
HETATM   16  C18 UNL     1     -22.517  18.028   6.047  1.00  0.00     0.005 C 
HETATM   17  C19 UNL     1     -22.484  18.065   4.729  1.00  0.00    -0.055 C 
HETATM   18  C20 UNL     1     -21.600  17.082   3.977  1.00  0.00     0.046 C 
HETATM   19  C21 UNL     1     -23.169  19.042   3.871  1.00  0.00     0.155 C 
BRANCH  19  20
HETATM   20  O4  UNL     1     -23.743  18.289   2.825  1.00  0.00    -0.391 OA
ATOM     21  H4  UNL     1     -23.912  18.814   2.052  1.00  0.00     0.210 HD
ENDBRANCH  19  20
ENDBRANCH  10  13
BRANCH  11  22
HETATM   22  N2  UNL     1     -25.029  23.557   4.714  1.00  0.00    -0.074 N 
ATOM     23  H23 UNL     1     -24.207  23.860   5.236  1.00  0.00     0.274 HD
ATOM     24  H22 UNL     1     -24.729  23.827   3.777  1.00  0.00     0.274 HD
ATOM     25  H21 UNL     1     -25.863  24.070   5.001  1.00  0.00     0.274 HD
ENDBRANCH  11  22
BRANCH   2  26
HETATM   26  O1  UNL     1     -28.192  22.037   1.647  1.00  0.00    -0.355 OA
HETATM   27  C8  UNL     1     -28.679  23.310   2.071  1.00  0.00     0.210 C 
ENDBRANCH   2  26
BRANCH   1  28
HETATM   28  C5  UNL     1     -27.004  22.132  -0.877  1.00  0.00     0.316 C 
BRANCH  28  29
HETATM   29  N1  UNL     1     -26.743  23.411  -1.511  1.00  0.00     0.092 N 
BRANCH  29  30
HETATM   30  C2  UNL     1     -27.965  24.250  -1.399  1.00  0.00     0.268 C 
HETATM   31  C1  UNL     1     -29.178  23.390  -1.562  1.00  0.00     0.037 C 
ENDBRANCH  29  30
BRANCH  29  32
HETATM   32  C3  UNL     1     -26.689  23.074  -2.957  1.00  0.00     0.268 C 
HETATM   33  C4  UNL     1     -26.407  21.638  -3.211  1.00  0.00     0.037 C 
ENDBRANCH  29  32
ENDBRANCH  28  29
ENDBRANCH   1  28
TORSDOF 8
ENDMDL
MODEL 2
REMARK VINA RESULT: -8.100339093      0.842      1.228
REMARK  8 active torsions:
REMARK  status: ('A' for Active; 'I' for Inactive)
REMARK    1  A    between atoms: C2_2  and  N1_3 
REMARK    2  A    between atoms: N1_3  and  C3_4 
REMARK    3  A    between atoms: N1_3  and  C5_6 
REMARK    4  A    between atoms: C5_6  and  C6_7 
REMARK    5  A    between atoms: C7_8  and  O1_9 
REMARK    6  A    between atoms: C14_18  and  C15_19 
REMARK    7  A    between atoms: C21_25  and  O4_26 
REMARK    8  A    between atoms: C22_28  and  N2_29 
ROOT
HETATM    1  C6  UNL     1     -26.535  22.003   0.326  1.00  0.00     0.040 A 
HETATM    2  C7  UNL     1     -27.014  22.123   1.638  1.00  0.00     0.086 A 
HETATM    3  C9  UNL     1     -26.141  21.993   2.682  1.00  0.00    -0.013 A 
HETATM    4  C10 UNL     1     -24.772  21.741   2.521  1.00  0.00    -0.006 A 
HETATM    5  C11 UNL     1     -24.300  21.626   1.239  1.00  0.00     0.113 A 
HETATM    6  C12 UNL     1     -25.189  21.759   0.162  1.00  0.00     0.116 A 
HETATM    7  O2  UNL     1     -24.410  21.597  -0.986  1.00  0.00    -0.322 OA
HETATM    8  C13 UNL     1     -23.038  21.528  -0.695  1.00  0.00     0.352 C 
HETATM    9  O3  UNL     1     -23.025  21.389   0.687  1.00  0.00    -0.322 OA
HETATM   10  C14 UNL     1     -24.141  21.645   3.850  1.00  0.00     0.063 C 
HETATM   11  C22 UNL     1     -25.083  22.541   4.658  1.00  0.00     0.197 C 
HETATM   12  C23 UNL     1     -26.459  22.140   4.137  1.00  0.00     0.075 C 
ENDROOT
BRANCH  10  13
HETATM   13  C15 UNL     1     -24.171  20.243   4.458  1.00  0.00     0.052 C 
HETATM   14  C16 UNL     1     -24.175  20.299   5.917  1.00  0.00    -0.019 C 
HETATM   15  C17 UNL     1     -23.474  19.505   6.670  1.00  0.00    -0.003 C 
HETATM   16  C18 UNL     1     -22.588  18.464   6.152  1.00  0.00     0.005 C 
HETATM   17  C19 UNL     1     -22.534  18.390   4.837  1.00  0.00    -0.055 C 
HETATM   18  C20 UNL     1     -21.652  17.336   4.185  1.00  0.00     0.046 C 
HETATM   19  C21 UNL     1     -23.193  19.299   3.889  1.00  0.00     0.155 C 
BRANCH  19  20
HETATM   20  O4  UNL     1     -23.761  18.466   2.901  1.00  0.00    -0.391 OA
ATOM     21  H4  UNL     1     -23.449  17.571   2.959  1.00  0.00     0.210 HD
ENDBRANCH  19  20
ENDBRANCH  10  13
BRANCH  11  22
HETATM   22  N2  UNL     1     -24.826  23.929   4.418  1.00  0.00    -0.074 N 
ATOM     23  H23 UNL     1     -25.302  24.255   3.576  1.00  0.00     0.274 HD
ATOM     24  H22 UNL     1     -25.295  24.520   5.105  1.00  0.00     0.274 HD
ATOM     25  H21 UNL     1     -23.826  24.125   4.378  1.00  0.00     0.274 HD
ENDBRANCH  11  22
BRANCH   2  26
HETATM   26  O1  UNL     1     -28.383  22.375   1.840  1.00  0.00    -0.355 OA
HETATM   27  C8  UNL     1     -29.208  21.254   2.158  1.00  0.00     0.210 C 
ENDBRANCH   2  26
BRANCH   1  28
HETATM   28  C5  UNL     1     -27.475  22.193  -0.793  1.00  0.00     0.316 C 
BRANCH  28  29
HETATM   29  N1  UNL     1     -27.175  23.362  -1.599  1.00  0.00     0.092 N 
BRANCH  29  30
HETATM   30  C2  UNL     1     -27.196  24.559  -0.719  1.00  0.00     0.268 C 
HETATM   31  C1  UNL     1     -26.079  25.479  -1.101  1.00  0.00     0.037 C 
ENDBRANCH  29  30
BRANCH  29  32
HETATM   32  C3  UNL     1     -28.393  23.527  -2.434  1.00  0.00     0.268 C 
HETATM   33  C4  UNL     1     -29.651  23.486  -1.645  1.00  0.00     0.037 C 
ENDBRANCH  29  32
ENDBRANCH  28  29
ENDBRANCH   1  28
TORSDOF 8
ENDMDL
MODEL 3
REMARK VINA RESULT: -7.712618306      2.195      7.333
REMARK  8 active torsions:
REMARK  status: ('A' for Active; 'I' for Inactive)
REMARK    1  A    between atoms: C2_2  and  N1_3 
REMARK    2  A    between atoms: N1_3  and  C3_4 
REMARK    3  A    between atoms: N1_3  and  C5_6 
REMARK    4  A    between atoms: C5_6  and  C6_7 
REMARK    5  A    between atoms: C7_8  and  O1_9 
REMARK    6  A    between atoms: C14_18  and  C15_19 
REMARK    7  A    between atoms: C21_25  and  O4_26 
REMARK    8  A    between atoms: C22_28  and  N2_29 
ROOT
HETATM    1  C6  UNL     1     -23.223  20.364   3.971  1.00  0.00     0.040 A 
HETATM    2  C7  UNL     1     -22.785  20.548   2.652  1.00  0.00     0.086 A 
HETATM    3  C9  UNL     1     -23.317  21.565   1.909  1.00  0.00    -0.013 A 
HETATM    4  C10 UNL     1     -24.289  22.450   2.391  1.00  0.00    -0.006 A 
HETATM    5  C11 UNL     1     -24.716  22.275   3.682  1.00  0.00     0.113 A 
HETATM    6  C12 UNL     1     -24.176  21.235   4.452  1.00  0.00     0.116 A 
HETATM    7  O2  UNL     1     -24.804  21.327   5.696  1.00  0.00    -0.322 OA
HETATM    8  C13 UNL     1     -25.601  22.478   5.808  1.00  0.00     0.352 C 
HETATM    9  O3  UNL     1     -25.647  22.947   4.501  1.00  0.00    -0.322 OA
HETATM   10  C14 UNL     1     -24.642  23.405   1.323  1.00  0.00     0.063 C 
HETATM   11  C22 UNL     1     -23.333  23.416   0.531  1.00  0.00     0.197 C 
HETATM   12  C23 UNL     1     -22.939  21.943   0.512  1.00  0.00     0.075 C 
ENDROOT
BRANCH  10  13
HETATM   13  C15 UNL     1     -25.760  22.923   0.398  1.00  0.00     0.052 C 
HETATM   14  C16 UNL     1     -25.792  23.696  -0.840  1.00  0.00    -0.019 C 
HETATM   15  C17 UNL     1     -26.890  24.106  -1.404  1.00  0.00    -0.003 C 
HETATM   16  C18 UNL     1     -28.225  23.852  -0.867  1.00  0.00     0.005 C 
HETATM   17  C19 UNL     1     -28.246  23.175   0.264  1.00  0.00    -0.055 C 
HETATM   18  C20 UNL     1     -29.581  22.843   0.911  1.00  0.00     0.046 C 
HETATM   19  C21 UNL     1     -27.073  22.756   1.045  1.00  0.00     0.155 C 
BRANCH  19  20
HETATM   20  O4  UNL     1     -27.325  21.418   1.415  1.00  0.00    -0.391 OA
ATOM     21  H4  UNL     1     -26.551  20.985   1.756  1.00  0.00     0.210 HD
ENDBRANCH  19  20
ENDBRANCH  10  13
BRANCH  11  22
HETATM   22  N2  UNL     1     -22.332  24.208   1.179  1.00  0.00    -0.074 N 
ATOM     23  H23 UNL     1     -22.651  25.165   1.327  1.00  0.00     0.274 HD
ATOM     24  H22 UNL     1     -22.209  23.930   2.153  1.00  0.00     0.274 HD
ATOM     25  H21 UNL     1     -21.447  24.185   0.671  1.00  0.00     0.274 HD
ENDBRANCH  11  22
BRANCH   2  26
HETATM   26  O1  UNL     1     -21.811  19.676   2.133  1.00  0.00    -0.355 OA
HETATM   27  C8  UNL     1     -20.465  20.151   2.109  1.00  0.00     0.210 C 
ENDBRANCH   2  26
BRANCH   1  28
HETATM   28  C5  UNL     1     -22.609  19.294   4.780  1.00  0.00     0.316 C 
BRANCH  28  29
HETATM   29  N1  UNL     1     -23.566  18.306   5.243  1.00  0.00     0.092 N 
BRANCH  29  30
HETATM   30  C2  UNL     1     -23.082  17.748   6.532  1.00  0.00     0.268 C 
HETATM   31  C1  UNL     1     -22.611  18.863   7.413  1.00  0.00     0.037 C 
ENDBRANCH  29  30
BRANCH  29  32
HETATM   32  C3  UNL     1     -23.387  17.180   4.291  1.00  0.00     0.268 C 
HETATM   33  C4  UNL     1     -21.961  16.897   3.984  1.00  0.00     0.037 C 
ENDBRANCH  29  32
ENDBRANCH  28  29
ENDBRANCH   1  28
TORSDOF 8
ENDMDL
MODEL 4
REMARK VINA RESULT: -7.633994508      0.758      1.485
REMARK  8 active torsions:
REMARK  status: ('A' for Active; 'I' for Inactive)
REMARK    1  A    between atoms: C2_2  and  N1_3 
REMARK    2  A    between atoms: N1_3  and  C3_4 
REMARK    3  A    between atoms: N1_3  and  C5_6 
REMARK    4  A    between atoms: C5_6  and  C6_7 
REMARK    5  A    between atoms: C7_8  and  O1_9 
REMARK    6  A    between atoms: C14_18  and  C15_19 
REMARK    7  A    between atoms: C21_25  and  O4_26 
REMARK    8  A    between atoms: C22_28  and  N2_29 
ROOT
HETATM    1  C6  UNL     1     -25.661  22.339   0.612  1.00  0.00     0.040 A 
HETATM    2  C7  UNL     1     -26.420  22.145   1.775  1.00  0.00     0.086 A 
HETATM    3  C9  UNL     1     -25.782  21.841   2.946  1.00  0.00    -0.013 A 
HETATM    4  C10 UNL     1     -24.392  21.709   3.059  1.00  0.00    -0.006 A 
HETATM    5  C11 UNL     1     -23.647  21.902   1.925  1.00  0.00     0.113 A 
HETATM    6  C12 UNL     1     -24.292  22.214   0.719  1.00  0.00     0.116 A 
HETATM    7  O2  UNL     1     -23.274  22.350  -0.226  1.00  0.00    -0.322 OA
HETATM    8  C13 UNL     1     -21.996  22.299   0.356  1.00  0.00     0.352 C 
HETATM    9  O3  UNL     1     -22.265  21.864   1.648  1.00  0.00    -0.322 OA
HETATM   10  C14 UNL     1     -24.054  21.364   4.452  1.00  0.00     0.063 C 
HETATM   11  C22 UNL     1     -25.236  22.008   5.182  1.00  0.00     0.197 C 
HETATM   12  C23 UNL     1     -26.418  21.651   4.286  1.00  0.00     0.075 C 
ENDROOT
BRANCH  10  13
HETATM   13  C15 UNL     1     -24.066  19.864   4.746  1.00  0.00     0.052 C 
HETATM   14  C16 UNL     1     -24.060  19.607   6.183  1.00  0.00    -0.019 C 
HETATM   15  C17 UNL     1     -23.346  18.677   6.745  1.00  0.00    -0.003 C 
HETATM   16  C18 UNL     1     -22.454  17.780   6.012  1.00  0.00     0.005 C 
HETATM   17  C19 UNL     1     -22.409  17.990   4.710  1.00  0.00    -0.055 C 
HETATM   18  C20 UNL     1     -21.523  17.110   3.843  1.00  0.00     0.046 C 
HETATM   19  C21 UNL     1     -23.085  19.074   3.983  1.00  0.00     0.155 C 
BRANCH  19  20
HETATM   20  O4  UNL     1     -23.652  18.466   2.843  1.00  0.00    -0.391 OA
ATOM     21  H4  UNL     1     -23.736  17.525   2.939  1.00  0.00     0.210 HD
ENDBRANCH  19  20
ENDBRANCH  10  13
BRANCH  11  22
HETATM   22  N2  UNL     1     -25.080  23.427   5.287  1.00  0.00    -0.074 N 
ATOM     23  H23 UNL     1     -25.959  23.880   5.540  1.00  0.00     0.274 HD
ATOM     24  H22 UNL     1     -24.529  23.682   6.106  1.00  0.00     0.274 HD
ATOM     25  H21 UNL     1     -24.688  23.826   4.434  1.00  0.00     0.274 HD
ENDBRANCH  11  22
BRANCH   2  26
HETATM   26  O1  UNL     1     -27.819  22.268   1.700  1.00  0.00    -0.355 OA
HETATM   27  C8  UNL     1     -28.381  23.521   2.087  1.00  0.00     0.210 C 
ENDBRANCH   2  26
BRANCH   1  28
HETATM   28  C5  UNL     1     -26.354  22.713  -0.634  1.00  0.00     0.316 C 
BRANCH  28  29
HETATM   29  N1  UNL     1     -26.811  21.568  -1.400  1.00  0.00     0.092 N 
BRANCH  29  30
HETATM   30  C2  UNL     1     -26.245  21.661  -2.771  1.00  0.00     0.268 C 
HETATM   31  C1  UNL     1     -24.940  20.930  -2.822  1.00  0.00     0.037 C 
ENDBRANCH  29  30
BRANCH  29  32
HETATM   32  C3  UNL     1     -28.256  21.844  -1.604  1.00  0.00     0.268 C 
HETATM   33  C4  UNL     1     -28.573  23.295  -1.645  1.00  0.00     0.037 C 
ENDBRANCH  29  32
ENDBRANCH  28  29
ENDBRANCH   1  28
TORSDOF 8
ENDMDL
MODEL 5
REMARK VINA RESULT: -7.297045645      1.468      1.838
REMARK  8 active torsions:
REMARK  status: ('A' for Active; 'I' for Inactive)
REMARK    1  A    between atoms: C2_2  and  N1_3 
REMARK    2  A    between atoms: N1_3  and  C3_4 
REMARK    3  A    between atoms: N1_3  and  C5_6 
REMARK    4  A    between atoms: C5_6  and  C6_7 
REMARK    5  A    between atoms: C7_8  and  O1_9 
REMARK    6  A    between atoms: C14_18  and  C15_19 
REMARK    7  A    between atoms: C21_25  and  O4_26 
REMARK    8  A    between atoms: C22_28  and  N2_29 
ROOT
HETATM    1  C6  UNL     1     -26.495  23.518   0.945  1.00  0.00     0.040 A 
HETATM    2  C7  UNL     1     -27.177  23.037   2.072  1.00  0.00     0.086 A 
HETATM    3  C9  UNL     1     -26.465  22.707   3.192  1.00  0.00    -0.013 A 
HETATM    4  C10 UNL     1     -25.072  22.820   3.285  1.00  0.00    -0.006 A 
HETATM    5  C11 UNL     1     -24.403  23.293   2.186  1.00  0.00     0.113 A 
HETATM    6  C12 UNL     1     -25.125  23.635   1.033  1.00  0.00     0.116 A 
HETATM    7  O2  UNL     1     -24.172  24.078   0.114  1.00  0.00    -0.322 OA
HETATM    8  C13 UNL     1     -22.892  24.188   0.682  1.00  0.00     0.352 C 
HETATM    9  O3  UNL     1     -23.045  23.546   1.905  1.00  0.00    -0.322 OA
HETATM   10  C14 UNL     1     -24.641  22.365   4.621  1.00  0.00     0.063 C 
HETATM   11  C22 UNL     1     -25.902  22.679   5.430  1.00  0.00     0.197 C 
HETATM   12  C23 UNL     1     -27.021  22.230   4.496  1.00  0.00     0.075 C 
ENDROOT
BRANCH  10  13
HETATM   13  C15 UNL     1     -24.372  20.863   4.713  1.00  0.00     0.052 C 
HETATM   14  C16 UNL     1     -24.200  20.441   6.100  1.00  0.00    -0.019 C 
HETATM   15  C17 UNL     1     -23.292  19.595   6.488  1.00  0.00    -0.003 C 
HETATM   16  C18 UNL     1     -22.325  18.968   5.587  1.00  0.00     0.005 C 
HETATM   17  C19 UNL     1     -22.428  19.336   4.325  1.00  0.00    -0.055 C 
HETATM   18  C20 UNL     1     -21.481  18.741   3.295  1.00  0.00     0.046 C 
HETATM   19  C21 UNL     1     -23.338  20.359   3.792  1.00  0.00     0.155 C 
BRANCH  19  20
HETATM   20  O4  UNL     1     -23.888  19.800   2.619  1.00  0.00    -0.391 OA
ATOM     21  H4  UNL     1     -24.387  20.432   2.116  1.00  0.00     0.210 HD
ENDBRANCH  19  20
ENDBRANCH  10  13
BRANCH  11  22
HETATM   22  N2  UNL     1     -26.006  24.077   5.722  1.00  0.00    -0.074 N 
ATOM     23  H23 UNL     1     -25.244  24.604   5.295  1.00  0.00     0.274 HD
ATOM     24  H22 UNL     1     -26.790  24.504   5.228  1.00  0.00     0.274 HD
ATOM     25  H21 UNL     1     -26.060  24.247   6.726  1.00  0.00     0.274 HD
ENDBRANCH  11  22
BRANCH   2  26
HETATM   26  O1  UNL     1     -28.576  22.909   2.015  1.00  0.00    -0.355 OA
HETATM   27  C8  UNL     1     -29.098  21.597   1.805  1.00  0.00     0.210 C 
ENDBRANCH   2  26
BRANCH   1  28
HETATM   28  C5  UNL     1     -27.276  23.917  -0.240  1.00  0.00     0.316 C 
BRANCH  28  29
HETATM   29  N1  UNL     1     -27.529  22.818  -1.155  1.00  0.00     0.092 N 
BRANCH  29  30
HETATM   30  C2  UNL     1     -26.532  22.881  -2.255  1.00  0.00     0.268 C 
HETATM   31  C1  UNL     1     -25.720  21.624  -2.265  1.00  0.00     0.037 C 
ENDBRANCH  29  30
BRANCH  29  32
HETATM   32  C3  UNL     1     -28.800  23.207  -1.819  1.00  0.00     0.268 C 
HETATM   33  C4  UNL     1     -28.591  23.906  -3.113  1.00  0.00     0.037 C 
ENDBRANCH  29  32
ENDBRANCH  28  29
ENDBRANCH   1  28
TORSDOF 8
ENDMDL
