MODEL 1
REMARK VINA RESULT: -7.696511118      0.000      0.000
REMARK  7 active torsions:
REMARK  status: ('A' for Active; 'I' for Inactive)
REMARK    1  A    between atoms: C2_2  and  S1_5 
REMARK    2  A    between atoms: S1_5  and  C5_8 
REMARK    3  A    between atoms: C5_8  and  C6_9 
REMARK    4  A    between atoms: C6_9  and  C7_10 
REMARK    5  A    between atoms: C7_10  and  N1_11 
REMARK    6  A    between atoms: C11_20  and  C12_21 
REMARK    7  A    between atoms: C14_25  and  C15_26 
ROOT
HETATM    1  N1  UNL     1     -20.482  20.392   1.846  1.00  0.00    -0.241 NA
HETATM    2  S2  UNL     1     -18.908  21.253   1.932  1.00  0.00    -0.026 SA
HETATM    3  C8  UNL     1     -18.825  21.641   0.169  1.00  0.00     0.075 C 
HETATM    4  N2  UNL     1     -17.781  21.750  -0.526  1.00  0.00    -0.395 N 
ATOM      5  H21 UNL     1     -17.734  21.969  -1.521  1.00  0.00     0.156 HD
ATOM      6  H22 UNL     1     -16.789  21.660  -0.307  1.00  0.00     0.156 HD
HETATM    7  C9  UNL     1     -20.270  21.772  -0.150  1.00  0.00     0.174 C 
HETATM    8  C10 UNL     1     -20.700  23.153   0.011  1.00  0.00     0.072 C 
HETATM    9  N3  UNL     1     -21.027  24.269   0.128  1.00  0.00    -0.196 NA
HETATM   10  C11 UNL     1     -21.061  20.817   0.595  1.00  0.00     0.145 C 
ENDROOT
BRANCH  10  11
HETATM   11  C12 UNL     1     -22.402  21.398   0.916  1.00  0.00     0.046 A 
HETATM   12  C13 UNL     1     -23.388  21.787   0.032  1.00  0.00     0.116 A 
HETATM   13  N4  UNL     1     -24.435  22.252   0.757  1.00  0.00    -0.353 N 
HETATM   14  C14 UNL     1     -24.124  22.160   2.067  1.00  0.00     0.085 A 
ATOM     15  H4  UNL     1     -25.311  22.610   0.376  1.00  0.00     0.166 HD
HETATM   16  N5  UNL     1     -22.890  21.640   2.135  1.00  0.00    -0.346 N 
ATOM     17  H5  UNL     1     -22.390  21.454   3.005  1.00  0.00     0.167 HD
BRANCH  14  18
HETATM   18  C15 UNL     1     -25.042  22.580   3.147  1.00  0.00     0.053 A 
HETATM   19  C16 UNL     1     -26.116  21.593   3.600  1.00  0.00     0.013 A 
HETATM   20  C17 UNL     1     -26.452  22.888   2.894  1.00  0.00     0.013 A 
ENDBRANCH  14  18
ENDBRANCH  10  11
BRANCH   1  21
HETATM   21  C7  UNL     1     -20.165  18.995   1.695  1.00  0.00     0.105 C 
BRANCH  21  22
HETATM   22  C6  UNL     1     -21.235  18.017   1.973  1.00  0.00     0.030 C 
BRANCH  22  23
HETATM   23  C5  UNL     1     -21.411  17.553   3.365  1.00  0.00     0.142 C 
BRANCH  23  24
HETATM   24  S1  UNL     1     -22.970  18.021   4.077  1.00  0.00     0.152 S 
HETATM   25  O1  UNL     1     -23.795  16.744   4.164  1.00  0.00    -0.227 OA
HETATM   26  O2  UNL     1     -23.745  18.934   3.163  1.00  0.00    -0.227 OA
BRANCH  24  27
HETATM   27  C2  UNL     1     -22.851  18.664   5.700  1.00  0.00     0.053 C 
HETATM   28  C1  UNL     1     -23.796  19.835   5.853  1.00  0.00     0.031 C 
HETATM   29  C3  UNL     1     -21.443  19.264   5.888  1.00  0.00     0.031 C 
HETATM   30  C4  UNL     1     -22.998  17.634   6.792  1.00  0.00     0.031 C 
ENDBRANCH  24  27
ENDBRANCH  23  24
ENDBRANCH  22  23
ENDBRANCH  21  22
ENDBRANCH   1  21
TORSDOF 7
ENDMDL
MODEL 2
REMARK VINA RESULT: -7.568629043      2.262      4.815
REMARK  7 active torsions:
REMARK  status: ('A' for Active; 'I' for Inactive)
REMARK    1  A    between atoms: C2_2  and  S1_5 
REMARK    2  A    between atoms: S1_5  and  C5_8 
REMARK    3  A    between atoms: C5_8  and  C6_9 
REMARK    4  A    between atoms: C6_9  and  C7_10 
REMARK    5  A    between atoms: C7_10  and  N1_11 
REMARK    6  A    between atoms: C11_20  and  C12_21 
REMARK    7  A    between atoms: C14_25  and  C15_26 
ROOT
HETATM    1  N1  UNL     1     -25.174  22.204   0.944  1.00  0.00    -0.241 NA
HETATM    2  S2  UNL     1     -26.213  23.533   0.327  1.00  0.00    -0.026 SA
HETATM    3  C8  UNL     1     -25.326  24.857   1.179  1.00  0.00     0.075 C 
HETATM    4  N2  UNL     1     -25.819  25.933   1.608  1.00  0.00    -0.395 N 
ATOM      5  H21 UNL     1     -25.318  26.681   2.088  1.00  0.00     0.156 HD
ATOM      6  H22 UNL     1     -26.762  26.319   1.593  1.00  0.00     0.156 HD
HETATM    7  C9  UNL     1     -23.952  24.294   1.201  1.00  0.00     0.174 C 
HETATM    8  C10 UNL     1     -23.212  24.721   0.023  1.00  0.00     0.072 C 
HETATM    9  N3  UNL     1     -22.625  25.085  -0.920  1.00  0.00    -0.196 NA
HETATM   10  C11 UNL     1     -23.973  22.861   1.397  1.00  0.00     0.145 C 
ENDROOT
BRANCH  10  11
HETATM   11  C12 UNL     1     -22.832  22.223   0.669  1.00  0.00     0.046 A 
HETATM   12  C13 UNL     1     -22.866  21.567  -0.545  1.00  0.00     0.116 A 
HETATM   13  N4  UNL     1     -21.606  21.152  -0.827  1.00  0.00    -0.353 N 
HETATM   14  C14 UNL     1     -20.793  21.536   0.181  1.00  0.00     0.085 A 
ATOM     15  H4  UNL     1     -21.320  20.638  -1.660  1.00  0.00     0.166 HD
HETATM   16  N5  UNL     1     -21.560  22.181   1.072  1.00  0.00    -0.346 N 
ATOM     17  H5  UNL     1     -21.216  22.587   1.942  1.00  0.00     0.167 HD
BRANCH  14  18
HETATM   18  C15 UNL     1     -19.343  21.249   0.203  1.00  0.00     0.053 A 
HETATM   19  C16 UNL     1     -18.879  19.941   0.841  1.00  0.00     0.013 A 
HETATM   20  C17 UNL     1     -18.560  21.293   1.441  1.00  0.00     0.013 A 
ENDBRANCH  14  18
ENDBRANCH  10  11
BRANCH   1  21
HETATM   21  C7  UNL     1     -25.832  21.697   2.122  1.00  0.00     0.105 C 
BRANCH  21  22
HETATM   22  C6  UNL     1     -25.008  21.490   3.329  1.00  0.00     0.030 C 
BRANCH  22  23
HETATM   23  C5  UNL     1     -25.104  20.189   4.024  1.00  0.00     0.142 C 
BRANCH  23  24
HETATM   24  S1  UNL     1     -23.636  19.199   3.879  1.00  0.00     0.152 S 
HETATM   25  O1  UNL     1     -22.694  19.969   2.963  1.00  0.00    -0.227 OA
HETATM   26  O2  UNL     1     -23.911  17.900   3.166  1.00  0.00    -0.227 OA
BRANCH  24  27
HETATM   27  C2  UNL     1     -22.790  18.950   5.391  1.00  0.00     0.053 C 
HETATM   28  C1  UNL     1     -21.298  19.010   5.154  1.00  0.00     0.031 C 
HETATM   29  C3  UNL     1     -23.057  17.509   5.871  1.00  0.00     0.031 C 
HETATM   30  C4  UNL     1     -23.251  19.840   6.517  1.00  0.00     0.031 C 
ENDBRANCH  24  27
ENDBRANCH  23  24
ENDBRANCH  22  23
ENDBRANCH  21  22
ENDBRANCH   1  21
TORSDOF 7
ENDMDL
MODEL 3
REMARK VINA RESULT: -7.473492759      1.781      2.264
REMARK  7 active torsions:
REMARK  status: ('A' for Active; 'I' for Inactive)
REMARK    1  A    between atoms: C2_2  and  S1_5 
REMARK    2  A    between atoms: S1_5  and  C5_8 
REMARK    3  A    between atoms: C5_8  and  C6_9 
REMARK    4  A    between atoms: C6_9  and  C7_10 
REMARK    5  A    between atoms: C7_10  and  N1_11 
REMARK    6  A    between atoms: C11_20  and  C12_21 
REMARK    7  A    between atoms: C14_25  and  C15_26 
ROOT
HETATM    1  N1  UNL     1     -21.566  21.853   1.166  1.00  0.00    -0.241 NA
HETATM    2  S2  UNL     1     -20.440  23.129   0.591  1.00  0.00    -0.026 SA
HETATM    3  C8  UNL     1     -21.360  23.504  -0.919  1.00  0.00     0.075 C 
HETATM    4  N2  UNL     1     -20.876  23.900  -2.012  1.00  0.00    -0.395 N 
ATOM      5  H21 UNL     1     -21.396  24.112  -2.864  1.00  0.00     0.156 HD
ATOM      6  H22 UNL     1     -19.924  24.100  -2.318  1.00  0.00     0.156 HD
HETATM    7  C9  UNL     1     -22.746  23.213  -0.473  1.00  0.00     0.174 C 
HETATM    8  C10 UNL     1     -23.369  24.415   0.061  1.00  0.00     0.072 C 
HETATM    9  N3  UNL     1     -23.861  25.392   0.473  1.00  0.00    -0.196 NA
HETATM   10  C11 UNL     1     -22.782  22.080   0.426  1.00  0.00     0.145 C 
ENDROOT
BRANCH  10  11
HETATM   11  C12 UNL     1     -23.874  22.256   1.434  1.00  0.00     0.046 A 
HETATM   12  C13 UNL     1     -25.178  21.810   1.354  1.00  0.00     0.116 A 
HETATM   13  N4  UNL     1     -25.815  22.188   2.490  1.00  0.00    -0.353 N 
HETATM   14  C14 UNL     1     -24.940  22.856   3.271  1.00  0.00     0.085 A 
ATOM     15  H4  UNL     1     -26.791  21.998   2.716  1.00  0.00     0.166 HD
HETATM   16  N5  UNL     1     -23.774  22.883   2.609  1.00  0.00    -0.346 N 
ATOM     17  H5  UNL     1     -22.923  23.324   2.958  1.00  0.00     0.167 HD
BRANCH  14  18
HETATM   18  C15 UNL     1     -25.299  23.414   4.591  1.00  0.00     0.053 A 
HETATM   19  C16 UNL     1     -25.358  22.459   5.782  1.00  0.00     0.013 A 
HETATM   20  C17 UNL     1     -26.590  23.140   5.228  1.00  0.00     0.013 A 
ENDBRANCH  14  18
ENDBRANCH  10  11
BRANCH   1  21
HETATM   21  C7  UNL     1     -21.028  20.603   0.692  1.00  0.00     0.105 C 
BRANCH  21  22
HETATM   22  C6  UNL     1     -20.593  19.619   1.703  1.00  0.00     0.030 C 
BRANCH  22  23
HETATM   23  C5  UNL     1     -21.135  19.740   3.072  1.00  0.00     0.142 C 
BRANCH  23  24
HETATM   24  S1  UNL     1     -22.022  18.298   3.614  1.00  0.00     0.152 S 
HETATM   25  O1  UNL     1     -20.968  17.308   4.091  1.00  0.00    -0.227 OA
HETATM   26  O2  UNL     1     -22.722  17.614   2.469  1.00  0.00    -0.227 OA
BRANCH  24  27
HETATM   27  C2  UNL     1     -23.100  18.588   4.962  1.00  0.00     0.053 C 
HETATM   28  C1  UNL     1     -24.396  19.182   4.458  1.00  0.00     0.031 C 
HETATM   29  C3  UNL     1     -22.484  19.681   5.858  1.00  0.00     0.031 C 
HETATM   30  C4  UNL     1     -23.303  17.396   5.865  1.00  0.00     0.031 C 
ENDBRANCH  24  27
ENDBRANCH  23  24
ENDBRANCH  22  23
ENDBRANCH  21  22
ENDBRANCH   1  21
TORSDOF 7
ENDMDL
MODEL 4
REMARK VINA RESULT: -7.452618584      5.456      8.697
REMARK  7 active torsions:
REMARK  status: ('A' for Active; 'I' for Inactive)
REMARK    1  A    between atoms: C2_2  and  S1_5 
REMARK    2  A    between atoms: S1_5  and  C5_8 
REMARK    3  A    between atoms: C5_8  and  C6_9 
REMARK    4  A    between atoms: C6_9  and  C7_10 
REMARK    5  A    between atoms: C7_10  and  N1_11 
REMARK    6  A    between atoms: C11_20  and  C12_21 
REMARK    7  A    between atoms: C14_25  and  C15_26 
ROOT
HETATM    1  N1  UNL     1     -27.605  22.754   3.906  1.00  0.00    -0.241 NA
HETATM    2  S2  UNL     1     -27.671  23.802   2.449  1.00  0.00    -0.026 SA
HETATM    3  C8  UNL     1     -26.424  24.977   3.024  1.00  0.00     0.075 C 
HETATM    4  N2  UNL     1     -26.372  26.206   2.754  1.00  0.00    -0.395 N 
ATOM      5  H21 UNL     1     -25.668  26.869   3.078  1.00  0.00     0.156 HD
ATOM      6  H22 UNL     1     -26.961  26.818   2.190  1.00  0.00     0.156 HD
HETATM    7  C9  UNL     1     -25.567  24.084   3.845  1.00  0.00     0.174 C 
HETATM    8  C10 UNL     1     -24.494  23.527   3.034  1.00  0.00     0.072 C 
HETATM    9  N3  UNL     1     -23.629  23.101   2.374  1.00  0.00    -0.196 NA
HETATM   10  C11 UNL     1     -26.356  23.092   4.541  1.00  0.00     0.145 C 
ENDROOT
BRANCH  10  11
HETATM   11  C12 UNL     1     -25.581  21.819   4.677  1.00  0.00     0.046 A 
HETATM   12  C13 UNL     1     -25.572  20.741   3.816  1.00  0.00     0.116 A 
HETATM   13  N4  UNL     1     -24.728  19.810   4.326  1.00  0.00    -0.353 N 
HETATM   14  C14 UNL     1     -24.215  20.285   5.481  1.00  0.00     0.085 A 
ATOM     15  H4  UNL     1     -24.516  18.905   3.908  1.00  0.00     0.166 HD
HETATM   16  N5  UNL     1     -24.747  21.501   5.669  1.00  0.00    -0.346 N 
ATOM     17  H5  UNL     1     -24.541  22.104   6.466  1.00  0.00     0.167 HD
BRANCH  14  18
HETATM   18  C15 UNL     1     -23.252  19.528   6.309  1.00  0.00     0.053 A 
HETATM   19  C16 UNL     1     -21.947  19.075   5.659  1.00  0.00     0.013 A 
HETATM   20  C17 UNL     1     -23.009  18.097   6.108  1.00  0.00     0.013 A 
ENDBRANCH  14  18
ENDBRANCH  10  11
BRANCH   1  21
HETATM   21  C7  UNL     1     -28.649  23.221   4.782  1.00  0.00     0.105 C 
BRANCH  21  22
HETATM   22  C6  UNL     1     -29.987  23.437   4.198  1.00  0.00     0.030 C 
BRANCH  22  23
HETATM   23  C5  UNL     1     -30.694  24.693   4.522  1.00  0.00     0.142 C 
BRANCH  23  24
HETATM   24  S1  UNL     1     -31.277  24.767   6.199  1.00  0.00     0.152 S 
HETATM   25  O1  UNL     1     -30.176  25.450   7.000  1.00  0.00    -0.227 OA
HETATM   26  O2  UNL     1     -31.412  23.392   6.800  1.00  0.00    -0.227 OA
BRANCH  24  27
HETATM   27  C2  UNL     1     -32.730  25.720   6.409  1.00  0.00     0.053 C 
HETATM   28  C1  UNL     1     -32.892  26.664   5.239  1.00  0.00     0.031 C 
HETATM   29  C3  UNL     1     -32.542  26.637   7.635  1.00  0.00     0.031 C 
HETATM   30  C4  UNL     1     -33.969  24.912   6.699  1.00  0.00     0.031 C 
ENDBRANCH  24  27
ENDBRANCH  23  24
ENDBRANCH  22  23
ENDBRANCH  21  22
ENDBRANCH   1  21
TORSDOF 7
ENDMDL
MODEL 5
REMARK VINA RESULT: -7.409515510      3.185      6.708
REMARK  7 active torsions:
REMARK  status: ('A' for Active; 'I' for Inactive)
REMARK    1  A    between atoms: C2_2  and  S1_5 
REMARK    2  A    between atoms: S1_5  and  C5_8 
REMARK    3  A    between atoms: C5_8  and  C6_9 
REMARK    4  A    between atoms: C6_9  and  C7_10 
REMARK    5  A    between atoms: C7_10  and  N1_11 
REMARK    6  A    between atoms: C11_20  and  C12_21 
REMARK    7  A    between atoms: C14_25  and  C15_26 
ROOT
HETATM    1  N1  UNL     1     -26.104  23.396   1.070  1.00  0.00    -0.241 NA
HETATM    2  S2  UNL     1     -27.723  24.099   0.736  1.00  0.00    -0.026 SA
HETATM    3  C8  UNL     1     -28.581  22.513   0.625  1.00  0.00     0.075 C 
HETATM    4  N2  UNL     1     -29.583  22.252  -0.092  1.00  0.00    -0.395 N 
ATOM      5  H21 UNL     1     -30.068  21.357  -0.154  1.00  0.00     0.156 HD
ATOM      6  H22 UNL     1     -30.135  22.810  -0.743  1.00  0.00     0.156 HD
HETATM    7  C9  UNL     1     -27.777  21.701   1.574  1.00  0.00     0.174 C 
HETATM    8  C10 UNL     1     -28.345  21.777   2.912  1.00  0.00     0.072 C 
HETATM    9  N3  UNL     1     -28.822  21.835   3.977  1.00  0.00    -0.196 NA
HETATM   10  C11 UNL     1     -26.375  22.049   1.507  1.00  0.00     0.145 C 
ENDROOT
BRANCH  10  11
HETATM   11  C12 UNL     1     -25.741  21.896   2.854  1.00  0.00     0.046 A 
HETATM   12  C13 UNL     1     -25.518  22.878   3.799  1.00  0.00     0.116 A 
HETATM   13  N4  UNL     1     -24.924  22.295   4.869  1.00  0.00    -0.353 N 
HETATM   14  C14 UNL     1     -24.774  20.978   4.612  1.00  0.00     0.085 A 
ATOM     15  H4  UNL     1     -24.639  22.770   5.725  1.00  0.00     0.166 HD
HETATM   16  N5  UNL     1     -25.277  20.764   3.387  1.00  0.00    -0.346 N 
ATOM     17  H5  UNL     1     -25.300  19.855   2.924  1.00  0.00     0.167 HD
BRANCH  14  18
HETATM   18  C15 UNL     1     -24.159  20.033   5.567  1.00  0.00     0.053 A 
HETATM   19  C16 UNL     1     -22.687  19.673   5.375  1.00  0.00     0.013 A 
HETATM   20  C17 UNL     1     -23.799  18.664   5.186  1.00  0.00     0.013 A 
ENDBRANCH  14  18
ENDBRANCH  10  11
BRANCH   1  21
HETATM   21  C7  UNL     1     -25.445  23.286  -0.207  1.00  0.00     0.105 C 
BRANCH  21  22
HETATM   22  C6  UNL     1     -24.042  23.735  -0.293  1.00  0.00     0.030 C 
BRANCH  22  23
HETATM   23  C5  UNL     1     -23.143  23.437   0.842  1.00  0.00     0.142 C 
BRANCH  23  24
HETATM   24  S1  UNL     1     -22.314  21.872   0.699  1.00  0.00     0.152 S 
HETATM   25  O1  UNL     1     -23.074  21.086  -0.361  1.00  0.00    -0.227 OA
HETATM   26  O2  UNL     1     -22.439  21.061   1.962  1.00  0.00    -0.227 OA
BRANCH  24  27
HETATM   27  C2  UNL     1     -20.654  21.990   0.157  1.00  0.00     0.053 C 
HETATM   28  C1  UNL     1     -20.036  23.264   0.686  1.00  0.00     0.031 C 
HETATM   29  C3  UNL     1     -20.649  22.154  -1.376  1.00  0.00     0.031 C 
HETATM   30  C4  UNL     1     -19.820  20.764   0.432  1.00  0.00     0.031 C 
ENDBRANCH  24  27
ENDBRANCH  23  24
ENDBRANCH  22  23
ENDBRANCH  21  22
ENDBRANCH   1  21
TORSDOF 7
ENDMDL
