MODEL 1
REMARK VINA RESULT: -4.257859506      0.000      0.000
REMARK  1 active torsions:
REMARK  status: ('A' for Active; 'I' for Inactive)
REMARK    1  A    between atoms: N1_1  and  C1_4 
ROOT
HETATM    1  C1  UNL     1      30.304  65.697  98.514  1.00  0.00     0.695 A 
HETATM    2  N2  UNL     1      29.103  65.508  99.089  1.00  0.00    -0.152 N 
ATOM      3  H2  UNL     1      29.046  64.990  99.966  1.00  0.00     0.188 HD
HETATM    4  C2  UNL     1      27.975  65.986  98.535  1.00  0.00     0.307 A 
HETATM    5  O1  UNL     1      26.877  65.806  99.073  1.00  0.00    -0.263 OA
HETATM    6  C3  UNL     1      28.036  66.696  97.335  1.00  0.00     0.216 A 
HETATM    7  N3  UNL     1      27.101  67.280  96.564  1.00  0.00    -0.330 N 
ATOM      8  H3  UNL     1      26.098  67.299  96.750  1.00  0.00     0.168 HD
HETATM    9  C4  UNL     1      27.720  67.834  95.506  1.00  0.00     0.201 A 
HETATM   10  N4  UNL     1      29.030  67.570  95.662  1.00  0.00    -0.273 N 
ATOM     11  H4  UNL     1      29.760  67.865  95.014  1.00  0.00     0.190 HD
HETATM   12  N5  UNL     1      29.245  66.875  96.775  1.00  0.00    -0.159 N 
HETATM   13  N6  UNL     1      30.338  66.386  97.358  1.00  0.00    -0.109 N 
ATOM     14  H6  UNL     1      31.241  66.539  96.909  1.00  0.00     0.208 HD
ENDROOT
BRANCH   1  15
HETATM   15  N1  UNL     1      31.402  65.231  99.054  1.00  0.00    -0.233 N 
ATOM     16  H12 UNL     1      31.531  65.231 100.066  1.00  0.00     0.174 HD
ATOM     17  H11 UNL     1      32.158  64.855  98.483  1.00  0.00     0.174 HD
ENDBRANCH   1  15
TORSDOF 1
ENDMDL
MODEL 2
REMARK VINA RESULT: -3.570462315      1.542      1.639
REMARK  1 active torsions:
REMARK  status: ('A' for Active; 'I' for Inactive)
REMARK    1  A    between atoms: N1_1  and  C1_4 
ROOT
HETATM    1  C1  UNL     1      30.777  65.686  98.490  1.00  0.00     0.695 A 
HETATM    2  N2  UNL     1      30.395  66.425  99.547  1.00  0.00    -0.152 N 
ATOM      3  H2  UNL     1      30.997  66.466 100.370  1.00  0.00     0.188 HD
HETATM    4  C2  UNL     1      29.237  67.108  99.546  1.00  0.00     0.307 A 
HETATM    5  O1  UNL     1      28.896  67.783 100.525  1.00  0.00    -0.263 OA
HETATM    6  C3  UNL     1      28.402  67.061  98.428  1.00  0.00     0.216 A 
HETATM    7  N3  UNL     1      27.215  67.626  98.144  1.00  0.00    -0.330 N 
ATOM      8  H3  UNL     1      26.681  68.239  98.759  1.00  0.00     0.168 HD
HETATM    9  C4  UNL     1      26.857  67.239  96.907  1.00  0.00     0.201 A 
HETATM   10  N4  UNL     1      27.845  66.441  96.465  1.00  0.00    -0.273 N 
ATOM     11  H4  UNL     1      27.860  65.990  95.550  1.00  0.00     0.190 HD
HETATM   12  N5  UNL     1      28.801  66.318  97.381  1.00  0.00    -0.159 N 
HETATM   13  N6  UNL     1      29.957  65.657  97.424  1.00  0.00    -0.109 N 
ATOM     14  H6  UNL     1      30.232  65.104  96.613  1.00  0.00     0.208 HD
ENDROOT
BRANCH   1  15
HETATM   15  N1  UNL     1      31.905  65.021  98.492  1.00  0.00    -0.233 N 
ATOM     16  H12 UNL     1      32.069  64.268  99.160  1.00  0.00     0.174 HD
ATOM     17  H11 UNL     1      32.650  65.234  97.830  1.00  0.00     0.174 HD
ENDBRANCH   1  15
TORSDOF 1
ENDMDL
MODEL 3
REMARK VINA RESULT: -3.544446015      0.824      3.359
REMARK  1 active torsions:
REMARK  status: ('A' for Active; 'I' for Inactive)
REMARK    1  A    between atoms: N1_1  and  C1_4 
ROOT
HETATM    1  C1  UNL     1      28.131  67.362  96.208  1.00  0.00     0.695 A 
HETATM    2  N2  UNL     1      27.224  66.976  97.123  1.00  0.00    -0.152 N 
ATOM      3  H2  UNL     1      26.244  67.228  96.991  1.00  0.00     0.188 HD
HETATM    4  C2  UNL     1      27.578  66.264  98.207  1.00  0.00     0.307 A 
HETATM    5  O1  UNL     1      26.734  65.916  99.042  1.00  0.00    -0.263 OA
HETATM    6  C3  UNL     1      28.914  65.912  98.403  1.00  0.00     0.216 A 
HETATM    7  N3  UNL     1      29.551  65.222  99.366  1.00  0.00    -0.330 N 
ATOM      8  H3  UNL     1      29.118  64.805 100.190  1.00  0.00     0.168 HD
HETATM    9  C4  UNL     1      30.858  65.178  99.051  1.00  0.00     0.201 A 
HETATM   10  N4  UNL     1      30.984  65.849  97.893  1.00  0.00    -0.273 N 
ATOM     11  H4  UNL     1      31.865  65.988  97.398  1.00  0.00     0.190 HD
HETATM   12  N5  UNL     1      29.807  66.306  97.478  1.00  0.00    -0.159 N 
HETATM   13  N6  UNL     1      29.413  67.009  96.417  1.00  0.00    -0.109 N 
ATOM     14  H6  UNL     1      30.113  67.292  95.732  1.00  0.00     0.208 HD
ENDROOT
BRANCH   1  15
HETATM   15  N1  UNL     1      27.785  68.055  95.152  1.00  0.00    -0.233 N 
ATOM     16  H12 UNL     1      28.294  67.961  94.273  1.00  0.00     0.174 HD
ATOM     17  H11 UNL     1      27.000  68.705  95.175  1.00  0.00     0.174 HD
ENDBRANCH   1  15
TORSDOF 1
ENDMDL
MODEL 4
REMARK VINA RESULT: -3.510406855      1.949      2.765
REMARK  1 active torsions:
REMARK  status: ('A' for Active; 'I' for Inactive)
REMARK    1  A    between atoms: N1_1  and  C1_4 
ROOT
HETATM    1  C1  UNL     1      27.185  66.164  98.560  1.00  0.00     0.695 A 
HETATM    2  N2  UNL     1      28.417  66.251  99.092  1.00  0.00    -0.152 N 
ATOM      3  H2  UNL     1      28.600  65.818  99.997  1.00  0.00     0.188 HD
HETATM    4  C2  UNL     1      29.412  66.897  98.459  1.00  0.00     0.307 A 
HETATM    5  O1  UNL     1      30.541  66.971  98.960  1.00  0.00    -0.263 OA
HETATM    6  C3  UNL     1      29.177  67.496  97.221  1.00  0.00     0.216 A 
HETATM    7  N3  UNL     1      29.956  68.190  96.373  1.00  0.00    -0.330 N 
ATOM      8  H3  UNL     1      30.941  68.415  96.513  1.00  0.00     0.168 HD
HETATM    9  C4  UNL     1      29.209  68.537  95.310  1.00  0.00     0.201 A 
HETATM   10  N4  UNL     1      27.981  68.039  95.540  1.00  0.00    -0.273 N 
ATOM     11  H4  UNL     1      27.188  68.139  94.906  1.00  0.00     0.190 HD
HETATM   12  N5  UNL     1      27.939  67.398  96.704  1.00  0.00    -0.159 N 
HETATM   13  N6  UNL     1      26.982  66.748  97.364  1.00  0.00    -0.109 N 
ATOM     14  H6  UNL     1      26.054  66.689  96.945  1.00  0.00     0.208 HD
ENDROOT
BRANCH   1  15
HETATM   15  N1  UNL     1      26.216  65.535  99.177  1.00  0.00    -0.233 N 
ATOM     16  H12 UNL     1      26.337  65.189 100.128  1.00  0.00     0.174 HD
ATOM     17  H11 UNL     1      25.315  65.374  98.727  1.00  0.00     0.174 HD
ENDBRANCH   1  15
TORSDOF 1
ENDMDL
MODEL 5
REMARK VINA RESULT: -3.237463732      1.217      1.217
REMARK  1 active torsions:
REMARK  status: ('A' for Active; 'I' for Inactive)
REMARK    1  A    between atoms: N1_1  and  C1_4 
ROOT
HETATM    1  C1  UNL     1      29.638  67.076  99.447  1.00  0.00     0.695 A 
HETATM    2  N2  UNL     1      28.534  66.311  99.524  1.00  0.00    -0.152 N 
ATOM      3  H2  UNL     1      28.327  65.821 100.395  1.00  0.00     0.188 HD
HETATM    4  C2  UNL     1      27.698  66.177  98.481  1.00  0.00     0.307 A 
HETATM    5  O1  UNL     1      26.686  65.470  98.564  1.00  0.00    -0.263 OA
HETATM    6  C3  UNL     1      27.968  66.839  97.282  1.00  0.00     0.216 A 
HETATM    7  N3  UNL     1      27.330  66.894  96.099  1.00  0.00    -0.330 N 
ATOM      8  H3  UNL     1      26.462  66.413  95.863  1.00  0.00     0.168 HD
HETATM    9  C4  UNL     1      28.037  67.695  95.282  1.00  0.00     0.201 A 
HETATM   10  N4  UNL     1      29.098  68.112  95.997  1.00  0.00    -0.273 N 
ATOM     11  H4  UNL     1      29.823  68.737  95.645  1.00  0.00     0.190 HD
HETATM   12  N5  UNL     1      29.075  67.600  97.224  1.00  0.00    -0.159 N 
HETATM   13  N6  UNL     1      29.877  67.706  98.282  1.00  0.00    -0.109 N 
ATOM     14  H6  UNL     1      30.708  68.292  98.207  1.00  0.00     0.208 HD
ENDROOT
BRANCH   1  15
HETATM   15  N1  UNL     1      30.453  67.207 100.464  1.00  0.00    -0.233 N 
ATOM     16  H12 UNL     1      30.485  66.506 101.204  1.00  0.00     0.174 HD
ATOM     17  H11 UNL     1      31.077  68.009 100.547  1.00  0.00     0.174 HD
ENDBRANCH   1  15
TORSDOF 1
ENDMDL
