MODEL 1
REMARK VINA RESULT: -5.485248752      0.000      0.000
REMARK  1 active torsions:
REMARK  status: ('A' for Active; 'I' for Inactive)
REMARK    1  A    between atoms: N1_1  and  C1_4 
ROOT
HETATM    1  C1  UNL     1      27.548  66.375  98.060  1.00  0.00     0.714 A 
HETATM    2  N2  UNL     1      27.295  67.193  97.022  1.00  0.00    -0.139 N 
ATOM      3  H2  UNL     1      26.334  67.501  96.874  1.00  0.00     0.189 HD
HETATM    4  C2  UNL     1      28.246  67.629  96.165  1.00  0.00     0.352 A 
HETATM    5  O1  UNL     1      27.949  68.400  95.205  1.00  0.00    -0.246 OA
HETATM    6  N3  UNL     1      29.511  67.225  96.360  1.00  0.00    -0.138 N 
ATOM      7  H3  UNL     1      30.251  67.537  95.732  1.00  0.00     0.189 HD
HETATM    8  C3  UNL     1      29.794  66.410  97.384  1.00  0.00     0.734 A 
HETATM    9  N4  UNL     1      30.675  65.700  98.099  1.00  0.00    -0.112 N 
ATOM     10  H4  UNL     1      31.680  65.542  98.033  1.00  0.00     0.203 HD
HETATM   11  N5  UNL     1      29.730  65.285  98.926  1.00  0.00     0.031 NA
HETATM   12  N6  UNL     1      28.821  65.978  98.241  1.00  0.00     0.106 N 
ENDROOT
BRANCH   1  13
HETATM   13  N1  UNL     1      26.620  65.965  98.873  1.00  0.00    -0.232 N 
ATOM     14  H12 UNL     1      25.644  65.966  98.573  1.00  0.00     0.174 HD
ATOM     15  H11 UNL     1      26.821  65.637  99.817  1.00  0.00     0.174 HD
ENDBRANCH   1  13
TORSDOF 1
ENDMDL
MODEL 2
REMARK VINA RESULT: -5.133673616      2.007      3.033
REMARK  1 active torsions:
REMARK  status: ('A' for Active; 'I' for Inactive)
REMARK    1  A    between atoms: N1_1  and  C1_4 
ROOT
HETATM    1  C1  UNL     1      27.789  66.222  98.280  1.00  0.00     0.714 A 
HETATM    2  N2  UNL     1      28.908  65.675  98.789  1.00  0.00    -0.139 N 
ATOM      3  H2  UNL     1      28.827  65.109  99.634  1.00  0.00     0.189 HD
HETATM    4  C2  UNL     1      30.133  65.833  98.240  1.00  0.00     0.352 A 
HETATM    5  O1  UNL     1      31.153  65.294  98.762  1.00  0.00    -0.246 OA
HETATM    6  N3  UNL     1      30.240  66.576  97.127  1.00  0.00    -0.138 N 
ATOM      7  H3  UNL     1      31.150  66.714  96.688  1.00  0.00     0.189 HD
HETATM    8  C3  UNL     1      29.145  67.135  96.597  1.00  0.00     0.734 A 
HETATM    9  N4  UNL     1      28.557  67.884  95.658  1.00  0.00    -0.112 N 
ATOM     10  H4  UNL     1      28.894  68.387  94.837  1.00  0.00     0.203 HD
HETATM   11  N5  UNL     1      27.366  67.716  96.210  1.00  0.00     0.031 NA
HETATM   12  N6  UNL     1      27.913  66.965  97.165  1.00  0.00     0.106 N 
ENDROOT
BRANCH   1  13
HETATM   13  N1  UNL     1      26.619  66.059  98.824  1.00  0.00    -0.232 N 
ATOM     14  H12 UNL     1      26.541  65.920  99.831  1.00  0.00     0.174 HD
ATOM     15  H11 UNL     1      25.755  66.061  98.281  1.00  0.00     0.174 HD
ENDBRANCH   1  13
TORSDOF 1
ENDMDL
MODEL 3
REMARK VINA RESULT: -5.036819715      0.906      2.533
REMARK  1 active torsions:
REMARK  status: ('A' for Active; 'I' for Inactive)
REMARK    1  A    between atoms: N1_1  and  C1_4 
ROOT
HETATM    1  C1  UNL     1      29.624  66.148  97.783  1.00  0.00     0.714 A 
HETATM    2  N2  UNL     1      30.008  66.845  96.698  1.00  0.00    -0.139 N 
ATOM      3  H2  UNL     1      30.988  66.800  96.418  1.00  0.00     0.189 HD
HETATM    4  C2  UNL     1      29.166  67.600  95.958  1.00  0.00     0.352 A 
HETATM    5  O1  UNL     1      29.584  68.235  94.945  1.00  0.00    -0.246 OA
HETATM    6  N3  UNL     1      27.876  67.659  96.324  1.00  0.00    -0.138 N 
ATOM      7  H3  UNL     1      27.215  68.219  95.787  1.00  0.00     0.189 HD
HETATM    8  C3  UNL     1      27.463  66.978  97.400  1.00  0.00     0.734 A 
HETATM    9  N4  UNL     1      26.492  66.608  98.243  1.00  0.00    -0.112 N 
ATOM     10  H4  UNL     1      25.495  66.811  98.312  1.00  0.00     0.203 HD
HETATM   11  N5  UNL     1      27.332  65.874  98.954  1.00  0.00     0.031 NA
HETATM   12  N6  UNL     1      28.328  66.219  98.138  1.00  0.00     0.106 N 
ENDROOT
BRANCH   1  13
HETATM   13  N1  UNL     1      30.450  65.428  98.483  1.00  0.00    -0.232 N 
ATOM     14  H12 UNL     1      31.258  64.999  98.032  1.00  0.00     0.174 HD
ATOM     15  H11 UNL     1      30.327  65.264  99.482  1.00  0.00     0.174 HD
ENDBRANCH   1  13
TORSDOF 1
ENDMDL
MODEL 4
REMARK VINA RESULT: -4.856413210      2.053      3.673
REMARK  1 active torsions:
REMARK  status: ('A' for Active; 'I' for Inactive)
REMARK    1  A    between atoms: N1_1  and  C1_4 
ROOT
HETATM    1  C1  UNL     1      29.302  67.162  96.532  1.00  0.00     0.714 A 
HETATM    2  N2  UNL     1      30.286  66.492  97.160  1.00  0.00    -0.139 N 
ATOM      3  H2  UNL     1      31.217  66.501  96.742  1.00  0.00     0.189 HD
HETATM    4  C2  UNL     1      30.108  65.811  98.314  1.00  0.00     0.352 A 
HETATM    5  O1  UNL     1      31.072  65.199  98.861  1.00  0.00    -0.246 OA
HETATM    6  N3  UNL     1      28.884  65.801  98.864  1.00  0.00    -0.138 N 
ATOM      7  H3  UNL     1      28.717  65.297  99.734  1.00  0.00     0.189 HD
HETATM    8  C3  UNL     1      27.883  66.456  98.263  1.00  0.00     0.734 A 
HETATM    9  N4  UNL     1      26.602  66.839  98.216  1.00  0.00    -0.112 N 
ATOM     10  H4  UNL     1      25.792  66.682  98.816  1.00  0.00     0.203 HD
HETATM   11  N5  UNL     1      26.797  67.500  97.088  1.00  0.00     0.031 NA
HETATM   12  N6  UNL     1      28.080  67.141  97.096  1.00  0.00     0.106 N 
ENDROOT
BRANCH   1  13
HETATM   13  N1  UNL     1      29.492  67.811  95.422  1.00  0.00    -0.232 N 
ATOM     14  H12 UNL     1      29.643  68.820  95.442  1.00  0.00     0.174 HD
ATOM     15  H11 UNL     1      29.498  67.353  94.510  1.00  0.00     0.174 HD
ENDBRANCH   1  13
TORSDOF 1
ENDMDL
MODEL 5
REMARK VINA RESULT: -4.776742233      2.392      3.315
REMARK  1 active torsions:
REMARK  status: ('A' for Active; 'I' for Inactive)
REMARK    1  A    between atoms: N1_1  and  C1_4 
ROOT
HETATM    1  C1  UNL     1      28.873  67.356  99.251  1.00  0.00     0.714 A 
HETATM    2  N2  UNL     1      30.004  66.636  99.362  1.00  0.00    -0.139 N 
ATOM      3  H2  UNL     1      30.548  66.722 100.221  1.00  0.00     0.189 HD
HETATM    4  C2  UNL     1      30.459  65.805  98.397  1.00  0.00     0.352 A 
HETATM    5  O1  UNL     1      31.532  65.151  98.557  1.00  0.00    -0.246 OA
HETATM    6  N3  UNL     1      29.744  65.690  97.268  1.00  0.00    -0.138 N 
ATOM      7  H3  UNL     1      30.059  65.071  96.521  1.00  0.00     0.189 HD
HETATM    8  C3  UNL     1      28.614  66.394  97.126  1.00  0.00     0.734 A 
HETATM    9  N4  UNL     1      27.542  66.746  96.406  1.00  0.00    -0.112 N 
ATOM     10  H4  UNL     1      27.193  66.492  95.483  1.00  0.00     0.203 HD
HETATM   11  N5  UNL     1      27.114  67.554  97.363  1.00  0.00     0.031 NA
HETATM   12  N6  UNL     1      28.168  67.230  98.111  1.00  0.00     0.106 N 
ENDROOT
BRANCH   1  13
HETATM   13  N1  UNL     1      28.452  68.151 100.190  1.00  0.00    -0.232 N 
ATOM     14  H12 UNL     1      28.032  67.763 101.034  1.00  0.00     0.174 HD
ATOM     15  H11 UNL     1      28.520  69.166 100.123  1.00  0.00     0.174 HD
ENDBRANCH   1  13
TORSDOF 1
ENDMDL
