MODEL 1
REMARK VINA RESULT: -11.254307724      0.000      0.000
REMARK  12 active torsions:
REMARK  status: ('A' for Active; 'I' for Inactive)
REMARK       I    between atoms: C2_2  and  N1_4 
REMARK    1  A    between atoms: N1_4  and  C3_6 
REMARK    2  A    between atoms: C3_6  and  C4_7 
REMARK    3  A    between atoms: C6_15  and  S1_16 
REMARK    4  A    between atoms: S1_16  and  C7_17 
REMARK    5  A    between atoms: C10_21  and  O2_22 
REMARK    6  A    between atoms: C11_24  and  N7_25 
REMARK    7  A    between atoms: C13_27  and  N8_28 
REMARK       I    between atoms: N8_28  and  C14_30 
REMARK    8  A    between atoms: C14_30  and  C15_32 
REMARK    9  A    between atoms: C15_32  and  C16_33 
REMARK   10  A    between atoms: C16_33  and  C17_34 
REMARK   11  A    between atoms: C17_34  and  C18_36 
REMARK   12  A    between atoms: N9_38  and  C20_39 
ROOT
HETATM    1  C7  UNL     1      44.444 -15.486  31.921  1.00  0.00     0.001 C 
HETATM    2  C8  UNL     1      44.587 -16.717  32.314  1.00  0.00     0.066 C 
HETATM    3  C9  UNL     1      43.593 -17.687  32.700  1.00  0.00     0.099 C 
HETATM    4  N6  UNL     1      42.823 -18.494  33.010  1.00  0.00    -0.192 NA
HETATM    5  C10 UNL     1      46.060 -17.096  32.341  1.00  0.00     0.188 C 
HETATM    6  C11 UNL     1      46.603 -16.189  31.258  1.00  0.00     0.147 C 
HETATM    7  C25 UNL     1      45.833 -14.922  31.584  1.00  0.00     0.077 C 
ENDROOT
BRANCH   1   8
HETATM    8  S1  UNL     1      42.961 -14.551  31.722  1.00  0.00    -0.107 SA
BRANCH   8   9
HETATM    9  C6  UNL     1      41.694 -15.309  30.733  1.00  0.00     0.189 C 
HETATM   10  C4  UNL     1      40.522 -14.308  30.514  1.00  0.00     0.133 C 
HETATM   11  N2  UNL     1      40.400 -13.587  31.761  1.00  0.00    -0.355 N 
HETATM   12  C5  UNL     1      40.460 -14.308  32.851  1.00  0.00     0.200 C 
ATOM     13  H2  UNL     1      40.275 -12.575  31.789  1.00  0.00     0.162 HD
HETATM   14  N3  UNL     1      40.350 -13.690  34.128  1.00  0.00    -0.062 NA
HETATM   15  N4  UNL     1      40.635 -15.709  32.738  1.00  0.00    -0.277 N 
HETATM   16  N5  UNL     1      41.058 -16.349  31.567  1.00  0.00    -0.121 NA
ATOM     17  H4  UNL     1      40.441 -16.285  33.558  1.00  0.00     0.185 HD
BRANCH  10  18
HETATM   18  C3  UNL     1      40.826 -13.401  29.358  1.00  0.00     0.150 C 
BRANCH  18  19
HETATM   19  N1  UNL     1      41.384 -14.139  28.247  1.00  0.00    -0.359 N 
HETATM   20  C2  UNL     1      41.263 -13.694  26.909  1.00  0.00     0.213 C 
HETATM   21  C1  UNL     1      41.851 -14.484  25.782  1.00  0.00     0.117 C 
HETATM   22  O1  UNL     1      40.643 -12.613  26.705  1.00  0.00    -0.274 OA
ATOM     23  H1  UNL     1      41.882 -15.009  28.434  1.00  0.00     0.162 HD
ENDBRANCH  18  19
ENDBRANCH  10  18
ENDBRANCH   8   9
ENDBRANCH   1   8
BRANCH   5  24
HETATM   24  O2  UNL     1      46.247 -18.424  32.048  1.00  0.00    -0.388 OA
ATOM     25  H2  UNL     1      45.459 -18.931  32.205  1.00  0.00     0.210 HD
ENDBRANCH   5  24
BRANCH   6  26
HETATM   26  N7  UNL     1      48.028 -15.982  31.429  1.00  0.00    -0.278 N 
HETATM   27  C12 UNL     1      48.599 -14.785  31.673  1.00  0.00     0.162 A 
HETATM   28  C13 UNL     1      49.952 -14.937  31.780  1.00  0.00     0.141 A 
HETATM   29  N13 UNL     1      50.151 -16.284  31.586  1.00  0.00    -0.270 N 
HETATM   30  N14 UNL     1      48.988 -16.864  31.382  1.00  0.00    -0.239 N 
ATOM     31  H13 UNL     1      51.054 -16.756  31.599  1.00  0.00     0.190 HD
ATOM     32  H14 UNL     1      48.856 -17.862  31.211  1.00  0.00     0.208 HD
BRANCH  28  33
HETATM   33  N8  UNL     1      51.004 -14.027  32.024  1.00  0.00    -0.311 N 
HETATM   34  C14 UNL     1      51.169 -13.353  33.241  1.00  0.00     0.223 C 
HETATM   35  O3  UNL     1      50.405 -13.489  34.229  1.00  0.00    -0.273 OA
ATOM     36  H8  UNL     1      51.677 -13.852  31.277  1.00  0.00     0.170 HD
BRANCH  34  37
HETATM   37  C15 UNL     1      52.310 -12.390  33.454  1.00  0.00     0.111 C 
BRANCH  37  38
HETATM   38  C16 UNL     1      51.828 -11.095  34.089  1.00  0.00     0.093 C 
BRANCH  38  39
HETATM   39  C17 UNL     1      52.907 -10.354  34.727  1.00  0.00     0.166 C 
HETATM   40  O4  UNL     1      53.796  -9.816  33.963  1.00  0.00    -0.292 OA
BRANCH  39  41
HETATM   41  C18 UNL     1      53.102 -10.147  36.132  1.00  0.00     0.093 A 
HETATM   42  C19 UNL     1      53.702  -8.976  36.623  1.00  0.00     0.120 A 
HETATM   43  N9  UNL     1      53.902  -8.733  37.902  1.00  0.00    -0.265 N 
HETATM   44  C23 UNL     1      53.520  -9.641  38.810  1.00  0.00     0.332 A 
HETATM   45  O6  UNL     1      53.721  -9.387  40.022  1.00  0.00    -0.246 OA
HETATM   46  N12 UNL     1      52.940 -10.782  38.408  1.00  0.00    -0.274 N 
HETATM   47  C24 UNL     1      52.722 -11.058  37.088  1.00  0.00     0.264 A 
ATOM     48  H12 UNL     1      52.653 -11.464  39.109  1.00  0.00     0.173 HD
HETATM   49  O7  UNL     1      52.169 -12.157  36.797  1.00  0.00    -0.267 OA
BRANCH  43  50
HETATM   50  C20 UNL     1      54.525  -7.500  38.329  1.00  0.00     0.357 C 
HETATM   51  N10 UNL     1      54.157  -6.383  37.485  1.00  0.00    -0.085 NA
HETATM   52  N11 UNL     1      55.347  -5.649  37.326  1.00  0.00    -0.284 N 
HETATM   53  C21 UNL     1      56.349  -6.341  37.707  1.00  0.00     0.129 C 
ATOM     54  H11 UNL     1      55.402  -4.698  36.959  1.00  0.00     0.184 HD
HETATM   55  C22 UNL     1      57.794  -5.924  37.700  1.00  0.00     0.098 C 
HETATM   56  O5  UNL     1      55.920  -7.580  38.148  1.00  0.00    -0.296 OA
ENDBRANCH  43  50
ENDBRANCH  39  41
ENDBRANCH  38  39
ENDBRANCH  37  38
ENDBRANCH  34  37
ENDBRANCH  28  33
ENDBRANCH   6  26
TORSDOF 12
ENDMDL
MODEL 2
REMARK VINA RESULT: -11.135801942      3.935     12.536
REMARK  12 active torsions:
REMARK  status: ('A' for Active; 'I' for Inactive)
REMARK       I    between atoms: C2_2  and  N1_4 
REMARK    1  A    between atoms: N1_4  and  C3_6 
REMARK    2  A    between atoms: C3_6  and  C4_7 
REMARK    3  A    between atoms: C6_15  and  S1_16 
REMARK    4  A    between atoms: S1_16  and  C7_17 
REMARK    5  A    between atoms: C10_21  and  O2_22 
REMARK    6  A    between atoms: C11_24  and  N7_25 
REMARK    7  A    between atoms: C13_27  and  N8_28 
REMARK       I    between atoms: N8_28  and  C14_30 
REMARK    8  A    between atoms: C14_30  and  C15_32 
REMARK    9  A    between atoms: C15_32  and  C16_33 
REMARK   10  A    between atoms: C16_33  and  C17_34 
REMARK   11  A    between atoms: C17_34  and  C18_36 
REMARK   12  A    between atoms: N9_38  and  C20_39 
ROOT
HETATM    1  C7  UNL     1      45.315 -15.467  32.303  1.00  0.00     0.001 C 
HETATM    2  C8  UNL     1      44.749 -16.594  31.984  1.00  0.00     0.066 C 
HETATM    3  C9  UNL     1      45.308 -17.766  31.359  1.00  0.00     0.099 C 
HETATM    4  N6  UNL     1      45.724 -18.727  30.866  1.00  0.00    -0.192 NA
HETATM    5  C10 UNL     1      43.277 -16.573  32.366  1.00  0.00     0.188 C 
HETATM    6  C11 UNL     1      43.304 -15.618  33.540  1.00  0.00     0.147 C 
HETATM    7  C25 UNL     1      44.268 -14.580  32.995  1.00  0.00     0.077 C 
ENDROOT
BRANCH   1   8
HETATM    8  S1  UNL     1      46.990 -14.964  32.076  1.00  0.00    -0.107 SA
BRANCH   8   9
HETATM    9  C6  UNL     1      48.080 -15.253  33.449  1.00  0.00     0.189 C 
HETATM   10  C4  UNL     1      49.561 -15.147  32.983  1.00  0.00     0.133 C 
HETATM   11  N2  UNL     1      49.585 -15.727  31.659  1.00  0.00    -0.355 N 
HETATM   12  C5  UNL     1      48.922 -16.845  31.508  1.00  0.00     0.200 C 
ATOM     13  H2  UNL     1      50.090 -15.291  30.888  1.00  0.00     0.162 HD
HETATM   14  N3  UNL     1      48.887 -17.494  30.243  1.00  0.00    -0.062 NA
HETATM   15  N4  UNL     1      48.244 -17.396  32.623  1.00  0.00    -0.277 N 
HETATM   16  N5  UNL     1      47.968 -16.684  33.797  1.00  0.00    -0.121 NA
ATOM     17  H4  UNL     1      47.939 -18.368  32.568  1.00  0.00     0.185 HD
BRANCH  10  18
HETATM   18  C3  UNL     1      50.003 -13.713  32.985  1.00  0.00     0.150 C 
BRANCH  18  19
HETATM   19  N1  UNL     1      50.465 -13.310  34.295  1.00  0.00    -0.359 N 
HETATM   20  C2  UNL     1      51.649 -12.558  34.479  1.00  0.00     0.213 C 
HETATM   21  C1  UNL     1      52.100 -12.159  35.850  1.00  0.00     0.117 C 
HETATM   22  O1  UNL     1      52.306 -12.239  33.448  1.00  0.00    -0.274 OA
ATOM     23  H1  UNL     1      49.919 -13.578  35.114  1.00  0.00     0.162 HD
ENDBRANCH  18  19
ENDBRANCH  10  18
ENDBRANCH   8   9
ENDBRANCH   1   8
BRANCH   5  24
HETATM   24  O2  UNL     1      42.828 -17.820  32.721  1.00  0.00    -0.388 OA
ATOM     25  H2  UNL     1      41.909 -17.806  32.964  1.00  0.00     0.210 HD
ENDBRANCH   5  24
BRANCH   6  26
HETATM   26  N7  UNL     1      41.994 -15.037  33.759  1.00  0.00    -0.278 N 
HETATM   27  C12 UNL     1      41.769 -13.724  33.966  1.00  0.00     0.162 A 
HETATM   28  C13 UNL     1      40.431 -13.511  34.138  1.00  0.00     0.141 A 
HETATM   29  N13 UNL     1      39.878 -14.764  34.023  1.00  0.00    -0.270 N 
HETATM   30  N14 UNL     1      40.836 -15.637  33.800  1.00  0.00    -0.239 N 
ATOM     31  H13 UNL     1      38.885 -14.981  34.098  1.00  0.00     0.190 HD
ATOM     32  H14 UNL     1      40.694 -16.640  33.676  1.00  0.00     0.208 HD
BRANCH  28  33
HETATM   33  N8  UNL     1      39.669 -12.347  34.382  1.00  0.00    -0.311 N 
HETATM   34  C14 UNL     1      38.607 -12.303  35.295  1.00  0.00     0.223 C 
HETATM   35  O3  UNL     1      38.229 -13.283  35.983  1.00  0.00    -0.273 OA
ATOM     36  H8  UNL     1      39.903 -11.497  33.868  1.00  0.00     0.170 HD
BRANCH  34  37
HETATM   37  C15 UNL     1      37.823 -11.035  35.521  1.00  0.00     0.111 C 
BRANCH  37  38
HETATM   38  C16 UNL     1      38.506  -9.840  34.875  1.00  0.00     0.093 C 
BRANCH  38  39
HETATM   39  C17 UNL     1      37.894  -9.470  33.606  1.00  0.00     0.166 C 
HETATM   40  O4  UNL     1      36.672  -9.059  33.629  1.00  0.00    -0.292 OA
BRANCH  39  41
HETATM   41  C18 UNL     1      38.503  -9.508  32.308  1.00  0.00     0.093 A 
HETATM   42  C19 UNL     1      38.604 -10.706  31.583  1.00  0.00     0.120 A 
HETATM   43  N9  UNL     1      39.150 -10.797  30.387  1.00  0.00    -0.265 N 
HETATM   44  C23 UNL     1      39.647  -9.696  29.807  1.00  0.00     0.332 A 
HETATM   45  O6  UNL     1      40.162  -9.809  28.669  1.00  0.00    -0.246 OA
HETATM   46  N12 UNL     1      39.582  -8.519  30.447  1.00  0.00    -0.274 N 
HETATM   47  C24 UNL     1      39.022  -8.398  31.686  1.00  0.00     0.264 A 
ATOM     48  H12 UNL     1      39.963  -7.689  29.993  1.00  0.00     0.173 HD
HETATM   49  O7  UNL     1      39.002  -7.251  32.217  1.00  0.00    -0.267 OA
BRANCH  43  50
HETATM   50  C20 UNL     1      39.214 -12.069  29.702  1.00  0.00     0.357 C 
HETATM   51  N10 UNL     1      38.144 -12.958  30.102  1.00  0.00    -0.085 NA
HETATM   52  N11 UNL     1      38.751 -14.224  30.204  1.00  0.00    -0.284 N 
HETATM   53  C21 UNL     1      40.021 -14.107  30.204  1.00  0.00     0.129 C 
ATOM     54  H11 UNL     1      38.248 -15.109  30.268  1.00  0.00     0.184 HD
HETATM   55  C22 UNL     1      41.033 -15.216  30.295  1.00  0.00     0.098 C 
HETATM   56  O5  UNL     1      40.368 -12.771  30.103  1.00  0.00    -0.296 OA
ENDBRANCH  43  50
ENDBRANCH  39  41
ENDBRANCH  38  39
ENDBRANCH  37  38
ENDBRANCH  34  37
ENDBRANCH  28  33
ENDBRANCH   6  26
TORSDOF 12
ENDMDL
MODEL 3
REMARK VINA RESULT: -10.890286685      6.402      9.948
REMARK  12 active torsions:
REMARK  status: ('A' for Active; 'I' for Inactive)
REMARK       I    between atoms: C2_2  and  N1_4 
REMARK    1  A    between atoms: N1_4  and  C3_6 
REMARK    2  A    between atoms: C3_6  and  C4_7 
REMARK    3  A    between atoms: C6_15  and  S1_16 
REMARK    4  A    between atoms: S1_16  and  C7_17 
REMARK    5  A    between atoms: C10_21  and  O2_22 
REMARK    6  A    between atoms: C11_24  and  N7_25 
REMARK    7  A    between atoms: C13_27  and  N8_28 
REMARK       I    between atoms: N8_28  and  C14_30 
REMARK    8  A    between atoms: C14_30  and  C15_32 
REMARK    9  A    between atoms: C15_32  and  C16_33 
REMARK   10  A    between atoms: C16_33  and  C17_34 
REMARK   11  A    between atoms: C17_34  and  C18_36 
REMARK   12  A    between atoms: N9_38  and  C20_39 
ROOT
HETATM    1  C7  UNL     1      38.717 -10.155  34.615  1.00  0.00     0.001 C 
HETATM    2  C8  UNL     1      38.360 -11.031  35.508  1.00  0.00     0.066 C 
HETATM    3  C9  UNL     1      37.099 -11.202  36.185  1.00  0.00     0.099 C 
HETATM    4  N6  UNL     1      36.099 -11.373  36.742  1.00  0.00    -0.192 NA
HETATM    5  C10 UNL     1      39.515 -11.970  35.819  1.00  0.00     0.188 C 
HETATM    6  C11 UNL     1      40.262 -11.942  34.504  1.00  0.00     0.147 C 
HETATM    7  C25 UNL     1      40.162 -10.461  34.190  1.00  0.00     0.077 C 
ENDROOT
BRANCH   1   8
HETATM    8  S1  UNL     1      37.772  -8.843  33.911  1.00  0.00    -0.107 SA
BRANCH   8   9
HETATM    9  C6  UNL     1      37.272  -9.068  32.221  1.00  0.00     0.189 C 
HETATM   10  C4  UNL     1      38.445  -8.705  31.266  1.00  0.00     0.133 C 
HETATM   11  N2  UNL     1      39.099  -7.572  31.882  1.00  0.00    -0.355 N 
HETATM   12  C5  UNL     1      38.313  -6.637  32.350  1.00  0.00     0.200 C 
ATOM     13  H2  UNL     1      40.115  -7.506  31.948  1.00  0.00     0.162 HD
HETATM   14  N3  UNL     1      38.861  -5.483  32.974  1.00  0.00    -0.062 NA
HETATM   15  N4  UNL     1      36.911  -6.794  32.224  1.00  0.00    -0.277 N 
HETATM   16  N5  UNL     1      36.288  -8.010  31.916  1.00  0.00    -0.121 NA
ATOM     17  H4  UNL     1      36.321  -5.974  32.365  1.00  0.00     0.185 HD
BRANCH  10  18
HETATM   18  C3  UNL     1      39.367  -9.878  31.108  1.00  0.00     0.150 C 
BRANCH  18  19
HETATM   19  N1  UNL     1      38.693 -10.990  30.473  1.00  0.00    -0.359 N 
HETATM   20  C2  UNL     1      39.203 -12.308  30.521  1.00  0.00     0.213 C 
HETATM   21  C1  UNL     1      38.482 -13.436  29.851  1.00  0.00     0.117 C 
HETATM   22  O1  UNL     1      40.285 -12.495  31.147  1.00  0.00    -0.274 OA
ATOM     23  H1  UNL     1      37.821 -10.816  29.973  1.00  0.00     0.162 HD
ENDBRANCH  18  19
ENDBRANCH  10  18
ENDBRANCH   8   9
ENDBRANCH   1   8
BRANCH   5  24
HETATM   24  O2  UNL     1      39.072 -13.229  36.139  1.00  0.00    -0.388 OA
ATOM     25  H2  UNL     1      39.782 -13.862  36.135  1.00  0.00     0.210 HD
ENDBRANCH   5  24
BRANCH   6  26
HETATM   26  N7  UNL     1      41.646 -12.334  34.690  1.00  0.00    -0.278 N 
HETATM   27  C12 UNL     1      42.133 -13.560  34.414  1.00  0.00     0.162 A 
HETATM   28  C13 UNL     1      43.468 -13.598  34.701  1.00  0.00     0.141 A 
HETATM   29  N13 UNL     1      43.743 -12.332  35.163  1.00  0.00    -0.270 N 
HETATM   30  N14 UNL     1      42.640 -11.617  35.140  1.00  0.00    -0.239 N 
ATOM     31  H13 UNL     1      44.657 -12.001  35.472  1.00  0.00     0.190 HD
ATOM     32  H14 UNL     1      42.570 -10.642  35.433  1.00  0.00     0.208 HD
BRANCH  28  33
HETATM   33  N8  UNL     1      44.442 -14.614  34.601  1.00  0.00    -0.311 N 
HETATM   34  C14 UNL     1      45.612 -14.635  35.372  1.00  0.00     0.223 C 
HETATM   35  O3  UNL     1      45.910 -13.761  36.223  1.00  0.00    -0.273 OA
ATOM     36  H8  UNL     1      44.287 -15.371  33.934  1.00  0.00     0.170 HD
BRANCH  34  37
HETATM   37  C15 UNL     1      46.624 -15.745  35.229  1.00  0.00     0.111 C 
BRANCH  37  38
HETATM   38  C16 UNL     1      48.011 -15.193  34.943  1.00  0.00     0.093 C 
BRANCH  38  39
HETATM   39  C17 UNL     1      48.295 -15.113  33.517  1.00  0.00     0.166 C 
HETATM   40  O4  UNL     1      49.153 -14.234  33.126  1.00  0.00    -0.292 OA
BRANCH  39  41
HETATM   41  C18 UNL     1      47.721 -15.915  32.475  1.00  0.00     0.093 A 
HETATM   42  C19 UNL     1      46.486 -15.584  31.894  1.00  0.00     0.120 A 
HETATM   43  N9  UNL     1      45.915 -16.283  30.934  1.00  0.00    -0.265 N 
HETATM   44  C23 UNL     1      46.529 -17.378  30.466  1.00  0.00     0.332 A 
HETATM   45  O6  UNL     1      45.965 -18.026  29.552  1.00  0.00    -0.246 OA
HETATM   46  N12 UNL     1      47.712 -17.749  30.978  1.00  0.00    -0.274 N 
HETATM   47  C24 UNL     1      48.324 -17.043  31.973  1.00  0.00     0.264 A 
ATOM     48  H12 UNL     1      48.168 -18.584  30.611  1.00  0.00     0.173 HD
HETATM   49  O7  UNL     1      49.438 -17.463  32.397  1.00  0.00    -0.267 OA
BRANCH  43  50
HETATM   50  C20 UNL     1      44.641 -15.876  30.385  1.00  0.00     0.357 C 
HETATM   51  N10 UNL     1      44.403 -14.458  30.554  1.00  0.00    -0.085 NA
HETATM   52  N11 UNL     1      43.042 -14.364  30.904  1.00  0.00    -0.284 N 
HETATM   53  C21 UNL     1      42.589 -15.511  31.229  1.00  0.00     0.129 C 
ATOM     54  H11 UNL     1      42.497 -13.502  30.899  1.00  0.00     0.184 HD
HETATM   55  C22 UNL     1      41.187 -15.841  31.664  1.00  0.00     0.098 C 
HETATM   56  O5  UNL     1      43.593 -16.457  31.125  1.00  0.00    -0.296 OA
ENDBRANCH  43  50
ENDBRANCH  39  41
ENDBRANCH  38  39
ENDBRANCH  37  38
ENDBRANCH  34  37
ENDBRANCH  28  33
ENDBRANCH   6  26
TORSDOF 12
ENDMDL
MODEL 4
REMARK VINA RESULT: -10.860669796      7.081     11.558
REMARK  12 active torsions:
REMARK  status: ('A' for Active; 'I' for Inactive)
REMARK       I    between atoms: C2_2  and  N1_4 
REMARK    1  A    between atoms: N1_4  and  C3_6 
REMARK    2  A    between atoms: C3_6  and  C4_7 
REMARK    3  A    between atoms: C6_15  and  S1_16 
REMARK    4  A    between atoms: S1_16  and  C7_17 
REMARK    5  A    between atoms: C10_21  and  O2_22 
REMARK    6  A    between atoms: C11_24  and  N7_25 
REMARK    7  A    between atoms: C13_27  and  N8_28 
REMARK       I    between atoms: N8_28  and  C14_30 
REMARK    8  A    between atoms: C14_30  and  C15_32 
REMARK    9  A    between atoms: C15_32  and  C16_33 
REMARK   10  A    between atoms: C16_33  and  C17_34 
REMARK   11  A    between atoms: C17_34  and  C18_36 
REMARK   12  A    between atoms: N9_38  and  C20_39 
ROOT
HETATM    1  C7  UNL     1      45.067 -15.792  34.531  1.00  0.00     0.001 C 
HETATM    2  C8  UNL     1      44.460 -16.416  35.497  1.00  0.00     0.066 C 
HETATM    3  C9  UNL     1      44.601 -17.777  35.952  1.00  0.00     0.099 C 
HETATM    4  N6  UNL     1      44.692 -18.860  36.349  1.00  0.00    -0.192 NA
HETATM    5  C10 UNL     1      43.472 -15.489  36.188  1.00  0.00     0.188 C 
HETATM    6  C11 UNL     1      44.133 -14.148  35.953  1.00  0.00     0.147 C 
HETATM    7  C25 UNL     1      44.574 -14.336  34.513  1.00  0.00     0.077 C 
ENDROOT
BRANCH   1   8
HETATM    8  S1  UNL     1      46.291 -16.398  33.416  1.00  0.00    -0.107 SA
BRANCH   8   9
HETATM    9  C6  UNL     1      47.414 -15.186  32.762  1.00  0.00     0.189 C 
HETATM   10  C4  UNL     1      47.185 -15.019  31.232  1.00  0.00     0.133 C 
HETATM   11  N2  UNL     1      46.891 -16.349  30.746  1.00  0.00    -0.355 N 
HETATM   12  C5  UNL     1      47.653 -17.311  31.201  1.00  0.00     0.200 C 
ATOM     13  H2  UNL     1      46.133 -16.527  30.086  1.00  0.00     0.162 HD
HETATM   14  N3  UNL     1      47.442 -18.653  30.781  1.00  0.00    -0.062 NA
HETATM   15  N4  UNL     1      48.687 -16.991  32.115  1.00  0.00    -0.277 N 
HETATM   16  N5  UNL     1      48.766 -15.778  32.809  1.00  0.00    -0.121 NA
ATOM     17  H4  UNL     1      49.416 -17.686  32.276  1.00  0.00     0.185 HD
BRANCH  10  18
HETATM   18  C3  UNL     1      46.061 -14.059  30.978  1.00  0.00     0.150 C 
BRANCH  18  19
HETATM   19  N1  UNL     1      45.050 -14.650  30.130  1.00  0.00    -0.359 N 
HETATM   20  C2  UNL     1      43.670 -14.567  30.432  1.00  0.00     0.213 C 
HETATM   21  C1  UNL     1      42.649 -15.193  29.533  1.00  0.00     0.117 C 
HETATM   22  O1  UNL     1      43.336 -13.949  31.482  1.00  0.00    -0.274 OA
ATOM     23  H1  UNL     1      45.341 -15.143  29.286  1.00  0.00     0.162 HD
ENDBRANCH  18  19
ENDBRANCH  10  18
ENDBRANCH   8   9
ENDBRANCH   1   8
BRANCH   5  24
HETATM   24  O2  UNL     1      43.351 -15.782  37.524  1.00  0.00    -0.388 OA
ATOM     25  H2  UNL     1      42.461 -16.027  37.749  1.00  0.00     0.210 HD
ENDBRANCH   5  24
BRANCH   6  26
HETATM   26  N7  UNL     1      43.166 -13.073  36.058  1.00  0.00    -0.278 N 
HETATM   27  C12 UNL     1      42.638 -12.420  35.004  1.00  0.00     0.162 A 
HETATM   28  C13 UNL     1      41.763 -11.468  35.446  1.00  0.00     0.141 A 
HETATM   29  N13 UNL     1      41.802 -11.593  36.815  1.00  0.00    -0.270 N 
HETATM   30  N14 UNL     1      42.644 -12.552  37.135  1.00  0.00    -0.239 N 
ATOM     31  H13 UNL     1      41.266 -11.032  37.476  1.00  0.00     0.190 HD
ATOM     32  H14 UNL     1      42.858 -12.847  38.088  1.00  0.00     0.208 HD
BRANCH  28  33
HETATM   33  N8  UNL     1      40.955 -10.523  34.778  1.00  0.00    -0.311 N 
HETATM   34  C14 UNL     1      40.532  -9.323  35.364  1.00  0.00     0.223 C 
HETATM   35  O3  UNL     1      40.827  -8.969  36.533  1.00  0.00    -0.273 OA
ATOM     36  H8  UNL     1      40.664 -10.724  33.821  1.00  0.00     0.170 HD
BRANCH  34  37
HETATM   37  C15 UNL     1      39.670  -8.344  34.608  1.00  0.00     0.111 C 
BRANCH  37  38
HETATM   38  C16 UNL     1      40.270  -8.014  33.250  1.00  0.00     0.093 C 
BRANCH  38  39
HETATM   39  C17 UNL     1      39.386  -8.375  32.150  1.00  0.00     0.166 C 
HETATM   40  O4  UNL     1      38.424  -7.566  31.866  1.00  0.00    -0.292 OA
BRANCH  39  41
HETATM   41  C18 UNL     1      39.463  -9.548  31.328  1.00  0.00     0.093 A 
HETATM   42  C19 UNL     1      39.248 -10.829  31.861  1.00  0.00     0.120 A 
HETATM   43  N9  UNL     1      39.304 -11.939  31.152  1.00  0.00    -0.265 N 
HETATM   44  C23 UNL     1      39.580 -11.868  29.843  1.00  0.00     0.332 A 
HETATM   45  O6  UNL     1      39.628 -12.937  29.190  1.00  0.00    -0.246 OA
HETATM   46  N12 UNL     1      39.796 -10.673  29.272  1.00  0.00    -0.274 N 
HETATM   47  C24 UNL     1      39.744  -9.509  29.984  1.00  0.00     0.264 A 
ATOM     48  H12 UNL     1      40.004 -10.633  28.274  1.00  0.00     0.173 HD
HETATM   49  O7  UNL     1      39.960  -8.428  29.366  1.00  0.00    -0.267 OA
BRANCH  43  50
HETATM   50  C20 UNL     1      39.068 -13.223  31.773  1.00  0.00     0.357 C 
HETATM   51  N10 UNL     1      38.578 -13.090  33.130  1.00  0.00    -0.085 NA
HETATM   52  N11 UNL     1      39.251 -14.093  33.852  1.00  0.00    -0.284 N 
HETATM   53  C21 UNL     1      40.227 -14.550  33.170  1.00  0.00     0.129 C 
ATOM     54  H11 UNL     1      38.994 -14.410  34.787  1.00  0.00     0.184 HD
HETATM   55  C22 UNL     1      41.192 -15.629  33.580  1.00  0.00     0.098 C 
HETATM   56  O5  UNL     1      40.290 -13.901  31.950  1.00  0.00    -0.296 OA
ENDBRANCH  43  50
ENDBRANCH  39  41
ENDBRANCH  38  39
ENDBRANCH  37  38
ENDBRANCH  34  37
ENDBRANCH  28  33
ENDBRANCH   6  26
TORSDOF 12
ENDMDL
MODEL 5
REMARK VINA RESULT: -10.800959786      7.606     12.514
REMARK  12 active torsions:
REMARK  status: ('A' for Active; 'I' for Inactive)
REMARK       I    between atoms: C2_2  and  N1_4 
REMARK    1  A    between atoms: N1_4  and  C3_6 
REMARK    2  A    between atoms: C3_6  and  C4_7 
REMARK    3  A    between atoms: C6_15  and  S1_16 
REMARK    4  A    between atoms: S1_16  and  C7_17 
REMARK    5  A    between atoms: C10_21  and  O2_22 
REMARK    6  A    between atoms: C11_24  and  N7_25 
REMARK    7  A    between atoms: C13_27  and  N8_28 
REMARK       I    between atoms: N8_28  and  C14_30 
REMARK    8  A    between atoms: C14_30  and  C15_32 
REMARK    9  A    between atoms: C15_32  and  C16_33 
REMARK   10  A    between atoms: C16_33  and  C17_34 
REMARK   11  A    between atoms: C17_34  and  C18_36 
REMARK   12  A    between atoms: N9_38  and  C20_39 
ROOT
HETATM    1  C7  UNL     1      43.375 -14.936  31.278  1.00  0.00     0.001 C 
HETATM    2  C8  UNL     1      42.406 -15.100  30.427  1.00  0.00     0.066 C 
HETATM    3  C9  UNL     1      42.445 -15.514  29.047  1.00  0.00     0.099 C 
HETATM    4  N6  UNL     1      42.438 -15.850  27.940  1.00  0.00    -0.192 NA
HETATM    5  C10 UNL     1      41.069 -14.781  31.080  1.00  0.00     0.188 C 
HETATM    6  C11 UNL     1      41.373 -15.122  32.523  1.00  0.00     0.147 C 
HETATM    7  C25 UNL     1      42.767 -14.534  32.631  1.00  0.00     0.077 C 
ENDROOT
BRANCH   1   8
HETATM    8  S1  UNL     1      45.108 -15.159  31.040  1.00  0.00    -0.107 SA
BRANCH   8   9
HETATM    9  C6  UNL     1      45.579 -16.513  29.991  1.00  0.00     0.189 C 
HETATM   10  C4  UNL     1      46.453 -17.524  30.789  1.00  0.00     0.133 C 
HETATM   11  N2  UNL     1      47.275 -16.712  31.657  1.00  0.00    -0.355 N 
HETATM   12  C5  UNL     1      47.818 -15.653  31.113  1.00  0.00     0.200 C 
ATOM     13  H2  UNL     1      47.424 -16.951  32.638  1.00  0.00     0.162 HD
HETATM   14  N3  UNL     1      48.644 -14.791  31.886  1.00  0.00    -0.062 NA
HETATM   15  N4  UNL     1      47.570 -15.382  29.745  1.00  0.00    -0.277 N 
HETATM   16  N5  UNL     1      46.543 -15.983  29.006  1.00  0.00    -0.121 NA
ATOM     17  H4  UNL     1      48.174 -14.710  29.271  1.00  0.00     0.185 HD
BRANCH  10  18
HETATM   18  C3  UNL     1      45.579 -18.473  31.554  1.00  0.00     0.150 C 
BRANCH  18  19
HETATM   19  N1  UNL     1      45.397 -18.029  32.919  1.00  0.00    -0.359 N 
HETATM   20  C2  UNL     1      44.116 -17.899  33.506  1.00  0.00     0.213 C 
HETATM   21  C1  UNL     1      43.964 -17.435  34.921  1.00  0.00     0.117 C 
HETATM   22  O1  UNL     1      43.114 -18.187  32.793  1.00  0.00    -0.274 OA
ATOM     23  H1  UNL     1      46.220 -17.804  33.477  1.00  0.00     0.162 HD
ENDBRANCH  18  19
ENDBRANCH  10  18
ENDBRANCH   8   9
ENDBRANCH   1   8
BRANCH   5  24
HETATM   24  O2  UNL     1      40.057 -15.552  30.565  1.00  0.00    -0.388 OA
ATOM     25  H2  UNL     1      40.003 -15.474  29.620  1.00  0.00     0.210 HD
ENDBRANCH   5  24
BRANCH   6  26
HETATM   26  N7  UNL     1      40.457 -14.439  33.415  1.00  0.00    -0.278 N 
HETATM   27  C12 UNL     1      40.311 -13.101  33.478  1.00  0.00     0.162 A 
HETATM   28  C13 UNL     1      39.372 -12.786  34.419  1.00  0.00     0.141 A 
HETATM   29  N13 UNL     1      38.971 -14.006  34.908  1.00  0.00    -0.270 N 
HETATM   30  N14 UNL     1      39.636 -14.957  34.289  1.00  0.00    -0.239 N 
ATOM     31  H13 UNL     1      38.270 -14.151  35.634  1.00  0.00     0.190 HD
ATOM     32  H14 UNL     1      39.527 -15.956  34.466  1.00  0.00     0.208 HD
BRANCH  28  33
HETATM   33  N8  UNL     1      38.848 -11.558  34.877  1.00  0.00    -0.311 N 
HETATM   34  C14 UNL     1      37.838 -11.467  35.845  1.00  0.00     0.223 C 
HETATM   35  O3  UNL     1      37.303 -12.460  36.398  1.00  0.00    -0.273 OA
ATOM     36  H8  UNL     1      39.222 -10.694  34.485  1.00  0.00     0.170 HD
BRANCH  34  37
HETATM   37  C15 UNL     1      37.312 -10.130  36.304  1.00  0.00     0.111 C 
BRANCH  37  38
HETATM   38  C16 UNL     1      35.834  -9.978  35.979  1.00  0.00     0.093 C 
BRANCH  38  39
HETATM   39  C17 UNL     1      35.611  -9.283  34.718  1.00  0.00     0.166 C 
HETATM   40  O4  UNL     1      34.500  -9.503  34.103  1.00  0.00    -0.292 OA
BRANCH  39  41
HETATM   41  C18 UNL     1      36.499  -8.362  34.070  1.00  0.00     0.093 A 
HETATM   42  C19 UNL     1      37.496  -8.807  33.187  1.00  0.00     0.120 A 
HETATM   43  N9  UNL     1      38.336  -8.006  32.563  1.00  0.00    -0.265 N 
HETATM   44  C23 UNL     1      38.255  -6.684  32.766  1.00  0.00     0.332 A 
HETATM   45  O6  UNL     1      39.066  -5.942  32.161  1.00  0.00    -0.246 OA
HETATM   46  N12 UNL     1      37.324  -6.194  33.597  1.00  0.00    -0.274 N 
HETATM   47  C24 UNL     1      36.443  -7.002  34.257  1.00  0.00     0.264 A 
ATOM     48  H12 UNL     1      37.273  -5.185  33.742  1.00  0.00     0.173 HD
HETATM   49  O7  UNL     1      35.597  -6.456  35.022  1.00  0.00    -0.267 OA
BRANCH  43  50
HETATM   50  C20 UNL     1      39.335  -8.541  31.666  1.00  0.00     0.357 C 
HETATM   51  N10 UNL     1      39.091  -8.163  30.289  1.00  0.00    -0.085 NA
HETATM   52  N11 UNL     1      39.381  -9.322  29.544  1.00  0.00    -0.284 N 
HETATM   53  C21 UNL     1      39.464 -10.335  30.315  1.00  0.00     0.129 C 
ATOM     54  H11 UNL     1      39.508  -9.348  28.532  1.00  0.00     0.184 HD
HETATM   55  C22 UNL     1      39.759 -11.755  29.917  1.00  0.00     0.098 C 
HETATM   56  O5  UNL     1      39.239  -9.946  31.623  1.00  0.00    -0.296 OA
ENDBRANCH  43  50
ENDBRANCH  39  41
ENDBRANCH  38  39
ENDBRANCH  37  38
ENDBRANCH  34  37
ENDBRANCH  28  33
ENDBRANCH   6  26
TORSDOF 12
ENDMDL
