MODEL 1
REMARK VINA RESULT: -6.789301594      0.000      0.000
REMARK  8 active torsions:
REMARK  status: ('A' for Active; 'I' for Inactive)
REMARK    1  A    between atoms: C1_4  and  C2_5 
REMARK    2  A    between atoms: C2_5  and  O1_6 
REMARK    3  A    between atoms: C2_5  and  C3_8 
REMARK    4  A    between atoms: C3_8  and  O2_9 
REMARK    5  A    between atoms: C3_8  and  C4_11 
REMARK    6  A    between atoms: C4_11  and  C5_12 
REMARK    7  A    between atoms: C5_12  and  O3_13 
REMARK    8  A    between atoms: C5_12  and  N2_15 
ROOT
HETATM    1  C3  UNL     1      -4.261  -4.528  -7.911  1.00  0.00     0.156 C 
ENDROOT
BRANCH   1   2
HETATM    2  C2  UNL     1      -2.940  -5.270  -7.899  1.00  0.00     0.184 C 
BRANCH   2   3
HETATM    3  C1  UNL     1      -1.904  -4.529  -8.670  1.00  0.00     0.087 C 
HETATM    4  N1  UNL     1      -1.359  -3.452  -8.283  1.00  0.00    -0.409 N 
ATOM      5  H12 UNL     1      -1.661  -3.081  -7.383  1.00  0.00     0.155 HD
ATOM      6  H11 UNL     1      -0.649  -2.944  -8.811  1.00  0.00     0.155 HD
ENDBRANCH   2   3
BRANCH   2   7
HETATM    7  O1  UNL     1      -2.454  -5.414  -6.594  1.00  0.00    -0.388 OA
ATOM      8  H1  UNL     1      -1.861  -6.157  -6.600  1.00  0.00     0.210 HD
ENDBRANCH   2   7
ENDBRANCH   1   2
BRANCH   1   9
HETATM    9  O2  UNL     1      -4.283  -3.878  -6.636  1.00  0.00    -0.393 OA
ATOM     10  H2  UNL     1      -4.516  -2.984  -6.852  1.00  0.00     0.210 HD
ENDBRANCH   1   9
BRANCH   1  11
HETATM   11  C4  UNL     1      -5.466  -5.357  -7.963  1.00  0.00     0.088 C 
BRANCH  11  12
HETATM   12  C5  UNL     1      -5.568  -6.632  -7.233  1.00  0.00     0.221 C 
BRANCH  12  13
HETATM   13  O3  UNL     1      -5.373  -6.219  -5.842  1.00  0.00    -0.377 OA
ATOM     14  H3  UNL     1      -6.233  -5.895  -5.600  1.00  0.00     0.212 HD
ENDBRANCH  12  13
BRANCH  12  15
HETATM   15  N2  UNL     1      -6.779  -7.352  -7.237  1.00  0.00    -0.367 N 
HETATM   16  C6  UNL     1      -7.992  -6.681  -7.054  1.00  0.00     0.060 C 
HETATM   17  C7  UNL     1      -9.192  -7.430  -7.637  1.00  0.00     0.044 C 
HETATM   18  C8  UNL     1      -9.030  -7.754  -9.078  1.00  0.00     0.007 C 
HETATM   19  C9  UNL     1      -7.548  -7.803  -9.440  1.00  0.00     0.020 C 
HETATM   20  C10 UNL     1      -6.834  -8.385  -8.240  1.00  0.00     0.124 C 
ENDBRANCH  12  15
ENDBRANCH  11  12
ENDBRANCH   1  11
TORSDOF 8
ENDMDL
MODEL 2
REMARK VINA RESULT: -6.718294438      1.183      1.335
REMARK  8 active torsions:
REMARK  status: ('A' for Active; 'I' for Inactive)
REMARK    1  A    between atoms: C1_4  and  C2_5 
REMARK    2  A    between atoms: C2_5  and  O1_6 
REMARK    3  A    between atoms: C2_5  and  C3_8 
REMARK    4  A    between atoms: C3_8  and  O2_9 
REMARK    5  A    between atoms: C3_8  and  C4_11 
REMARK    6  A    between atoms: C4_11  and  C5_12 
REMARK    7  A    between atoms: C5_12  and  O3_13 
REMARK    8  A    between atoms: C5_12  and  N2_15 
ROOT
HETATM    1  C3  UNL     1      -3.835  -5.150  -7.648  1.00  0.00     0.156 C 
ENDROOT
BRANCH   1   2
HETATM    2  C2  UNL     1      -3.122  -4.527  -8.830  1.00  0.00     0.184 C 
BRANCH   2   3
HETATM    3  C1  UNL     1      -1.692  -4.262  -8.514  1.00  0.00     0.087 C 
HETATM    4  N1  UNL     1      -1.213  -3.113  -8.271  1.00  0.00    -0.409 N 
ATOM      5  H12 UNL     1      -1.865  -2.329  -8.299  1.00  0.00     0.155 HD
ATOM      6  H11 UNL     1      -0.234  -2.931  -8.054  1.00  0.00     0.155 HD
ENDBRANCH   2   3
BRANCH   2   7
HETATM    7  O1  UNL     1      -3.144  -5.381  -9.940  1.00  0.00    -0.388 OA
ATOM      8  H1  UNL     1      -2.350  -5.214 -10.435  1.00  0.00     0.210 HD
ENDBRANCH   2   7
ENDBRANCH   1   2
BRANCH   1   9
HETATM    9  O2  UNL     1      -2.776  -5.379  -6.712  1.00  0.00    -0.393 OA
ATOM     10  H2  UNL     1      -2.862  -6.304  -6.510  1.00  0.00     0.210 HD
ENDBRANCH   1   9
BRANCH   1  11
HETATM   11  C4  UNL     1      -4.456  -6.453  -7.883  1.00  0.00     0.088 C 
BRANCH  11  12
HETATM   12  C5  UNL     1      -5.409  -7.047  -6.929  1.00  0.00     0.221 C 
BRANCH  12  13
HETATM   13  O3  UNL     1      -5.375  -6.099  -5.814  1.00  0.00    -0.377 OA
ATOM     14  H3  UNL     1      -4.650  -5.531  -6.048  1.00  0.00     0.212 HD
ENDBRANCH  12  13
BRANCH  12  15
HETATM   15  N2  UNL     1      -6.771  -7.162  -7.273  1.00  0.00    -0.367 N 
HETATM   16  C6  UNL     1      -7.411  -6.123  -7.956  1.00  0.00     0.060 C 
HETATM   17  C7  UNL     1      -8.637  -6.583  -8.746  1.00  0.00     0.044 C 
HETATM   18  C8  UNL     1      -8.334  -7.678  -9.703  1.00  0.00     0.007 C 
HETATM   19  C9  UNL     1      -7.093  -8.441  -9.250  1.00  0.00     0.020 C 
HETATM   20  C10 UNL     1      -7.140  -8.476  -7.738  1.00  0.00     0.124 C 
ENDBRANCH  12  15
ENDBRANCH  11  12
ENDBRANCH   1  11
TORSDOF 8
ENDMDL
MODEL 3
REMARK VINA RESULT: -6.703703583      1.441      1.647
REMARK  8 active torsions:
REMARK  status: ('A' for Active; 'I' for Inactive)
REMARK    1  A    between atoms: C1_4  and  C2_5 
REMARK    2  A    between atoms: C2_5  and  O1_6 
REMARK    3  A    between atoms: C2_5  and  C3_8 
REMARK    4  A    between atoms: C3_8  and  O2_9 
REMARK    5  A    between atoms: C3_8  and  C4_11 
REMARK    6  A    between atoms: C4_11  and  C5_12 
REMARK    7  A    between atoms: C5_12  and  O3_13 
REMARK    8  A    between atoms: C5_12  and  N2_15 
ROOT
HETATM    1  C3  UNL     1      -3.205  -6.677  -8.600  1.00  0.00     0.156 C 
ENDROOT
BRANCH   1   2
HETATM    2  C2  UNL     1      -1.950  -6.076  -8.004  1.00  0.00     0.184 C 
BRANCH   2   3
HETATM    3  C1  UNL     1      -1.237  -5.230  -9.000  1.00  0.00     0.087 C 
HETATM    4  N1  UNL     1      -0.029  -5.400  -9.348  1.00  0.00    -0.409 N 
ATOM      5  H12 UNL     1       0.472  -6.170  -8.907  1.00  0.00     0.155 HD
ATOM      6  H11 UNL     1       0.461  -4.821 -10.030  1.00  0.00     0.155 HD
ENDBRANCH   2   3
BRANCH   2   7
HETATM    7  O1  UNL     1      -2.253  -5.254  -6.912  1.00  0.00    -0.388 OA
ATOM      8  H1  UNL     1      -2.926  -5.697  -6.409  1.00  0.00     0.210 HD
ENDBRANCH   2   7
ENDBRANCH   1   2
BRANCH   1   9
HETATM    9  O2  UNL     1      -3.148  -6.263  -9.969  1.00  0.00    -0.393 OA
ATOM     10  H2  UNL     1      -3.877  -6.724 -10.367  1.00  0.00     0.210 HD
ENDBRANCH   1   9
BRANCH   1  11
HETATM   11  C4  UNL     1      -4.475  -6.170  -8.078  1.00  0.00     0.088 C 
BRANCH  11  12
HETATM   12  C5  UNL     1      -5.292  -6.942  -7.127  1.00  0.00     0.221 C 
BRANCH  12  13
HETATM   13  O3  UNL     1      -5.228  -6.123  -5.915  1.00  0.00    -0.377 OA
ATOM     14  H3  UNL     1      -5.590  -6.703  -5.255  1.00  0.00     0.212 HD
ENDBRANCH  12  13
BRANCH  12  15
HETATM   15  N2  UNL     1      -6.667  -7.132  -7.371  1.00  0.00    -0.367 N 
HETATM   16  C6  UNL     1      -7.426  -6.103  -7.937  1.00  0.00     0.060 C 
HETATM   17  C7  UNL     1      -8.681  -6.600  -8.657  1.00  0.00     0.044 C 
HETATM   18  C8  UNL     1      -8.386  -7.616  -9.701  1.00  0.00     0.007 C 
HETATM   19  C9  UNL     1      -7.065  -8.316  -9.393  1.00  0.00     0.020 C 
HETATM   20  C10 UNL     1      -6.987  -8.439  -7.887  1.00  0.00     0.124 C 
ENDBRANCH  12  15
ENDBRANCH  11  12
ENDBRANCH   1  11
TORSDOF 8
ENDMDL
MODEL 4
REMARK VINA RESULT: -6.622276364      1.383      1.646
REMARK  8 active torsions:
REMARK  status: ('A' for Active; 'I' for Inactive)
REMARK    1  A    between atoms: C1_4  and  C2_5 
REMARK    2  A    between atoms: C2_5  and  O1_6 
REMARK    3  A    between atoms: C2_5  and  C3_8 
REMARK    4  A    between atoms: C3_8  and  O2_9 
REMARK    5  A    between atoms: C3_8  and  C4_11 
REMARK    6  A    between atoms: C4_11  and  C5_12 
REMARK    7  A    between atoms: C5_12  and  O3_13 
REMARK    8  A    between atoms: C5_12  and  N2_15 
ROOT
HETATM    1  C3  UNL     1      -3.199  -5.001  -7.871  1.00  0.00     0.156 C 
ENDROOT
BRANCH   1   2
HETATM    2  C2  UNL     1      -2.521  -5.226  -9.206  1.00  0.00     0.184 C 
BRANCH   2   3
HETATM    3  C1  UNL     1      -1.200  -5.888  -9.031  1.00  0.00     0.087 C 
HETATM    4  N1  UNL     1      -0.087  -5.281  -9.057  1.00  0.00    -0.409 N 
ATOM      5  H12 UNL     1      -0.116  -4.273  -9.209  1.00  0.00     0.155 HD
ATOM      6  H11 UNL     1       0.819  -5.735  -8.937  1.00  0.00     0.155 HD
ENDBRANCH   2   3
BRANCH   2   7
HETATM    7  O1  UNL     1      -3.290  -6.058 -10.029  1.00  0.00    -0.388 OA
ATOM      8  H1  UNL     1      -4.196  -5.956  -9.758  1.00  0.00     0.210 HD
ENDBRANCH   2   7
ENDBRANCH   1   2
BRANCH   1   9
HETATM    9  O2  UNL     1      -2.528  -5.923  -7.005  1.00  0.00    -0.393 OA
ATOM     10  H2  UNL     1      -3.045  -5.888  -6.209  1.00  0.00     0.210 HD
ENDBRANCH   1   9
BRANCH   1  11
HETATM   11  C4  UNL     1      -4.620  -5.343  -7.802  1.00  0.00     0.088 C 
BRANCH  11  12
HETATM   12  C5  UNL     1      -5.099  -6.555  -7.115  1.00  0.00     0.221 C 
BRANCH  12  13
HETATM   13  O3  UNL     1      -5.175  -6.118  -5.719  1.00  0.00    -0.377 OA
ATOM     14  H3  UNL     1      -4.405  -5.569  -5.632  1.00  0.00     0.212 HD
ENDBRANCH  12  13
BRANCH  12  15
HETATM   15  N2  UNL     1      -6.375  -7.074  -7.409  1.00  0.00    -0.367 N 
HETATM   16  C6  UNL     1      -7.331  -6.269  -8.036  1.00  0.00     0.060 C 
HETATM   17  C7  UNL     1      -8.395  -7.068  -8.791  1.00  0.00     0.044 C 
HETATM   18  C8  UNL     1      -7.817  -8.003  -9.791  1.00  0.00     0.007 C 
HETATM   19  C9  UNL     1      -6.383  -8.358  -9.409  1.00  0.00     0.020 C 
HETATM   20  C10 UNL     1      -6.349  -8.430  -7.898  1.00  0.00     0.124 C 
ENDBRANCH  12  15
ENDBRANCH  11  12
ENDBRANCH   1  11
TORSDOF 8
ENDMDL
MODEL 5
REMARK VINA RESULT: -6.358073343      0.852      1.516
REMARK  8 active torsions:
REMARK  status: ('A' for Active; 'I' for Inactive)
REMARK    1  A    between atoms: C1_4  and  C2_5 
REMARK    2  A    between atoms: C2_5  and  O1_6 
REMARK    3  A    between atoms: C2_5  and  C3_8 
REMARK    4  A    between atoms: C3_8  and  O2_9 
REMARK    5  A    between atoms: C3_8  and  C4_11 
REMARK    6  A    between atoms: C4_11  and  C5_12 
REMARK    7  A    between atoms: C5_12  and  O3_13 
REMARK    8  A    between atoms: C5_12  and  N2_15 
ROOT
HETATM    1  C3  UNL     1      -3.822  -5.227  -7.655  1.00  0.00     0.156 C 
ENDROOT
BRANCH   1   2
HETATM    2  C2  UNL     1      -2.372  -4.935  -7.977  1.00  0.00     0.184 C 
BRANCH   2   3
HETATM    3  C1  UNL     1      -2.206  -3.547  -8.488  1.00  0.00     0.087 C 
HETATM    4  N1  UNL     1      -1.221  -2.797  -8.215  1.00  0.00    -0.409 N 
ATOM      5  H12 UNL     1      -0.504  -3.185  -7.603  1.00  0.00     0.155 HD
ATOM      6  H11 UNL     1      -1.107  -1.845  -8.565  1.00  0.00     0.155 HD
ENDBRANCH   2   3
BRANCH   2   7
HETATM    7  O1  UNL     1      -1.569  -5.049  -6.836  1.00  0.00    -0.388 OA
ATOM      8  H1  UNL     1      -1.731  -5.910  -6.467  1.00  0.00     0.210 HD
ENDBRANCH   2   7
ENDBRANCH   1   2
BRANCH   1   9
HETATM    9  O2  UNL     1      -4.107  -4.324  -6.581  1.00  0.00    -0.393 OA
ATOM     10  H2  UNL     1      -4.227  -4.903  -5.838  1.00  0.00     0.210 HD
ENDBRANCH   1   9
BRANCH   1  11
HETATM   11  C4  UNL     1      -4.113  -6.567  -7.144  1.00  0.00     0.088 C 
BRANCH  11  12
HETATM   12  C5  UNL     1      -5.489  -7.084  -7.048  1.00  0.00     0.221 C 
BRANCH  12  13
HETATM   13  O3  UNL     1      -6.028  -6.342  -5.906  1.00  0.00    -0.377 OA
ATOM     14  H3  UNL     1      -6.965  -6.379  -6.060  1.00  0.00     0.212 HD
ENDBRANCH  12  13
BRANCH  12  15
HETATM   15  N2  UNL     1      -6.402  -6.860  -8.098  1.00  0.00    -0.367 N 
HETATM   16  C6  UNL     1      -6.674  -7.877  -9.018  1.00  0.00     0.060 C 
HETATM   17  C7  UNL     1      -8.033  -7.725  -9.704  1.00  0.00     0.044 C 
HETATM   18  C8  UNL     1      -9.161  -7.626  -8.741  1.00  0.00     0.007 C 
HETATM   19  C9  UNL     1      -8.657  -7.115  -7.394  1.00  0.00     0.020 C 
HETATM   20  C10 UNL     1      -7.567  -6.111  -7.699  1.00  0.00     0.124 C 
ENDBRANCH  12  15
ENDBRANCH  11  12
ENDBRANCH   1  11
TORSDOF 8
ENDMDL
