MODEL 1
REMARK VINA RESULT: -7.089362935      0.000      0.000
REMARK  8 active torsions:
REMARK  status: ('A' for Active; 'I' for Inactive)
REMARK    1  A    between atoms: N1_2  and  C2_5 
REMARK    2  A    between atoms: C2_5  and  C3_6 
REMARK    3  A    between atoms: C3_6  and  O1_7 
REMARK    4  A    between atoms: C3_6  and  C4_9 
REMARK    5  A    between atoms: C4_9  and  O2_10 
REMARK    6  A    between atoms: C4_9  and  C5_12 
REMARK    7  A    between atoms: C5_12  and  O3_13 
REMARK    8  A    between atoms: C5_12  and  C6_15 
ROOT
HETATM    1  C4  UNL     1      -4.324  -5.242  -7.560  1.00  0.00     0.177 C 
ENDROOT
BRANCH   1   2
HETATM    2  C3  UNL     1      -2.871  -5.424  -7.748  1.00  0.00     0.175 C 
BRANCH   2   3
HETATM    3  C2  UNL     1      -2.348  -4.612  -8.897  1.00  0.00     0.266 C 
BRANCH   3   4
HETATM    4  N1  UNL     1      -0.945  -4.413  -8.982  1.00  0.00    -0.076 N 
HETATM    5  C1  UNL     1      -0.288  -5.681  -9.425  1.00  0.00     0.267 C 
ATOM      6  H12 UNL     1      -0.553  -4.060  -8.110  1.00  0.00     0.276 HD
ATOM      7  H11 UNL     1      -0.703  -3.624  -9.581  1.00  0.00     0.276 HD
ENDBRANCH   3   4
ENDBRANCH   2   3
BRANCH   2   8
HETATM    8  O1  UNL     1      -2.113  -5.108  -6.616  1.00  0.00    -0.391 OA
ATOM      9  H1  UNL     1      -2.010  -5.900  -6.102  1.00  0.00     0.210 HD
ENDBRANCH   2   8
ENDBRANCH   1   2
BRANCH   1  10
HETATM   10  O2  UNL     1      -4.425  -4.479  -6.323  1.00  0.00    -0.390 OA
ATOM     11  H2  UNL     1      -4.165  -5.098  -5.652  1.00  0.00     0.210 HD
ENDBRANCH   1  10
BRANCH   1  12
HETATM   12  C5  UNL     1      -5.177  -6.430  -7.316  1.00  0.00     0.153 C 
BRANCH  12  13
HETATM   13  O3  UNL     1      -5.682  -6.208  -5.969  1.00  0.00    -0.393 OA
ATOM     14  H3  UNL     1      -6.322  -6.901  -5.860  1.00  0.00     0.210 HD
ENDBRANCH  12  13
BRANCH  12  15
HETATM   15  C6  UNL     1      -6.440  -6.573  -8.127  1.00  0.00     0.017 C 
HETATM   16  C7  UNL     1      -6.363  -7.608  -9.165  1.00  0.00     0.007 C 
HETATM   17  C8  UNL     1      -7.725  -8.154  -9.582  1.00  0.00     0.000 C 
HETATM   18  C9  UNL     1      -8.826  -7.185  -9.234  1.00  0.00     0.000 C 
HETATM   19  C10 UNL     1      -8.896  -7.101  -7.751  1.00  0.00     0.000 C 
HETATM   20  C11 UNL     1      -7.604  -6.700  -7.166  1.00  0.00     0.007 C 
ENDBRANCH  12  15
ENDBRANCH   1  12
TORSDOF 8
ENDMDL
MODEL 2
REMARK VINA RESULT: -6.944519919      1.204      2.054
REMARK  8 active torsions:
REMARK  status: ('A' for Active; 'I' for Inactive)
REMARK    1  A    between atoms: N1_2  and  C2_5 
REMARK    2  A    between atoms: C2_5  and  C3_6 
REMARK    3  A    between atoms: C3_6  and  O1_7 
REMARK    4  A    between atoms: C3_6  and  C4_9 
REMARK    5  A    between atoms: C4_9  and  O2_10 
REMARK    6  A    between atoms: C4_9  and  C5_12 
REMARK    7  A    between atoms: C5_12  and  O3_13 
REMARK    8  A    between atoms: C5_12  and  C6_15 
ROOT
HETATM    1  C4  UNL     1      -4.478  -5.353  -7.522  1.00  0.00     0.177 C 
ENDROOT
BRANCH   1   2
HETATM    2  C3  UNL     1      -3.093  -5.240  -8.024  1.00  0.00     0.175 C 
BRANCH   2   3
HETATM    3  C2  UNL     1      -2.923  -4.061  -8.936  1.00  0.00     0.266 C 
BRANCH   3   4
HETATM    4  N1  UNL     1      -2.615  -2.807  -8.345  1.00  0.00    -0.076 N 
HETATM    5  C1  UNL     1      -3.756  -1.864  -8.552  1.00  0.00     0.267 C 
ATOM      6  H12 UNL     1      -1.733  -2.426  -8.687  1.00  0.00     0.276 HD
ATOM      7  H11 UNL     1      -2.363  -2.896  -7.360  1.00  0.00     0.276 HD
ENDBRANCH   3   4
ENDBRANCH   2   3
BRANCH   2   8
HETATM    8  O1  UNL     1      -2.133  -5.146  -7.012  1.00  0.00    -0.391 OA
ATOM      9  H1  UNL     1      -2.434  -4.503  -6.381  1.00  0.00     0.210 HD
ENDBRANCH   2   8
ENDBRANCH   1   2
BRANCH   1  10
HETATM   10  O2  UNL     1      -4.505  -4.464  -6.369  1.00  0.00    -0.390 OA
ATOM     11  H2  UNL     1      -4.510  -5.054  -5.625  1.00  0.00     0.210 HD
ENDBRANCH   1  10
BRANCH   1  12
HETATM   12  C5  UNL     1      -4.948  -6.652  -6.983  1.00  0.00     0.153 C 
BRANCH  12  13
HETATM   13  O3  UNL     1      -5.467  -6.299  -5.669  1.00  0.00    -0.393 OA
ATOM     14  H3  UNL     1      -5.386  -7.109  -5.179  1.00  0.00     0.210 HD
ENDBRANCH  12  13
BRANCH  12  15
HETATM   15  C6  UNL     1      -6.134  -7.305  -7.645  1.00  0.00     0.017 C 
HETATM   16  C7  UNL     1      -7.291  -6.415  -7.799  1.00  0.00     0.007 C 
HETATM   17  C8  UNL     1      -8.235  -6.833  -8.923  1.00  0.00     0.000 C 
HETATM   18  C9  UNL     1      -8.059  -8.291  -9.263  1.00  0.00     0.000 C 
HETATM   19  C10 UNL     1      -6.698  -8.454  -9.840  1.00  0.00     0.000 C 
HETATM   20  C11 UNL     1      -5.653  -7.975  -8.917  1.00  0.00     0.007 C 
ENDBRANCH  12  15
ENDBRANCH   1  12
TORSDOF 8
ENDMDL
MODEL 3
REMARK VINA RESULT: -6.911018900      0.936      1.205
REMARK  8 active torsions:
REMARK  status: ('A' for Active; 'I' for Inactive)
REMARK    1  A    between atoms: N1_2  and  C2_5 
REMARK    2  A    between atoms: C2_5  and  C3_6 
REMARK    3  A    between atoms: C3_6  and  O1_7 
REMARK    4  A    between atoms: C3_6  and  C4_9 
REMARK    5  A    between atoms: C4_9  and  O2_10 
REMARK    6  A    between atoms: C4_9  and  C5_12 
REMARK    7  A    between atoms: C5_12  and  O3_13 
REMARK    8  A    between atoms: C5_12  and  C6_15 
ROOT
HETATM    1  C4  UNL     1      -4.297  -5.030  -7.600  1.00  0.00     0.177 C 
ENDROOT
BRANCH   1   2
HETATM    2  C3  UNL     1      -2.851  -5.054  -7.904  1.00  0.00     0.175 C 
BRANCH   2   3
HETATM    3  C2  UNL     1      -2.412  -3.822  -8.639  1.00  0.00     0.266 C 
BRANCH   3   4
HETATM    4  N1  UNL     1      -1.198  -3.208  -8.234  1.00  0.00    -0.076 N 
HETATM    5  C1  UNL     1      -1.383  -1.726  -8.177  1.00  0.00     0.267 C 
ATOM      6  H12 UNL     1      -0.414  -3.476  -8.829  1.00  0.00     0.276 HD
ATOM      7  H11 UNL     1      -0.849  -3.586  -7.353  1.00  0.00     0.276 HD
ENDBRANCH   3   4
ENDBRANCH   2   3
BRANCH   2   8
HETATM    8  O1  UNL     1      -2.041  -5.194  -6.773  1.00  0.00    -0.391 OA
ATOM      9  H1  UNL     1      -1.210  -5.561  -7.052  1.00  0.00     0.210 HD
ENDBRANCH   2   8
ENDBRANCH   1   2
BRANCH   1  10
HETATM   10  O2  UNL     1      -4.370  -4.388  -6.295  1.00  0.00    -0.390 OA
ATOM     11  H2  UNL     1      -4.171  -3.477  -6.477  1.00  0.00     0.210 HD
ENDBRANCH   1  10
BRANCH   1  12
HETATM   12  C5  UNL     1      -5.017  -6.312  -7.408  1.00  0.00     0.153 C 
BRANCH  12  13
HETATM   13  O3  UNL     1      -5.520  -6.211  -6.046  1.00  0.00    -0.393 OA
ATOM     14  H3  UNL     1      -4.739  -6.017  -5.540  1.00  0.00     0.210 HD
ENDBRANCH  12  13
BRANCH  12  15
HETATM   15  C6  UNL     1      -6.272  -6.545  -8.210  1.00  0.00     0.017 C 
HETATM   16  C7  UNL     1      -6.171  -7.665  -9.154  1.00  0.00     0.007 C 
HETATM   17  C8  UNL     1      -7.521  -8.268  -9.530  1.00  0.00     0.000 C 
HETATM   18  C9  UNL     1      -8.640  -7.290  -9.274  1.00  0.00     0.000 C 
HETATM   19  C10 UNL     1      -8.722  -7.079  -7.804  1.00  0.00     0.000 C 
HETATM   20  C11 UNL     1      -7.441  -6.607  -7.249  1.00  0.00     0.007 C 
ENDBRANCH  12  15
ENDBRANCH   1  12
TORSDOF 8
ENDMDL
MODEL 4
REMARK VINA RESULT: -6.901994884      0.596      1.387
REMARK  8 active torsions:
REMARK  status: ('A' for Active; 'I' for Inactive)
REMARK    1  A    between atoms: N1_2  and  C2_5 
REMARK    2  A    between atoms: C2_5  and  C3_6 
REMARK    3  A    between atoms: C3_6  and  O1_7 
REMARK    4  A    between atoms: C3_6  and  C4_9 
REMARK    5  A    between atoms: C4_9  and  O2_10 
REMARK    6  A    between atoms: C4_9  and  C5_12 
REMARK    7  A    between atoms: C5_12  and  O3_13 
REMARK    8  A    between atoms: C5_12  and  C6_15 
ROOT
HETATM    1  C4  UNL     1      -4.359  -5.555  -7.582  1.00  0.00     0.177 C 
ENDROOT
BRANCH   1   2
HETATM    2  C3  UNL     1      -2.892  -5.538  -7.757  1.00  0.00     0.175 C 
BRANCH   2   3
HETATM    3  C2  UNL     1      -2.471  -4.619  -8.866  1.00  0.00     0.266 C 
BRANCH   3   4
HETATM    4  N1  UNL     1      -1.085  -4.348  -9.010  1.00  0.00    -0.076 N 
HETATM    5  C1  UNL     1      -0.371  -5.598  -9.413  1.00  0.00     0.267 C 
ATOM      6  H12 UNL     1      -0.686  -3.929  -8.170  1.00  0.00     0.276 HD
ATOM      7  H11 UNL     1      -0.908  -3.578  -9.655  1.00  0.00     0.276 HD
ENDBRANCH   3   4
ENDBRANCH   2   3
BRANCH   2   8
HETATM    8  O1  UNL     1      -2.191  -5.173  -6.604  1.00  0.00    -0.391 OA
ATOM      9  H1  UNL     1      -2.778  -4.671  -6.051  1.00  0.00     0.210 HD
ENDBRANCH   2   8
ENDBRANCH   1   2
BRANCH   1  10
HETATM   10  O2  UNL     1      -4.610  -4.477  -6.634  1.00  0.00    -0.390 OA
ATOM     11  H2  UNL     1      -4.606  -3.695  -7.172  1.00  0.00     0.210 HD
ENDBRANCH   1  10
BRANCH   1  12
HETATM   12  C5  UNL     1      -4.999  -6.737  -6.956  1.00  0.00     0.153 C 
BRANCH  12  13
HETATM   13  O3  UNL     1      -5.559  -6.200  -5.724  1.00  0.00    -0.393 OA
ATOM     14  H3  UNL     1      -5.384  -5.269  -5.793  1.00  0.00     0.210 HD
ENDBRANCH  12  13
BRANCH  12  15
HETATM   15  C6  UNL     1      -6.204  -7.333  -7.638  1.00  0.00     0.017 C 
HETATM   16  C7  UNL     1      -7.329  -6.400  -7.773  1.00  0.00     0.007 C 
HETATM   17  C8  UNL     1      -8.282  -6.757  -8.910  1.00  0.00     0.000 C 
HETATM   18  C9  UNL     1      -8.155  -8.212  -9.286  1.00  0.00     0.000 C 
HETATM   19  C10 UNL     1      -6.798  -8.407  -9.862  1.00  0.00     0.000 C 
HETATM   20  C11 UNL     1      -5.741  -7.987  -8.924  1.00  0.00     0.007 C 
ENDBRANCH  12  15
ENDBRANCH   1  12
TORSDOF 8
ENDMDL
MODEL 5
REMARK VINA RESULT: -6.859573870      1.303      1.330
REMARK  8 active torsions:
REMARK  status: ('A' for Active; 'I' for Inactive)
REMARK    1  A    between atoms: N1_2  and  C2_5 
REMARK    2  A    between atoms: C2_5  and  C3_6 
REMARK    3  A    between atoms: C3_6  and  O1_7 
REMARK    4  A    between atoms: C3_6  and  C4_9 
REMARK    5  A    between atoms: C4_9  and  O2_10 
REMARK    6  A    between atoms: C4_9  and  C5_12 
REMARK    7  A    between atoms: C5_12  and  O3_13 
REMARK    8  A    between atoms: C5_12  and  C6_15 
ROOT
HETATM    1  C4  UNL     1      -4.000  -5.589  -7.359  1.00  0.00     0.177 C 
ENDROOT
BRANCH   1   2
HETATM    2  C3  UNL     1      -2.582  -5.859  -7.045  1.00  0.00     0.175 C 
BRANCH   2   3
HETATM    3  C2  UNL     1      -1.986  -6.875  -7.974  1.00  0.00     0.266 C 
BRANCH   3   4
HETATM    4  N1  UNL     1      -0.973  -7.728  -7.461  1.00  0.00    -0.076 N 
HETATM    5  C1  UNL     1       0.363  -7.258  -7.938  1.00  0.00     0.267 C 
ATOM      6  H12 UNL     1      -1.142  -8.707  -7.689  1.00  0.00     0.276 HD
ATOM      7  H11 UNL     1      -1.014  -7.806  -6.444  1.00  0.00     0.276 HD
ENDBRANCH   3   4
ENDBRANCH   2   3
BRANCH   2   8
HETATM    8  O1  UNL     1      -1.772  -4.720  -7.074  1.00  0.00    -0.391 OA
ATOM      9  H1  UNL     1      -0.866  -5.005  -7.099  1.00  0.00     0.210 HD
ENDBRANCH   2   8
ENDBRANCH   1   2
BRANCH   1  10
HETATM   10  O2  UNL     1      -4.368  -4.530  -6.429  1.00  0.00    -0.390 OA
ATOM     11  H2  UNL     1      -5.014  -4.022  -6.906  1.00  0.00     0.210 HD
ENDBRANCH   1  10
BRANCH   1  12
HETATM   12  C5  UNL     1      -5.009  -6.647  -7.113  1.00  0.00     0.153 C 
BRANCH  12  13
HETATM   13  O3  UNL     1      -5.575  -6.275  -5.825  1.00  0.00    -0.393 OA
ATOM     14  H3  UNL     1      -6.419  -5.904  -6.057  1.00  0.00     0.210 HD
ENDBRANCH  12  13
BRANCH  12  15
HETATM   15  C6  UNL     1      -6.221  -6.690  -8.009  1.00  0.00     0.017 C 
HETATM   16  C7  UNL     1      -6.135  -7.700  -9.072  1.00  0.00     0.007 C 
HETATM   17  C8  UNL     1      -7.495  -8.151  -9.595  1.00  0.00     0.000 C 
HETATM   18  C9  UNL     1      -8.558  -7.125  -9.291  1.00  0.00     0.000 C 
HETATM   19  C10 UNL     1      -8.724  -7.078  -7.814  1.00  0.00     0.000 C 
HETATM   20  C11 UNL     1      -7.453  -6.772  -7.132  1.00  0.00     0.007 C 
ENDBRANCH  12  15
ENDBRANCH   1  12
TORSDOF 8
ENDMDL
