MODEL 1
REMARK VINA RESULT: -6.680636616      0.000      0.000
REMARK  9 active torsions:
REMARK  status: ('A' for Active; 'I' for Inactive)
REMARK    1  A    between atoms: O1_1  and  C1_3 
REMARK    2  A    between atoms: C1_3  and  C2_4 
REMARK    3  A    between atoms: C2_4  and  C3_5 
REMARK    4  A    between atoms: C3_5  and  O2_6 
REMARK    5  A    between atoms: C3_5  and  C4_8 
REMARK    6  A    between atoms: C4_8  and  O3_9 
REMARK    7  A    between atoms: C4_8  and  C5_11 
REMARK    8  A    between atoms: C5_11  and  O4_12 
REMARK    9  A    between atoms: C5_11  and  C6_14 
ROOT
HETATM    1  C4  UNL     1      -3.648  -6.072  -7.398  1.00  0.00     0.176 C 
ENDROOT
BRANCH   1   2
HETATM    2  C3  UNL     1      -2.859  -4.929  -7.936  1.00  0.00     0.151 C 
BRANCH   2   3
HETATM    3  C2  UNL     1      -2.301  -5.127  -9.310  1.00  0.00     0.060 C 
BRANCH   3   4
HETATM    4  C1  UNL     1      -1.021  -5.953  -9.186  1.00  0.00     0.166 C 
BRANCH   4   5
HETATM    5  O1  UNL     1       0.054  -5.230  -9.698  1.00  0.00    -0.401 OA
ATOM      6  H1  UNL     1       0.442  -4.704  -9.009  1.00  0.00     0.209 HD
ENDBRANCH   4   5
ENDBRANCH   3   4
ENDBRANCH   2   3
BRANCH   2   7
HETATM    7  O2  UNL     1      -1.753  -4.760  -7.070  1.00  0.00    -0.393 OA
ATOM      8  H2  UNL     1      -1.350  -5.615  -6.972  1.00  0.00     0.210 HD
ENDBRANCH   2   7
ENDBRANCH   1   2
BRANCH   1   9
HETATM    9  O3  UNL     1      -2.958  -6.560  -6.285  1.00  0.00    -0.390 OA
ATOM     10  H3  UNL     1      -3.353  -7.393  -6.054  1.00  0.00     0.210 HD
ENDBRANCH   1   9
BRANCH   1  11
HETATM   11  C5  UNL     1      -5.089  -5.792  -7.137  1.00  0.00     0.153 C 
BRANCH  11  12
HETATM   12  O4  UNL     1      -5.475  -6.133  -5.840  1.00  0.00    -0.393 OA
ATOM     13  H4  UNL     1      -5.937  -5.429  -5.401  1.00  0.00     0.210 HD
ENDBRANCH  11  12
BRANCH  11  14
HETATM   14  C6  UNL     1      -5.982  -6.369  -8.182  1.00  0.00     0.017 C 
HETATM   15  C7  UNL     1      -7.341  -6.706  -7.566  1.00  0.00     0.007 C 
HETATM   16  C8  UNL     1      -8.312  -6.846  -8.703  1.00  0.00     0.000 C 
HETATM   17  C9  UNL     1      -7.791  -7.815  -9.695  1.00  0.00     0.000 C 
HETATM   18  C10 UNL     1      -6.522  -8.518  -9.341  1.00  0.00     0.000 C 
HETATM   19  C11 UNL     1      -5.425  -7.578  -8.898  1.00  0.00     0.007 C 
ENDBRANCH  11  14
ENDBRANCH   1  11
TORSDOF 9
ENDMDL
MODEL 2
REMARK VINA RESULT: -6.458146372      1.405      2.411
REMARK  9 active torsions:
REMARK  status: ('A' for Active; 'I' for Inactive)
REMARK    1  A    between atoms: O1_1  and  C1_3 
REMARK    2  A    between atoms: C1_3  and  C2_4 
REMARK    3  A    between atoms: C2_4  and  C3_5 
REMARK    4  A    between atoms: C3_5  and  O2_6 
REMARK    5  A    between atoms: C3_5  and  C4_8 
REMARK    6  A    between atoms: C4_8  and  O3_9 
REMARK    7  A    between atoms: C4_8  and  C5_11 
REMARK    8  A    between atoms: C5_11  and  O4_12 
REMARK    9  A    between atoms: C5_11  and  C6_14 
ROOT
HETATM    1  C4  UNL     1      -5.167  -6.056  -7.249  1.00  0.00     0.176 C 
ENDROOT
BRANCH   1   2
HETATM    2  C3  UNL     1      -4.593  -4.735  -7.629  1.00  0.00     0.151 C 
BRANCH   2   3
HETATM    3  C2  UNL     1      -3.341  -4.792  -8.445  1.00  0.00     0.060 C 
BRANCH   3   4
HETATM    4  C1  UNL     1      -2.336  -5.676  -7.707  1.00  0.00     0.166 C 
BRANCH   4   5
HETATM    5  O1  UNL     1      -1.447  -4.877  -6.992  1.00  0.00    -0.401 OA
ATOM      6  H1  UNL     1      -1.803  -4.697  -6.129  1.00  0.00     0.209 HD
ENDBRANCH   4   5
ENDBRANCH   3   4
ENDBRANCH   2   3
BRANCH   2   7
HETATM    7  O2  UNL     1      -4.261  -4.078  -6.421  1.00  0.00    -0.393 OA
ATOM      8  H2  UNL     1      -4.851  -3.336  -6.343  1.00  0.00     0.210 HD
ENDBRANCH   2   7
ENDBRANCH   1   2
BRANCH   1   9
HETATM    9  O3  UNL     1      -5.193  -6.107  -5.853  1.00  0.00    -0.390 OA
ATOM     10  H3  UNL     1      -6.018  -6.507  -5.602  1.00  0.00     0.210 HD
ENDBRANCH   1   9
BRANCH   1  11
HETATM   11  C5  UNL     1      -6.470  -6.399  -7.888  1.00  0.00     0.153 C 
BRANCH  11  12
HETATM   12  O4  UNL     1      -7.561  -6.117  -7.065  1.00  0.00    -0.393 OA
ATOM     13  H4  UNL     1      -7.343  -5.513  -6.365  1.00  0.00     0.210 HD
ENDBRANCH  11  12
BRANCH  11  14
HETATM   14  C6  UNL     1      -6.493  -7.788  -8.431  1.00  0.00     0.017 C 
HETATM   15  C7  UNL     1      -5.105  -8.157  -8.955  1.00  0.00     0.007 C 
HETATM   16  C8  UNL     1      -5.063  -9.654  -9.061  1.00  0.00     0.000 C 
HETATM   17  C9  UNL     1      -6.210 -10.134  -9.867  1.00  0.00     0.000 C 
HETATM   18  C10 UNL     1      -7.079  -9.089 -10.483  1.00  0.00     0.000 C 
HETATM   19  C11 UNL     1      -7.533  -8.035  -9.499  1.00  0.00     0.007 C 
ENDBRANCH  11  14
ENDBRANCH   1  11
TORSDOF 9
ENDMDL
MODEL 3
REMARK VINA RESULT: -6.442620950      1.120      1.843
REMARK  9 active torsions:
REMARK  status: ('A' for Active; 'I' for Inactive)
REMARK    1  A    between atoms: O1_1  and  C1_3 
REMARK    2  A    between atoms: C1_3  and  C2_4 
REMARK    3  A    between atoms: C2_4  and  C3_5 
REMARK    4  A    between atoms: C3_5  and  O2_6 
REMARK    5  A    between atoms: C3_5  and  C4_8 
REMARK    6  A    between atoms: C4_8  and  O3_9 
REMARK    7  A    between atoms: C4_8  and  C5_11 
REMARK    8  A    between atoms: C5_11  and  O4_12 
REMARK    9  A    between atoms: C5_11  and  C6_14 
ROOT
HETATM    1  C4  UNL     1      -4.230  -6.288  -7.438  1.00  0.00     0.176 C 
ENDROOT
BRANCH   1   2
HETATM    2  C3  UNL     1      -3.920  -5.080  -8.253  1.00  0.00     0.151 C 
BRANCH   2   3
HETATM    3  C2  UNL     1      -2.668  -5.161  -9.067  1.00  0.00     0.060 C 
BRANCH   3   4
HETATM    4  C1  UNL     1      -1.645  -4.202  -8.457  1.00  0.00     0.166 C 
BRANCH   4   5
HETATM    5  O1  UNL     1      -1.121  -4.756  -7.292  1.00  0.00    -0.401 OA
ATOM      6  H1  UNL     1      -0.456  -4.179  -6.935  1.00  0.00     0.209 HD
ENDBRANCH   4   5
ENDBRANCH   3   4
ENDBRANCH   2   3
BRANCH   2   7
HETATM    7  O2  UNL     1      -3.743  -4.013  -7.340  1.00  0.00    -0.393 OA
ATOM      8  H2  UNL     1      -4.161  -4.277  -6.529  1.00  0.00     0.210 HD
ENDBRANCH   2   7
ENDBRANCH   1   2
BRANCH   1   9
HETATM    9  O3  UNL     1      -3.350  -6.288  -6.352  1.00  0.00    -0.390 OA
ATOM     10  H3  UNL     1      -2.518  -5.952  -6.665  1.00  0.00     0.210 HD
ENDBRANCH   1   9
BRANCH   1  11
HETATM   11  C5  UNL     1      -5.661  -6.454  -7.053  1.00  0.00     0.153 C 
BRANCH  11  12
HETATM   12  O4  UNL     1      -5.833  -6.589  -5.675  1.00  0.00    -0.393 OA
ATOM     13  H4  UNL     1      -6.741  -6.494  -5.411  1.00  0.00     0.210 HD
ENDBRANCH  11  12
BRANCH  11  14
HETATM   14  C6  UNL     1      -6.342  -7.527  -7.833  1.00  0.00     0.017 C 
HETATM   15  C7  UNL     1      -5.390  -8.068  -8.901  1.00  0.00     0.007 C 
HETATM   16  C8  UNL     1      -5.932  -9.400  -9.334  1.00  0.00     0.000 C 
HETATM   17  C9  UNL     1      -7.350  -9.259  -9.740  1.00  0.00     0.000 C 
HETATM   18  C10 UNL     1      -7.908  -7.874  -9.751  1.00  0.00     0.000 C 
HETATM   19  C11 UNL     1      -7.652  -7.119  -8.467  1.00  0.00     0.007 C 
ENDBRANCH  11  14
ENDBRANCH   1  11
TORSDOF 9
ENDMDL
MODEL 4
REMARK VINA RESULT: -6.414035283      1.451      2.462
REMARK  9 active torsions:
REMARK  status: ('A' for Active; 'I' for Inactive)
REMARK    1  A    between atoms: O1_1  and  C1_3 
REMARK    2  A    between atoms: C1_3  and  C2_4 
REMARK    3  A    between atoms: C2_4  and  C3_5 
REMARK    4  A    between atoms: C3_5  and  O2_6 
REMARK    5  A    between atoms: C3_5  and  C4_8 
REMARK    6  A    between atoms: C4_8  and  O3_9 
REMARK    7  A    between atoms: C4_8  and  C5_11 
REMARK    8  A    between atoms: C5_11  and  O4_12 
REMARK    9  A    between atoms: C5_11  and  C6_14 
ROOT
HETATM    1  C4  UNL     1      -5.610  -6.641  -6.919  1.00  0.00     0.176 C 
ENDROOT
BRANCH   1   2
HETATM    2  C3  UNL     1      -4.638  -5.667  -7.489  1.00  0.00     0.151 C 
BRANCH   2   3
HETATM    3  C2  UNL     1      -3.301  -6.231  -7.847  1.00  0.00     0.060 C 
BRANCH   3   4
HETATM    4  C1  UNL     1      -2.337  -5.064  -8.058  1.00  0.00     0.166 C 
BRANCH   4   5
HETATM    5  O1  UNL     1      -1.492  -4.948  -6.957  1.00  0.00    -0.401 OA
ATOM      6  H1  UNL     1      -1.790  -4.240  -6.399  1.00  0.00     0.209 HD
ENDBRANCH   4   5
ENDBRANCH   3   4
ENDBRANCH   2   3
BRANCH   2   7
HETATM    7  O2  UNL     1      -4.413  -4.692  -6.488  1.00  0.00    -0.393 OA
ATOM      8  H2  UNL     1      -3.702  -4.143  -6.798  1.00  0.00     0.210 HD
ENDBRANCH   2   7
ENDBRANCH   1   2
BRANCH   1   9
HETATM    9  O3  UNL     1      -5.597  -6.473  -5.532  1.00  0.00    -0.390 OA
ATOM     10  H3  UNL     1      -5.403  -5.558  -5.363  1.00  0.00     0.210 HD
ENDBRANCH   1   9
BRANCH   1  11
HETATM   11  C5  UNL     1      -6.976  -6.610  -7.516  1.00  0.00     0.153 C 
BRANCH  11  12
HETATM   12  O4  UNL     1      -7.937  -6.119  -6.631  1.00  0.00    -0.393 OA
ATOM     13  H4  UNL     1      -8.821  -6.204  -6.968  1.00  0.00     0.210 HD
ENDBRANCH  11  12
BRANCH  11  14
HETATM   14  C6  UNL     1      -7.362  -7.912  -8.131  1.00  0.00     0.017 C 
HETATM   15  C7  UNL     1      -6.335  -8.981  -7.755  1.00  0.00     0.007 C 
HETATM   16  C8  UNL     1      -6.983 -10.313  -8.000  1.00  0.00     0.000 C 
HETATM   17  C9  UNL     1      -7.505 -10.373  -9.386  1.00  0.00     0.000 C 
HETATM   18  C10 UNL     1      -7.204  -9.205 -10.265  1.00  0.00     0.000 C 
HETATM   19  C11 UNL     1      -7.548  -7.877  -9.630  1.00  0.00     0.007 C 
ENDBRANCH  11  14
ENDBRANCH   1  11
TORSDOF 9
ENDMDL
MODEL 5
REMARK VINA RESULT: -6.302697344      3.748      4.721
REMARK  9 active torsions:
REMARK  status: ('A' for Active; 'I' for Inactive)
REMARK    1  A    between atoms: O1_1  and  C1_3 
REMARK    2  A    between atoms: C1_3  and  C2_4 
REMARK    3  A    between atoms: C2_4  and  C3_5 
REMARK    4  A    between atoms: C3_5  and  O2_6 
REMARK    5  A    between atoms: C3_5  and  C4_8 
REMARK    6  A    between atoms: C4_8  and  O3_9 
REMARK    7  A    between atoms: C4_8  and  C5_11 
REMARK    8  A    between atoms: C5_11  and  O4_12 
REMARK    9  A    between atoms: C5_11  and  C6_14 
ROOT
HETATM    1  C4  UNL     1      -3.636  -3.682  -8.385  1.00  0.00     0.176 C 
ENDROOT
BRANCH   1   2
HETATM    2  C3  UNL     1      -2.246  -4.177  -8.594  1.00  0.00     0.151 C 
BRANCH   2   3
HETATM    3  C2  UNL     1      -1.836  -5.321  -7.723  1.00  0.00     0.060 C 
BRANCH   3   4
HETATM    4  C1  UNL     1      -0.842  -6.178  -8.506  1.00  0.00     0.166 C 
BRANCH   4   5
HETATM    5  O1  UNL     1       0.135  -5.363  -9.073  1.00  0.00    -0.401 OA
ATOM      6  H1  UNL     1      -0.279  -4.637  -9.525  1.00  0.00     0.209 HD
ENDBRANCH   4   5
ENDBRANCH   3   4
ENDBRANCH   2   3
BRANCH   2   7
HETATM    7  O2  UNL     1      -1.384  -3.099  -8.283  1.00  0.00    -0.393 OA
ATOM      8  H2  UNL     1      -1.035  -2.783  -9.108  1.00  0.00     0.210 HD
ENDBRANCH   2   7
ENDBRANCH   1   2
BRANCH   1   9
HETATM    9  O3  UNL     1      -4.025  -4.079  -7.103  1.00  0.00    -0.390 OA
ATOM     10  H3  UNL     1      -4.673  -4.766  -7.208  1.00  0.00     0.210 HD
ENDBRANCH   1   9
BRANCH   1  11
HETATM   11  C5  UNL     1      -3.848  -2.231  -8.656  1.00  0.00     0.153 C 
BRANCH  11  12
HETATM   12  O4  UNL     1      -3.855  -1.464  -7.491  1.00  0.00    -0.393 OA
ATOM     13  H4  UNL     1      -3.510  -1.935  -6.742  1.00  0.00     0.210 HD
ENDBRANCH  11  12
BRANCH  11  14
HETATM   14  C6  UNL     1      -5.033  -1.980  -9.527  1.00  0.00     0.017 C 
HETATM   15  C7  UNL     1      -4.743  -0.804 -10.461  1.00  0.00     0.007 C 
HETATM   16  C8  UNL     1      -5.739  -0.882 -11.581  1.00  0.00     0.000 C 
HETATM   17  C9  UNL     1      -7.113  -0.949 -11.031  1.00  0.00     0.000 C 
HETATM   18  C10 UNL     1      -7.247  -0.819  -9.550  1.00  0.00     0.000 C 
HETATM   19  C11 UNL     1      -6.328  -1.744  -8.785  1.00  0.00     0.007 C 
ENDBRANCH  11  14
ENDBRANCH   1  11
TORSDOF 9
ENDMDL
