MODEL 1
REMARK VINA RESULT: -7.152576042      0.000      0.000
REMARK  8 active torsions:
REMARK  status: ('A' for Active; 'I' for Inactive)
REMARK    1  A    between atoms: C2_2  and  C3_3 
REMARK    2  A    between atoms: C3_3  and  C4_4 
REMARK    3  A    between atoms: C4_4  and  N1_5 
REMARK       I    between atoms: N1_5  and  C5_7 
REMARK    4  A    between atoms: C5_7  and  C6_9 
REMARK       I    between atoms: N2_14  and  C11_15 
REMARK    5  A    between atoms: C11_15  and  C12_17 
REMARK    6  A    between atoms: C12_17  and  N3_18 
REMARK    7  A    between atoms: C12_17  and  C19_31 
REMARK       I    between atoms: N3_18  and  C13_20 
REMARK    8  A    between atoms: C13_20  and  C14_22 
ROOT
HETATM    1  C6  UNL     1      13.537   0.189  42.921  1.00  0.00     0.183 C 
HETATM    2  C7  UNL     1      12.695  -0.925  42.432  1.00  0.00     0.024 A 
HETATM    3  C8  UNL     1      11.408  -1.422  42.685  1.00  0.00     0.014 A 
HETATM    4  C9  UNL     1      12.163  -1.297  43.855  1.00  0.00     0.011 A 
HETATM    5  C10 UNL     1      13.539  -1.716  44.293  1.00  0.00     0.132 C 
HETATM    6  N2  UNL     1      14.201  -0.424  44.038  1.00  0.00    -0.336 N 
HETATM    7  C11 UNL     1      15.238   0.050  44.860  1.00  0.00     0.243 C 
HETATM    8  O2  UNL     1      15.706   1.243  44.717  1.00  0.00    -0.271 OA
ENDROOT
BRANCH   1   9
HETATM    9  C5  UNL     1      14.435   0.731  41.881  1.00  0.00     0.241 C 
HETATM   10  N1  UNL     1      14.811   2.095  41.813  1.00  0.00    -0.347 N 
ATOM     11  H1  UNL     1      14.439   2.732  42.517  1.00  0.00     0.163 HD
HETATM   12  O1  UNL     1      14.887  -0.044  41.021  1.00  0.00    -0.271 OA
BRANCH  10  13
HETATM   13  C4  UNL     1      15.691   2.635  40.803  1.00  0.00     0.064 C 
HETATM   14  C22 UNL     1      15.741   4.159  40.905  1.00  0.00     0.068 C 
HETATM   15  C23 UNL     1      17.233   4.109  41.048  1.00  0.00     0.159 C 
HETATM   16  O5  UNL     1      17.747   4.673  42.198  1.00  0.00    -0.348 OA
HETATM   17  C27 UNL     1      17.120   2.630  41.295  1.00  0.00     0.182 C 
HETATM   18  C24 UNL     1      17.857   3.685  43.139  1.00  0.00     0.158 C 
HETATM   19  C25 UNL     1      17.212   4.213  44.406  1.00  0.00     0.078 C 
HETATM   20  C26 UNL     1      19.318   3.337  43.440  1.00  0.00     0.078 C 
HETATM   21  O6  UNL     1      17.258   2.546  42.674  1.00  0.00    -0.345 OA
BRANCH  13  22
HETATM   22  C3  UNL     1      15.469   2.137  39.400  1.00  0.00     0.033 C 
BRANCH  22  23
HETATM   23  C2  UNL     1      14.388   2.899  38.677  1.00  0.00    -0.002 C 
HETATM   24  C1  UNL     1      13.104   2.098  38.664  1.00  0.00     0.005 C 
ENDBRANCH  22  23
ENDBRANCH  13  22
ENDBRANCH  10  13
ENDBRANCH   1   9
BRANCH   7  25
HETATM   25  C12 UNL     1      15.887  -0.723  45.935  1.00  0.00     0.180 C 
BRANCH  25  26
HETATM   26  N3  UNL     1      15.690  -0.008  47.215  1.00  0.00    -0.345 N 
HETATM   27  C13 UNL     1      14.665  -0.363  48.103  1.00  0.00     0.261 C 
HETATM   28  O3  UNL     1      13.908  -1.312  47.783  1.00  0.00    -0.270 OA
ATOM     29  H3  UNL     1      16.315   0.761  47.456  1.00  0.00     0.163 HD
BRANCH  27  30
HETATM   30  C14 UNL     1      14.436   0.332  49.399  1.00  0.00     0.210 C 
HETATM   31  F1  UNL     1      15.636   0.445  50.101  1.00  0.00    -0.230 F 
HETATM   32  C15 UNL     1      13.468  -0.443  50.243  1.00  0.00     0.177 C 
HETATM   33  N4  UNL     1      12.694   0.548  50.936  1.00  0.00    -0.357 N 
HETATM   34  C16 UNL     1      12.572   1.662  50.063  1.00  0.00     0.225 C 
ATOM     35  H4  UNL     1      12.307   0.468  51.876  1.00  0.00     0.162 HD
HETATM   36  O4  UNL     1      11.641   2.496  49.987  1.00  0.00    -0.273 OA
HETATM   37  C17 UNL     1      13.788   1.668  49.215  1.00  0.00     0.125 C 
HETATM   38  C18 UNL     1      14.673   2.795  49.746  1.00  0.00     0.024 C 
ENDBRANCH  27  30
ENDBRANCH  25  26
BRANCH  25  39
HETATM   39  C19 UNL     1      17.367  -0.935  45.749  1.00  0.00     0.009 C 
HETATM   40  C20 UNL     1      17.727  -1.609  44.462  1.00  0.00     0.012 C 
HETATM   41  C21 UNL     1      18.179   0.315  45.964  1.00  0.00     0.012 C 
ENDBRANCH  25  39
ENDBRANCH   7  25
TORSDOF 8
ENDMDL
MODEL 2
REMARK VINA RESULT: -6.905642180      1.536      2.983
REMARK  8 active torsions:
REMARK  status: ('A' for Active; 'I' for Inactive)
REMARK    1  A    between atoms: C2_2  and  C3_3 
REMARK    2  A    between atoms: C3_3  and  C4_4 
REMARK    3  A    between atoms: C4_4  and  N1_5 
REMARK       I    between atoms: N1_5  and  C5_7 
REMARK    4  A    between atoms: C5_7  and  C6_9 
REMARK       I    between atoms: N2_14  and  C11_15 
REMARK    5  A    between atoms: C11_15  and  C12_17 
REMARK    6  A    between atoms: C12_17  and  N3_18 
REMARK    7  A    between atoms: C12_17  and  C19_31 
REMARK       I    between atoms: N3_18  and  C13_20 
REMARK    8  A    between atoms: C13_20  and  C14_22 
ROOT
HETATM    1  C6  UNL     1      14.996   1.495  42.362  1.00  0.00     0.183 C 
HETATM    2  C7  UNL     1      14.659   0.616  41.218  1.00  0.00     0.024 A 
HETATM    3  C8  UNL     1      13.492   0.146  40.600  1.00  0.00     0.014 A 
HETATM    4  C9  UNL     1      13.498  -0.110  41.974  1.00  0.00     0.011 A 
HETATM    5  C10 UNL     1      14.471  -0.718  42.947  1.00  0.00     0.132 C 
HETATM    6  N2  UNL     1      15.030   0.551  43.445  1.00  0.00    -0.336 N 
HETATM    7  C11 UNL     1      15.422   0.710  44.786  1.00  0.00     0.243 C 
HETATM    8  O2  UNL     1      15.768   1.865  45.243  1.00  0.00    -0.271 OA
ENDROOT
BRANCH   1   9
HETATM    9  C5  UNL     1      16.246   2.254  42.155  1.00  0.00     0.241 C 
HETATM   10  N1  UNL     1      16.656   3.318  42.995  1.00  0.00    -0.347 N 
ATOM     11  H1  UNL     1      16.054   3.572  43.778  1.00  0.00     0.163 HD
HETATM   12  O1  UNL     1      16.978   1.948  41.199  1.00  0.00    -0.271 OA
BRANCH  10  13
HETATM   13  C4  UNL     1      17.878   4.066  42.804  1.00  0.00     0.064 C 
HETATM   14  C22 UNL     1      17.650   5.207  41.814  1.00  0.00     0.068 C 
HETATM   15  C23 UNL     1      18.138   6.196  42.830  1.00  0.00     0.159 C 
HETATM   16  O5  UNL     1      17.249   7.195  43.172  1.00  0.00    -0.348 OA
HETATM   17  C27 UNL     1      18.018   5.122  43.876  1.00  0.00     0.182 C 
HETATM   18  C24 UNL     1      16.542   6.773  44.266  1.00  0.00     0.158 C 
HETATM   19  C25 UNL     1      15.075   7.000  43.954  1.00  0.00     0.078 C 
HETATM   20  C26 UNL     1      16.905   7.564  45.527  1.00  0.00     0.078 C 
HETATM   21  O6  UNL     1      16.834   5.459  44.516  1.00  0.00    -0.345 OA
BRANCH  13  22
HETATM   22  C3  UNL     1      19.108   3.252  42.506  1.00  0.00     0.033 C 
BRANCH  22  23
HETATM   23  C2  UNL     1      19.604   2.486  43.705  1.00  0.00    -0.002 C 
HETATM   24  C1  UNL     1      21.115   2.408  43.685  1.00  0.00     0.005 C 
ENDBRANCH  22  23
ENDBRANCH  13  22
ENDBRANCH  10  13
ENDBRANCH   1   9
BRANCH   7  25
HETATM   25  C12 UNL     1      15.482  -0.373  45.784  1.00  0.00     0.180 C 
BRANCH  25  26
HETATM   26  N3  UNL     1      15.294   0.214  47.129  1.00  0.00    -0.345 N 
HETATM   27  C13 UNL     1      14.448  -0.379  48.077  1.00  0.00     0.261 C 
HETATM   28  O3  UNL     1      13.846  -1.433  47.753  1.00  0.00    -0.270 OA
ATOM     29  H3  UNL     1      15.792   1.071  47.372  1.00  0.00     0.163 HD
BRANCH  27  30
HETATM   30  C14 UNL     1      14.234   0.181  49.439  1.00  0.00     0.210 C 
HETATM   31  F1  UNL     1      15.392   0.039  50.203  1.00  0.00    -0.230 F 
HETATM   32  C15 UNL     1      13.120  -0.545  50.132  1.00  0.00     0.177 C 
HETATM   33  N4  UNL     1      12.444   0.456  50.910  1.00  0.00    -0.357 N 
HETATM   34  C16 UNL     1      12.528   1.671  50.181  1.00  0.00     0.225 C 
ATOM     35  H4  UNL     1      11.992   0.319  51.813  1.00  0.00     0.162 HD
HETATM   36  O4  UNL     1      11.724   2.632  50.169  1.00  0.00    -0.273 OA
HETATM   37  C17 UNL     1      13.785   1.607  49.397  1.00  0.00     0.125 C 
HETATM   38  C18 UNL     1      14.777   2.527  50.106  1.00  0.00     0.024 C 
ENDBRANCH  27  30
ENDBRANCH  25  26
BRANCH  25  39
HETATM   39  C19 UNL     1      16.777  -1.144  45.795  1.00  0.00     0.009 C 
HETATM   40  C20 UNL     1      16.786  -2.328  44.880  1.00  0.00     0.012 C 
HETATM   41  C21 UNL     1      17.989  -0.275  45.587  1.00  0.00     0.012 C 
ENDBRANCH  25  39
ENDBRANCH   7  25
TORSDOF 8
ENDMDL
MODEL 3
REMARK VINA RESULT: -6.775906335      1.637      3.382
REMARK  8 active torsions:
REMARK  status: ('A' for Active; 'I' for Inactive)
REMARK    1  A    between atoms: C2_2  and  C3_3 
REMARK    2  A    between atoms: C3_3  and  C4_4 
REMARK    3  A    between atoms: C4_4  and  N1_5 
REMARK       I    between atoms: N1_5  and  C5_7 
REMARK    4  A    between atoms: C5_7  and  C6_9 
REMARK       I    between atoms: N2_14  and  C11_15 
REMARK    5  A    between atoms: C11_15  and  C12_17 
REMARK    6  A    between atoms: C12_17  and  N3_18 
REMARK    7  A    between atoms: C12_17  and  C19_31 
REMARK       I    between atoms: N3_18  and  C13_20 
REMARK    8  A    between atoms: C13_20  and  C14_22 
ROOT
HETATM    1  C6  UNL     1      15.095   1.649  42.324  1.00  0.00     0.183 C 
HETATM    2  C7  UNL     1      14.984   0.760  41.145  1.00  0.00     0.024 A 
HETATM    3  C8  UNL     1      13.957   0.100  40.455  1.00  0.00     0.014 A 
HETATM    4  C9  UNL     1      13.946  -0.194  41.822  1.00  0.00     0.011 A 
HETATM    5  C10 UNL     1      14.967  -0.641  42.831  1.00  0.00     0.132 C 
HETATM    6  N2  UNL     1      15.254   0.694  43.386  1.00  0.00    -0.336 N 
HETATM    7  C11 UNL     1      15.545   0.881  44.749  1.00  0.00     0.243 C 
HETATM    8  O2  UNL     1      15.646   2.065  45.250  1.00  0.00    -0.271 OA
ENDROOT
BRANCH   1   9
HETATM    9  C5  UNL     1      16.189   2.634  42.201  1.00  0.00     0.241 C 
HETATM   10  N1  UNL     1      16.110   3.951  42.716  1.00  0.00    -0.347 N 
ATOM     11  H1  UNL     1      15.253   4.229  43.194  1.00  0.00     0.163 HD
HETATM   12  O1  UNL     1      17.232   2.296  41.616  1.00  0.00    -0.271 OA
BRANCH  10  13
HETATM   13  C4  UNL     1      17.174   4.922  42.605  1.00  0.00     0.064 C 
HETATM   14  C22 UNL     1      17.794   4.869  41.209  1.00  0.00     0.068 C 
HETATM   15  C23 UNL     1      17.514   6.330  41.021  1.00  0.00     0.159 C 
HETATM   16  O5  UNL     1      16.722   6.656  39.938  1.00  0.00    -0.348 OA
HETATM   17  C27 UNL     1      16.613   6.272  42.224  1.00  0.00     0.182 C 
HETATM   18  C24 UNL     1      15.422   6.701  40.366  1.00  0.00     0.158 C 
HETATM   19  C25 UNL     1      14.611   5.868  39.392  1.00  0.00     0.078 C 
HETATM   20  C26 UNL     1      14.866   8.129  40.372  1.00  0.00     0.078 C 
HETATM   21  O6  UNL     1      15.350   6.235  41.651  1.00  0.00    -0.345 OA
BRANCH  13  22
HETATM   22  C3  UNL     1      18.193   4.912  43.712  1.00  0.00     0.033 C 
BRANCH  22  23
HETATM   23  C2  UNL     1      17.743   5.684  44.925  1.00  0.00    -0.002 C 
HETATM   24  C1  UNL     1      18.757   6.754  45.267  1.00  0.00     0.005 C 
ENDBRANCH  22  23
ENDBRANCH  13  22
ENDBRANCH  10  13
ENDBRANCH   1   9
BRANCH   7  25
HETATM   25  C12 UNL     1      15.759  -0.203  45.725  1.00  0.00     0.180 C 
BRANCH  25  26
HETATM   26  N3  UNL     1      15.535   0.335  47.084  1.00  0.00    -0.345 N 
HETATM   27  C13 UNL     1      14.603  -0.244  47.958  1.00  0.00     0.261 C 
HETATM   28  O3  UNL     1      13.956  -1.242  47.555  1.00  0.00    -0.270 OA
ATOM     29  H3  UNL     1      16.070   1.147  47.393  1.00  0.00     0.163 HD
BRANCH  27  30
HETATM   30  C14 UNL     1      14.350   0.268  49.332  1.00  0.00     0.210 C 
HETATM   31  F1  UNL     1      15.508   0.163  50.104  1.00  0.00    -0.230 F 
HETATM   32  C15 UNL     1      13.268  -0.531  49.996  1.00  0.00     0.177 C 
HETATM   33  N4  UNL     1      12.537   0.414  50.793  1.00  0.00    -0.357 N 
HETATM   34  C16 UNL     1      12.566   1.652  50.097  1.00  0.00     0.225 C 
ATOM     35  H4  UNL     1      12.084   0.231  51.688  1.00  0.00     0.162 HD
HETATM   36  O4  UNL     1      11.716   2.571  50.103  1.00  0.00    -0.273 OA
HETATM   37  C17 UNL     1      13.831   1.671  49.324  1.00  0.00     0.125 C 
HETATM   38  C18 UNL     1      14.771   2.619  50.066  1.00  0.00     0.024 C 
ENDBRANCH  27  30
ENDBRANCH  25  26
BRANCH  25  39
HETATM   39  C19 UNL     1      17.137  -0.812  45.693  1.00  0.00     0.009 C 
HETATM   40  C20 UNL     1      17.244  -2.026  44.825  1.00  0.00     0.012 C 
HETATM   41  C21 UNL     1      18.222   0.186  45.382  1.00  0.00     0.012 C 
ENDBRANCH  25  39
ENDBRANCH   7  25
TORSDOF 8
ENDMDL
MODEL 4
REMARK VINA RESULT: -6.737015599      2.759      5.804
REMARK  8 active torsions:
REMARK  status: ('A' for Active; 'I' for Inactive)
REMARK    1  A    between atoms: C2_2  and  C3_3 
REMARK    2  A    between atoms: C3_3  and  C4_4 
REMARK    3  A    between atoms: C4_4  and  N1_5 
REMARK       I    between atoms: N1_5  and  C5_7 
REMARK    4  A    between atoms: C5_7  and  C6_9 
REMARK       I    between atoms: N2_14  and  C11_15 
REMARK    5  A    between atoms: C11_15  and  C12_17 
REMARK    6  A    between atoms: C12_17  and  N3_18 
REMARK    7  A    between atoms: C12_17  and  C19_31 
REMARK       I    between atoms: N3_18  and  C13_20 
REMARK    8  A    between atoms: C13_20  and  C14_22 
ROOT
HETATM    1  C6  UNL     1      18.290   1.026  44.056  1.00  0.00     0.183 C 
HETATM    2  C7  UNL     1      18.211   2.220  43.184  1.00  0.00     0.024 A 
HETATM    3  C8  UNL     1      18.260   3.611  43.349  1.00  0.00     0.014 A 
HETATM    4  C9  UNL     1      17.297   3.019  44.171  1.00  0.00     0.011 A 
HETATM    5  C10 UNL     1      16.174   2.040  43.972  1.00  0.00     0.132 C 
HETATM    6  N2  UNL     1      16.910   0.842  44.412  1.00  0.00    -0.336 N 
HETATM    7  C11 UNL     1      16.278  -0.198  45.116  1.00  0.00     0.243 C 
HETATM    8  O2  UNL     1      16.960  -1.167  45.624  1.00  0.00    -0.271 OA
ENDROOT
BRANCH   1   9
HETATM    9  C5  UNL     1      18.924  -0.130  43.391  1.00  0.00     0.241 C 
HETATM   10  N1  UNL     1      19.299  -1.311  44.077  1.00  0.00    -0.347 N 
ATOM     11  H1  UNL     1      19.124  -1.361  45.081  1.00  0.00     0.163 HD
HETATM   12  O1  UNL     1      19.141  -0.070  42.169  1.00  0.00    -0.271 OA
BRANCH  10  13
HETATM   13  C4  UNL     1      19.916  -2.450  43.437  1.00  0.00     0.064 C 
HETATM   14  C22 UNL     1      20.098  -3.587  44.441  1.00  0.00     0.068 C 
HETATM   15  C23 UNL     1      19.322  -4.509  43.549  1.00  0.00     0.159 C 
HETATM   16  O5  UNL     1      18.195  -5.079  44.108  1.00  0.00    -0.348 OA
HETATM   17  C27 UNL     1      18.867  -3.308  42.768  1.00  0.00     0.182 C 
HETATM   18  C24 UNL     1      17.127  -4.274  43.814  1.00  0.00     0.158 C 
HETATM   19  C25 UNL     1      16.387  -4.034  45.116  1.00  0.00     0.078 C 
HETATM   20  C26 UNL     1      16.167  -4.931  42.818  1.00  0.00     0.078 C 
HETATM   21  O6  UNL     1      17.576  -3.116  43.238  1.00  0.00    -0.345 OA
BRANCH  13  22
HETATM   22  C3  UNL     1      21.154  -2.161  42.630  1.00  0.00     0.033 C 
BRANCH  22  23
HETATM   23  C2  UNL     1      22.279  -1.611  43.467  1.00  0.00    -0.002 C 
HETATM   24  C1  UNL     1      22.660  -0.228  42.985  1.00  0.00     0.005 C 
ENDBRANCH  22  23
ENDBRANCH  13  22
ENDBRANCH  10  13
ENDBRANCH   1   9
BRANCH   7  25
HETATM   25  C12 UNL     1      14.826  -0.302  45.347  1.00  0.00     0.180 C 
BRANCH  25  26
HETATM   26  N3  UNL     1      14.590  -0.477  46.797  1.00  0.00    -0.345 N 
HETATM   27  C13 UNL     1      14.615   0.612  47.681  1.00  0.00     0.261 C 
HETATM   28  O3  UNL     1      14.844   1.752  47.206  1.00  0.00    -0.270 OA
ATOM     29  H3  UNL     1      14.407  -1.411  47.163  1.00  0.00     0.163 HD
BRANCH  27  30
HETATM   30  C14 UNL     1      14.382   0.476  49.144  1.00  0.00     0.210 C 
HETATM   31  F1  UNL     1      15.598   0.505  49.827  1.00  0.00    -0.230 F 
HETATM   32  C15 UNL     1      13.702  -0.825  49.446  1.00  0.00     0.177 C 
HETATM   33  N4  UNL     1      12.812  -0.541  50.537  1.00  0.00    -0.357 N 
HETATM   34  C16 UNL     1      12.358   0.793  50.363  1.00  0.00     0.225 C 
ATOM     35  H4  UNL     1      12.555  -1.176  51.292  1.00  0.00     0.162 HD
HETATM   36  O4  UNL     1      11.266   1.298  50.710  1.00  0.00    -0.273 OA
HETATM   37  C17 UNL     1      13.445   1.520  49.664  1.00  0.00     0.125 C 
HETATM   38  C18 UNL     1      14.116   2.399  50.718  1.00  0.00     0.024 C 
ENDBRANCH  27  30
ENDBRANCH  25  26
BRANCH  25  39
HETATM   39  C19 UNL     1      14.158  -1.448  44.631  1.00  0.00     0.009 C 
HETATM   40  C20 UNL     1      12.696  -1.576  44.923  1.00  0.00     0.012 C 
HETATM   41  C21 UNL     1      14.429  -1.464  43.150  1.00  0.00     0.012 C 
ENDBRANCH  25  39
ENDBRANCH   7  25
TORSDOF 8
ENDMDL
MODEL 5
REMARK VINA RESULT: -6.675452847      1.385      2.982
REMARK  8 active torsions:
REMARK  status: ('A' for Active; 'I' for Inactive)
REMARK    1  A    between atoms: C2_2  and  C3_3 
REMARK    2  A    between atoms: C3_3  and  C4_4 
REMARK    3  A    between atoms: C4_4  and  N1_5 
REMARK       I    between atoms: N1_5  and  C5_7 
REMARK    4  A    between atoms: C5_7  and  C6_9 
REMARK       I    between atoms: N2_14  and  C11_15 
REMARK    5  A    between atoms: C11_15  and  C12_17 
REMARK    6  A    between atoms: C12_17  and  N3_18 
REMARK    7  A    between atoms: C12_17  and  C19_31 
REMARK       I    between atoms: N3_18  and  C13_20 
REMARK    8  A    between atoms: C13_20  and  C14_22 
ROOT
HETATM    1  C6  UNL     1      13.910   0.452  42.516  1.00  0.00     0.183 C 
HETATM    2  C7  UNL     1      13.238  -0.619  41.746  1.00  0.00     0.024 A 
HETATM    3  C8  UNL     1      11.946  -1.154  41.652  1.00  0.00     0.014 A 
HETATM    4  C9  UNL     1      12.411  -1.135  42.970  1.00  0.00     0.011 A 
HETATM    5  C10 UNL     1      13.666  -1.579  43.670  1.00  0.00     0.132 C 
HETATM    6  N2  UNL     1      14.324  -0.260  43.694  1.00  0.00    -0.336 N 
HETATM    7  C11 UNL     1      15.132   0.143  44.771  1.00  0.00     0.243 C 
HETATM    8  O2  UNL     1      15.579   1.350  44.850  1.00  0.00    -0.271 OA
ENDROOT
BRANCH   1   9
HETATM    9  C5  UNL     1      15.001   1.104  41.764  1.00  0.00     0.241 C 
HETATM   10  N1  UNL     1      14.977   2.470  41.388  1.00  0.00    -0.347 N 
ATOM     11  H1  UNL     1      14.164   3.026  41.650  1.00  0.00     0.163 HD
HETATM   12  O1  UNL     1      15.991   0.426  41.442  1.00  0.00    -0.271 OA
BRANCH  10  13
HETATM   13  C4  UNL     1      16.040   3.119  40.655  1.00  0.00     0.064 C 
HETATM   14  C22 UNL     1      16.238   2.441  39.300  1.00  0.00     0.068 C 
HETATM   15  C23 UNL     1      16.031   3.753  38.605  1.00  0.00     0.159 C 
HETATM   16  O5  UNL     1      14.996   3.794  37.692  1.00  0.00    -0.348 OA
HETATM   17  C27 UNL     1      15.501   4.310  39.897  1.00  0.00     0.182 C 
HETATM   18  C24 UNL     1      13.875   4.229  38.347  1.00  0.00     0.158 C 
HETATM   19  C25 UNL     1      12.762   3.257  38.005  1.00  0.00     0.078 C 
HETATM   20  C26 UNL     1      13.455   5.633  37.898  1.00  0.00     0.078 C 
HETATM   21  O6  UNL     1      14.129   4.294  39.690  1.00  0.00    -0.345 OA
BRANCH  13  22
HETATM   22  C3  UNL     1      17.324   3.335  41.410  1.00  0.00     0.033 C 
BRANCH  22  23
HETATM   23  C2  UNL     1      17.103   3.920  42.781  1.00  0.00    -0.002 C 
HETATM   24  C1  UNL     1      18.172   3.432  43.734  1.00  0.00     0.005 C 
ENDBRANCH  22  23
ENDBRANCH  13  22
ENDBRANCH  10  13
ENDBRANCH   1   9
BRANCH   7  25
HETATM   25  C12 UNL     1      15.547  -0.723  45.889  1.00  0.00     0.180 C 
BRANCH  25  26
HETATM   26  N3  UNL     1      15.393   0.030  47.152  1.00  0.00    -0.345 N 
HETATM   27  C13 UNL     1      14.550  -0.421  48.178  1.00  0.00     0.261 C 
HETATM   28  O3  UNL     1      13.920  -1.493  47.996  1.00  0.00    -0.270 OA
ATOM     29  H3  UNL     1      15.912   0.899  47.280  1.00  0.00     0.163 HD
BRANCH  27  30
HETATM   30  C14 UNL     1      14.369   0.308  49.462  1.00  0.00     0.210 C 
HETATM   31  F1  UNL     1      15.588   0.407  50.133  1.00  0.00    -0.230 F 
HETATM   32  C15 UNL     1      13.403  -0.423  50.346  1.00  0.00     0.177 C 
HETATM   33  N4  UNL     1      12.671   0.603  51.034  1.00  0.00    -0.357 N 
HETATM   34  C16 UNL     1      12.555   1.699  50.138  1.00  0.00     0.225 C 
ATOM     35  H4  UNL     1      12.304   0.554  51.984  1.00  0.00     0.162 HD
HETATM   36  O4  UNL     1      11.644   2.555  50.064  1.00  0.00    -0.273 OA
HETATM   37  C17 UNL     1      13.750   1.656  49.262  1.00  0.00     0.125 C 
HETATM   38  C18 UNL     1      14.675   2.772  49.745  1.00  0.00     0.024 C 
ENDBRANCH  27  30
ENDBRANCH  25  26
BRANCH  25  39
HETATM   39  C19 UNL     1      16.973  -1.206  45.812  1.00  0.00     0.009 C 
HETATM   40  C20 UNL     1      17.269  -2.031  44.599  1.00  0.00     0.012 C 
HETATM   41  C21 UNL     1      17.985  -0.105  45.992  1.00  0.00     0.012 C 
ENDBRANCH  25  39
ENDBRANCH   7  25
TORSDOF 8
ENDMDL
