MODEL 1
REMARK VINA RESULT: -8.023485510      0.000      0.000
REMARK  8 active torsions:
REMARK  status: ('A' for Active; 'I' for Inactive)
REMARK       I    between atoms: C1_2  and  N1_3 
REMARK    1  A    between atoms: C1_2  and  C7_10 
REMARK    2  A    between atoms: N1_3  and  C2_5 
REMARK    3  A    between atoms: N2_13  and  S1_14 
REMARK    4  A    between atoms: S1_14  and  N3_17 
REMARK    5  A    between atoms: N3_17  and  C10_19 
REMARK    6  A    between atoms: C14_26  and  C15_27 
REMARK    7  A    between atoms: C15_27  and  C16_28 
REMARK    8  A    between atoms: C16_28  and  N5_29 
ROOT
HETATM    1  C10 UNL     1      15.896  -0.287  46.253  1.00  0.00     0.124 C 
HETATM    2  C11 UNL     1      15.451  -0.188  44.817  1.00  0.00     0.258 C 
HETATM    3  N4  UNL     1      15.777   1.135  44.319  1.00  0.00    -0.073 N 
ATOM      4  H41 UNL     1      15.248   1.363  43.478  1.00  0.00     0.277 HD
ATOM      5  H42 UNL     1      16.717   1.170  43.924  1.00  0.00     0.277 HD
HETATM    6  C12 UNL     1      15.593   2.134  45.359  1.00  0.00     0.232 C 
HETATM    7  C13 UNL     1      14.470   1.670  46.306  1.00  0.00     0.034 C 
HETATM    8  C14 UNL     1      14.829   0.482  47.079  1.00  0.00     0.014 C 
ENDROOT
BRANCH   1   9
HETATM    9  N3  UNL     1      16.105  -1.579  46.739  1.00  0.00    -0.295 N 
ATOM     10  H3  UNL     1      16.923  -1.758  47.321  1.00  0.00     0.174 HD
BRANCH   9  11
HETATM   11  S1  UNL     1      15.067  -2.841  46.405  1.00  0.00     0.324 S 
HETATM   12  O2  UNL     1      15.728  -3.719  45.333  1.00  0.00    -0.182 OA
HETATM   13  O3  UNL     1      13.779  -2.407  45.691  1.00  0.00    -0.182 OA
BRANCH  11  14
HETATM   14  N2  UNL     1      14.705  -3.914  47.677  1.00  0.00    -0.253 N 
HETATM   15  C9  UNL     1      14.615  -3.287  48.911  1.00  0.00     0.083 C 
HETATM   16  C8  UNL     1      15.040  -4.081  50.114  1.00  0.00     0.060 C 
HETATM   17  C7  UNL     1      16.296  -4.821  49.703  1.00  0.00     0.087 C 
HETATM   18  C26 UNL     1      15.839  -5.856  48.704  1.00  0.00     0.060 C 
HETATM   19  C25 UNL     1      15.170  -5.217  47.550  1.00  0.00     0.083 C 
BRANCH  17  20
HETATM   20  C1  UNL     1      16.998  -5.413  50.858  1.00  0.00     0.222 C 
HETATM   21  O1  UNL     1      17.107  -4.696  51.891  1.00  0.00    -0.273 OA
HETATM   22  N1  UNL     1      17.542  -6.715  50.862  1.00  0.00    -0.356 N 
ATOM     23  H1  UNL     1      17.458  -7.302  50.032  1.00  0.00     0.162 HD
BRANCH  22  24
HETATM   24  C2  UNL     1      18.212  -7.222  52.027  1.00  0.00     0.084 C 
HETATM   25  C3  UNL     1      17.980  -8.694  52.263  1.00  0.00     0.025 C 
HETATM   26  C4  UNL     1      19.089  -9.066  53.244  1.00  0.00     0.002 C 
HETATM   27  C5  UNL     1      20.141  -7.985  53.115  1.00  0.00     0.002 C 
HETATM   28  C6  UNL     1      19.716  -7.139  51.917  1.00  0.00     0.025 C 
ENDBRANCH  22  24
ENDBRANCH  17  20
ENDBRANCH  11  14
ENDBRANCH   9  11
ENDBRANCH   1   9
BRANCH   8  29
HETATM   29  C15 UNL     1      15.305   0.563  48.455  1.00  0.00     0.027 C 
BRANCH  29  30
HETATM   30  C16 UNL     1      14.507   0.072  49.588  1.00  0.00     0.127 C 
BRANCH  30  31
HETATM   31  N5  UNL     1      13.290   0.747  49.831  1.00  0.00    -0.373 N 
HETATM   32  C17 UNL     1      13.390   2.058  50.340  1.00  0.00     0.065 C 
HETATM   33  C18 UNL     1      12.618   2.390  51.560  1.00  0.00     0.077 C 
HETATM   34  C19 UNL     1      11.228   1.837  51.422  1.00  0.00     0.135 C 
HETATM   35  O4  UNL     1      10.392   2.227  52.455  1.00  0.00    -0.385 OA
HETATM   36  C23 UNL     1      11.366   0.333  51.343  1.00  0.00     0.053 C 
HETATM   37  C20 UNL     1       9.824   1.188  53.150  1.00  0.00     0.168 C 
HETATM   38  C21 UNL     1      10.826   0.202  53.706  1.00  0.00     0.027 C 
HETATM   39  C22 UNL     1      11.852  -0.215  52.661  1.00  0.00     0.014 C 
HETATM   40  C24 UNL     1      12.172  -0.034  50.167  1.00  0.00     0.070 C 
ENDBRANCH  30  31
ENDBRANCH  29  30
ENDBRANCH   8  29
TORSDOF 8
ENDMDL
MODEL 2
REMARK VINA RESULT: -7.973715774      2.199      3.085
REMARK  8 active torsions:
REMARK  status: ('A' for Active; 'I' for Inactive)
REMARK       I    between atoms: C1_2  and  N1_3 
REMARK    1  A    between atoms: C1_2  and  C7_10 
REMARK    2  A    between atoms: N1_3  and  C2_5 
REMARK    3  A    between atoms: N2_13  and  S1_14 
REMARK    4  A    between atoms: S1_14  and  N3_17 
REMARK    5  A    between atoms: N3_17  and  C10_19 
REMARK    6  A    between atoms: C14_26  and  C15_27 
REMARK    7  A    between atoms: C15_27  and  C16_28 
REMARK    8  A    between atoms: C16_28  and  N5_29 
ROOT
HETATM    1  C10 UNL     1      15.140  -3.331  47.135  1.00  0.00     0.124 C 
HETATM    2  C11 UNL     1      15.369  -3.314  45.646  1.00  0.00     0.258 C 
HETATM    3  N4  UNL     1      16.413  -2.352  45.346  1.00  0.00    -0.073 N 
ATOM      4  H41 UNL     1      16.405  -2.081  44.363  1.00  0.00     0.277 HD
ATOM      5  H42 UNL     1      17.340  -2.777  45.381  1.00  0.00     0.277 HD
HETATM    6  C12 UNL     1      16.315  -1.199  46.225  1.00  0.00     0.232 C 
HETATM    7  C13 UNL     1      14.838  -0.986  46.610  1.00  0.00     0.034 C 
HETATM    8  C14 UNL     1      14.305  -2.059  47.448  1.00  0.00     0.014 C 
ENDROOT
BRANCH   1   9
HETATM    9  N3  UNL     1      14.548  -4.486  47.648  1.00  0.00    -0.295 N 
ATOM     10  H3  UNL     1      13.531  -4.553  47.658  1.00  0.00     0.174 HD
BRANCH   9  11
HETATM   11  S1  UNL     1      15.442  -5.762  48.245  1.00  0.00     0.324 S 
HETATM   12  O2  UNL     1      16.069  -6.494  47.051  1.00  0.00    -0.182 OA
HETATM   13  O3  UNL     1      14.587  -6.874  48.869  1.00  0.00    -0.182 OA
BRANCH  11  14
HETATM   14  N2  UNL     1      16.757  -5.387  49.260  1.00  0.00    -0.253 N 
HETATM   15  C9  UNL     1      17.822  -6.265  49.119  1.00  0.00     0.083 C 
HETATM   16  C8  UNL     1      18.651  -6.538  50.343  1.00  0.00     0.060 C 
HETATM   17  C7  UNL     1      17.669  -6.678  51.488  1.00  0.00     0.087 C 
HETATM   18  C26 UNL     1      17.111  -5.293  51.705  1.00  0.00     0.060 C 
HETATM   19  C25 UNL     1      16.461  -4.786  50.476  1.00  0.00     0.083 C 
BRANCH  17  20
HETATM   20  C1  UNL     1      18.300  -7.236  52.699  1.00  0.00     0.222 C 
HETATM   21  O1  UNL     1      18.876  -8.353  52.583  1.00  0.00    -0.273 OA
HETATM   22  N1  UNL     1      18.291  -6.593  53.956  1.00  0.00    -0.356 N 
ATOM     23  H1  UNL     1      17.828  -5.690  54.059  1.00  0.00     0.162 HD
BRANCH  22  24
HETATM   24  C2  UNL     1      18.928  -7.201  55.090  1.00  0.00     0.084 C 
HETATM   25  C3  UNL     1      19.664  -6.216  55.966  1.00  0.00     0.025 C 
HETATM   26  C4  UNL     1      19.867  -6.994  57.265  1.00  0.00     0.002 C 
HETATM   27  C5  UNL     1      18.846  -8.111  57.246  1.00  0.00     0.002 C 
HETATM   28  C6  UNL     1      17.943  -7.823  56.049  1.00  0.00     0.025 C 
ENDBRANCH  22  24
ENDBRANCH  17  20
ENDBRANCH  11  14
ENDBRANCH   9  11
ENDBRANCH   1   9
BRANCH   8  29
HETATM   29  C15 UNL     1      14.205  -1.938  48.896  1.00  0.00     0.027 C 
BRANCH  29  30
HETATM   30  C16 UNL     1      14.511  -0.683  49.599  1.00  0.00     0.127 C 
BRANCH  30  31
HETATM   31  N5  UNL     1      13.443   0.231  49.734  1.00  0.00    -0.373 N 
HETATM   32  C17 UNL     1      13.780   1.534  50.151  1.00  0.00     0.065 C 
HETATM   33  C18 UNL     1      13.048   2.107  51.304  1.00  0.00     0.077 C 
HETATM   34  C19 UNL     1      11.582   1.823  51.140  1.00  0.00     0.135 C 
HETATM   35  O4  UNL     1      10.805   2.448  52.100  1.00  0.00    -0.385 OA
HETATM   36  C23 UNL     1      11.425   0.318  51.177  1.00  0.00     0.053 C 
HETATM   37  C20 UNL     1      10.021   1.597  52.840  1.00  0.00     0.168 C 
HETATM   38  C21 UNL     1      10.792   0.485  53.515  1.00  0.00     0.027 C 
HETATM   39  C22 UNL     1      11.751  -0.205  52.553  1.00  0.00     0.014 C 
HETATM   40  C24 UNL     1      12.183  -0.291  50.071  1.00  0.00     0.070 C 
ENDBRANCH  30  31
ENDBRANCH  29  30
ENDBRANCH   8  29
TORSDOF 8
ENDMDL
MODEL 3
REMARK VINA RESULT: -7.865694798      3.042      8.162
REMARK  8 active torsions:
REMARK  status: ('A' for Active; 'I' for Inactive)
REMARK       I    between atoms: C1_2  and  N1_3 
REMARK    1  A    between atoms: C1_2  and  C7_10 
REMARK    2  A    between atoms: N1_3  and  C2_5 
REMARK    3  A    between atoms: N2_13  and  S1_14 
REMARK    4  A    between atoms: S1_14  and  N3_17 
REMARK    5  A    between atoms: N3_17  and  C10_19 
REMARK    6  A    between atoms: C14_26  and  C15_27 
REMARK    7  A    between atoms: C15_27  and  C16_28 
REMARK    8  A    between atoms: C16_28  and  N5_29 
ROOT
HETATM    1  C10 UNL     1      14.406  -3.332  47.026  1.00  0.00     0.124 C 
HETATM    2  C11 UNL     1      15.374  -4.456  46.762  1.00  0.00     0.258 C 
HETATM    3  N4  UNL     1      15.054  -5.561  47.644  1.00  0.00    -0.073 N 
ATOM      4  H41 UNL     1      15.832  -6.216  47.727  1.00  0.00     0.277 HD
ATOM      5  H42 UNL     1      14.368  -6.192  47.228  1.00  0.00     0.277 HD
HETATM    6  C12 UNL     1      14.619  -5.073  48.942  1.00  0.00     0.232 C 
HETATM    7  C13 UNL     1      15.319  -3.731  49.232  1.00  0.00     0.034 C 
HETATM    8  C14 UNL     1      14.889  -2.657  48.338  1.00  0.00     0.014 C 
ENDROOT
BRANCH   1   9
HETATM    9  N3  UNL     1      14.247  -2.409  45.990  1.00  0.00    -0.295 N 
ATOM     10  H3  UNL     1      13.303  -2.155  45.701  1.00  0.00     0.174 HD
BRANCH   9  11
HETATM   11  S1  UNL     1      15.542  -1.707  45.207  1.00  0.00     0.324 S 
HETATM   12  O2  UNL     1      15.052  -1.218  43.837  1.00  0.00    -0.182 OA
HETATM   13  O3  UNL     1      16.632  -2.709  44.800  1.00  0.00    -0.182 OA
BRANCH  11  14
HETATM   14  N2  UNL     1      16.241  -0.333  45.930  1.00  0.00    -0.253 N 
HETATM   15  C9  UNL     1      15.309   0.634  46.279  1.00  0.00     0.083 C 
HETATM   16  C8  UNL     1      15.752   2.068  46.207  1.00  0.00     0.060 C 
HETATM   17  C7  UNL     1      16.566   2.190  44.936  1.00  0.00     0.087 C 
HETATM   18  C26 UNL     1      17.832   1.412  45.197  1.00  0.00     0.060 C 
HETATM   19  C25 UNL     1      17.527   0.002  45.528  1.00  0.00     0.083 C 
BRANCH  17  20
HETATM   20  C1  UNL     1      16.825   3.596  44.572  1.00  0.00     0.222 C 
HETATM   21  O1  UNL     1      17.431   3.805  43.485  1.00  0.00    -0.273 OA
HETATM   22  N1  UNL     1      16.434   4.696  45.365  1.00  0.00    -0.356 N 
ATOM     23  H1  UNL     1      15.944   4.537  46.245  1.00  0.00     0.162 HD
BRANCH  22  24
HETATM   24  C2  UNL     1      16.722   6.038  44.943  1.00  0.00     0.084 C 
HETATM   25  C3  UNL     1      15.716   7.051  45.430  1.00  0.00     0.025 C 
HETATM   26  C4  UNL     1      16.442   8.381  45.237  1.00  0.00     0.002 C 
HETATM   27  C5  UNL     1      17.914   8.043  45.151  1.00  0.00     0.002 C 
HETATM   28  C6  UNL     1      18.019   6.563  45.510  1.00  0.00     0.025 C 
ENDBRANCH  22  24
ENDBRANCH  17  20
ENDBRANCH  11  14
ENDBRANCH   9  11
ENDBRANCH   1   9
BRANCH   8  29
HETATM   29  C15 UNL     1      13.887  -1.674  48.728  1.00  0.00     0.027 C 
BRANCH  29  30
HETATM   30  C16 UNL     1      14.231  -0.474  49.506  1.00  0.00     0.127 C 
BRANCH  30  31
HETATM   31  N5  UNL     1      13.172   0.424  49.765  1.00  0.00    -0.373 N 
HETATM   32  C17 UNL     1      13.532   1.698  50.249  1.00  0.00     0.065 C 
HETATM   33  C18 UNL     1      12.869   2.187  51.480  1.00  0.00     0.077 C 
HETATM   34  C19 UNL     1      11.395   1.908  51.383  1.00  0.00     0.135 C 
HETATM   35  O4  UNL     1      10.676   2.463  52.428  1.00  0.00    -0.385 OA
HETATM   36  C23 UNL     1      11.243   0.404  51.326  1.00  0.00     0.053 C 
HETATM   37  C20 UNL     1       9.938   1.560  53.152  1.00  0.00     0.168 C 
HETATM   38  C21 UNL     1      10.748   0.408  53.703  1.00  0.00     0.027 C 
HETATM   39  C22 UNL     1      11.649  -0.210  52.642  1.00  0.00     0.014 C 
HETATM   40  C24 UNL     1      11.934  -0.125  50.139  1.00  0.00     0.070 C 
ENDBRANCH  30  31
ENDBRANCH  29  30
ENDBRANCH   8  29
TORSDOF 8
ENDMDL
MODEL 4
REMARK VINA RESULT: -7.695346606      4.944      8.686
REMARK  8 active torsions:
REMARK  status: ('A' for Active; 'I' for Inactive)
REMARK       I    between atoms: C1_2  and  N1_3 
REMARK    1  A    between atoms: C1_2  and  C7_10 
REMARK    2  A    between atoms: N1_3  and  C2_5 
REMARK    3  A    between atoms: N2_13  and  S1_14 
REMARK    4  A    between atoms: S1_14  and  N3_17 
REMARK    5  A    between atoms: N3_17  and  C10_19 
REMARK    6  A    between atoms: C14_26  and  C15_27 
REMARK    7  A    between atoms: C15_27  and  C16_28 
REMARK    8  A    between atoms: C16_28  and  N5_29 
ROOT
HETATM    1  C10 UNL     1      18.762   1.544  43.629  1.00  0.00     0.124 C 
HETATM    2  C11 UNL     1      20.210   1.133  43.557  1.00  0.00     0.258 C 
HETATM    3  N4  UNL     1      21.023   2.198  44.112  1.00  0.00    -0.073 N 
ATOM      4  H41 UNL     1      21.999   2.116  43.827  1.00  0.00     0.277 HD
ATOM      5  H42 UNL     1      21.150   2.092  45.119  1.00  0.00     0.277 HD
HETATM    6  C12 UNL     1      20.469   3.498  43.773  1.00  0.00     0.232 C 
HETATM    7  C13 UNL     1      19.745   3.395  42.417  1.00  0.00     0.034 C 
HETATM    8  C14 UNL     1      18.551   2.553  42.468  1.00  0.00     0.014 C 
ENDROOT
BRANCH   1   9
HETATM    9  N3  UNL     1      17.831   0.504  43.596  1.00  0.00    -0.295 N 
ATOM     10  H3  UNL     1      17.434   0.229  42.698  1.00  0.00     0.174 HD
BRANCH   9  11
HETATM   11  S1  UNL     1      17.342  -0.306  44.970  1.00  0.00     0.324 S 
HETATM   12  O2  UNL     1      18.280   0.104  46.114  1.00  0.00    -0.182 OA
HETATM   13  O3  UNL     1      17.580  -1.821  44.910  1.00  0.00    -0.182 OA
BRANCH  11  14
HETATM   14  N2  UNL     1      15.778   0.024  45.557  1.00  0.00    -0.253 N 
HETATM   15  C9  UNL     1      15.584   1.361  45.873  1.00  0.00     0.083 C 
HETATM   16  C8  UNL     1      14.651   1.668  47.010  1.00  0.00     0.060 C 
HETATM   17  C7  UNL     1      14.956   0.646  48.086  1.00  0.00     0.087 C 
HETATM   18  C26 UNL     1      14.468  -0.671  47.535  1.00  0.00     0.060 C 
HETATM   19  C25 UNL     1      15.143  -0.992  46.259  1.00  0.00     0.083 C 
BRANCH  17  20
HETATM   20  C1  UNL     1      14.330   0.992  49.377  1.00  0.00     0.222 C 
HETATM   21  O1  UNL     1      14.975   1.766  50.138  1.00  0.00    -0.273 OA
HETATM   22  N1  UNL     1      13.071   0.508  49.793  1.00  0.00    -0.356 N 
ATOM     23  H1  UNL     1      12.543  -0.117  49.185  1.00  0.00     0.162 HD
BRANCH  22  24
HETATM   24  C2  UNL     1      12.528   0.891  51.066  1.00  0.00     0.084 C 
HETATM   25  C3  UNL     1      11.651   2.118  51.002  1.00  0.00     0.025 C 
HETATM   26  C4  UNL     1      10.882   2.062  52.320  1.00  0.00     0.002 C 
HETATM   27  C5  UNL     1      10.969   0.628  52.795  1.00  0.00     0.002 C 
HETATM   28  C6  UNL     1      11.596  -0.150  51.640  1.00  0.00     0.025 C 
ENDBRANCH  22  24
ENDBRANCH  17  20
ENDBRANCH  11  14
ENDBRANCH   9  11
ENDBRANCH   1   9
BRANCH   8  29
HETATM   29  C15 UNL     1      17.211   3.111  42.602  1.00  0.00     0.027 C 
BRANCH  29  30
HETATM   30  C16 UNL     1      16.824   4.377  41.963  1.00  0.00     0.127 C 
BRANCH  30  31
HETATM   31  N5  UNL     1      16.317   5.377  42.820  1.00  0.00    -0.373 N 
HETATM   32  C17 UNL     1      16.093   6.645  42.245  1.00  0.00     0.065 C 
HETATM   33  C18 UNL     1      16.681   7.827  42.917  1.00  0.00     0.077 C 
HETATM   34  C19 UNL     1      16.436   7.718  44.396  1.00  0.00     0.135 C 
HETATM   35  O4  UNL     1      16.825   8.853  45.087  1.00  0.00    -0.385 OA
HETATM   36  C23 UNL     1      17.176   6.487  44.868  1.00  0.00     0.053 C 
HETATM   37  C20 UNL     1      17.744   8.627  46.081  1.00  0.00     0.168 C 
HETATM   38  C21 UNL     1      18.993   7.915  45.610  1.00  0.00     0.027 C 
HETATM   39  C22 UNL     1      18.664   6.699  44.755  1.00  0.00     0.014 C 
HETATM   40  C24 UNL     1      16.652   5.294  44.182  1.00  0.00     0.070 C 
ENDBRANCH  30  31
ENDBRANCH  29  30
ENDBRANCH   8  29
TORSDOF 8
ENDMDL
MODEL 5
REMARK VINA RESULT: -7.642492351      3.272      8.282
REMARK  8 active torsions:
REMARK  status: ('A' for Active; 'I' for Inactive)
REMARK       I    between atoms: C1_2  and  N1_3 
REMARK    1  A    between atoms: C1_2  and  C7_10 
REMARK    2  A    between atoms: N1_3  and  C2_5 
REMARK    3  A    between atoms: N2_13  and  S1_14 
REMARK    4  A    between atoms: S1_14  and  N3_17 
REMARK    5  A    between atoms: N3_17  and  C10_19 
REMARK    6  A    between atoms: C14_26  and  C15_27 
REMARK    7  A    between atoms: C15_27  and  C16_28 
REMARK    8  A    between atoms: C16_28  and  N5_29 
ROOT
HETATM    1  C10 UNL     1      14.897  -3.000  46.862  1.00  0.00     0.124 C 
HETATM    2  C11 UNL     1      15.828  -4.167  46.658  1.00  0.00     0.258 C 
HETATM    3  N4  UNL     1      15.179  -5.369  47.144  1.00  0.00    -0.073 N 
ATOM      4  H41 UNL     1      15.850  -6.120  47.309  1.00  0.00     0.277 HD
ATOM      5  H42 UNL     1      14.622  -5.819  46.418  1.00  0.00     0.277 HD
HETATM    6  C12 UNL     1      14.389  -5.083  48.330  1.00  0.00     0.232 C 
HETATM    7  C13 UNL     1      15.043  -3.918  49.098  1.00  0.00     0.034 C 
HETATM    8  C14 UNL     1      14.983  -2.650  48.373  1.00  0.00     0.014 C 
ENDROOT
BRANCH   1   9
HETATM    9  N3  UNL     1      15.128  -1.886  46.052  1.00  0.00    -0.295 N 
ATOM     10  H3  UNL     1      15.877  -1.242  46.305  1.00  0.00     0.174 HD
BRANCH   9  11
HETATM   11  S1  UNL     1      14.225  -1.569  44.685  1.00  0.00     0.324 S 
HETATM   12  O2  UNL     1      12.778  -1.992  44.973  1.00  0.00    -0.182 OA
HETATM   13  O3  UNL     1      14.575  -2.471  43.494  1.00  0.00    -0.182 OA
BRANCH  11  14
HETATM   14  N2  UNL     1      14.109   0.054  44.185  1.00  0.00    -0.253 N 
HETATM   15  C9  UNL     1      14.770   0.306  42.992  1.00  0.00     0.083 C 
HETATM   16  C8  UNL     1      15.377   1.670  42.821  1.00  0.00     0.060 C 
HETATM   17  C7  UNL     1      16.010   2.014  44.154  1.00  0.00     0.087 C 
HETATM   18  C26 UNL     1      14.855   2.226  45.100  1.00  0.00     0.060 C 
HETATM   19  C25 UNL     1      14.011   1.014  45.184  1.00  0.00     0.083 C 
BRANCH  17  20
HETATM   20  C1  UNL     1      16.898   3.190  44.062  1.00  0.00     0.222 C 
HETATM   21  O1  UNL     1      18.130   2.967  43.909  1.00  0.00    -0.273 OA
HETATM   22  N1  UNL     1      16.442   4.524  44.138  1.00  0.00    -0.356 N 
ATOM     23  H1  UNL     1      15.448   4.713  44.261  1.00  0.00     0.162 HD
BRANCH  22  24
HETATM   24  C2  UNL     1      17.368   5.616  44.040  1.00  0.00     0.084 C 
HETATM   25  C3  UNL     1      16.801   6.826  43.338  1.00  0.00     0.025 C 
HETATM   26  C4  UNL     1      17.768   7.940  43.734  1.00  0.00     0.002 C 
HETATM   27  C5  UNL     1      18.481   7.453  44.977  1.00  0.00     0.002 C 
HETATM   28  C6  UNL     1      17.760   6.172  45.389  1.00  0.00     0.025 C 
ENDBRANCH  22  24
ENDBRANCH  17  20
ENDBRANCH  11  14
ENDBRANCH   9  11
ENDBRANCH   1   9
BRANCH   8  29
HETATM   29  C15 UNL     1      13.971  -1.640  48.654  1.00  0.00     0.027 C 
BRANCH  29  30
HETATM   30  C16 UNL     1      14.245  -0.476  49.511  1.00  0.00     0.127 C 
BRANCH  30  31
HETATM   31  N5  UNL     1      13.153   0.382  49.762  1.00  0.00    -0.373 N 
HETATM   32  C17 UNL     1      13.463   1.670  50.244  1.00  0.00     0.065 C 
HETATM   33  C18 UNL     1      12.777   2.138  51.470  1.00  0.00     0.077 C 
HETATM   34  C19 UNL     1      11.315   1.804  51.368  1.00  0.00     0.135 C 
HETATM   35  O4  UNL     1      10.572   2.335  52.408  1.00  0.00    -0.385 OA
HETATM   36  C23 UNL     1      11.219   0.295  51.316  1.00  0.00     0.053 C 
HETATM   37  C20 UNL     1       9.864   1.408  53.132  1.00  0.00     0.168 C 
HETATM   38  C21 UNL     1      10.714   0.288  53.690  1.00  0.00     0.027 C 
HETATM   39  C22 UNL     1      11.642  -0.299  52.635  1.00  0.00     0.014 C 
HETATM   40  C24 UNL     1      11.935  -0.211  50.133  1.00  0.00     0.070 C 
ENDBRANCH  30  31
ENDBRANCH  29  30
ENDBRANCH   8  29
TORSDOF 8
ENDMDL
