MODEL 1
REMARK VINA RESULT: -6.210156096      0.000      0.000
REMARK  7 active torsions:
REMARK  status: ('A' for Active; 'I' for Inactive)
REMARK    1  A    between atoms: C3_3  and  C4_4 
REMARK    2  A    between atoms: C3_3  and  N1_9 
REMARK    3  A    between atoms: C3_3  and  C14_23 
REMARK    4  A    between atoms: C4_4  and  C5_5 
REMARK    5  A    between atoms: C5_5  and  C6_6 
REMARK       I    between atoms: N1_9  and  C7_11 
REMARK    6  A    between atoms: C7_11  and  C8_13 
REMARK       I    between atoms: C14_23  and  N2_25 
REMARK    7  A    between atoms: N2_25  and  C15_27 
ROOT
HETATM    1  C1  UNL     1      16.205  -7.619  45.008  1.00  0.00     0.015 C 
HETATM    2  C2  UNL     1      16.018  -7.037  46.045  1.00  0.00    -0.075 C 
HETATM    3  C3  UNL     1      15.806  -6.285  47.360  1.00  0.00     0.177 C 
ENDROOT
BRANCH   3   4
HETATM    4  C4  UNL     1      14.553  -6.920  47.887  1.00  0.00     0.065 C 
BRANCH   4   5
HETATM    5  C5  UNL     1      14.648  -8.201  48.612  1.00  0.00     0.117 C 
BRANCH   5   6
HETATM    6  C6  UNL     1      13.676  -9.202  47.988  1.00  0.00     0.172 C 
HETATM    7  O1  UNL     1      13.647  -9.399  46.753  1.00  0.00    -0.648 OA
HETATM    8  O2  UNL     1      12.842  -9.872  48.837  1.00  0.00    -0.648 OA
ENDBRANCH   5   6
ENDBRANCH   4   5
ENDBRANCH   3   4
BRANCH   3   9
HETATM    9  N1  UNL     1      16.941  -6.503  48.171  1.00  0.00    -0.332 N 
HETATM   10  C7  UNL     1      17.213  -6.112  49.491  1.00  0.00     0.239 C 
HETATM   11  O3  UNL     1      16.373  -5.444  50.135  1.00  0.00    -0.272 OA
ATOM     12  H1  UNL     1      17.689  -7.032  47.722  1.00  0.00     0.164 HD
BRANCH  10  13
HETATM   13  C8  UNL     1      18.476  -6.454  50.192  1.00  0.00     0.221 C 
HETATM   14  C9  UNL     1      18.304  -7.468  51.293  1.00  0.00     0.061 C 
HETATM   15  C10 UNL     1      18.061  -6.788  52.626  1.00  0.00     0.031 C 
HETATM   16 BR1  UNL     1      17.053  -8.876  50.973  1.00  0.00    -0.082 Br
HETATM   17  C11 UNL     1      19.723  -7.986  51.120  1.00  0.00     0.076 C 
HETATM   18  C12 UNL     1      20.779  -7.222  51.854  1.00  0.00     0.033 C 
HETATM   19  C13 UNL     1      19.892  -9.464  51.285  1.00  0.00     0.033 C 
HETATM   20  S1  UNL     1      19.566  -7.566  49.396  1.00  0.00     0.168 S 
HETATM   21  O4  UNL     1      20.849  -6.983  48.897  1.00  0.00    -0.226 OA
HETATM   22  O5  UNL     1      18.934  -8.598  48.544  1.00  0.00    -0.226 OA
ENDBRANCH  10  13
ENDBRANCH   3   9
BRANCH   3  23
HETATM   23  C14 UNL     1      15.614  -4.878  46.923  1.00  0.00     0.260 C 
HETATM   24  O6  UNL     1      16.115  -4.480  45.844  1.00  0.00    -0.270 OA
HETATM   25  N2  UNL     1      14.878  -3.937  47.677  1.00  0.00    -0.336 N 
ATOM     26  H2  UNL     1      14.463  -4.242  48.558  1.00  0.00     0.164 HD
BRANCH  25  27
HETATM   27  C15 UNL     1      14.681  -2.568  47.270  1.00  0.00     0.122 C 
HETATM   28  C16 UNL     1      14.228  -1.742  48.415  1.00  0.00     0.091 C 
HETATM   29  N3  UNL     1      13.864  -1.114  49.317  1.00  0.00    -0.195 NA
HETATM   30  C17 UNL     1      13.568  -2.539  46.246  1.00  0.00     0.046 C 
HETATM   31  C18 UNL     1      13.978  -1.599  45.105  1.00  0.00     0.004 C 
HETATM   32  C19 UNL     1      14.307  -0.270  45.753  1.00  0.00     0.000 C 
HETATM   33  C20 UNL     1      15.598  -0.435  46.523  1.00  0.00     0.004 C 
HETATM   34  C21 UNL     1      15.929  -1.894  46.764  1.00  0.00     0.046 C 
ENDBRANCH  25  27
ENDBRANCH   3  23
TORSDOF 7
ENDMDL
MODEL 2
REMARK VINA RESULT: -6.101583596      8.579     13.522
REMARK  7 active torsions:
REMARK  status: ('A' for Active; 'I' for Inactive)
REMARK    1  A    between atoms: C3_3  and  C4_4 
REMARK    2  A    between atoms: C3_3  and  N1_9 
REMARK    3  A    between atoms: C3_3  and  C14_23 
REMARK    4  A    between atoms: C4_4  and  C5_5 
REMARK    5  A    between atoms: C5_5  and  C6_6 
REMARK       I    between atoms: N1_9  and  C7_11 
REMARK    6  A    between atoms: C7_11  and  C8_13 
REMARK       I    between atoms: C14_23  and  N2_25 
REMARK    7  A    between atoms: N2_25  and  C15_27 
ROOT
HETATM    1  C1  UNL     1      19.501   4.031  43.462  1.00  0.00     0.015 C 
HETATM    2  C2  UNL     1      18.344   4.176  43.759  1.00  0.00    -0.075 C 
HETATM    3  C3  UNL     1      16.866   4.345  44.114  1.00  0.00     0.177 C 
ENDROOT
BRANCH   3   4
HETATM    4  C4  UNL     1      16.921   5.366  45.212  1.00  0.00     0.065 C 
BRANCH   4   5
HETATM    5  C5  UNL     1      17.303   6.752  44.884  1.00  0.00     0.117 C 
BRANCH   5   6
HETATM    6  C6  UNL     1      16.081   7.657  45.034  1.00  0.00     0.172 C 
HETATM    7  O1  UNL     1      14.960   7.315  44.596  1.00  0.00    -0.648 OA
HETATM    8  O2  UNL     1      16.266   8.853  45.667  1.00  0.00    -0.648 OA
ENDBRANCH   5   6
ENDBRANCH   4   5
ENDBRANCH   3   4
BRANCH   3   9
HETATM    9  N1  UNL     1      16.190   4.787  42.956  1.00  0.00    -0.332 N 
HETATM   10  C7  UNL     1      16.263   4.343  41.626  1.00  0.00     0.239 C 
HETATM   11  O3  UNL     1      17.040   3.411  41.316  1.00  0.00    -0.272 OA
ATOM     12  H1  UNL     1      15.540   5.558  43.110  1.00  0.00     0.164 HD
BRANCH  10  13
HETATM   13  C8  UNL     1      15.450   4.928  40.531  1.00  0.00     0.221 C 
HETATM   14  C9  UNL     1      15.653   6.410  40.349  1.00  0.00     0.061 C 
HETATM   15  C10 UNL     1      14.645   7.200  41.159  1.00  0.00     0.031 C 
HETATM   16 BR1  UNL     1      17.431   7.066  40.587  1.00  0.00    -0.082 Br
HETATM   17  C11 UNL     1      15.322   6.334  38.866  1.00  0.00     0.076 C 
HETATM   18  C12 UNL     1      13.865   6.391  38.530  1.00  0.00     0.033 C 
HETATM   19  C13 UNL     1      16.132   7.229  37.982  1.00  0.00     0.033 C 
HETATM   20  S1  UNL     1      16.014   4.692  38.892  1.00  0.00     0.168 S 
HETATM   21  O4  UNL     1      15.189   3.782  38.040  1.00  0.00    -0.226 OA
HETATM   22  O5  UNL     1      17.481   4.616  38.714  1.00  0.00    -0.226 OA
ENDBRANCH  10  13
ENDBRANCH   3   9
BRANCH   3  23
HETATM   23  C14 UNL     1      16.471   2.993  44.587  1.00  0.00     0.260 C 
HETATM   24  O6  UNL     1      16.784   1.976  43.922  1.00  0.00    -0.270 OA
HETATM   25  N2  UNL     1      15.740   2.782  45.778  1.00  0.00    -0.336 N 
ATOM     26  H2  UNL     1      15.476   3.597  46.332  1.00  0.00     0.164 HD
BRANCH  25  27
HETATM   27  C15 UNL     1      15.348   1.479  46.252  1.00  0.00     0.122 C 
HETATM   28  C16 UNL     1      14.374   0.856  45.323  1.00  0.00     0.091 C 
HETATM   29  N3  UNL     1      13.606   0.390  44.593  1.00  0.00    -0.195 NA
HETATM   30  C17 UNL     1      14.634   1.656  47.574  1.00  0.00     0.046 C 
HETATM   31  C18 UNL     1      15.132   0.579  48.546  1.00  0.00     0.004 C 
HETATM   32  C19 UNL     1      14.906  -0.749  47.852  1.00  0.00     0.000 C 
HETATM   33  C20 UNL     1      15.894  -0.853  46.712  1.00  0.00     0.004 C 
HETATM   34  C21 UNL     1      16.484   0.496  46.353  1.00  0.00     0.046 C 
ENDBRANCH  25  27
ENDBRANCH   3  23
TORSDOF 7
ENDMDL
MODEL 3
REMARK VINA RESULT: -6.036369149      8.291     11.274
REMARK  7 active torsions:
REMARK  status: ('A' for Active; 'I' for Inactive)
REMARK    1  A    between atoms: C3_3  and  C4_4 
REMARK    2  A    between atoms: C3_3  and  N1_9 
REMARK    3  A    between atoms: C3_3  and  C14_23 
REMARK    4  A    between atoms: C4_4  and  C5_5 
REMARK    5  A    between atoms: C5_5  and  C6_6 
REMARK       I    between atoms: N1_9  and  C7_11 
REMARK    6  A    between atoms: C7_11  and  C8_13 
REMARK       I    between atoms: C14_23  and  N2_25 
REMARK    7  A    between atoms: N2_25  and  C15_27 
ROOT
HETATM    1  C1  UNL     1      17.966   0.696  45.491  1.00  0.00     0.015 C 
HETATM    2  C2  UNL     1      16.949   1.192  45.080  1.00  0.00    -0.075 C 
HETATM    3  C3  UNL     1      15.671   1.829  44.532  1.00  0.00     0.177 C 
ENDROOT
BRANCH   3   4
HETATM    4  C4  UNL     1      14.764   1.791  45.727  1.00  0.00     0.065 C 
BRANCH   4   5
HETATM    5  C5  UNL     1      14.726   0.575  46.560  1.00  0.00     0.117 C 
BRANCH   5   6
HETATM    6  C6  UNL     1      14.706   0.978  48.034  1.00  0.00     0.172 C 
HETATM    7  O1  UNL     1      14.715   2.180  48.380  1.00  0.00    -0.648 OA
HETATM    8  O2  UNL     1      14.679  -0.030  48.955  1.00  0.00    -0.648 OA
ENDBRANCH   5   6
ENDBRANCH   4   5
ENDBRANCH   3   4
BRANCH   3   9
HETATM    9  N1  UNL     1      15.989   3.134  44.098  1.00  0.00    -0.332 N 
HETATM   10  C7  UNL     1      16.435   4.256  44.814  1.00  0.00     0.239 C 
HETATM   11  O3  UNL     1      16.594   4.188  46.054  1.00  0.00    -0.272 OA
ATOM     12  H1  UNL     1      15.877   3.287  43.096  1.00  0.00     0.164 HD
BRANCH  10  13
HETATM   13  C8  UNL     1      16.740   5.558  44.171  1.00  0.00     0.221 C 
HETATM   14  C9  UNL     1      18.213   5.826  44.009  1.00  0.00     0.061 C 
HETATM   15  C10 UNL     1      18.761   6.589  45.198  1.00  0.00     0.031 C 
HETATM   16 BR1  UNL     1      19.311   4.330  43.555  1.00  0.00    -0.082 Br
HETATM   17  C11 UNL     1      17.982   6.692  42.780  1.00  0.00     0.076 C 
HETATM   18  C12 UNL     1      17.651   8.124  43.057  1.00  0.00     0.033 C 
HETATM   19  C13 UNL     1      19.009   6.558  41.699  1.00  0.00     0.033 C 
HETATM   20  S1  UNL     1      16.573   5.658  42.432  1.00  0.00     0.168 S 
HETATM   21  O4  UNL     1      15.442   6.496  41.929  1.00  0.00    -0.226 OA
HETATM   22  O5  UNL     1      16.864   4.418  41.679  1.00  0.00    -0.226 OA
ENDBRANCH  10  13
ENDBRANCH   3   9
BRANCH   3  23
HETATM   23  C14 UNL     1      15.259   0.897  43.451  1.00  0.00     0.260 C 
HETATM   24  O6  UNL     1      16.122   0.379  42.703  1.00  0.00    -0.270 OA
HETATM   25  N2  UNL     1      13.910   0.550  43.212  1.00  0.00    -0.336 N 
ATOM     26  H2  UNL     1      13.193   0.961  43.811  1.00  0.00     0.164 HD
BRANCH  25  27
HETATM   27  C15 UNL     1      13.491  -0.352  42.169  1.00  0.00     0.122 C 
HETATM   28  C16 UNL     1      13.832   0.200  40.835  1.00  0.00     0.091 C 
HETATM   29  N3  UNL     1      14.094   0.649  39.801  1.00  0.00    -0.195 NA
HETATM   30  C17 UNL     1      11.984  -0.462  42.222  1.00  0.00     0.046 C 
HETATM   31  C18 UNL     1      11.596  -1.936  42.051  1.00  0.00     0.004 C 
HETATM   32  C19 UNL     1      12.242  -2.394  40.760  1.00  0.00     0.000 C 
HETATM   33  C20 UNL     1      13.735  -2.471  40.988  1.00  0.00     0.004 C 
HETATM   34  C21 UNL     1      14.157  -1.701  42.222  1.00  0.00     0.046 C 
ENDBRANCH  25  27
ENDBRANCH   3  23
TORSDOF 7
ENDMDL
MODEL 4
REMARK VINA RESULT: -5.956436730      7.666     11.759
REMARK  7 active torsions:
REMARK  status: ('A' for Active; 'I' for Inactive)
REMARK    1  A    between atoms: C3_3  and  C4_4 
REMARK    2  A    between atoms: C3_3  and  N1_9 
REMARK    3  A    between atoms: C3_3  and  C14_23 
REMARK    4  A    between atoms: C4_4  and  C5_5 
REMARK    5  A    between atoms: C5_5  and  C6_6 
REMARK       I    between atoms: N1_9  and  C7_11 
REMARK    6  A    between atoms: C7_11  and  C8_13 
REMARK       I    between atoms: C14_23  and  N2_25 
REMARK    7  A    between atoms: N2_25  and  C15_27 
ROOT
HETATM    1  C1  UNL     1      14.974   1.587  41.006  1.00  0.00     0.015 C 
HETATM    2  C2  UNL     1      15.527   1.806  42.051  1.00  0.00    -0.075 C 
HETATM    3  C3  UNL     1      16.209   2.102  43.388  1.00  0.00     0.177 C 
ENDROOT
BRANCH   3   4
HETATM    4  C4  UNL     1      17.564   1.487  43.193  1.00  0.00     0.065 C 
BRANCH   4   5
HETATM    5  C5  UNL     1      18.399   1.937  42.063  1.00  0.00     0.117 C 
BRANCH   5   6
HETATM    6  C6  UNL     1      19.872   1.837  42.460  1.00  0.00     0.172 C 
HETATM    7  O1  UNL     1      20.754   1.551  41.619  1.00  0.00    -0.648 OA
HETATM    8  O2  UNL     1      20.182   2.072  43.769  1.00  0.00    -0.648 OA
ENDBRANCH   5   6
ENDBRANCH   4   5
ENDBRANCH   3   4
BRANCH   3   9
HETATM    9  N1  UNL     1      16.236   3.502  43.560  1.00  0.00    -0.332 N 
HETATM   10  C7  UNL     1      16.545   4.282  44.685  1.00  0.00     0.239 C 
HETATM   11  O3  UNL     1      16.848   3.732  45.768  1.00  0.00    -0.272 OA
ATOM     12  H1  UNL     1      15.989   4.038  42.728  1.00  0.00     0.164 HD
BRANCH  10  13
HETATM   13  C8  UNL     1      16.536   5.767  44.669  1.00  0.00     0.221 C 
HETATM   14  C9  UNL     1      17.878   6.379  44.365  1.00  0.00     0.061 C 
HETATM   15  C10 UNL     1      18.647   6.664  45.640  1.00  0.00     0.031 C 
HETATM   16 BR1  UNL     1      18.956   5.481  43.069  1.00  0.00    -0.082 Br
HETATM   17  C11 UNL     1      17.242   7.614  43.745  1.00  0.00     0.076 C 
HETATM   18  C12 UNL     1      16.857   8.691  44.709  1.00  0.00     0.033 C 
HETATM   19  C13 UNL     1      17.948   8.167  42.547  1.00  0.00     0.033 C 
HETATM   20  S1  UNL     1      15.900   6.554  43.242  1.00  0.00     0.168 S 
HETATM   21  O4  UNL     1      14.599   7.269  43.413  1.00  0.00    -0.226 OA
HETATM   22  O5  UNL     1      16.099   5.839  41.962  1.00  0.00    -0.226 OA
ENDBRANCH  10  13
ENDBRANCH   3   9
BRANCH   3  23
HETATM   23  C14 UNL     1      15.367   1.370  44.371  1.00  0.00     0.260 C 
HETATM   24  O6  UNL     1      14.183   1.729  44.576  1.00  0.00    -0.270 OA
HETATM   25  N2  UNL     1      15.841   0.262  45.108  1.00  0.00    -0.336 N 
ATOM     26  H2  UNL     1      16.802  -0.045  44.955  1.00  0.00     0.164 HD
BRANCH  25  27
HETATM   27  C15 UNL     1      15.040  -0.460  46.065  1.00  0.00     0.122 C 
HETATM   28  C16 UNL     1      13.806  -0.980  45.427  1.00  0.00     0.091 C 
HETATM   29  N3  UNL     1      12.843  -1.368  44.917  1.00  0.00    -0.195 NA
HETATM   30  C17 UNL     1      14.598   0.514  47.135  1.00  0.00     0.046 C 
HETATM   31  C18 UNL     1      14.756  -0.161  48.504  1.00  0.00     0.004 C 
HETATM   32  C19 UNL     1      13.969  -1.453  48.429  1.00  0.00     0.000 C 
HETATM   33  C20 UNL     1      14.712  -2.397  47.509  1.00  0.00     0.004 C 
HETATM   34  C21 UNL     1      15.723  -1.667  46.650  1.00  0.00     0.046 C 
ENDBRANCH  25  27
ENDBRANCH   3  23
TORSDOF 7
ENDMDL
MODEL 5
REMARK VINA RESULT: -5.915873736      6.667     10.150
REMARK  7 active torsions:
REMARK  status: ('A' for Active; 'I' for Inactive)
REMARK    1  A    between atoms: C3_3  and  C4_4 
REMARK    2  A    between atoms: C3_3  and  N1_9 
REMARK    3  A    between atoms: C3_3  and  C14_23 
REMARK    4  A    between atoms: C4_4  and  C5_5 
REMARK    5  A    between atoms: C5_5  and  C6_6 
REMARK       I    between atoms: N1_9  and  C7_11 
REMARK    6  A    between atoms: C7_11  and  C8_13 
REMARK       I    between atoms: C14_23  and  N2_25 
REMARK    7  A    between atoms: N2_25  and  C15_27 
ROOT
HETATM    1  C1  UNL     1      20.707   2.416  43.760  1.00  0.00     0.015 C 
HETATM    2  C2  UNL     1      19.555   2.339  43.421  1.00  0.00    -0.075 C 
HETATM    3  C3  UNL     1      18.083   2.240  43.019  1.00  0.00     0.177 C 
ENDROOT
BRANCH   3   4
HETATM    4  C4  UNL     1      18.177   1.945  41.551  1.00  0.00     0.065 C 
BRANCH   4   5
HETATM    5  C5  UNL     1      17.360   0.856  40.984  1.00  0.00     0.117 C 
BRANCH   5   6
HETATM    6  C6  UNL     1      16.094   1.449  40.366  1.00  0.00     0.172 C 
HETATM    7  O1  UNL     1      16.071   1.838  39.177  1.00  0.00    -0.648 OA
HETATM    8  O2  UNL     1      14.992   1.535  41.168  1.00  0.00    -0.648 OA
ENDBRANCH   5   6
ENDBRANCH   4   5
ENDBRANCH   3   4
BRANCH   3   9
HETATM    9  N1  UNL     1      17.496   1.202  43.774  1.00  0.00    -0.332 N 
HETATM   10  C7  UNL     1      17.005   1.190  45.089  1.00  0.00     0.239 C 
HETATM   11  O3  UNL     1      17.067   2.223  45.794  1.00  0.00    -0.272 OA
ATOM     12  H1  UNL     1      17.414   0.313  43.282  1.00  0.00     0.164 HD
BRANCH  10  13
HETATM   13  C8  UNL     1      16.397  -0.011  45.715  1.00  0.00     0.221 C 
HETATM   14  C9  UNL     1      14.933   0.145  46.032  1.00  0.00     0.061 C 
HETATM   15  C10 UNL     1      14.734   0.653  47.446  1.00  0.00     0.031 C 
HETATM   16 BR1  UNL     1      13.882   1.120  44.769  1.00  0.00    -0.082 Br
HETATM   17  C11 UNL     1      14.679  -1.347  45.877  1.00  0.00     0.076 C 
HETATM   18  C12 UNL     1      14.956  -2.175  47.091  1.00  0.00     0.033 C 
HETATM   19  C13 UNL     1      13.374  -1.713  45.240  1.00  0.00     0.033 C 
HETATM   20  S1  UNL     1      15.985  -1.347  44.664  1.00  0.00     0.168 S 
HETATM   21  O4  UNL     1      16.815  -2.581  44.816  1.00  0.00    -0.226 OA
HETATM   22  O5  UNL     1      15.576  -0.990  43.288  1.00  0.00    -0.226 OA
ENDBRANCH  10  13
ENDBRANCH   3   9
BRANCH   3  23
HETATM   23  C14 UNL     1      17.556   3.599  43.314  1.00  0.00     0.260 C 
HETATM   24  O6  UNL     1      16.475   3.979  42.805  1.00  0.00    -0.270 OA
HETATM   25  N2  UNL     1      18.225   4.511  44.160  1.00  0.00    -0.336 N 
ATOM     26  H2  UNL     1      19.106   4.220  44.584  1.00  0.00     0.164 HD
BRANCH  25  27
HETATM   27  C15 UNL     1      17.731   5.832  44.457  1.00  0.00     0.122 C 
HETATM   28  C16 UNL     1      18.709   6.583  45.281  1.00  0.00     0.091 C 
HETATM   29  N3  UNL     1      19.478   7.150  45.934  1.00  0.00    -0.195 NA
HETATM   30  C17 UNL     1      16.479   5.686  45.295  1.00  0.00     0.046 C 
HETATM   31  C18 UNL     1      15.426   6.673  44.775  1.00  0.00     0.004 C 
HETATM   32  C19 UNL     1      16.080   8.040  44.806  1.00  0.00     0.000 C 
HETATM   33  C20 UNL     1      17.131   8.077  43.719  1.00  0.00     0.004 C 
HETATM   34  C21 UNL     1      17.497   6.687  43.240  1.00  0.00     0.046 C 
ENDBRANCH  25  27
ENDBRANCH   3  23
TORSDOF 7
ENDMDL
