MODEL 1
REMARK VINA RESULT: -6.588537927      0.000      0.000
REMARK  8 active torsions:
REMARK  status: ('A' for Active; 'I' for Inactive)
REMARK    1  A    between atoms: C1_2  and  C2_4 
REMARK    2  A    between atoms: C4_6  and  C5_7 
REMARK    3  A    between atoms: C5_7  and  N1_8 
REMARK    4  A    between atoms: C5_7  and  C9_16 
REMARK    5  A    between atoms: N1_8  and  S1_10 
REMARK    6  A    between atoms: S1_10  and  C6_13 
REMARK       I    between atoms: C9_16  and  N2_18 
REMARK    7  A    between atoms: C13_22  and  C14_23 
REMARK       I    between atoms: C14_23  and  N3_25 
REMARK    8  A    between atoms: N3_25  and  C15_27 
ROOT
HETATM    1  C5  UNL     1      14.572  -1.120  44.135  1.00  0.00     0.189 C 
ENDROOT
BRANCH   1   2
HETATM    2  C4  UNL     1      14.435  -1.886  45.425  1.00  0.00     0.019 C 
HETATM    3  C3  UNL     1      14.357  -0.922  46.601  1.00  0.00     0.024 C 
HETATM    4  C2  UNL     1      14.905  -1.547  47.854  1.00  0.00     0.105 C 
HETATM    5  C24 UNL     1      14.434  -2.990  47.874  1.00  0.00     0.096 C 
HETATM    6  C23 UNL     1      15.166  -3.745  46.807  1.00  0.00     0.021 C 
HETATM    7 CL1  UNL     1      14.822  -3.729  49.442  1.00  0.00    -0.124 Cl
HETATM    8  C22 UNL     1      15.542  -2.888  45.608  1.00  0.00     0.009 C 
BRANCH   4   9
HETATM    9  C1  UNL     1      14.287  -0.825  49.008  1.00  0.00     0.178 C 
HETATM   10  O1  UNL     1      13.105  -0.998  49.352  1.00  0.00    -0.648 OA
HETATM   11  O2  UNL     1      15.077   0.068  49.708  1.00  0.00    -0.648 OA
ENDBRANCH   4   9
ENDBRANCH   1   2
BRANCH   1  12
HETATM   12  N1  UNL     1      14.883   0.240  44.493  1.00  0.00    -0.305 N 
ATOM     13  H1  UNL     1      14.314   0.765  45.157  1.00  0.00     0.173 HD
BRANCH  12  14
HETATM   14  S1  UNL     1      16.242   0.918  43.755  1.00  0.00     0.231 S 
HETATM   15  O3  UNL     1      16.586   0.309  42.432  1.00  0.00    -0.206 OA
HETATM   16  O4  UNL     1      16.013   2.392  43.486  1.00  0.00    -0.206 OA
BRANCH  14  17
HETATM   17  C6  UNL     1      17.666   0.774  44.790  1.00  0.00     0.129 A 
HETATM   18  C7  UNL     1      18.057  -0.506  45.407  1.00  0.00     0.023 A 
HETATM   19  C8  UNL     1      17.397   0.559  46.237  1.00  0.00     0.023 A 
ENDBRANCH  14  17
ENDBRANCH  12  14
ENDBRANCH   1  12
BRANCH   1  20
HETATM   20  C9  UNL     1      13.223  -1.207  43.484  1.00  0.00     0.244 C 
HETATM   21  O5  UNL     1      12.168  -0.894  44.063  1.00  0.00    -0.271 OA
HETATM   22  N2  UNL     1      13.148  -1.665  42.142  1.00  0.00    -0.337 N 
HETATM   23  C10 UNL     1      11.949  -1.904  41.352  1.00  0.00     0.127 C 
HETATM   24  C13 UNL     1      14.247  -1.945  41.246  1.00  0.00     0.179 C 
HETATM   25  C11 UNL     1      12.336  -3.067  40.473  1.00  0.00     0.022 C 
HETATM   26  C12 UNL     1      13.841  -3.216  40.553  1.00  0.00     0.037 C 
BRANCH  24  27
HETATM   27  C14 UNL     1      14.466  -0.822  40.286  1.00  0.00     0.241 C 
HETATM   28  O6  UNL     1      14.899  -1.102  39.147  1.00  0.00    -0.271 OA
HETATM   29  N3  UNL     1      14.197   0.526  40.638  1.00  0.00    -0.354 N 
ATOM     30  H3  UNL     1      13.842   0.754  41.567  1.00  0.00     0.162 HD
BRANCH  29  31
HETATM   31  C15 UNL     1      14.426   1.561  39.682  1.00  0.00     0.092 C 
HETATM   32  C16 UNL     1      13.128   2.174  39.136  1.00  0.00     0.104 C 
HETATM   33  C17 UNL     1      13.692   3.396  38.467  1.00  0.00     0.137 C 
HETATM   34  O7  UNL     1      13.317   3.856  37.413  1.00  0.00    -0.297 OA
HETATM   35  C18 UNL     1      14.758   3.886  39.345  1.00  0.00     0.022 A 
HETATM   36  C19 UNL     1      14.615   5.273  39.876  1.00  0.00     0.018 A 
HETATM   37  C20 UNL     1      15.733   4.909  38.914  1.00  0.00     0.018 A 
HETATM   38  C21 UNL     1      15.151   2.774  40.279  1.00  0.00     0.042 C 
ENDBRANCH  29  31
ENDBRANCH  24  27
ENDBRANCH   1  20
TORSDOF 8
ENDMDL
MODEL 2
REMARK VINA RESULT: -6.360463771      3.043      4.399
REMARK  8 active torsions:
REMARK  status: ('A' for Active; 'I' for Inactive)
REMARK    1  A    between atoms: C1_2  and  C2_4 
REMARK    2  A    between atoms: C4_6  and  C5_7 
REMARK    3  A    between atoms: C5_7  and  N1_8 
REMARK    4  A    between atoms: C5_7  and  C9_16 
REMARK    5  A    between atoms: N1_8  and  S1_10 
REMARK    6  A    between atoms: S1_10  and  C6_13 
REMARK       I    between atoms: C9_16  and  N2_18 
REMARK    7  A    between atoms: C13_22  and  C14_23 
REMARK       I    between atoms: C14_23  and  N3_25 
REMARK    8  A    between atoms: N3_25  and  C15_27 
ROOT
HETATM    1  C5  UNL     1      15.193  -1.859  45.765  1.00  0.00     0.189 C 
ENDROOT
BRANCH   1   2
HETATM    2  C4  UNL     1      15.349  -3.356  45.844  1.00  0.00     0.019 C 
HETATM    3  C3  UNL     1      15.200  -3.822  47.286  1.00  0.00     0.024 C 
HETATM    4  C2  UNL     1      15.989  -5.077  47.536  1.00  0.00     0.105 C 
HETATM    5  C24 UNL     1      15.825  -5.957  46.311  1.00  0.00     0.096 C 
HETATM    6  C23 UNL     1      16.579  -5.340  45.174  1.00  0.00     0.021 C 
HETATM    7 CL1  UNL     1      16.514  -7.565  46.625  1.00  0.00    -0.124 Cl
HETATM    8  C22 UNL     1      16.648  -3.822  45.247  1.00  0.00     0.009 C 
BRANCH   4   9
HETATM    9  C1  UNL     1      15.361  -5.762  48.707  1.00  0.00     0.178 C 
HETATM   10  O1  UNL     1      14.232  -6.279  48.655  1.00  0.00    -0.648 OA
HETATM   11  O2  UNL     1      16.080  -5.813  49.886  1.00  0.00    -0.648 OA
ENDBRANCH   4   9
ENDBRANCH   1   2
BRANCH   1  12
HETATM   12  N1  UNL     1      14.897  -1.404  47.099  1.00  0.00    -0.305 N 
ATOM     13  H1  UNL     1      14.467  -2.015  47.793  1.00  0.00     0.173 HD
BRANCH  12  14
HETATM   14  S1  UNL     1      15.297   0.198  47.452  1.00  0.00     0.231 S 
HETATM   15  O3  UNL     1      16.696   0.575  47.073  1.00  0.00    -0.206 OA
HETATM   16  O4  UNL     1      14.392   1.146  46.693  1.00  0.00    -0.206 OA
BRANCH  14  17
HETATM   17  C6  UNL     1      15.108   0.534  49.176  1.00  0.00     0.129 A 
HETATM   18  C7  UNL     1      13.783   0.699  49.799  1.00  0.00     0.023 A 
HETATM   19  C8  UNL     1      14.639   1.903  49.522  1.00  0.00     0.023 A 
ENDBRANCH  14  17
ENDBRANCH  12  14
ENDBRANCH   1  12
BRANCH   1  20
HETATM   20  C9  UNL     1      14.026  -1.635  44.850  1.00  0.00     0.244 C 
HETATM   21  O5  UNL     1      12.846  -1.827  45.194  1.00  0.00    -0.271 OA
HETATM   22  N2  UNL     1      14.280  -1.179  43.529  1.00  0.00    -0.337 N 
HETATM   23  C10 UNL     1      13.314  -0.978  42.459  1.00  0.00     0.127 C 
HETATM   24  C13 UNL     1      15.547  -0.764  42.971  1.00  0.00     0.179 C 
HETATM   25  C11 UNL     1      14.094  -1.324  41.215  1.00  0.00     0.022 C 
HETATM   26  C12 UNL     1      15.558  -1.371  41.595  1.00  0.00     0.037 C 
BRANCH  24  27
HETATM   27  C14 UNL     1      15.663   0.724  42.934  1.00  0.00     0.241 C 
HETATM   28  O6  UNL     1      15.281   1.315  41.900  1.00  0.00    -0.271 OA
HETATM   29  N3  UNL     1      16.189   1.461  44.026  1.00  0.00    -0.354 N 
ATOM     30  H3  UNL     1      16.499   0.979  44.870  1.00  0.00     0.162 HD
BRANCH  29  31
HETATM   31  C15 UNL     1      16.279   2.883  43.936  1.00  0.00     0.092 C 
HETATM   32  C16 UNL     1      16.331   3.571  45.308  1.00  0.00     0.104 C 
HETATM   33  C17 UNL     1      16.758   4.947  44.881  1.00  0.00     0.137 C 
HETATM   34  O7  UNL     1      16.358   5.986  45.354  1.00  0.00    -0.297 OA
HETATM   35  C18 UNL     1      17.731   4.755  43.801  1.00  0.00     0.022 A 
HETATM   36  C19 UNL     1      19.099   5.311  44.016  1.00  0.00     0.018 A 
HETATM   37  C20 UNL     1      18.184   5.862  42.936  1.00  0.00     0.018 A 
HETATM   38  C21 UNL     1      17.576   3.356  43.268  1.00  0.00     0.042 C 
ENDBRANCH  29  31
ENDBRANCH  24  27
ENDBRANCH   1  20
TORSDOF 8
ENDMDL
MODEL 3
REMARK VINA RESULT: -6.316593961      0.986      1.162
REMARK  8 active torsions:
REMARK  status: ('A' for Active; 'I' for Inactive)
REMARK    1  A    between atoms: C1_2  and  C2_4 
REMARK    2  A    between atoms: C4_6  and  C5_7 
REMARK    3  A    between atoms: C5_7  and  N1_8 
REMARK    4  A    between atoms: C5_7  and  C9_16 
REMARK    5  A    between atoms: N1_8  and  S1_10 
REMARK    6  A    between atoms: S1_10  and  C6_13 
REMARK       I    between atoms: C9_16  and  N2_18 
REMARK    7  A    between atoms: C13_22  and  C14_23 
REMARK       I    between atoms: C14_23  and  N3_25 
REMARK    8  A    between atoms: N3_25  and  C15_27 
ROOT
HETATM    1  C5  UNL     1      14.533  -1.073  44.107  1.00  0.00     0.189 C 
ENDROOT
BRANCH   1   2
HETATM    2  C4  UNL     1      14.402  -1.807  45.416  1.00  0.00     0.019 C 
HETATM    3  C3  UNL     1      14.346  -0.815  46.570  1.00  0.00     0.024 C 
HETATM    4  C2  UNL     1      14.902  -1.415  47.832  1.00  0.00     0.105 C 
HETATM    5  C24 UNL     1      14.418  -2.852  47.890  1.00  0.00     0.096 C 
HETATM    6  C23 UNL     1      15.130  -3.639  46.835  1.00  0.00     0.021 C 
HETATM    7 CL1  UNL     1      14.815  -3.558  49.472  1.00  0.00    -0.124 Cl
HETATM    8  C22 UNL     1      15.502  -2.815  45.611  1.00  0.00     0.009 C 
BRANCH   4   9
HETATM    9  C1  UNL     1      14.303  -0.660  48.975  1.00  0.00     0.178 C 
HETATM   10  O1  UNL     1      13.132  -0.834  49.353  1.00  0.00    -0.648 OA
HETATM   11  O2  UNL     1      15.100   0.265  49.624  1.00  0.00    -0.648 OA
ENDBRANCH   4   9
ENDBRANCH   1   2
BRANCH   1  12
HETATM   12  N1  UNL     1      14.761   0.312  44.431  1.00  0.00    -0.305 N 
ATOM     13  H1  UNL     1      14.043   0.886  44.871  1.00  0.00     0.173 HD
BRANCH  12  14
HETATM   14  S1  UNL     1      16.281   0.933  44.041  1.00  0.00     0.231 S 
HETATM   15  O3  UNL     1      17.359   0.566  45.013  1.00  0.00    -0.206 OA
HETATM   16  O4  UNL     1      16.738   0.403  42.697  1.00  0.00    -0.206 OA
BRANCH  14  17
HETATM   17  C6  UNL     1      16.240   2.696  43.939  1.00  0.00     0.129 A 
HETATM   18  C7  UNL     1      17.456   3.516  44.080  1.00  0.00     0.023 A 
HETATM   19  C8  UNL     1      16.473   3.426  45.214  1.00  0.00     0.023 A 
ENDBRANCH  14  17
ENDBRANCH  12  14
ENDBRANCH   1  12
BRANCH   1  20
HETATM   20  C9  UNL     1      13.208  -1.253  43.426  1.00  0.00     0.244 C 
HETATM   21  O5  UNL     1      12.120  -1.036  43.987  1.00  0.00    -0.271 OA
HETATM   22  N2  UNL     1      13.197  -1.688  42.073  1.00  0.00    -0.337 N 
HETATM   23  C10 UNL     1      12.038  -2.005  41.253  1.00  0.00     0.127 C 
HETATM   24  C13 UNL     1      14.334  -1.862  41.197  1.00  0.00     0.179 C 
HETATM   25  C11 UNL     1      12.533  -3.115  40.361  1.00  0.00     0.022 C 
HETATM   26  C12 UNL     1      14.043  -3.147  40.471  1.00  0.00     0.037 C 
BRANCH  24  27
HETATM   27  C14 UNL     1      14.482  -0.706  40.263  1.00  0.00     0.241 C 
HETATM   28  O6  UNL     1      14.632  -0.952  39.046  1.00  0.00    -0.271 OA
HETATM   29  N3  UNL     1      14.457   0.636  40.724  1.00  0.00    -0.354 N 
ATOM     30  H3  UNL     1      14.332   0.836  41.716  1.00  0.00     0.162 HD
BRANCH  29  31
HETATM   31  C15 UNL     1      14.606   1.703  39.788  1.00  0.00     0.092 C 
HETATM   32  C16 UNL     1      13.265   2.302  39.340  1.00  0.00     0.104 C 
HETATM   33  C17 UNL     1      13.761   3.556  38.675  1.00  0.00     0.137 C 
HETATM   34  O7  UNL     1      13.313   4.037  37.661  1.00  0.00    -0.297 OA
HETATM   35  C18 UNL     1      14.868   4.044  39.503  1.00  0.00     0.022 A 
HETATM   36  C19 UNL     1      14.729   5.412  40.083  1.00  0.00     0.018 A 
HETATM   37  C20 UNL     1      15.793   5.101  39.045  1.00  0.00     0.018 A 
HETATM   38  C21 UNL     1      15.340   2.914  40.377  1.00  0.00     0.042 C 
ENDBRANCH  29  31
ENDBRANCH  24  27
ENDBRANCH   1  20
TORSDOF 8
ENDMDL
MODEL 4
REMARK VINA RESULT: -6.312845413      2.091      2.552
REMARK  8 active torsions:
REMARK  status: ('A' for Active; 'I' for Inactive)
REMARK    1  A    between atoms: C1_2  and  C2_4 
REMARK    2  A    between atoms: C4_6  and  C5_7 
REMARK    3  A    between atoms: C5_7  and  N1_8 
REMARK    4  A    between atoms: C5_7  and  C9_16 
REMARK    5  A    between atoms: N1_8  and  S1_10 
REMARK    6  A    between atoms: S1_10  and  C6_13 
REMARK       I    between atoms: C9_16  and  N2_18 
REMARK    7  A    between atoms: C13_22  and  C14_23 
REMARK       I    between atoms: C14_23  and  N3_25 
REMARK    8  A    between atoms: N3_25  and  C15_27 
ROOT
HETATM    1  C5  UNL     1      15.076   0.623  44.346  1.00  0.00     0.189 C 
ENDROOT
BRANCH   1   2
HETATM    2  C4  UNL     1      14.684   0.085  45.698  1.00  0.00     0.019 C 
HETATM    3  C3  UNL     1      14.697   1.203  46.730  1.00  0.00     0.024 C 
HETATM    4  C2  UNL     1      15.004   0.674  48.103  1.00  0.00     0.105 C 
HETATM    5  C24 UNL     1      14.261  -0.642  48.249  1.00  0.00     0.096 C 
HETATM    6  C23 UNL     1      14.918  -1.661  47.370  1.00  0.00     0.021 C 
HETATM    7 CL1  UNL     1      14.362  -1.210  49.929  1.00  0.00    -0.124 Cl
HETATM    8  C22 UNL     1      15.555  -1.066  46.123  1.00  0.00     0.009 C 
BRANCH   4   9
HETATM    9  C1  UNL     1      14.444   1.652  49.085  1.00  0.00     0.178 C 
HETATM   10  O1  UNL     1      13.323   2.171  48.949  1.00  0.00    -0.648 OA
HETATM   11  O2  UNL     1      15.220   1.981  50.181  1.00  0.00    -0.648 OA
ENDBRANCH   4   9
ENDBRANCH   1   2
BRANCH   1  12
HETATM   12  N1  UNL     1      15.107   2.058  44.465  1.00  0.00    -0.305 N 
ATOM     13  H1  UNL     1      14.254   2.606  44.577  1.00  0.00     0.173 HD
BRANCH  12  14
HETATM   14  S1  UNL     1      16.630   2.783  44.410  1.00  0.00     0.231 S 
HETATM   15  O3  UNL     1      17.713   1.982  45.064  1.00  0.00    -0.206 OA
HETATM   16  O4  UNL     1      17.069   2.977  42.973  1.00  0.00    -0.206 OA
BRANCH  14  17
HETATM   17  C6  UNL     1      16.606   4.370  45.185  1.00  0.00     0.129 A 
HETATM   18  C7  UNL     1      16.233   5.593  44.451  1.00  0.00     0.023 A 
HETATM   19  C8  UNL     1      17.676   5.314  44.765  1.00  0.00     0.023 A 
ENDBRANCH  14  17
ENDBRANCH  12  14
ENDBRANCH   1  12
BRANCH   1  20
HETATM   20  C9  UNL     1      13.981   0.185  43.419  1.00  0.00     0.244 C 
HETATM   21  O5  UNL     1      12.785   0.138  43.755  1.00  0.00    -0.271 OA
HETATM   22  N2  UNL     1      14.327  -0.190  42.093  1.00  0.00    -0.337 N 
HETATM   23  C10 UNL     1      13.446  -0.719  41.063  1.00  0.00     0.127 C 
HETATM   24  C13 UNL     1      15.620  -0.078  41.457  1.00  0.00     0.179 C 
HETATM   25  C11 UNL     1      14.337  -1.660  40.291  1.00  0.00     0.022 C 
HETATM   26  C12 UNL     1      15.766  -1.366  40.695  1.00  0.00     0.037 C 
BRANCH  24  27
HETATM   27  C14 UNL     1      15.686   1.118  40.565  1.00  0.00     0.241 C 
HETATM   28  O6  UNL     1      16.323   1.014  39.494  1.00  0.00    -0.271 OA
HETATM   29  N3  UNL     1      15.053   2.341  40.906  1.00  0.00    -0.354 N 
ATOM     30  H3  UNL     1      14.532   2.425  41.779  1.00  0.00     0.162 HD
BRANCH  29  31
HETATM   31  C15 UNL     1      15.150   3.454  40.017  1.00  0.00     0.092 C 
HETATM   32  C16 UNL     1      13.863   3.699  39.218  1.00  0.00     0.104 C 
HETATM   33  C17 UNL     1      14.161   5.069  38.677  1.00  0.00     0.137 C 
HETATM   34  O7  UNL     1      13.882   5.465  37.570  1.00  0.00    -0.297 OA
HETATM   35  C18 UNL     1      14.844   5.792  39.755  1.00  0.00     0.022 A 
HETATM   36  C19 UNL     1      14.198   7.045  40.246  1.00  0.00     0.018 A 
HETATM   37  C20 UNL     1      15.539   7.076  39.532  1.00  0.00     0.018 A 
HETATM   38  C21 UNL     1      15.356   4.786  40.749  1.00  0.00     0.042 C 
ENDBRANCH  29  31
ENDBRANCH  24  27
ENDBRANCH   1  20
TORSDOF 8
ENDMDL
MODEL 5
REMARK VINA RESULT: -6.291226527      2.336      3.262
REMARK  8 active torsions:
REMARK  status: ('A' for Active; 'I' for Inactive)
REMARK    1  A    between atoms: C1_2  and  C2_4 
REMARK    2  A    between atoms: C4_6  and  C5_7 
REMARK    3  A    between atoms: C5_7  and  N1_8 
REMARK    4  A    between atoms: C5_7  and  C9_16 
REMARK    5  A    between atoms: N1_8  and  S1_10 
REMARK    6  A    between atoms: S1_10  and  C6_13 
REMARK       I    between atoms: C9_16  and  N2_18 
REMARK    7  A    between atoms: C13_22  and  C14_23 
REMARK       I    between atoms: C14_23  and  N3_25 
REMARK    8  A    between atoms: N3_25  and  C15_27 
ROOT
HETATM    1  C5  UNL     1      14.646  -1.502  45.580  1.00  0.00     0.189 C 
ENDROOT
BRANCH   1   2
HETATM    2  C4  UNL     1      15.008  -2.957  45.729  1.00  0.00     0.019 C 
HETATM    3  C3  UNL     1      14.854  -3.389  47.181  1.00  0.00     0.024 C 
HETATM    4  C2  UNL     1      15.800  -4.507  47.519  1.00  0.00     0.105 C 
HETATM    5  C24 UNL     1      15.824  -5.445  46.326  1.00  0.00     0.096 C 
HETATM    6  C23 UNL     1      16.540  -4.766  45.200  1.00  0.00     0.021 C 
HETATM    7 CL1  UNL     1      16.718  -6.924  46.739  1.00  0.00    -0.124 Cl
HETATM    8  C22 UNL     1      16.389  -3.252  45.211  1.00  0.00     0.009 C 
BRANCH   4   9
HETATM    9  C1  UNL     1      15.217  -5.234  48.689  1.00  0.00     0.178 C 
HETATM   10  O1  UNL     1      14.273  -6.035  48.578  1.00  0.00    -0.648 OA
HETATM   11  O2  UNL     1      15.763  -4.992  49.936  1.00  0.00    -0.648 OA
ENDBRANCH   4   9
ENDBRANCH   1   2
BRANCH   1  12
HETATM   12  N1  UNL     1      14.308  -1.024  46.896  1.00  0.00    -0.305 N 
ATOM     13  H1  UNL     1      13.585  -1.470  47.461  1.00  0.00     0.173 HD
BRANCH  12  14
HETATM   14  S1  UNL     1      15.172   0.315  47.454  1.00  0.00     0.231 S 
HETATM   15  O3  UNL     1      16.639   0.260  47.162  1.00  0.00    -0.206 OA
HETATM   16  O4  UNL     1      14.665   1.581  46.791  1.00  0.00    -0.206 OA
BRANCH  14  17
HETATM   17  C6  UNL     1      14.987   0.509  49.199  1.00  0.00     0.129 A 
HETATM   18  C7  UNL     1      13.667   0.691  49.830  1.00  0.00     0.023 A 
HETATM   19  C8  UNL     1      14.591   1.865  49.664  1.00  0.00     0.023 A 
ENDBRANCH  14  17
ENDBRANCH  12  14
ENDBRANCH   1  12
BRANCH   1  20
HETATM   20  C9  UNL     1      13.446  -1.488  44.680  1.00  0.00     0.244 C 
HETATM   21  O5  UNL     1      12.285  -1.657  45.092  1.00  0.00    -0.271 OA
HETATM   22  N2  UNL     1      13.646  -1.268  43.291  1.00  0.00    -0.337 N 
HETATM   23  C10 UNL     1      12.644  -1.296  42.235  1.00  0.00     0.127 C 
HETATM   24  C13 UNL     1      14.879  -0.914  42.625  1.00  0.00     0.179 C 
HETATM   25  C11 UNL     1      13.403  -1.831  41.048  1.00  0.00     0.022 C 
HETATM   26  C12 UNL     1      14.878  -1.757  41.380  1.00  0.00     0.037 C 
BRANCH  24  27
HETATM   27  C14 UNL     1      14.932   0.547  42.320  1.00  0.00     0.241 C 
HETATM   28  O6  UNL     1      14.740   1.349  43.260  1.00  0.00    -0.271 OA
HETATM   29  N3  UNL     1      15.191   1.028  41.010  1.00  0.00    -0.354 N 
ATOM     30  H3  UNL     1      15.349   0.374  40.244  1.00  0.00     0.162 HD
BRANCH  29  31
HETATM   31  C15 UNL     1      15.228   2.436  40.773  1.00  0.00     0.092 C 
HETATM   32  C16 UNL     1      16.608   2.933  40.319  1.00  0.00     0.104 C 
HETATM   33  C17 UNL     1      16.233   4.308  39.842  1.00  0.00     0.137 C 
HETATM   34  O7  UNL     1      16.895   5.308  39.991  1.00  0.00    -0.297 OA
HETATM   35  C18 UNL     1      14.932   4.168  39.180  1.00  0.00     0.022 A 
HETATM   36  C19 UNL     1      14.857   4.565  37.743  1.00  0.00     0.018 A 
HETATM   37  C20 UNL     1      14.100   5.333  38.814  1.00  0.00     0.018 A 
HETATM   38  C21 UNL     1      14.313   2.871  39.623  1.00  0.00     0.042 C 
ENDBRANCH  29  31
ENDBRANCH  24  27
ENDBRANCH   1  20
TORSDOF 8
ENDMDL
