MODEL 1
REMARK VINA RESULT: -9.456879876      0.000      0.000
REMARK  14 active torsions:
REMARK  status: ('A' for Active; 'I' for Inactive)
REMARK    1  A    between atoms: O1_2  and  C2_3 
REMARK    2  A    between atoms: C5_8  and  C6_9 
REMARK    3  A    between atoms: N2_11  and  C8_12 
REMARK    4  A    between atoms: C8_12  and  C9_13 
REMARK    5  A    between atoms: C9_13  and  O2_14 
REMARK    6  A    between atoms: O2_14  and  C10_15 
REMARK    7  A    between atoms: C18_26  and  N4_27 
REMARK    8  A    between atoms: N4_27  and  C19_29 
REMARK    9  A    between atoms: C19_29  and  C20_30 
REMARK   10  A    between atoms: C20_30  and  C21_31 
REMARK   11  A    between atoms: C21_31  and  N5_32 
REMARK   12  A    between atoms: C29_41  and  O3_42 
REMARK   13  A    between atoms: O3_42  and  C30_43 
REMARK   14  A    between atoms: C30_43  and  C31_44 
ROOT
HETATM    1  C2  UNL     1      19.576  24.562  15.758  1.00  0.00     0.103 A 
HETATM    2  C3  UNL     1      18.745  23.647  15.234  1.00  0.00     0.070 A 
HETATM    3  C4  UNL     1      17.563  23.373  15.944  1.00  0.00     0.050 A 
HETATM    4  N1  UNL     1      16.793  22.437  15.462  1.00  0.00    -0.340 N 
ATOM      5  H1  UNL     1      17.027  22.015  14.563  1.00  0.00     0.167 HD
HETATM    6  C5  UNL     1      15.703  22.014  16.117  1.00  0.00     0.126 A 
HETATM    7  N3  UNL     1      15.442  22.558  17.264  1.00  0.00    -0.326 N 
ATOM      8  H3  UNL     1      14.619  22.222  17.764  1.00  0.00     0.169 HD
HETATM    9  C18 UNL     1      16.142  23.497  17.830  1.00  0.00     0.126 A 
HETATM   10  C27 UNL     1      17.300  24.008  17.135  1.00  0.00     0.038 A 
HETATM   11  C28 UNL     1      18.115  24.932  17.650  1.00  0.00     0.057 A 
HETATM   12  C29 UNL     1      19.313  25.278  16.982  1.00  0.00     0.103 A 
ENDROOT
BRANCH   6  13
HETATM   13  C6  UNL     1      14.735  21.155  15.372  1.00  0.00     0.065 A 
HETATM   14  C7  UNL     1      13.449  20.925  15.773  1.00  0.00     0.113 A 
HETATM   15  N2  UNL     1      12.642  20.197  14.995  1.00  0.00    -0.357 N 
HETATM   16  C17 UNL     1      13.177  19.740  13.856  1.00  0.00     0.141 A 
HETATM   17  S1  UNL     1      14.790  20.335  13.895  1.00  0.00    -0.080 SA
BRANCH  15  18
HETATM   18  C8  UNL     1      11.278  19.907  15.429  1.00  0.00     0.155 C 
BRANCH  18  19
HETATM   19  C9  UNL     1      11.071  20.078  16.921  1.00  0.00     0.196 C 
BRANCH  19  20
HETATM   20  O2  UNL     1      11.394  18.837  17.442  1.00  0.00    -0.350 OA
BRANCH  20  21
HETATM   21  C10 UNL     1      11.975  18.420  18.588  1.00  0.00     0.069 A 
HETATM   22  C11 UNL     1      11.377  17.369  19.312  1.00  0.00     0.037 A 
HETATM   23  C12 UNL     1      11.911  16.949  20.476  1.00  0.00     0.003 A 
HETATM   24  C13 UNL     1      13.066  17.524  21.014  1.00  0.00     0.007 A 
HETATM   25  C14 UNL     1      13.654  18.564  20.286  1.00  0.00    -0.059 A 
HETATM   26  C15 UNL     1      14.897  19.217  20.824  1.00  0.00     0.048 C 
HETATM   27  C16 UNL     1      13.105  18.982  19.110  1.00  0.00     0.043 A 
ENDBRANCH  20  21
ENDBRANCH  19  20
ENDBRANCH  18  19
ENDBRANCH  15  18
ENDBRANCH   6  13
BRANCH   9  28
HETATM   28  N4  UNL     1      16.623  23.483  19.142  1.00  0.00    -0.311 N 
ATOM     29  H4  UNL     1      16.424  24.260  19.772  1.00  0.00     0.177 HD
BRANCH  28  30
HETATM   30  C19 UNL     1      17.357  22.423  19.568  1.00  0.00    -0.068 C 
BRANCH  30  31
HETATM   31  C20 UNL     1      18.166  21.258  19.559  1.00  0.00     0.134 C 
BRANCH  31  32
HETATM   32  C21 UNL     1      19.620  21.629  19.950  1.00  0.00     0.285 C 
BRANCH  32  33
HETATM   33  N5  UNL     1      20.034  22.942  19.693  1.00  0.00     0.092 N 
HETATM   34  C22 UNL     1      19.957  23.683  20.971  1.00  0.00     0.302 C 
HETATM   35  C23 UNL     1      20.622  25.002  20.979  1.00  0.00     0.302 C 
HETATM   36  N6  UNL     1      22.002  24.946  20.538  1.00  0.00     0.087 N 
HETATM   37  C24 UNL     1      22.889  25.371  21.631  1.00  0.00     0.310 C 
HETATM   38  C25 UNL     1      22.374  23.572  20.234  1.00  0.00     0.302 C 
HETATM   39  C26 UNL     1      21.427  23.008  19.226  1.00  0.00     0.302 C 
ENDBRANCH  32  33
ENDBRANCH  31  32
ENDBRANCH  30  31
ENDBRANCH  28  30
ENDBRANCH   9  28
BRANCH   1  40
HETATM   40  O1  UNL     1      20.799  24.799  15.100  1.00  0.00    -0.353 OA
HETATM   41  C1  UNL     1      21.941  24.052  15.372  1.00  0.00     0.210 C 
ENDBRANCH   1  40
BRANCH  12  42
HETATM   42  O3  UNL     1      20.156  26.177  17.298  1.00  0.00    -0.344 OA
BRANCH  42  43
HETATM   43  C30 UNL     1      21.004  27.067  17.787  1.00  0.00     0.217 C 
BRANCH  43  44
HETATM   44  C31 UNL     1      21.991  27.331  16.653  1.00  0.00    -0.005 A 
HETATM   45  C32 UNL     1      23.364  27.159  16.977  1.00  0.00    -0.036 A 
HETATM   46  C33 UNL     1      23.884  26.785  18.297  1.00  0.00     0.050 C 
HETATM   47  C34 UNL     1      24.057  27.383  15.822  1.00  0.00     0.095 A 
HETATM   48  N7  UNL     1      23.181  27.681  14.851  1.00  0.00    -0.368 N 
HETATM   49  C35 UNL     1      21.896  27.651  15.391  1.00  0.00     0.014 A 
ATOM     50  H7  UNL     1      23.414  27.893  13.882  1.00  0.00     0.165 HD
HETATM   51  C36 UNL     1      20.734  28.065  14.538  1.00  0.00     0.068 C 
ENDBRANCH  43  44
ENDBRANCH  42  43
ENDBRANCH  12  42
TORSDOF 14
ENDMDL
MODEL 2
REMARK VINA RESULT: -9.436411125      2.555     10.285
REMARK  14 active torsions:
REMARK  status: ('A' for Active; 'I' for Inactive)
REMARK    1  A    between atoms: O1_2  and  C2_3 
REMARK    2  A    between atoms: C5_8  and  C6_9 
REMARK    3  A    between atoms: N2_11  and  C8_12 
REMARK    4  A    between atoms: C8_12  and  C9_13 
REMARK    5  A    between atoms: C9_13  and  O2_14 
REMARK    6  A    between atoms: O2_14  and  C10_15 
REMARK    7  A    between atoms: C18_26  and  N4_27 
REMARK    8  A    between atoms: N4_27  and  C19_29 
REMARK    9  A    between atoms: C19_29  and  C20_30 
REMARK   10  A    between atoms: C20_30  and  C21_31 
REMARK   11  A    between atoms: C21_31  and  N5_32 
REMARK   12  A    between atoms: C29_41  and  O3_42 
REMARK   13  A    between atoms: O3_42  and  C30_43 
REMARK   14  A    between atoms: C30_43  and  C31_44 
ROOT
HETATM    1  C2  UNL     1      17.104  21.972  15.012  1.00  0.00     0.103 A 
HETATM    2  C3  UNL     1      18.098  22.679  15.573  1.00  0.00     0.070 A 
HETATM    3  C4  UNL     1      18.224  22.612  16.971  1.00  0.00     0.050 A 
HETATM    4  N1  UNL     1      19.151  23.353  17.513  1.00  0.00    -0.340 N 
ATOM      5  H1  UNL     1      19.792  23.867  16.909  1.00  0.00     0.167 HD
HETATM    6  C5  UNL     1      19.284  23.455  18.843  1.00  0.00     0.126 A 
HETATM    7  N3  UNL     1      18.445  22.802  19.583  1.00  0.00    -0.326 N 
ATOM      8  H3  UNL     1      18.542  22.895  20.594  1.00  0.00     0.169 HD
HETATM    9  C18 UNL     1      17.489  22.036  19.144  1.00  0.00     0.126 A 
HETATM   10  C27 UNL     1      17.340  21.867  17.717  1.00  0.00     0.038 A 
HETATM   11  C28 UNL     1      16.362  21.148  17.162  1.00  0.00     0.057 A 
HETATM   12  C29 UNL     1      16.186  21.147  15.759  1.00  0.00     0.103 A 
ENDROOT
BRANCH   6  13
HETATM   13  C6  UNL     1      20.531  24.086  19.369  1.00  0.00     0.065 A 
HETATM   14  C7  UNL     1      20.833  25.411  19.235  1.00  0.00     0.113 A 
HETATM   15  N2  UNL     1      21.943  25.890  19.806  1.00  0.00    -0.357 N 
HETATM   16  C17 UNL     1      22.688  25.004  20.479  1.00  0.00     0.141 A 
HETATM   17  S1  UNL     1      21.824  23.527  20.303  1.00  0.00    -0.080 SA
BRANCH  15  18
HETATM   18  C8  UNL     1      22.303  27.295  19.637  1.00  0.00     0.155 C 
BRANCH  18  19
HETATM   19  C9  UNL     1      23.469  27.510  18.692  1.00  0.00     0.196 C 
BRANCH  19  20
HETATM   20  O2  UNL     1      22.878  28.033  17.554  1.00  0.00    -0.350 OA
BRANCH  20  21
HETATM   21  C10 UNL     1      22.353  27.493  16.433  1.00  0.00     0.069 A 
HETATM   22  C11 UNL     1      21.327  28.185  15.759  1.00  0.00     0.037 A 
HETATM   23  C12 UNL     1      20.758  27.660  14.656  1.00  0.00     0.003 A 
HETATM   24  C13 UNL     1      21.151  26.425  14.133  1.00  0.00     0.007 A 
HETATM   25  C14 UNL     1      22.172  25.748  14.807  1.00  0.00    -0.059 A 
HETATM   26  C15 UNL     1      22.629  24.414  14.285  1.00  0.00     0.048 C 
HETATM   27  C16 UNL     1      22.740  26.287  15.923  1.00  0.00     0.043 A 
ENDBRANCH  20  21
ENDBRANCH  19  20
ENDBRANCH  18  19
ENDBRANCH  15  18
ENDBRANCH   6  13
BRANCH   9  28
HETATM   28  N4  UNL     1      16.147  22.098  19.530  1.00  0.00    -0.311 N 
ATOM     29  H4  UNL     1      15.547  22.851  19.194  1.00  0.00     0.177 HD
BRANCH  28  30
HETATM   30  C19 UNL     1      15.651  21.142  20.357  1.00  0.00    -0.068 C 
BRANCH  30  31
HETATM   31  C20 UNL     1      15.348  19.875  20.918  1.00  0.00     0.134 C 
BRANCH  31  32
HETATM   32  C21 UNL     1      14.758  18.947  19.824  1.00  0.00     0.285 C 
BRANCH  32  33
HETATM   33  N5  UNL     1      13.370  18.979  19.642  1.00  0.00     0.092 N 
HETATM   34  C22 UNL     1      13.074  18.224  18.404  1.00  0.00     0.302 C 
HETATM   35  C23 UNL     1      11.650  17.894  18.189  1.00  0.00     0.302 C 
HETATM   36  N6  UNL     1      11.047  17.217  19.320  1.00  0.00     0.087 N 
HETATM   37  C24 UNL     1      10.606  15.873  18.916  1.00  0.00     0.310 C 
HETATM   38  C25 UNL     1      12.038  17.012  20.367  1.00  0.00     0.302 C 
HETATM   39  C26 UNL     1      12.647  18.323  20.743  1.00  0.00     0.302 C 
ENDBRANCH  32  33
ENDBRANCH  31  32
ENDBRANCH  30  31
ENDBRANCH  28  30
ENDBRANCH   9  28
BRANCH   1  40
HETATM   40  O1  UNL     1      16.916  22.083  13.621  1.00  0.00    -0.353 OA
HETATM   41  C1  UNL     1      16.325  23.201  13.041  1.00  0.00     0.210 C 
ENDBRANCH   1  40
BRANCH  12  42
HETATM   42  O3  UNL     1      15.355  20.470  15.073  1.00  0.00    -0.344 OA
BRANCH  42  43
HETATM   43  C30 UNL     1      14.482  19.902  14.258  1.00  0.00     0.217 C 
BRANCH  43  44
HETATM   44  C31 UNL     1      13.128  20.469  14.679  1.00  0.00    -0.005 A 
HETATM   45  C32 UNL     1      12.047  19.546  14.684  1.00  0.00    -0.036 A 
HETATM   46  C33 UNL     1      12.134  18.135  14.293  1.00  0.00     0.050 C 
HETATM   47  C34 UNL     1      10.962  20.237  15.142  1.00  0.00     0.095 A 
HETATM   48  N7  UNL     1      11.337  21.499  15.397  1.00  0.00    -0.368 N 
HETATM   49  C35 UNL     1      12.692  21.627  15.094  1.00  0.00     0.014 A 
ATOM     50  H7  UNL     1      10.733  22.240  15.752  1.00  0.00     0.165 HD
HETATM   51  C36 UNL     1      13.336  22.979  15.180  1.00  0.00     0.068 C 
ENDBRANCH  43  44
ENDBRANCH  42  43
ENDBRANCH  12  42
TORSDOF 14
ENDMDL
MODEL 3
REMARK VINA RESULT: -9.405404215      2.123      5.637
REMARK  14 active torsions:
REMARK  status: ('A' for Active; 'I' for Inactive)
REMARK    1  A    between atoms: O1_2  and  C2_3 
REMARK    2  A    between atoms: C5_8  and  C6_9 
REMARK    3  A    between atoms: N2_11  and  C8_12 
REMARK    4  A    between atoms: C8_12  and  C9_13 
REMARK    5  A    between atoms: C9_13  and  O2_14 
REMARK    6  A    between atoms: O2_14  and  C10_15 
REMARK    7  A    between atoms: C18_26  and  N4_27 
REMARK    8  A    between atoms: N4_27  and  C19_29 
REMARK    9  A    between atoms: C19_29  and  C20_30 
REMARK   10  A    between atoms: C20_30  and  C21_31 
REMARK   11  A    between atoms: C21_31  and  N5_32 
REMARK   12  A    between atoms: C29_41  and  O3_42 
REMARK   13  A    between atoms: O3_42  and  C30_43 
REMARK   14  A    between atoms: C30_43  and  C31_44 
ROOT
HETATM    1  C2  UNL     1      20.774  23.402  19.642  1.00  0.00     0.103 A 
HETATM    2  C3  UNL     1      19.791  22.552  19.980  1.00  0.00     0.070 A 
HETATM    3  C4  UNL     1      19.035  21.997  18.933  1.00  0.00     0.050 A 
HETATM    4  N1  UNL     1      18.041  21.224  19.273  1.00  0.00    -0.340 N 
ATOM      5  H1  UNL     1      17.911  20.985  20.257  1.00  0.00     0.167 HD
HETATM    6  C5  UNL     1      17.185  20.735  18.365  1.00  0.00     0.126 A 
HETATM    7  N3  UNL     1      17.366  21.069  17.127  1.00  0.00    -0.326 N 
ATOM      8  H3  UNL     1      16.704  20.706  16.442  1.00  0.00     0.169 HD
HETATM    9  C18 UNL     1      18.324  21.830  16.683  1.00  0.00     0.126 A 
HETATM   10  C27 UNL     1      19.292  22.342  17.626  1.00  0.00     0.038 A 
HETATM   11  C28 UNL     1      20.280  23.172  17.285  1.00  0.00     0.057 A 
HETATM   12  C29 UNL     1      21.099  23.753  18.281  1.00  0.00     0.103 A 
ENDROOT
BRANCH   6  13
HETATM   13  C6  UNL     1      16.261  19.644  18.798  1.00  0.00     0.065 A 
HETATM   14  C7  UNL     1      15.146  19.844  19.560  1.00  0.00     0.113 A 
HETATM   15  N2  UNL     1      14.346  18.808  19.833  1.00  0.00    -0.357 N 
HETATM   16  C17 UNL     1      14.718  17.627  19.324  1.00  0.00     0.141 A 
HETATM   17  S1  UNL     1      16.170  17.987  18.476  1.00  0.00    -0.080 SA
BRANCH  15  18
HETATM   18  C8  UNL     1      13.172  18.996  20.681  1.00  0.00     0.155 C 
BRANCH  18  19
HETATM   19  C9  UNL     1      12.448  17.704  21.004  1.00  0.00     0.196 C 
BRANCH  19  20
HETATM   20  O2  UNL     1      11.423  17.660  20.075  1.00  0.00    -0.350 OA
BRANCH  20  21
HETATM   21  C10 UNL     1      11.090  16.809  19.079  1.00  0.00     0.069 A 
HETATM   22  C11 UNL     1      10.302  15.681  19.382  1.00  0.00     0.037 A 
HETATM   23  C12 UNL     1       9.980  14.794  18.420  1.00  0.00     0.003 A 
HETATM   24  C13 UNL     1      10.401  14.947  17.096  1.00  0.00     0.007 A 
HETATM   25  C14 UNL     1      11.180  16.072  16.806  1.00  0.00    -0.059 A 
HETATM   26  C15 UNL     1      11.661  16.281  15.396  1.00  0.00     0.048 C 
HETATM   27  C16 UNL     1      11.502  16.963  17.787  1.00  0.00     0.043 A 
ENDBRANCH  20  21
ENDBRANCH  19  20
ENDBRANCH  18  19
ENDBRANCH  15  18
ENDBRANCH   6  13
BRANCH   9  28
HETATM   28  N4  UNL     1      18.170  22.944  15.854  1.00  0.00    -0.311 N 
ATOM     29  H4  UNL     1      18.900  23.654  15.802  1.00  0.00     0.177 HD
BRANCH  28  30
HETATM   30  C19 UNL     1      17.035  23.070  15.118  1.00  0.00    -0.068 C 
BRANCH  30  31
HETATM   31  C20 UNL     1      15.708  22.887  14.652  1.00  0.00     0.134 C 
BRANCH  31  32
HETATM   32  C21 UNL     1      15.583  21.504  13.961  1.00  0.00     0.285 C 
BRANCH  32  33
HETATM   33  N5  UNL     1      14.908  20.499  14.666  1.00  0.00     0.092 N 
HETATM   34  C22 UNL     1      14.173  21.157  15.769  1.00  0.00     0.302 C 
HETATM   35  C23 UNL     1      13.171  20.314  16.453  1.00  0.00     0.302 C 
HETATM   36  N6  UNL     1      12.224  19.702  15.542  1.00  0.00     0.087 N 
HETATM   37  C24 UNL     1      10.867  20.183  15.841  1.00  0.00     0.310 C 
HETATM   38  C25 UNL     1      12.503  20.123  14.175  1.00  0.00     0.302 C 
HETATM   39  C26 UNL     1      13.920  19.799  13.832  1.00  0.00     0.302 C 
ENDBRANCH  32  33
ENDBRANCH  31  32
ENDBRANCH  30  31
ENDBRANCH  28  30
ENDBRANCH   9  28
BRANCH   1  40
HETATM   40  O1  UNL     1      21.496  24.024  20.679  1.00  0.00    -0.353 OA
HETATM   41  C1  UNL     1      21.160  25.286  21.159  1.00  0.00     0.210 C 
ENDBRANCH   1  40
BRANCH  12  42
HETATM   42  O3  UNL     1      22.115  24.502  18.122  1.00  0.00    -0.344 OA
BRANCH  42  43
HETATM   43  C30 UNL     1      23.083  25.357  17.836  1.00  0.00     0.217 C 
BRANCH  43  44
HETATM   44  C31 UNL     1      22.529  26.208  16.696  1.00  0.00    -0.005 A 
HETATM   45  C32 UNL     1      22.052  27.495  17.061  1.00  0.00    -0.036 A 
HETATM   46  C33 UNL     1      22.027  28.035  18.425  1.00  0.00     0.050 C 
HETATM   47  C34 UNL     1      21.665  28.099  15.900  1.00  0.00     0.095 A 
HETATM   48  N7  UNL     1      21.879  27.248  14.885  1.00  0.00    -0.368 N 
HETATM   49  C35 UNL     1      22.412  26.069  15.403  1.00  0.00     0.014 A 
ATOM     50  H7  UNL     1      21.685  27.433  13.901  1.00  0.00     0.165 HD
HETATM   51  C36 UNL     1      22.634  24.902  14.487  1.00  0.00     0.068 C 
ENDBRANCH  43  44
ENDBRANCH  42  43
ENDBRANCH  12  42
TORSDOF 14
ENDMDL
MODEL 4
REMARK VINA RESULT: -9.271028906      2.138      5.101
REMARK  14 active torsions:
REMARK  status: ('A' for Active; 'I' for Inactive)
REMARK    1  A    between atoms: O1_2  and  C2_3 
REMARK    2  A    between atoms: C5_8  and  C6_9 
REMARK    3  A    between atoms: N2_11  and  C8_12 
REMARK    4  A    between atoms: C8_12  and  C9_13 
REMARK    5  A    between atoms: C9_13  and  O2_14 
REMARK    6  A    between atoms: O2_14  and  C10_15 
REMARK    7  A    between atoms: C18_26  and  N4_27 
REMARK    8  A    between atoms: N4_27  and  C19_29 
REMARK    9  A    between atoms: C19_29  and  C20_30 
REMARK   10  A    between atoms: C20_30  and  C21_31 
REMARK   11  A    between atoms: C21_31  and  N5_32 
REMARK   12  A    between atoms: C29_41  and  O3_42 
REMARK   13  A    between atoms: O3_42  and  C30_43 
REMARK   14  A    between atoms: C30_43  and  C31_44 
ROOT
HETATM    1  C2  UNL     1      19.553  24.533  15.917  1.00  0.00     0.103 A 
HETATM    2  C3  UNL     1      18.714  23.674  15.317  1.00  0.00     0.070 A 
HETATM    3  C4  UNL     1      17.534  23.344  16.004  1.00  0.00     0.050 A 
HETATM    4  N1  UNL     1      16.756  22.459  15.444  1.00  0.00    -0.340 N 
ATOM      5  H1  UNL     1      16.983  22.119  14.509  1.00  0.00     0.167 HD
HETATM    6  C5  UNL     1      15.666  21.986  16.063  1.00  0.00     0.126 A 
HETATM    7  N3  UNL     1      15.412  22.425  17.255  1.00  0.00    -0.326 N 
ATOM      8  H3  UNL     1      14.590  22.050  17.727  1.00  0.00     0.169 HD
HETATM    9  C18 UNL     1      16.121  23.305  17.901  1.00  0.00     0.126 A 
HETATM   10  C27 UNL     1      17.280  23.871  17.250  1.00  0.00     0.038 A 
HETATM   11  C28 UNL     1      18.102  24.740  17.841  1.00  0.00     0.057 A 
HETATM   12  C29 UNL     1      19.299  25.138  17.202  1.00  0.00     0.103 A 
ENDROOT
BRANCH   6  13
HETATM   13  C6  UNL     1      14.689  21.203  15.248  1.00  0.00     0.065 A 
HETATM   14  C7  UNL     1      13.336  21.247  15.425  1.00  0.00     0.113 A 
HETATM   15  N2  UNL     1      12.544  20.562  14.593  1.00  0.00    -0.357 N 
HETATM   16  C17 UNL     1      13.164  19.867  13.631  1.00  0.00     0.141 A 
HETATM   17  S1  UNL     1      14.831  20.186  13.905  1.00  0.00    -0.080 SA
BRANCH  15  18
HETATM   18  C8  UNL     1      11.098  20.565  14.793  1.00  0.00     0.155 C 
BRANCH  18  19
HETATM   19  C9  UNL     1      10.628  19.544  15.809  1.00  0.00     0.196 C 
BRANCH  19  20
HETATM   20  O2  UNL     1      10.328  18.431  15.043  1.00  0.00    -0.350 OA
BRANCH  20  21
HETATM   21  C10 UNL     1      10.722  17.139  15.064  1.00  0.00     0.069 A 
HETATM   22  C11 UNL     1      11.287  16.580  13.900  1.00  0.00     0.037 A 
HETATM   23  C12 UNL     1      11.661  15.285  13.876  1.00  0.00     0.003 A 
HETATM   24  C13 UNL     1      11.513  14.447  14.984  1.00  0.00     0.007 A 
HETATM   25  C14 UNL     1      10.954  15.013  16.135  1.00  0.00    -0.059 A 
HETATM   26  C15 UNL     1      10.771  14.151  17.354  1.00  0.00     0.048 C 
HETATM   27  C16 UNL     1      10.578  16.323  16.149  1.00  0.00     0.043 A 
ENDBRANCH  20  21
ENDBRANCH  19  20
ENDBRANCH  18  19
ENDBRANCH  15  18
ENDBRANCH   6  13
BRANCH   9  28
HETATM   28  N4  UNL     1      16.607  23.171  19.204  1.00  0.00    -0.311 N 
ATOM     29  H4  UNL     1      17.179  23.905  19.619  1.00  0.00     0.177 HD
BRANCH  28  30
HETATM   30  C19 UNL     1      16.307  22.050  19.910  1.00  0.00    -0.068 C 
BRANCH  30  31
HETATM   31  C20 UNL     1      15.584  20.961  20.460  1.00  0.00     0.134 C 
BRANCH  31  32
HETATM   32  C21 UNL     1      15.657  19.747  19.497  1.00  0.00     0.285 C 
BRANCH  32  33
HETATM   33  N5  UNL     1      15.099  18.543  19.946  1.00  0.00     0.092 N 
HETATM   34  C22 UNL     1      13.894  18.887  20.733  1.00  0.00     0.302 C 
HETATM   35  C23 UNL     1      13.002  17.754  21.052  1.00  0.00     0.302 C 
HETATM   36  N6  UNL     1      12.610  16.992  19.882  1.00  0.00     0.087 N 
HETATM   37  C24 UNL     1      11.152  17.068  19.707  1.00  0.00     0.310 C 
HETATM   38  C25 UNL     1      13.187  17.584  18.683  1.00  0.00     0.302 C 
HETATM   39  C26 UNL     1      14.670  17.678  18.836  1.00  0.00     0.302 C 
ENDBRANCH  32  33
ENDBRANCH  31  32
ENDBRANCH  30  31
ENDBRANCH  28  30
ENDBRANCH   9  28
BRANCH   1  40
HETATM   40  O1  UNL     1      20.774  24.821  15.278  1.00  0.00    -0.353 OA
HETATM   41  C1  UNL     1      20.878  25.791  14.285  1.00  0.00     0.210 C 
ENDBRANCH   1  40
BRANCH  12  42
HETATM   42  O3  UNL     1      20.149  25.999  17.594  1.00  0.00    -0.344 OA
BRANCH  42  43
HETATM   43  C30 UNL     1      21.114  26.766  18.075  1.00  0.00     0.217 C 
BRANCH  43  44
HETATM   44  C31 UNL     1      21.966  25.832  18.931  1.00  0.00    -0.005 A 
HETATM   45  C32 UNL     1      23.330  25.716  18.550  1.00  0.00    -0.036 A 
HETATM   46  C33 UNL     1      23.950  26.388  17.402  1.00  0.00     0.050 C 
HETATM   47  C34 UNL     1      23.912  24.894  19.471  1.00  0.00     0.095 A 
HETATM   48  N7  UNL     1      22.979  24.519  20.358  1.00  0.00    -0.368 N 
HETATM   49  C35 UNL     1      21.768  25.109  20.000  1.00  0.00     0.014 A 
ATOM     50  H7  UNL     1      23.129  23.906  21.159  1.00  0.00     0.165 HD
HETATM   51  C36 UNL     1      20.527  24.755  20.766  1.00  0.00     0.068 C 
ENDBRANCH  43  44
ENDBRANCH  42  43
ENDBRANCH  12  42
TORSDOF 14
ENDMDL
MODEL 5
REMARK VINA RESULT: -9.252882429      2.350     10.781
REMARK  14 active torsions:
REMARK  status: ('A' for Active; 'I' for Inactive)
REMARK    1  A    between atoms: O1_2  and  C2_3 
REMARK    2  A    between atoms: C5_8  and  C6_9 
REMARK    3  A    between atoms: N2_11  and  C8_12 
REMARK    4  A    between atoms: C8_12  and  C9_13 
REMARK    5  A    between atoms: C9_13  and  O2_14 
REMARK    6  A    between atoms: O2_14  and  C10_15 
REMARK    7  A    between atoms: C18_26  and  N4_27 
REMARK    8  A    between atoms: N4_27  and  C19_29 
REMARK    9  A    between atoms: C19_29  and  C20_30 
REMARK   10  A    between atoms: C20_30  and  C21_31 
REMARK   11  A    between atoms: C21_31  and  N5_32 
REMARK   12  A    between atoms: C29_41  and  O3_42 
REMARK   13  A    between atoms: O3_42  and  C30_43 
REMARK   14  A    between atoms: C30_43  and  C31_44 
ROOT
HETATM    1  C2  UNL     1      15.621  19.608  18.729  1.00  0.00     0.103 A 
HETATM    2  C3  UNL     1      16.898  19.904  19.015  1.00  0.00     0.070 A 
HETATM    3  C4  UNL     1      17.270  21.259  18.965  1.00  0.00     0.050 A 
HETATM    4  N1  UNL     1      18.527  21.531  19.180  1.00  0.00    -0.340 N 
ATOM      5  H1  UNL     1      19.157  20.779  19.461  1.00  0.00     0.167 HD
HETATM    6  C5  UNL     1      19.013  22.773  19.044  1.00  0.00     0.126 A 
HETATM    7  N3  UNL     1      18.191  23.703  18.672  1.00  0.00    -0.326 N 
ATOM      8  H3  UNL     1      18.570  24.643  18.555  1.00  0.00     0.169 HD
HETATM    9  C18 UNL     1      16.923  23.538  18.434  1.00  0.00     0.126 A 
HETATM   10  C27 UNL     1      16.353  22.222  18.611  1.00  0.00     0.038 A 
HETATM   11  C28 UNL     1      15.077  21.934  18.344  1.00  0.00     0.057 A 
HETATM   12  C29 UNL     1      14.623  20.596  18.396  1.00  0.00     0.103 A 
ENDROOT
BRANCH   6  13
HETATM   13  C6  UNL     1      20.380  23.046  19.580  1.00  0.00     0.065 A 
HETATM   14  C7  UNL     1      20.973  24.276  19.572  1.00  0.00     0.113 A 
HETATM   15  N2  UNL     1      22.173  24.428  20.142  1.00  0.00    -0.357 N 
HETATM   16  C17 UNL     1      22.708  23.328  20.687  1.00  0.00     0.141 A 
HETATM   17  S1  UNL     1      21.529  22.111  20.395  1.00  0.00    -0.080 SA
BRANCH  15  18
HETATM   18  C8  UNL     1      22.840  25.726  20.105  1.00  0.00     0.155 C 
BRANCH  18  19
HETATM   19  C9  UNL     1      21.968  26.836  19.550  1.00  0.00     0.196 C 
BRANCH  19  20
HETATM   20  O2  UNL     1      22.603  27.195  18.374  1.00  0.00    -0.350 OA
BRANCH  20  21
HETATM   21  C10 UNL     1      22.311  27.048  17.063  1.00  0.00     0.069 A 
HETATM   22  C11 UNL     1      21.661  28.101  16.388  1.00  0.00     0.037 A 
HETATM   23  C12 UNL     1      21.325  27.975  15.088  1.00  0.00     0.003 A 
HETATM   24  C13 UNL     1      21.600  26.816  14.358  1.00  0.00     0.007 A 
HETATM   25  C14 UNL     1      22.248  25.779  15.037  1.00  0.00    -0.059 A 
HETATM   26  C15 UNL     1      22.564  24.509  14.296  1.00  0.00     0.048 C 
HETATM   27  C16 UNL     1      22.582  25.915  16.352  1.00  0.00     0.043 A 
ENDBRANCH  20  21
ENDBRANCH  19  20
ENDBRANCH  18  19
ENDBRANCH  15  18
ENDBRANCH   6  13
BRANCH   9  28
HETATM   28  N4  UNL     1      16.243  23.952  17.285  1.00  0.00    -0.311 N 
ATOM     29  H4  UNL     1      15.315  24.367  17.357  1.00  0.00     0.177 HD
BRANCH  28  30
HETATM   30  C19 UNL     1      16.834  23.795  16.072  1.00  0.00    -0.068 C 
BRANCH  30  31
HETATM   31  C20 UNL     1      17.425  23.191  14.933  1.00  0.00     0.134 C 
BRANCH  31  32
HETATM   32  C21 UNL     1      16.345  22.415  14.135  1.00  0.00     0.285 C 
BRANCH  32  33
HETATM   33  N5  UNL     1      15.370  21.735  14.877  1.00  0.00     0.092 N 
HETATM   34  C22 UNL     1      14.088  22.443  14.667  1.00  0.00     0.302 C 
HETATM   35  C23 UNL     1      12.884  21.722  15.128  1.00  0.00     0.302 C 
HETATM   36  N6  UNL     1      12.785  20.379  14.591  1.00  0.00     0.087 N 
HETATM   37  C24 UNL     1      11.574  20.265  13.764  1.00  0.00     0.310 C 
HETATM   38  C25 UNL     1      13.904  20.114  13.698  1.00  0.00     0.302 C 
HETATM   39  C26 UNL     1      15.189  20.348  14.423  1.00  0.00     0.302 C 
ENDBRANCH  32  33
ENDBRANCH  31  32
ENDBRANCH  30  31
ENDBRANCH  28  30
ENDBRANCH   9  28
BRANCH   1  40
HETATM   40  O1  UNL     1      15.246  18.251  18.704  1.00  0.00    -0.353 OA
HETATM   41  C1  UNL     1      16.175  17.231  18.524  1.00  0.00     0.210 C 
ENDBRANCH   1  40
BRANCH  12  42
HETATM   42  O3  UNL     1      13.437  20.163  18.238  1.00  0.00    -0.344 OA
BRANCH  42  43
HETATM   43  C30 UNL     1      12.188  19.831  17.954  1.00  0.00     0.217 C 
BRANCH  43  44
HETATM   44  C31 UNL     1      12.002  18.446  18.568  1.00  0.00    -0.005 A 
HETATM   45  C32 UNL     1      11.489  17.448  17.696  1.00  0.00    -0.036 A 
HETATM   46  C33 UNL     1      11.107  17.660  16.295  1.00  0.00     0.050 C 
HETATM   47  C34 UNL     1      11.459  16.291  18.420  1.00  0.00     0.095 A 
HETATM   48  N7  UNL     1      11.914  16.550  19.655  1.00  0.00    -0.368 N 
HETATM   49  C35 UNL     1      12.241  17.903  19.730  1.00  0.00     0.014 A 
ATOM     50  H7  UNL     1      12.006  15.872  20.411  1.00  0.00     0.165 HD
HETATM   51  C36 UNL     1      12.666  18.480  21.048  1.00  0.00     0.068 C 
ENDBRANCH  43  44
ENDBRANCH  42  43
ENDBRANCH  12  42
TORSDOF 14
ENDMDL
