MODEL 1
REMARK VINA RESULT: -9.291280331      0.000      0.000
REMARK  16 active torsions:
REMARK  status: ('A' for Active; 'I' for Inactive)
REMARK    1  A    between atoms: C4_5  and  C5_6 
REMARK       I    between atoms: C5_6  and  N1_8 
REMARK    2  A    between atoms: N1_8  and  O3_10 
REMARK    3  A    between atoms: C6_12  and  O4_13 
REMARK    4  A    between atoms: C13_21  and  C14_22 
REMARK    5  A    between atoms: C15_23  and  C16_24 
REMARK    6  A    between atoms: C16_24  and  O5_27 
REMARK    7  A    between atoms: O5_27  and  C19_28 
REMARK    8  A    between atoms: C19_28  and  C20_29 
REMARK    9  A    between atoms: C20_29  and  C21_30 
REMARK   10  A    between atoms: C21_30  and  N2_31 
REMARK   11  A    between atoms: C32_42  and  O6_43 
REMARK   12  A    between atoms: O6_43  and  C33_44 
REMARK   13  A    between atoms: C33_44  and  C34_46 
REMARK   14  A    between atoms: C34_46  and  C35_47 
REMARK   15  A    between atoms: C35_47  and  C36_48 
REMARK   16  A    between atoms: C36_48  and  C37_49 
ROOT
HETATM    1  C1  UNL     1      25.787  26.213  18.399  1.00  0.00     0.025 C 
HETATM    2  C2  UNL     1      24.654  26.361  19.029  1.00  0.00     0.010 C 
HETATM    3  C3  UNL     1      24.580  26.834  20.409  1.00  0.00     0.173 C 
HETATM    4  O1  UNL     1      25.652  27.043  21.039  1.00  0.00    -0.292 OA
HETATM    5  C4  UNL     1      23.271  27.059  21.039  1.00  0.00     0.193 C 
HETATM    6  C6  UNL     1      22.166  26.222  20.514  1.00  0.00     0.105 C 
HETATM    7  C7  UNL     1      21.379  25.501  21.521  1.00  0.00     0.009 C 
HETATM    8  C8  UNL     1      20.755  24.393  21.282  1.00  0.00    -0.022 C 
HETATM    9  C9  UNL     1      20.777  23.741  19.961  1.00  0.00     0.018 C 
HETATM   10  C10 UNL     1      19.479  23.059  19.618  1.00  0.00     0.002 C 
HETATM   11  C11 UNL     1      19.607  21.566  19.556  1.00  0.00     0.007 C 
HETATM   12  C12 UNL     1      18.888  21.106  18.316  1.00  0.00     0.010 C 
HETATM   13  C13 UNL     1      17.975  22.281  18.027  1.00  0.00     0.016 C 
HETATM   14  C25 UNL     1      18.889  23.451  18.308  1.00  0.00    -0.033 C 
HETATM   15  C26 UNL     1      18.001  24.665  18.525  1.00  0.00     0.016 C 
HETATM   16  C27 UNL     1      19.866  23.644  17.208  1.00  0.00     0.010 C 
HETATM   17  C28 UNL     1      21.253  24.030  17.608  1.00  0.00     0.007 C 
HETATM   18  C29 UNL     1      21.228  24.717  18.924  1.00  0.00     0.008 C 
HETATM   19  C30 UNL     1      22.556  25.267  19.400  1.00  0.00     0.027 C 
HETATM   20  C31 UNL     1      23.388  24.107  19.831  1.00  0.00     0.022 C 
HETATM   21  C32 UNL     1      23.307  26.063  18.385  1.00  0.00     0.179 C 
ENDROOT
BRANCH  13  22
HETATM   22  C14 UNL     1      17.384  22.238  16.697  1.00  0.00    -0.022 C 
HETATM   23  C15 UNL     1      16.082  22.014  16.578  1.00  0.00     0.006 C 
BRANCH  23  24
HETATM   24  C16 UNL     1      15.351  21.943  15.280  1.00  0.00     0.071 C 
HETATM   25  C17 UNL     1      16.343  21.985  14.138  1.00  0.00     0.050 C 
HETATM   26  C18 UNL     1      14.392  23.101  15.110  1.00  0.00     0.050 C 
BRANCH  24  27
HETATM   27  O5  UNL     1      14.613  20.759  15.226  1.00  0.00    -0.377 OA
BRANCH  27  28
HETATM   28  C19 UNL     1      13.508  20.843  16.036  1.00  0.00     0.170 C 
BRANCH  28  29
HETATM   29  C20 UNL     1      13.407  19.677  16.984  1.00  0.00     0.054 C 
BRANCH  29  30
HETATM   30  C21 UNL     1      13.766  20.035  18.411  1.00  0.00     0.238 C 
BRANCH  30  31
HETATM   31  N2  UNL     1      14.522  18.970  19.040  1.00  0.00    -0.079 N 
HETATM   32  C22 UNL     1      13.798  17.713  18.854  1.00  0.00     0.271 C 
HETATM   33  C23 UNL     1      15.862  18.876  18.476  1.00  0.00     0.271 C 
HETATM   34  C24 UNL     1      14.669  19.293  20.441  1.00  0.00     0.271 C 
ENDBRANCH  30  31
ENDBRANCH  29  30
ENDBRANCH  28  29
ENDBRANCH  27  28
ENDBRANCH  24  27
ENDBRANCH  23  24
ENDBRANCH  13  22
BRANCH   6  35
HETATM   35  O4  UNL     1      21.221  27.096  19.882  1.00  0.00    -0.384 OA
ATOM     36  H4  UNL     1      20.448  26.584  19.677  1.00  0.00     0.211 HD
ENDBRANCH   6  35
BRANCH  21  37
HETATM   37  O6  UNL     1      22.775  27.349  18.126  1.00  0.00    -0.310 OA
BRANCH  37  38
HETATM   38  C33 UNL     1      22.812  27.821  16.826  1.00  0.00     0.259 C 
HETATM   39  O7  UNL     1      21.956  28.687  16.493  1.00  0.00    -0.265 OA
BRANCH  38  40
HETATM   40  C34 UNL     1      23.827  27.329  15.835  1.00  0.00     0.111 C 
BRANCH  40  41
HETATM   41  C35 UNL     1      23.143  26.810  14.588  1.00  0.00     0.010 C 
BRANCH  41  42
HETATM   42  C36 UNL     1      22.790  25.357  14.642  1.00  0.00     0.000 C 
BRANCH  42  43
HETATM   43  C37 UNL     1      21.374  25.045  14.224  1.00  0.00    -0.005 C 
HETATM   44  C38 UNL     1      20.530  26.305  14.354  1.00  0.00     0.005 C 
ENDBRANCH  42  43
ENDBRANCH  41  42
ENDBRANCH  40  41
ENDBRANCH  38  40
ENDBRANCH  37  38
ENDBRANCH  21  37
BRANCH   5  45
HETATM   45  C5  UNL     1      23.309  26.976  22.520  1.00  0.00     0.256 C 
HETATM   46  O2  UNL     1      22.484  27.636  23.248  1.00  0.00    -0.270 OA
HETATM   47  N1  UNL     1      24.237  26.180  23.233  1.00  0.00    -0.237 N 
ATOM     48  H1  UNL     1      24.919  25.634  22.707  1.00  0.00     0.197 HD
BRANCH  47  49
HETATM   49  O3  UNL     1      24.255  26.114  24.573  1.00  0.00    -0.287 OA
ATOM     50  H3  UNL     1      23.914  25.370  25.055  1.00  0.00     0.244 HD
ENDBRANCH  47  49
ENDBRANCH   5  45
TORSDOF 16
ENDMDL
MODEL 2
REMARK VINA RESULT: -9.061879013      1.378      2.032
REMARK  16 active torsions:
REMARK  status: ('A' for Active; 'I' for Inactive)
REMARK    1  A    between atoms: C4_5  and  C5_6 
REMARK       I    between atoms: C5_6  and  N1_8 
REMARK    2  A    between atoms: N1_8  and  O3_10 
REMARK    3  A    between atoms: C6_12  and  O4_13 
REMARK    4  A    between atoms: C13_21  and  C14_22 
REMARK    5  A    between atoms: C15_23  and  C16_24 
REMARK    6  A    between atoms: C16_24  and  O5_27 
REMARK    7  A    between atoms: O5_27  and  C19_28 
REMARK    8  A    between atoms: C19_28  and  C20_29 
REMARK    9  A    between atoms: C20_29  and  C21_30 
REMARK   10  A    between atoms: C21_30  and  N2_31 
REMARK   11  A    between atoms: C32_42  and  O6_43 
REMARK   12  A    between atoms: O6_43  and  C33_44 
REMARK   13  A    between atoms: C33_44  and  C34_46 
REMARK   14  A    between atoms: C34_46  and  C35_47 
REMARK   15  A    between atoms: C35_47  and  C36_48 
REMARK   16  A    between atoms: C36_48  and  C37_49 
ROOT
HETATM    1  C1  UNL     1      25.828  26.218  18.403  1.00  0.00     0.025 C 
HETATM    2  C2  UNL     1      24.693  26.365  19.030  1.00  0.00     0.010 C 
HETATM    3  C3  UNL     1      24.616  26.820  20.416  1.00  0.00     0.173 C 
HETATM    4  O1  UNL     1      25.687  27.015  21.053  1.00  0.00    -0.292 OA
HETATM    5  C4  UNL     1      23.306  27.045  21.044  1.00  0.00     0.193 C 
HETATM    6  C6  UNL     1      22.198  26.221  20.504  1.00  0.00     0.105 C 
HETATM    7  C7  UNL     1      21.403  25.491  21.498  1.00  0.00     0.009 C 
HETATM    8  C8  UNL     1      20.774  24.390  21.242  1.00  0.00    -0.022 C 
HETATM    9  C9  UNL     1      20.797  23.755  19.914  1.00  0.00     0.018 C 
HETATM   10  C10 UNL     1      19.497  23.086  19.556  1.00  0.00     0.002 C 
HETATM   11  C11 UNL     1      19.616  21.593  19.476  1.00  0.00     0.007 C 
HETATM   12  C12 UNL     1      18.900  21.153  18.227  1.00  0.00     0.010 C 
HETATM   13  C13 UNL     1      17.994  22.337  17.950  1.00  0.00     0.016 C 
HETATM   14  C25 UNL     1      18.914  23.498  18.250  1.00  0.00    -0.033 C 
HETATM   15  C26 UNL     1      18.032  24.714  18.479  1.00  0.00     0.016 C 
HETATM   16  C27 UNL     1      19.896  23.699  17.156  1.00  0.00     0.010 C 
HETATM   17  C28 UNL     1      21.284  24.072  17.566  1.00  0.00     0.007 C 
HETATM   18  C29 UNL     1      21.258  24.742  18.891  1.00  0.00     0.008 C 
HETATM   19  C30 UNL     1      22.587  25.278  19.379  1.00  0.00     0.027 C 
HETATM   20  C31 UNL     1      23.410  24.108  19.798  1.00  0.00     0.022 C 
HETATM   21  C32 UNL     1      23.346  26.083  18.378  1.00  0.00     0.179 C 
ENDROOT
BRANCH  13  22
HETATM   22  C14 UNL     1      17.408  22.314  16.618  1.00  0.00    -0.022 C 
HETATM   23  C15 UNL     1      16.105  22.102  16.490  1.00  0.00     0.006 C 
BRANCH  23  24
HETATM   24  C16 UNL     1      15.379  22.051  15.189  1.00  0.00     0.071 C 
HETATM   25  C17 UNL     1      16.375  22.105  14.052  1.00  0.00     0.050 C 
HETATM   26  C18 UNL     1      14.426  23.216  15.032  1.00  0.00     0.050 C 
BRANCH  24  27
HETATM   27  O5  UNL     1      14.635  20.872  15.116  1.00  0.00    -0.377 OA
BRANCH  27  28
HETATM   28  C19 UNL     1      13.961  20.654  16.291  1.00  0.00     0.170 C 
BRANCH  28  29
HETATM   29  C20 UNL     1      12.592  20.070  16.063  1.00  0.00     0.054 C 
BRANCH  29  30
HETATM   30  C21 UNL     1      11.850  20.718  14.912  1.00  0.00     0.238 C 
BRANCH  30  31
HETATM   31  N2  UNL     1      11.264  19.719  14.041  1.00  0.00    -0.079 N 
HETATM   32  C22 UNL     1      10.205  20.350  13.254  1.00  0.00     0.271 C 
HETATM   33  C23 UNL     1      12.271  19.134  13.165  1.00  0.00     0.271 C 
HETATM   34  C24 UNL     1      10.745  18.653  14.867  1.00  0.00     0.271 C 
ENDBRANCH  30  31
ENDBRANCH  29  30
ENDBRANCH  28  29
ENDBRANCH  27  28
ENDBRANCH  24  27
ENDBRANCH  23  24
ENDBRANCH  13  22
BRANCH   6  35
HETATM   35  O4  UNL     1      21.260  27.108  19.880  1.00  0.00    -0.384 OA
ATOM     36  H4  UNL     1      21.457  27.129  18.952  1.00  0.00     0.211 HD
ENDBRANCH   6  35
BRANCH  21  37
HETATM   37  O6  UNL     1      22.823  27.375  18.133  1.00  0.00    -0.310 OA
BRANCH  37  38
HETATM   38  C33 UNL     1      22.853  27.857  16.837  1.00  0.00     0.259 C 
HETATM   39  O7  UNL     1      21.988  28.718  16.513  1.00  0.00    -0.265 OA
BRANCH  38  40
HETATM   40  C34 UNL     1      23.870  27.382  15.840  1.00  0.00     0.111 C 
BRANCH  40  41
HETATM   41  C35 UNL     1      23.189  26.868  14.590  1.00  0.00     0.010 C 
BRANCH  41  42
HETATM   42  C36 UNL     1      22.852  25.411  14.630  1.00  0.00     0.000 C 
BRANCH  42  43
HETATM   43  C37 UNL     1      21.442  25.086  14.205  1.00  0.00    -0.005 C 
HETATM   44  C38 UNL     1      20.579  26.330  14.358  1.00  0.00     0.005 C 
ENDBRANCH  42  43
ENDBRANCH  41  42
ENDBRANCH  40  41
ENDBRANCH  38  40
ENDBRANCH  37  38
ENDBRANCH  21  37
BRANCH   5  45
HETATM   45  C5  UNL     1      23.338  26.941  22.524  1.00  0.00     0.256 C 
HETATM   46  O2  UNL     1      22.498  27.578  23.257  1.00  0.00    -0.270 OA
HETATM   47  N1  UNL     1      24.275  26.151  23.231  1.00  0.00    -0.237 N 
ATOM     48  H1  UNL     1      24.969  25.624  22.702  1.00  0.00     0.197 HD
BRANCH  47  49
HETATM   49  O3  UNL     1      24.288  26.067  24.570  1.00  0.00    -0.287 OA
ATOM     50  H3  UNL     1      23.637  25.579  25.060  1.00  0.00     0.244 HD
ENDBRANCH  47  49
ENDBRANCH   5  45
TORSDOF 16
ENDMDL
MODEL 3
REMARK VINA RESULT: -8.616895301      1.845      2.590
REMARK  16 active torsions:
REMARK  status: ('A' for Active; 'I' for Inactive)
REMARK    1  A    between atoms: C4_5  and  C5_6 
REMARK       I    between atoms: C5_6  and  N1_8 
REMARK    2  A    between atoms: N1_8  and  O3_10 
REMARK    3  A    between atoms: C6_12  and  O4_13 
REMARK    4  A    between atoms: C13_21  and  C14_22 
REMARK    5  A    between atoms: C15_23  and  C16_24 
REMARK    6  A    between atoms: C16_24  and  O5_27 
REMARK    7  A    between atoms: O5_27  and  C19_28 
REMARK    8  A    between atoms: C19_28  and  C20_29 
REMARK    9  A    between atoms: C20_29  and  C21_30 
REMARK   10  A    between atoms: C21_30  and  N2_31 
REMARK   11  A    between atoms: C32_42  and  O6_43 
REMARK   12  A    between atoms: O6_43  and  C33_44 
REMARK   13  A    between atoms: C33_44  and  C34_46 
REMARK   14  A    between atoms: C34_46  and  C35_47 
REMARK   15  A    between atoms: C35_47  and  C36_48 
REMARK   16  A    between atoms: C36_48  and  C37_49 
ROOT
HETATM    1  C1  UNL     1      26.416  26.353  16.962  1.00  0.00     0.025 C 
HETATM    2  C2  UNL     1      25.797  26.388  18.111  1.00  0.00     0.010 C 
HETATM    3  C3  UNL     1      26.497  26.619  19.372  1.00  0.00     0.173 C 
HETATM    4  O1  UNL     1      27.754  26.721  19.360  1.00  0.00    -0.292 OA
HETATM    5  C4  UNL     1      25.736  26.728  20.625  1.00  0.00     0.193 C 
HETATM    6  C6  UNL     1      24.451  25.989  20.650  1.00  0.00     0.105 C 
HETATM    7  C7  UNL     1      24.247  25.103  21.802  1.00  0.00     0.009 C 
HETATM    8  C8  UNL     1      23.497  24.050  21.770  1.00  0.00    -0.022 C 
HETATM    9  C9  UNL     1      22.769  23.633  20.561  1.00  0.00     0.018 C 
HETATM   10  C10 UNL     1      21.429  23.015  20.862  1.00  0.00     0.002 C 
HETATM   11  C11 UNL     1      21.375  21.554  20.524  1.00  0.00     0.007 C 
HETATM   12  C12 UNL     1      20.077  21.310  19.802  1.00  0.00     0.010 C 
HETATM   13  C13 UNL     1      19.254  22.514  20.217  1.00  0.00     0.016 C 
HETATM   14  C25 UNL     1      20.278  23.622  20.139  1.00  0.00    -0.033 C 
HETATM   15  C26 UNL     1      19.744  24.778  20.968  1.00  0.00     0.016 C 
HETATM   16  C27 UNL     1      20.548  24.003  18.730  1.00  0.00     0.010 C 
HETATM   17  C28 UNL     1      21.967  24.320  18.385  1.00  0.00     0.007 C 
HETATM   18  C29 UNL     1      22.694  24.773  19.599  1.00  0.00     0.008 C 
HETATM   19  C30 UNL     1      24.117  25.239  19.372  1.00  0.00     0.027 C 
HETATM   20  C31 UNL     1      24.946  24.026  19.122  1.00  0.00     0.022 C 
HETATM   21  C32 UNL     1      24.292  26.199  18.243  1.00  0.00     0.179 C 
ENDROOT
BRANCH  13  22
HETATM   22  C14 UNL     1      18.054  22.695  19.413  1.00  0.00    -0.022 C 
HETATM   23  C15 UNL     1      17.136  21.737  19.400  1.00  0.00     0.006 C 
BRANCH  23  24
HETATM   24  C16 UNL     1      15.865  21.793  18.622  1.00  0.00     0.071 C 
HETATM   25  C17 UNL     1      16.070  21.139  17.272  1.00  0.00     0.050 C 
HETATM   26  C18 UNL     1      15.411  23.217  18.388  1.00  0.00     0.050 C 
BRANCH  24  27
HETATM   27  O5  UNL     1      14.858  21.128  19.324  1.00  0.00    -0.377 OA
BRANCH  27  28
HETATM   28  C19 UNL     1      15.400  20.291  20.267  1.00  0.00     0.170 C 
BRANCH  28  29
HETATM   29  C20 UNL     1      14.849  18.893  20.172  1.00  0.00     0.054 C 
BRANCH  29  30
HETATM   30  C21 UNL     1      13.354  18.823  20.409  1.00  0.00     0.238 C 
BRANCH  30  31
HETATM   31  N2  UNL     1      12.684  18.147  19.316  1.00  0.00    -0.079 N 
HETATM   32  C22 UNL     1      12.181  19.157  18.384  1.00  0.00     0.271 C 
HETATM   33  C23 UNL     1      13.588  17.230  18.635  1.00  0.00     0.271 C 
HETATM   34  C24 UNL     1      11.609  17.357  19.870  1.00  0.00     0.271 C 
ENDBRANCH  30  31
ENDBRANCH  29  30
ENDBRANCH  28  29
ENDBRANCH  27  28
ENDBRANCH  24  27
ENDBRANCH  23  24
ENDBRANCH  13  22
BRANCH   6  35
HETATM   35  O4  UNL     1      23.396  26.954  20.751  1.00  0.00    -0.384 OA
ATOM     36  H4  UNL     1      22.848  26.706  21.486  1.00  0.00     0.211 HD
ENDBRANCH   6  35
BRANCH  21  37
HETATM   37  O6  UNL     1      23.817  27.508  18.497  1.00  0.00    -0.310 OA
BRANCH  37  38
HETATM   38  C33 UNL     1      22.681  27.931  17.833  1.00  0.00     0.259 C 
HETATM   39  O7  UNL     1      21.601  27.968  18.485  1.00  0.00    -0.265 OA
BRANCH  38  40
HETATM   40  C34 UNL     1      22.713  28.332  16.386  1.00  0.00     0.111 C 
BRANCH  40  41
HETATM   41  C35 UNL     1      22.067  27.268  15.525  1.00  0.00     0.010 C 
BRANCH  41  42
HETATM   42  C36 UNL     1      23.034  26.319  14.891  1.00  0.00     0.000 C 
BRANCH  42  43
HETATM   43  C37 UNL     1      22.494  24.926  14.684  1.00  0.00    -0.005 C 
HETATM   44  C38 UNL     1      20.995  24.931  14.945  1.00  0.00     0.005 C 
ENDBRANCH  42  43
ENDBRANCH  41  42
ENDBRANCH  40  41
ENDBRANCH  38  40
ENDBRANCH  37  38
ENDBRANCH  21  37
BRANCH   5  45
HETATM   45  C5  UNL     1      26.536  26.394  21.829  1.00  0.00     0.256 C 
HETATM   46  O2  UNL     1      26.556  27.166  22.854  1.00  0.00    -0.270 OA
HETATM   47  N1  UNL     1      27.323  25.223  21.943  1.00  0.00    -0.237 N 
ATOM     48  H1  UNL     1      27.348  24.572  21.159  1.00  0.00     0.197 HD
BRANCH  47  49
HETATM   49  O3  UNL     1      28.037  24.934  23.041  1.00  0.00    -0.287 OA
ATOM     50  H3  UNL     1      27.647  24.568  23.826  1.00  0.00     0.244 HD
ENDBRANCH  47  49
ENDBRANCH   5  45
TORSDOF 16
ENDMDL
MODEL 4
REMARK VINA RESULT: -8.539896373      2.529      5.463
REMARK  16 active torsions:
REMARK  status: ('A' for Active; 'I' for Inactive)
REMARK    1  A    between atoms: C4_5  and  C5_6 
REMARK       I    between atoms: C5_6  and  N1_8 
REMARK    2  A    between atoms: N1_8  and  O3_10 
REMARK    3  A    between atoms: C6_12  and  O4_13 
REMARK    4  A    between atoms: C13_21  and  C14_22 
REMARK    5  A    between atoms: C15_23  and  C16_24 
REMARK    6  A    between atoms: C16_24  and  O5_27 
REMARK    7  A    between atoms: O5_27  and  C19_28 
REMARK    8  A    between atoms: C19_28  and  C20_29 
REMARK    9  A    between atoms: C20_29  and  C21_30 
REMARK   10  A    between atoms: C21_30  and  N2_31 
REMARK   11  A    between atoms: C32_42  and  O6_43 
REMARK   12  A    between atoms: O6_43  and  C33_44 
REMARK   13  A    between atoms: C33_44  and  C34_46 
REMARK   14  A    between atoms: C34_46  and  C35_47 
REMARK   15  A    between atoms: C35_47  and  C36_48 
REMARK   16  A    between atoms: C36_48  and  C37_49 
ROOT
HETATM    1  C1  UNL     1      21.980  27.730  19.918  1.00  0.00     0.025 C 
HETATM    2  C2  UNL     1      22.043  26.807  18.998  1.00  0.00     0.010 C 
HETATM    3  C3  UNL     1      22.799  26.983  17.761  1.00  0.00     0.173 C 
HETATM    4  O1  UNL     1      23.356  28.093  17.541  1.00  0.00    -0.292 OA
HETATM    5  C4  UNL     1      22.901  25.876  16.798  1.00  0.00     0.193 C 
HETATM    6  C6  UNL     1      21.763  24.925  16.807  1.00  0.00     0.105 C 
HETATM    7  C7  UNL     1      21.153  24.647  15.502  1.00  0.00     0.009 C 
HETATM    8  C8  UNL     1      19.919  24.290  15.351  1.00  0.00    -0.022 C 
HETATM    9  C9  UNL     1      18.997  24.128  16.487  1.00  0.00     0.018 C 
HETATM   10  C10 UNL     1      18.012  23.006  16.292  1.00  0.00     0.002 C 
HETATM   11  C11 UNL     1      16.600  23.493  16.147  1.00  0.00     0.007 C 
HETATM   12  C12 UNL     1      15.733  22.614  17.007  1.00  0.00     0.010 C 
HETATM   13  C13 UNL     1      16.604  21.386  17.183  1.00  0.00     0.016 C 
HETATM   14  C25 UNL     1      17.964  22.008  17.396  1.00  0.00    -0.033 C 
HETATM   15  C26 UNL     1      18.995  20.928  17.113  1.00  0.00     0.016 C 
HETATM   16  C27 UNL     1      18.086  22.574  18.762  1.00  0.00     0.010 C 
HETATM   17  C28 UNL     1      18.821  23.870  18.885  1.00  0.00     0.007 C 
HETATM   18  C29 UNL     1      19.776  24.020  17.757  1.00  0.00     0.008 C 
HETATM   19  C30 UNL     1      20.673  25.238  17.817  1.00  0.00     0.027 C 
HETATM   20  C31 UNL     1      19.832  26.424  17.485  1.00  0.00     0.022 C 
HETATM   21  C32 UNL     1      21.344  25.461  19.131  1.00  0.00     0.179 C 
ENDROOT
BRANCH  13  22
HETATM   22  C14 UNL     1      16.138  20.495  18.236  1.00  0.00    -0.022 C 
HETATM   23  C15 UNL     1      14.866  20.118  18.244  1.00  0.00     0.006 C 
BRANCH  23  24
HETATM   24  C16 UNL     1      14.258  19.213  19.261  1.00  0.00     0.071 C 
HETATM   25  C17 UNL     1      14.873  19.489  20.616  1.00  0.00     0.050 C 
HETATM   26  C18 UNL     1      14.493  17.755  18.929  1.00  0.00     0.050 C 
BRANCH  24  27
HETATM   27  O5  UNL     1      12.880  19.428  19.312  1.00  0.00    -0.377 OA
BRANCH  27  28
HETATM   28  C19 UNL     1      12.234  18.628  18.403  1.00  0.00     0.170 C 
BRANCH  28  29
HETATM   29  C20 UNL     1      11.461  19.428  17.387  1.00  0.00     0.054 C 
BRANCH  29  30
HETATM   30  C21 UNL     1      11.832  19.095  15.957  1.00  0.00     0.238 C 
BRANCH  30  31
HETATM   31  N2  UNL     1      11.538  20.204  15.071  1.00  0.00    -0.079 N 
HETATM   32  C22 UNL     1      10.267  20.802  15.479  1.00  0.00     0.271 C 
HETATM   33  C23 UNL     1      12.603  21.197  15.104  1.00  0.00     0.271 C 
HETATM   34  C24 UNL     1      11.471  19.692  13.721  1.00  0.00     0.271 C 
ENDBRANCH  30  31
ENDBRANCH  29  30
ENDBRANCH  28  29
ENDBRANCH  27  28
ENDBRANCH  24  27
ENDBRANCH  23  24
ENDBRANCH  13  22
BRANCH   6  35
HETATM   35  O4  UNL     1      22.262  23.654  17.245  1.00  0.00    -0.384 OA
ATOM     36  H4  UNL     1      22.291  23.668  18.194  1.00  0.00     0.211 HD
ENDBRANCH   6  35
BRANCH  21  37
HETATM   37  O6  UNL     1      22.404  24.566  19.417  1.00  0.00    -0.310 OA
BRANCH  37  38
HETATM   38  C33 UNL     1      22.382  23.894  20.625  1.00  0.00     0.259 C 
HETATM   39  O7  UNL     1      21.394  23.145  20.860  1.00  0.00    -0.265 OA
BRANCH  38  40
HETATM   40  C34 UNL     1      23.487  24.041  21.631  1.00  0.00     0.111 C 
BRANCH  40  41
HETATM   41  C35 UNL     1      24.514  25.043  21.150  1.00  0.00     0.010 C 
BRANCH  41  42
HETATM   42  C36 UNL     1      24.565  26.304  21.952  1.00  0.00     0.000 C 
BRANCH  42  43
HETATM   43  C37 UNL     1      24.033  26.169  23.357  1.00  0.00    -0.005 C 
HETATM   44  C38 UNL     1      22.790  27.034  23.501  1.00  0.00     0.005 C 
ENDBRANCH  42  43
ENDBRANCH  41  42
ENDBRANCH  40  41
ENDBRANCH  38  40
ENDBRANCH  37  38
ENDBRANCH  21  37
BRANCH   5  45
HETATM   45  C5  UNL     1      23.172  26.327  15.411  1.00  0.00     0.256 C 
HETATM   46  O2  UNL     1      23.940  25.659  14.630  1.00  0.00    -0.270 OA
HETATM   47  N1  UNL     1      22.618  27.502  14.849  1.00  0.00    -0.237 N 
ATOM     48  H1  UNL     1      22.000  28.075  15.425  1.00  0.00     0.197 HD
BRANCH  47  49
HETATM   49  O3  UNL     1      22.871  27.893  13.591  1.00  0.00    -0.287 OA
ATOM     50  H3  UNL     1      22.288  28.462  13.104  1.00  0.00     0.244 HD
ENDBRANCH  47  49
ENDBRANCH   5  45
TORSDOF 16
ENDMDL
MODEL 5
REMARK VINA RESULT: -8.534205232      2.700      9.179
REMARK  16 active torsions:
REMARK  status: ('A' for Active; 'I' for Inactive)
REMARK    1  A    between atoms: C4_5  and  C5_6 
REMARK       I    between atoms: C5_6  and  N1_8 
REMARK    2  A    between atoms: N1_8  and  O3_10 
REMARK    3  A    between atoms: C6_12  and  O4_13 
REMARK    4  A    between atoms: C13_21  and  C14_22 
REMARK    5  A    between atoms: C15_23  and  C16_24 
REMARK    6  A    between atoms: C16_24  and  O5_27 
REMARK    7  A    between atoms: O5_27  and  C19_28 
REMARK    8  A    between atoms: C19_28  and  C20_29 
REMARK    9  A    between atoms: C20_29  and  C21_30 
REMARK   10  A    between atoms: C21_30  and  N2_31 
REMARK   11  A    between atoms: C32_42  and  O6_43 
REMARK   12  A    between atoms: O6_43  and  C33_44 
REMARK   13  A    between atoms: C33_44  and  C34_46 
REMARK   14  A    between atoms: C34_46  and  C35_47 
REMARK   15  A    between atoms: C35_47  and  C36_48 
REMARK   16  A    between atoms: C36_48  and  C37_49 
ROOT
HETATM    1  C1  UNL     1      18.478  20.774  19.937  1.00  0.00     0.025 C 
HETATM    2  C2  UNL     1      18.169  21.817  19.216  1.00  0.00     0.010 C 
HETATM    3  C3  UNL     1      16.906  21.922  18.491  1.00  0.00     0.173 C 
HETATM    4  O1  UNL     1      16.112  20.942  18.506  1.00  0.00    -0.292 OA
HETATM    5  C4  UNL     1      16.578  23.156  17.762  1.00  0.00     0.193 C 
HETATM    6  C6  UNL     1      17.745  23.929  17.273  1.00  0.00     0.105 C 
HETATM    7  C7  UNL     1      17.715  24.300  15.854  1.00  0.00     0.009 C 
HETATM    8  C8  UNL     1      18.779  24.501  15.145  1.00  0.00    -0.022 C 
HETATM    9  C9  UNL     1      20.136  24.374  15.701  1.00  0.00     0.018 C 
HETATM   10  C10 UNL     1      21.109  25.365  15.117  1.00  0.00     0.002 C 
HETATM   11  C11 UNL     1      22.169  24.712  14.281  1.00  0.00     0.007 C 
HETATM   12  C12 UNL     1      23.486  25.333  14.663  1.00  0.00     0.010 C 
HETATM   13  C13 UNL     1      23.046  26.633  15.308  1.00  0.00     0.016 C 
HETATM   14  C25 UNL     1      21.852  26.181  16.116  1.00  0.00    -0.033 C 
HETATM   15  C26 UNL     1      21.033  27.423  16.428  1.00  0.00     0.016 C 
HETATM   16  C27 UNL     1      22.277  25.452  17.336  1.00  0.00     0.010 C 
HETATM   17  C28 UNL     1      21.455  24.266  17.726  1.00  0.00     0.007 C 
HETATM   18  C29 UNL     1      20.076  24.410  17.193  1.00  0.00     0.008 C 
HETATM   19  C30 UNL     1      19.099  23.331  17.611  1.00  0.00     0.027 C 
HETATM   20  C31 UNL     1      19.447  22.099  16.847  1.00  0.00     0.022 C 
HETATM   21  C32 UNL     1      19.089  23.021  19.070  1.00  0.00     0.179 C 
ENDROOT
BRANCH  13  22
HETATM   22  C14 UNL     1      24.108  27.295  16.052  1.00  0.00    -0.022 C 
HETATM   23  C15 UNL     1      25.361  26.892  15.882  1.00  0.00     0.006 C 
BRANCH  23  24
HETATM   24  C16 UNL     1      26.540  27.480  16.580  1.00  0.00     0.071 C 
HETATM   25  C17 UNL     1      26.214  28.889  17.024  1.00  0.00     0.050 C 
HETATM   26  C18 UNL     1      27.754  27.542  15.679  1.00  0.00     0.050 C 
BRANCH  24  27
HETATM   27  O5  UNL     1      26.865  26.695  17.688  1.00  0.00    -0.377 OA
BRANCH  27  28
HETATM   28  C19 UNL     1      26.610  27.375  18.852  1.00  0.00     0.170 C 
BRANCH  28  29
HETATM   29  C20 UNL     1      26.012  26.488  19.911  1.00  0.00     0.054 C 
BRANCH  29  30
HETATM   30  C21 UNL     1      25.229  25.322  19.342  1.00  0.00     0.238 C 
BRANCH  30  31
HETATM   31  N2  UNL     1      25.346  24.152  20.190  1.00  0.00    -0.079 N 
HETATM   32  C22 UNL     1      26.497  23.368  19.743  1.00  0.00     0.271 C 
HETATM   33  C23 UNL     1      25.500  24.532  21.588  1.00  0.00     0.271 C 
HETATM   34  C24 UNL     1      24.119  23.398  20.083  1.00  0.00     0.271 C 
ENDBRANCH  30  31
ENDBRANCH  29  30
ENDBRANCH  28  29
ENDBRANCH  27  28
ENDBRANCH  24  27
ENDBRANCH  23  24
ENDBRANCH  13  22
BRANCH   6  35
HETATM   35  O4  UNL     1      17.757  25.183  17.969  1.00  0.00    -0.384 OA
ATOM     36  H4  UNL     1      16.865  25.508  17.994  1.00  0.00     0.211 HD
ENDBRANCH   6  35
BRANCH  21  37
HETATM   37  O6  UNL     1      18.475  24.005  19.883  1.00  0.00    -0.310 OA
BRANCH  37  38
HETATM   38  C33 UNL     1      19.042  24.282  21.113  1.00  0.00     0.259 C 
HETATM   39  O7  UNL     1      18.271  24.650  22.043  1.00  0.00    -0.265 OA
BRANCH  38  40
HETATM   40  C34 UNL     1      20.519  24.158  21.349  1.00  0.00     0.111 C 
BRANCH  40  41
HETATM   41  C35 UNL     1      21.225  25.447  20.990  1.00  0.00     0.010 C 
BRANCH  41  42
HETATM   42  C36 UNL     1      22.062  26.017  22.091  1.00  0.00     0.000 C 
BRANCH  42  43
HETATM   43  C37 UNL     1      22.826  27.261  21.713  1.00  0.00    -0.005 C 
HETATM   44  C38 UNL     1      22.406  27.696  20.317  1.00  0.00     0.005 C 
ENDBRANCH  42  43
ENDBRANCH  41  42
ENDBRANCH  40  41
ENDBRANCH  38  40
ENDBRANCH  37  38
ENDBRANCH  21  37
BRANCH   5  45
HETATM   45  C5  UNL     1      15.612  22.946  16.655  1.00  0.00     0.256 C 
HETATM   46  O2  UNL     1      15.858  22.125  15.700  1.00  0.00    -0.270 OA
HETATM   47  N1  UNL     1      14.370  23.618  16.565  1.00  0.00    -0.237 N 
ATOM     48  H1  UNL     1      14.121  24.285  17.295  1.00  0.00     0.197 HD
BRANCH  47  49
HETATM   49  O3  UNL     1      13.507  23.414  15.559  1.00  0.00    -0.287 OA
ATOM     50  H3  UNL     1      12.934  24.095  15.227  1.00  0.00     0.244 HD
ENDBRANCH  47  49
ENDBRANCH   5  45
TORSDOF 16
ENDMDL
