MODEL 1
REMARK VINA RESULT: -9.040469325      0.000      0.000
REMARK  14 active torsions:
REMARK  status: ('A' for Active; 'I' for Inactive)
REMARK    1  A    between atoms: C2_2  and  N1_3 
REMARK    2  A    between atoms: N1_3  and  C3_4 
REMARK    3  A    between atoms: N1_3  and  C5_6 
REMARK    4  A    between atoms: C5_6  and  C6_7 
REMARK    5  A    between atoms: C6_7  and  N2_8 
REMARK       I    between atoms: N2_8  and  C7_10 
REMARK    6  A    between atoms: C7_10  and  C8_12 
REMARK    7  A    between atoms: C8_12  and  C9_13 
REMARK    8  A    between atoms: C9_13  and  C10_14 
REMARK       I    between atoms: C10_14  and  N3_16 
REMARK    9  A    between atoms: N3_16  and  C11_18 
REMARK   10  A    between atoms: C13_22  and  C14_23 
REMARK   11  A    between atoms: C17_26  and  N5_27 
REMARK   12  A    between atoms: C20_30  and  N6_31 
REMARK   13  A    between atoms: C30_42  and  C31_43 
REMARK       I    between atoms: C31_43  and  N7_45 
REMARK   14  A    between atoms: N7_45  and  C33_48 
ROOT
HETATM    1  C31 UNL     1      20.938  23.658  17.945  1.00  0.00     0.271 C 
HETATM    2  O3  UNL     1      21.621  23.197  17.024  1.00  0.00    -0.266 OA
HETATM    3  N7  UNL     1      21.493  23.983  19.203  1.00  0.00    -0.251 N 
HETATM    4  C32 UNL     1      20.771  24.502  20.263  1.00  0.00     0.187 C 
HETATM    5  N8  UNL     1      20.165  24.924  21.161  1.00  0.00    -0.172 NA
ENDROOT
BRANCH   3   6
HETATM    6  C33 UNL     1      22.926  23.759  19.410  1.00  0.00     0.140 C 
HETATM    7  C34 UNL     1      23.091  23.307  20.852  1.00  0.00     0.028 C 
ENDBRANCH   3   6
BRANCH   1   8
HETATM    8  C30 UNL     1      19.516  23.874  17.729  1.00  0.00     0.084 A 
HETATM    9  C11 UNL     1      19.104  25.038  17.067  1.00  0.00     0.124 A 
HETATM   10  N4  UNL     1      17.780  25.189  16.901  1.00  0.00    -0.350 N 
HETATM   11  C12 UNL     1      16.894  24.262  17.350  1.00  0.00     0.103 A 
ATOM     12  H4  UNL     1      17.430  26.020  16.425  1.00  0.00     0.166 HD
HETATM   13  C13 UNL     1      17.284  23.113  18.001  1.00  0.00     0.004 A 
HETATM   14  C28 UNL     1      18.621  22.917  18.193  1.00  0.00    -0.029 A 
HETATM   15  C29 UNL     1      19.147  21.698  18.891  1.00  0.00     0.050 C 
BRANCH   9  16
HETATM   16  N3  UNL     1      20.020  25.809  16.694  1.00  0.00    -0.312 N 
HETATM   17  C10 UNL     1      20.384  26.344  15.471  1.00  0.00     0.223 C 
HETATM   18  O2  UNL     1      20.223  27.617  15.355  1.00  0.00    -0.273 OA
ATOM     19  H3  UNL     1      20.627  26.106  17.458  1.00  0.00     0.170 HD
BRANCH  17  20
HETATM   20  C9  UNL     1      20.916  25.497  14.399  1.00  0.00     0.112 C 
BRANCH  20  21
HETATM   21  C8  UNL     1      22.337  25.091  14.526  1.00  0.00     0.112 C 
BRANCH  21  22
HETATM   22  C7  UNL     1      23.215  26.050  15.253  1.00  0.00     0.218 C 
HETATM   23  N2  UNL     1      23.601  25.732  16.573  1.00  0.00    -0.359 N 
ATOM     24  H2  UNL     1      23.286  24.857  16.993  1.00  0.00     0.162 HD
HETATM   25  O1  UNL     1      23.571  27.095  14.666  1.00  0.00    -0.274 OA
BRANCH  23  26
HETATM   26  C6  UNL     1      24.439  26.634  17.337  1.00  0.00     0.152 C 
BRANCH  26  27
HETATM   27  C5  UNL     1      23.726  27.244  18.480  1.00  0.00     0.292 C 
BRANCH  27  28
HETATM   28  N1  UNL     1      24.562  27.381  19.664  1.00  0.00     0.089 N 
BRANCH  28  29
HETATM   29  C2  UNL     1      23.627  27.037  20.814  1.00  0.00     0.268 C 
HETATM   30  C1  UNL     1      22.356  27.802  20.692  1.00  0.00     0.037 C 
ENDBRANCH  28  29
BRANCH  28  31
HETATM   31  C3  UNL     1      25.586  26.391  19.756  1.00  0.00     0.268 C 
HETATM   32  C4  UNL     1      25.786  25.909  21.145  1.00  0.00     0.037 C 
ENDBRANCH  28  31
ENDBRANCH  27  28
ENDBRANCH  26  27
ENDBRANCH  23  26
ENDBRANCH  21  22
ENDBRANCH  20  21
ENDBRANCH  17  20
ENDBRANCH   9  16
BRANCH  13  33
HETATM   33  C14 UNL     1      16.294  22.129  18.463  1.00  0.00     0.019 A 
HETATM   34  C15 UNL     1      16.209  21.582  19.723  1.00  0.00     0.023 A 
HETATM   35  C16 UNL     1      15.224  20.707  19.942  1.00  0.00     0.038 A 
HETATM   36  C17 UNL     1      14.378  20.423  18.907  1.00  0.00     0.072 A 
HETATM   37  S1  UNL     1      14.994  21.397  17.647  1.00  0.00    -0.072 SA
BRANCH  36  38
HETATM   38  N5  UNL     1      13.246  19.526  18.908  1.00  0.00    -0.375 N 
HETATM   39  C18 UNL     1      13.067  18.686  20.062  1.00  0.00     0.125 C 
HETATM   40  C19 UNL     1      12.189  17.494  19.847  1.00  0.00     0.055 C 
HETATM   41  C20 UNL     1      12.207  17.146  18.372  1.00  0.00     0.226 C 
HETATM   42  C26 UNL     1      11.549  18.291  17.649  1.00  0.00     0.055 C 
HETATM   43  C27 UNL     1      12.396  19.551  17.749  1.00  0.00     0.125 C 
BRANCH  41  44
HETATM   44  N6  UNL     1      11.538  15.919  18.123  1.00  0.00     0.093 N 
HETATM   45  C21 UNL     1      11.235  15.599  16.772  1.00  0.00     0.273 C 
HETATM   46  C22 UNL     1      11.129  14.072  16.658  1.00  0.00     0.030 C 
HETATM   47  C23 UNL     1      10.031  13.618  17.559  1.00  0.00     0.003 C 
HETATM   48  C24 UNL     1       9.393  14.753  18.300  1.00  0.00     0.030 C 
HETATM   49  C25 UNL     1      10.428  15.631  18.980  1.00  0.00     0.273 C 
ENDBRANCH  41  44
ENDBRANCH  36  38
ENDBRANCH  13  33
ENDBRANCH   1   8
TORSDOF 14
ENDMDL
MODEL 2
REMARK VINA RESULT: -8.700562569      3.558     12.812
REMARK  14 active torsions:
REMARK  status: ('A' for Active; 'I' for Inactive)
REMARK    1  A    between atoms: C2_2  and  N1_3 
REMARK    2  A    between atoms: N1_3  and  C3_4 
REMARK    3  A    between atoms: N1_3  and  C5_6 
REMARK    4  A    between atoms: C5_6  and  C6_7 
REMARK    5  A    between atoms: C6_7  and  N2_8 
REMARK       I    between atoms: N2_8  and  C7_10 
REMARK    6  A    between atoms: C7_10  and  C8_12 
REMARK    7  A    between atoms: C8_12  and  C9_13 
REMARK    8  A    between atoms: C9_13  and  C10_14 
REMARK       I    between atoms: C10_14  and  N3_16 
REMARK    9  A    between atoms: N3_16  and  C11_18 
REMARK   10  A    between atoms: C13_22  and  C14_23 
REMARK   11  A    between atoms: C17_26  and  N5_27 
REMARK   12  A    between atoms: C20_30  and  N6_31 
REMARK   13  A    between atoms: C30_42  and  C31_43 
REMARK       I    between atoms: C31_43  and  N7_45 
REMARK   14  A    between atoms: N7_45  and  C33_48 
ROOT
HETATM    1  C31 UNL     1      16.710  20.560  17.767  1.00  0.00     0.271 C 
HETATM    2  O3  UNL     1      17.221  19.435  17.732  1.00  0.00    -0.266 OA
HETATM    3  N7  UNL     1      15.736  20.914  18.728  1.00  0.00    -0.251 N 
HETATM    4  C32 UNL     1      15.137  22.158  18.808  1.00  0.00     0.187 C 
HETATM    5  N8  UNL     1      14.620  23.199  18.869  1.00  0.00    -0.172 NA
ENDROOT
BRANCH   3   6
HETATM    6  C33 UNL     1      15.325  19.905  19.706  1.00  0.00     0.140 C 
HETATM    7  C34 UNL     1      15.668  20.463  21.077  1.00  0.00     0.028 C 
ENDBRANCH   3   6
BRANCH   1   8
HETATM    8  C30 UNL     1      17.123  21.554  16.789  1.00  0.00     0.084 A 
HETATM    9  C11 UNL     1      16.456  21.603  15.557  1.00  0.00     0.124 A 
HETATM   10  N4  UNL     1      16.883  22.535  14.689  1.00  0.00    -0.350 N 
HETATM   11  C12 UNL     1      17.902  23.380  14.992  1.00  0.00     0.103 A 
ATOM     12  H4  UNL     1      16.429  22.611  13.778  1.00  0.00     0.166 HD
HETATM   13  C13 UNL     1      18.565  23.344  16.199  1.00  0.00     0.004 A 
HETATM   14  C28 UNL     1      18.166  22.413  17.113  1.00  0.00    -0.029 A 
HETATM   15  C29 UNL     1      18.824  22.293  18.455  1.00  0.00     0.050 C 
BRANCH   9  16
HETATM   16  N3  UNL     1      15.528  20.775  15.403  1.00  0.00    -0.312 N 
HETATM   17  C10 UNL     1      14.332  20.793  14.706  1.00  0.00     0.223 C 
HETATM   18  O2  UNL     1      14.268  19.993  13.698  1.00  0.00    -0.273 OA
ATOM     19  H3  UNL     1      15.688  19.898  15.900  1.00  0.00     0.170 HD
BRANCH  17  20
HETATM   20  C9  UNL     1      13.230  21.673  15.109  1.00  0.00     0.112 C 
BRANCH  20  21
HETATM   21  C8  UNL     1      11.860  21.138  14.918  1.00  0.00     0.112 C 
BRANCH  21  22
HETATM   22  C7  UNL     1      11.461  20.048  15.853  1.00  0.00     0.218 C 
HETATM   23  N2  UNL     1      12.014  20.048  17.151  1.00  0.00    -0.359 N 
ATOM     24  H2  UNL     1      12.657  20.790  17.425  1.00  0.00     0.162 HD
HETATM   25  O1  UNL     1      10.656  19.181  15.448  1.00  0.00    -0.274 OA
BRANCH  23  26
HETATM   26  C6  UNL     1      11.678  19.004  18.098  1.00  0.00     0.152 C 
BRANCH  26  27
HETATM   27  C5  UNL     1      12.680  17.916  18.128  1.00  0.00     0.292 C 
BRANCH  27  28
HETATM   28  N1  UNL     1      12.150  16.670  18.662  1.00  0.00     0.089 N 
BRANCH  28  29
HETATM   29  C2  UNL     1      11.524  17.077  19.988  1.00  0.00     0.268 C 
HETATM   30  C1  UNL     1      12.554  17.091  21.062  1.00  0.00     0.037 C 
ENDBRANCH  28  29
BRANCH  28  31
HETATM   31  C3  UNL     1      11.050  16.152  17.916  1.00  0.00     0.268 C 
HETATM   32  C4  UNL     1      10.137  15.328  18.748  1.00  0.00     0.037 C 
ENDBRANCH  28  31
ENDBRANCH  27  28
ENDBRANCH  26  27
ENDBRANCH  23  26
ENDBRANCH  21  22
ENDBRANCH  20  21
ENDBRANCH  17  20
ENDBRANCH   9  16
BRANCH  13  33
HETATM   33  C14 UNL     1      19.657  24.285  16.493  1.00  0.00     0.019 A 
HETATM   34  C15 UNL     1      19.576  25.415  17.274  1.00  0.00     0.023 A 
HETATM   35  C16 UNL     1      20.692  26.134  17.423  1.00  0.00     0.038 A 
HETATM   36  C17 UNL     1      21.823  25.696  16.794  1.00  0.00     0.072 A 
HETATM   37  S1  UNL     1      21.286  24.280  16.005  1.00  0.00    -0.072 SA
BRANCH  36  38
HETATM   38  N5  UNL     1      23.137  26.296  16.816  1.00  0.00    -0.375 N 
HETATM   39  C18 UNL     1      23.565  27.001  15.638  1.00  0.00     0.125 C 
HETATM   40  C19 UNL     1      25.042  27.209  15.524  1.00  0.00     0.055 C 
HETATM   41  C20 UNL     1      25.739  26.131  16.332  1.00  0.00     0.226 C 
HETATM   42  C26 UNL     1      25.388  26.377  17.775  1.00  0.00     0.055 C 
HETATM   43  C27 UNL     1      23.907  26.130  18.020  1.00  0.00     0.125 C 
BRANCH  41  44
HETATM   44  N6  UNL     1      27.144  26.160  16.125  1.00  0.00     0.093 N 
HETATM   45  C21 UNL     1      27.978  26.015  17.266  1.00  0.00     0.273 C 
HETATM   46  C22 UNL     1      29.326  25.448  16.799  1.00  0.00     0.030 C 
HETATM   47  C23 UNL     1      29.925  26.417  15.837  1.00  0.00     0.003 C 
HETATM   48  C24 UNL     1      29.047  27.609  15.605  1.00  0.00     0.030 C 
HETATM   49  C25 UNL     1      27.625  27.200  15.266  1.00  0.00     0.273 C 
ENDBRANCH  41  44
ENDBRANCH  36  38
ENDBRANCH  13  33
ENDBRANCH   1   8
TORSDOF 14
ENDMDL
MODEL 3
REMARK VINA RESULT: -8.623571573      1.237      1.833
REMARK  14 active torsions:
REMARK  status: ('A' for Active; 'I' for Inactive)
REMARK    1  A    between atoms: C2_2  and  N1_3 
REMARK    2  A    between atoms: N1_3  and  C3_4 
REMARK    3  A    between atoms: N1_3  and  C5_6 
REMARK    4  A    between atoms: C5_6  and  C6_7 
REMARK    5  A    between atoms: C6_7  and  N2_8 
REMARK       I    between atoms: N2_8  and  C7_10 
REMARK    6  A    between atoms: C7_10  and  C8_12 
REMARK    7  A    between atoms: C8_12  and  C9_13 
REMARK    8  A    between atoms: C9_13  and  C10_14 
REMARK       I    between atoms: C10_14  and  N3_16 
REMARK    9  A    between atoms: N3_16  and  C11_18 
REMARK   10  A    between atoms: C13_22  and  C14_23 
REMARK   11  A    between atoms: C17_26  and  N5_27 
REMARK   12  A    between atoms: C20_30  and  N6_31 
REMARK   13  A    between atoms: C30_42  and  C31_43 
REMARK       I    between atoms: C31_43  and  N7_45 
REMARK   14  A    between atoms: N7_45  and  C33_48 
ROOT
HETATM    1  C31 UNL     1      20.885  23.530  18.058  1.00  0.00     0.271 C 
HETATM    2  O3  UNL     1      21.610  23.081  17.163  1.00  0.00    -0.266 OA
HETATM    3  N7  UNL     1      21.381  23.833  19.346  1.00  0.00    -0.251 N 
HETATM    4  C32 UNL     1      20.612  24.337  20.379  1.00  0.00     0.187 C 
HETATM    5  N8  UNL     1      19.965  24.747  21.255  1.00  0.00    -0.172 NA
ENDROOT
BRANCH   3   6
HETATM    6  C33 UNL     1      22.802  23.602  19.616  1.00  0.00     0.140 C 
HETATM    7  C34 UNL     1      23.383  24.934  20.060  1.00  0.00     0.028 C 
ENDBRANCH   3   6
BRANCH   1   8
HETATM    8  C30 UNL     1      19.475  23.752  17.780  1.00  0.00     0.084 A 
HETATM    9  C11 UNL     1      19.100  24.914  17.091  1.00  0.00     0.124 A 
HETATM   10  N4  UNL     1      17.785  25.071  16.867  1.00  0.00    -0.350 N 
HETATM   11  C12 UNL     1      16.875  24.154  17.285  1.00  0.00     0.103 A 
ATOM     12  H4  UNL     1      17.461  25.901  16.370  1.00  0.00     0.166 HD
HETATM   13  C13 UNL     1      17.229  23.007  17.962  1.00  0.00     0.004 A 
HETATM   14  C28 UNL     1      18.555  22.805  18.213  1.00  0.00    -0.029 A 
HETATM   15  C29 UNL     1      19.042  21.589  18.942  1.00  0.00     0.050 C 
BRANCH   9  16
HETATM   16  N3  UNL     1      20.035  25.676  16.753  1.00  0.00    -0.312 N 
HETATM   17  C10 UNL     1      20.448  26.208  15.544  1.00  0.00     0.223 C 
HETATM   18  O2  UNL     1      20.304  27.483  15.423  1.00  0.00    -0.273 OA
ATOM     19  H3  UNL     1      20.618  25.966  17.538  1.00  0.00     0.170 HD
BRANCH  17  20
HETATM   20  C9  UNL     1      21.011  25.356  14.490  1.00  0.00     0.112 C 
BRANCH  20  21
HETATM   21  C8  UNL     1      22.435  24.975  14.644  1.00  0.00     0.112 C 
BRANCH  21  22
HETATM   22  C7  UNL     1      23.318  26.020  15.234  1.00  0.00     0.218 C 
HETATM   23  N2  UNL     1      23.854  25.791  16.519  1.00  0.00    -0.359 N 
ATOM     24  H2  UNL     1      23.640  24.922  17.007  1.00  0.00     0.162 HD
HETATM   25  O1  UNL     1      23.546  27.053  14.568  1.00  0.00    -0.274 OA
BRANCH  23  26
HETATM   26  C6  UNL     1      24.705  26.779  17.153  1.00  0.00     0.152 C 
BRANCH  26  27
HETATM   27  C5  UNL     1      25.932  26.188  17.729  1.00  0.00     0.292 C 
BRANCH  27  28
HETATM   28  N1  UNL     1      26.858  25.701  16.716  1.00  0.00     0.089 N 
BRANCH  28  29
HETATM   29  C2  UNL     1      27.802  26.872  16.488  1.00  0.00     0.268 C 
HETATM   30  C1  UNL     1      27.976  27.119  15.031  1.00  0.00     0.037 C 
ENDBRANCH  28  29
BRANCH  28  31
HETATM   31  C3  UNL     1      27.717  24.662  17.182  1.00  0.00     0.268 C 
HETATM   32  C4  UNL     1      27.420  24.264  18.581  1.00  0.00     0.037 C 
ENDBRANCH  28  31
ENDBRANCH  27  28
ENDBRANCH  26  27
ENDBRANCH  23  26
ENDBRANCH  21  22
ENDBRANCH  20  21
ENDBRANCH  17  20
ENDBRANCH   9  16
BRANCH  13  33
HETATM   33  C14 UNL     1      16.213  22.034  18.388  1.00  0.00     0.019 A 
HETATM   34  C15 UNL     1      16.071  21.496  19.647  1.00  0.00     0.023 A 
HETATM   35  C16 UNL     1      15.072  20.629  19.831  1.00  0.00     0.038 A 
HETATM   36  C17 UNL     1      14.269  20.344  18.763  1.00  0.00     0.072 A 
HETATM   37  S1  UNL     1      14.944  21.304  17.523  1.00  0.00    -0.072 SA
BRANCH  36  38
HETATM   38  N5  UNL     1      13.131  19.454  18.723  1.00  0.00    -0.375 N 
HETATM   39  C18 UNL     1      12.846  18.688  19.906  1.00  0.00     0.125 C 
HETATM   40  C19 UNL     1      11.977  17.489  19.691  1.00  0.00     0.055 C 
HETATM   41  C20 UNL     1      12.117  17.051  18.247  1.00  0.00     0.226 C 
HETATM   42  C26 UNL     1      11.534  18.153  17.402  1.00  0.00     0.055 C 
HETATM   43  C27 UNL     1      12.382  19.412  17.496  1.00  0.00     0.125 C 
BRANCH  41  44
HETATM   44  N6  UNL     1      11.458  15.814  18.018  1.00  0.00     0.093 N 
HETATM   45  C21 UNL     1      11.117  15.491  16.676  1.00  0.00     0.273 C 
HETATM   46  C22 UNL     1      11.031  13.963  16.564  1.00  0.00     0.030 C 
HETATM   47  C23 UNL     1       9.969  13.492  17.498  1.00  0.00     0.003 C 
HETATM   48  C24 UNL     1       9.338  14.616  18.261  1.00  0.00     0.030 C 
HETATM   49  C25 UNL     1      10.381  15.508  18.909  1.00  0.00     0.273 C 
ENDBRANCH  41  44
ENDBRANCH  36  38
ENDBRANCH  13  33
ENDBRANCH   1   8
TORSDOF 14
ENDMDL
MODEL 4
REMARK VINA RESULT: -8.534555985      3.362     10.578
REMARK  14 active torsions:
REMARK  status: ('A' for Active; 'I' for Inactive)
REMARK    1  A    between atoms: C2_2  and  N1_3 
REMARK    2  A    between atoms: N1_3  and  C3_4 
REMARK    3  A    between atoms: N1_3  and  C5_6 
REMARK    4  A    between atoms: C5_6  and  C6_7 
REMARK    5  A    between atoms: C6_7  and  N2_8 
REMARK       I    between atoms: N2_8  and  C7_10 
REMARK    6  A    between atoms: C7_10  and  C8_12 
REMARK    7  A    between atoms: C8_12  and  C9_13 
REMARK    8  A    between atoms: C9_13  and  C10_14 
REMARK       I    between atoms: C10_14  and  N3_16 
REMARK    9  A    between atoms: N3_16  and  C11_18 
REMARK   10  A    between atoms: C13_22  and  C14_23 
REMARK   11  A    between atoms: C17_26  and  N5_27 
REMARK   12  A    between atoms: C20_30  and  N6_31 
REMARK   13  A    between atoms: C30_42  and  C31_43 
REMARK       I    between atoms: C31_43  and  N7_45 
REMARK   14  A    between atoms: N7_45  and  C33_48 
ROOT
HETATM    1  C31 UNL     1      16.694  20.505  18.104  1.00  0.00     0.271 C 
HETATM    2  O3  UNL     1      17.069  20.075  17.007  1.00  0.00    -0.266 OA
HETATM    3  N7  UNL     1      16.065  19.676  19.060  1.00  0.00    -0.251 N 
HETATM    4  C32 UNL     1      15.629  20.109  20.300  1.00  0.00     0.187 C 
HETATM    5  N8  UNL     1      15.248  20.473  21.337  1.00  0.00    -0.172 NA
ENDROOT
BRANCH   3   6
HETATM    6  C33 UNL     1      15.854  18.266  18.728  1.00  0.00     0.140 C 
HETATM    7  C34 UNL     1      14.363  18.004  18.867  1.00  0.00     0.028 C 
ENDBRANCH   3   6
BRANCH   1   8
HETATM    8  C30 UNL     1      16.905  21.907  18.423  1.00  0.00     0.084 A 
HETATM    9  C11 UNL     1      15.858  22.813  18.206  1.00  0.00     0.124 A 
HETATM   10  N4  UNL     1      16.110  24.096  18.511  1.00  0.00    -0.350 N 
HETATM   11  C12 UNL     1      17.314  24.489  19.003  1.00  0.00     0.103 A 
ATOM     12  H4  UNL     1      15.379  24.793  18.370  1.00  0.00     0.166 HD
HETATM   13  C13 UNL     1      18.352  23.611  19.222  1.00  0.00     0.004 A 
HETATM   14  C28 UNL     1      18.141  22.296  18.926  1.00  0.00    -0.029 A 
HETATM   15  C29 UNL     1      19.208  21.262  19.130  1.00  0.00     0.050 C 
BRANCH   9  16
HETATM   16  N3  UNL     1      14.795  22.323  17.756  1.00  0.00    -0.312 N 
HETATM   17  C10 UNL     1      14.357  21.982  16.488  1.00  0.00     0.223 C 
HETATM   18  O2  UNL     1      14.203  20.720  16.277  1.00  0.00    -0.273 OA
ATOM     19  H3  UNL     1      14.104  22.134  18.482  1.00  0.00     0.170 HD
BRANCH  17  20
HETATM   20  C9  UNL     1      14.093  23.009  15.474  1.00  0.00     0.112 C 
BRANCH  20  21
HETATM   21  C8  UNL     1      14.989  23.010  14.292  1.00  0.00     0.112 C 
BRANCH  21  22
HETATM   22  C7  UNL     1      16.436  22.810  14.584  1.00  0.00     0.218 C 
HETATM   23  N2  UNL     1      17.141  23.860  15.210  1.00  0.00    -0.359 N 
ATOM     24  H2  UNL     1      16.650  24.719  15.459  1.00  0.00     0.162 HD
HETATM   25  O1  UNL     1      16.964  21.724  14.262  1.00  0.00    -0.274 OA
BRANCH  23  26
HETATM   26  C6  UNL     1      18.555  23.732  15.503  1.00  0.00     0.152 C 
BRANCH  26  27
HETATM   27  C5  UNL     1      19.173  25.014  15.903  1.00  0.00     0.292 C 
BRANCH  27  28
HETATM   28  N1  UNL     1      20.359  25.341  15.125  1.00  0.00     0.089 N 
BRANCH  28  29
HETATM   29  C2  UNL     1      20.844  26.651  15.728  1.00  0.00     0.268 C 
HETATM   30  C1  UNL     1      20.703  27.757  14.742  1.00  0.00     0.037 C 
ENDBRANCH  28  29
BRANCH  28  31
HETATM   31  C3  UNL     1      21.449  24.446  15.344  1.00  0.00     0.268 C 
HETATM   32  C4  UNL     1      22.623  24.763  14.493  1.00  0.00     0.037 C 
ENDBRANCH  28  31
ENDBRANCH  27  28
ENDBRANCH  26  27
ENDBRANCH  23  26
ENDBRANCH  21  22
ENDBRANCH  20  21
ENDBRANCH  17  20
ENDBRANCH   9  16
BRANCH  13  33
HETATM   33  C14 UNL     1      19.636  24.076  19.766  1.00  0.00     0.019 A 
HETATM   34  C15 UNL     1      19.860  24.564  21.034  1.00  0.00     0.023 A 
HETATM   35  C16 UNL     1      21.110  24.928  21.335  1.00  0.00     0.038 A 
HETATM   36  C17 UNL     1      22.066  24.789  20.370  1.00  0.00     0.072 A 
HETATM   37  S1  UNL     1      21.180  24.148  19.058  1.00  0.00    -0.072 SA
BRANCH  36  38
HETATM   38  N5  UNL     1      23.473  25.102  20.465  1.00  0.00    -0.375 N 
HETATM   39  C18 UNL     1      23.943  26.265  19.761  1.00  0.00     0.125 C 
HETATM   40  C19 UNL     1      25.417  26.303  19.512  1.00  0.00     0.055 C 
HETATM   41  C20 UNL     1      25.940  24.879  19.518  1.00  0.00     0.226 C 
HETATM   42  C26 UNL     1      25.760  24.359  20.920  1.00  0.00     0.055 C 
HETATM   43  C27 UNL     1      24.284  24.218  21.258  1.00  0.00     0.125 C 
BRANCH  41  44
HETATM   44  N6  UNL     1      27.300  24.828  19.113  1.00  0.00     0.093 N 
HETATM   45  C21 UNL     1      27.568  24.494  17.757  1.00  0.00     0.273 C 
HETATM   46  C22 UNL     1      28.930  25.095  17.382  1.00  0.00     0.030 C 
HETATM   47  C23 UNL     1      29.960  24.496  18.278  1.00  0.00     0.003 C 
HETATM   48  C24 UNL     1      29.371  23.533  19.263  1.00  0.00     0.030 C 
HETATM   49  C25 UNL     1      28.187  24.135  19.997  1.00  0.00     0.273 C 
ENDBRANCH  41  44
ENDBRANCH  36  38
ENDBRANCH  13  33
ENDBRANCH   1   8
TORSDOF 14
ENDMDL
MODEL 5
REMARK VINA RESULT: -8.474435430      1.288      1.493
REMARK  14 active torsions:
REMARK  status: ('A' for Active; 'I' for Inactive)
REMARK    1  A    between atoms: C2_2  and  N1_3 
REMARK    2  A    between atoms: N1_3  and  C3_4 
REMARK    3  A    between atoms: N1_3  and  C5_6 
REMARK    4  A    between atoms: C5_6  and  C6_7 
REMARK    5  A    between atoms: C6_7  and  N2_8 
REMARK       I    between atoms: N2_8  and  C7_10 
REMARK    6  A    between atoms: C7_10  and  C8_12 
REMARK    7  A    between atoms: C8_12  and  C9_13 
REMARK    8  A    between atoms: C9_13  and  C10_14 
REMARK       I    between atoms: C10_14  and  N3_16 
REMARK    9  A    between atoms: N3_16  and  C11_18 
REMARK   10  A    between atoms: C13_22  and  C14_23 
REMARK   11  A    between atoms: C17_26  and  N5_27 
REMARK   12  A    between atoms: C20_30  and  N6_31 
REMARK   13  A    between atoms: C30_42  and  C31_43 
REMARK       I    between atoms: C31_43  and  N7_45 
REMARK   14  A    between atoms: N7_45  and  C33_48 
ROOT
HETATM    1  C31 UNL     1      20.697  23.793  18.187  1.00  0.00     0.271 C 
HETATM    2  O3  UNL     1      21.707  23.535  17.520  1.00  0.00    -0.266 OA
HETATM    3  N7  UNL     1      20.719  23.833  19.599  1.00  0.00    -0.251 N 
HETATM    4  C32 UNL     1      19.619  24.118  20.387  1.00  0.00     0.187 C 
HETATM    5  N8  UNL     1      18.692  24.341  21.054  1.00  0.00    -0.172 NA
ENDROOT
BRANCH   3   6
HETATM    6  C33 UNL     1      21.984  23.558  20.283  1.00  0.00     0.140 C 
HETATM    7  C34 UNL     1      21.958  22.089  20.671  1.00  0.00     0.028 C 
ENDBRANCH   3   6
BRANCH   1   8
HETATM    8  C30 UNL     1      19.446  24.061  17.497  1.00  0.00     0.084 A 
HETATM    9  C11 UNL     1      19.257  25.320  16.910  1.00  0.00     0.124 A 
HETATM   10  N4  UNL     1      18.081  25.515  16.292  1.00  0.00    -0.350 N 
HETATM   11  C12 UNL     1      17.132  24.545  16.239  1.00  0.00     0.103 A 
ATOM     12  H4  UNL     1      17.895  26.415  15.850  1.00  0.00     0.166 HD
HETATM   13  C13 UNL     1      17.305  23.303  16.810  1.00  0.00     0.004 A 
HETATM   14  C28 UNL     1      18.485  23.058  17.450  1.00  0.00    -0.029 A 
HETATM   15  C29 UNL     1      18.769  21.739  18.102  1.00  0.00     0.050 C 
BRANCH   9  16
HETATM   16  N3  UNL     1      20.212  26.125  17.021  1.00  0.00    -0.312 N 
HETATM   17  C10 UNL     1      21.028  26.774  16.112  1.00  0.00     0.223 C 
HETATM   18  O2  UNL     1      20.878  28.052  16.049  1.00  0.00    -0.273 OA
ATOM     19  H3  UNL     1      20.435  26.348  17.991  1.00  0.00     0.170 HD
BRANCH  17  20
HETATM   20  C9  UNL     1      21.992  26.033  15.291  1.00  0.00     0.112 C 
BRANCH  20  21
HETATM   21  C8  UNL     1      23.348  26.623  15.176  1.00  0.00     0.112 C 
BRANCH  21  22
HETATM   22  C7  UNL     1      24.106  26.740  16.454  1.00  0.00     0.218 C 
HETATM   23  N2  UNL     1      23.836  25.806  17.477  1.00  0.00    -0.359 N 
ATOM     24  H2  UNL     1      23.147  25.072  17.320  1.00  0.00     0.162 HD
HETATM   25  O1  UNL     1      24.946  27.659  16.566  1.00  0.00    -0.274 OA
BRANCH  23  26
HETATM   26  C6  UNL     1      24.528  25.880  18.748  1.00  0.00     0.152 C 
BRANCH  26  27
HETATM   27  C5  UNL     1      23.806  26.702  19.744  1.00  0.00     0.292 C 
BRANCH  27  28
HETATM   28  N1  UNL     1      24.431  26.679  21.059  1.00  0.00     0.089 N 
BRANCH  28  29
HETATM   29  C2  UNL     1      23.255  26.721  22.023  1.00  0.00     0.268 C 
HETATM   30  C1  UNL     1      22.088  27.390  21.386  1.00  0.00     0.037 C 
ENDBRANCH  28  29
BRANCH  28  31
HETATM   31  C3  UNL     1      25.072  25.442  21.364  1.00  0.00     0.268 C 
HETATM   32  C4  UNL     1      24.564  24.834  22.618  1.00  0.00     0.037 C 
ENDBRANCH  28  31
ENDBRANCH  27  28
ENDBRANCH  26  27
ENDBRANCH  23  26
ENDBRANCH  21  22
ENDBRANCH  20  21
ENDBRANCH  17  20
ENDBRANCH   9  16
BRANCH  13  33
HETATM   33  C14 UNL     1      16.256  22.275  16.721  1.00  0.00     0.019 A 
HETATM   34  C15 UNL     1      15.986  21.473  15.637  1.00  0.00     0.023 A 
HETATM   35  C16 UNL     1      14.990  20.591  15.763  1.00  0.00     0.038 A 
HETATM   36  C17 UNL     1      14.319  20.552  16.953  1.00  0.00     0.072 A 
HETATM   37  S1  UNL     1      15.108  21.760  17.865  1.00  0.00    -0.072 SA
BRANCH  36  38
HETATM   38  N5  UNL     1      13.225  19.685  17.324  1.00  0.00    -0.375 N 
HETATM   39  C18 UNL     1      13.235  19.137  18.654  1.00  0.00     0.125 C 
HETATM   40  C19 UNL     1      12.371  17.931  18.849  1.00  0.00     0.055 C 
HETATM   41  C20 UNL     1      12.192  17.250  17.506  1.00  0.00     0.226 C 
HETATM   42  C26 UNL     1      11.404  18.198  16.642  1.00  0.00     0.055 C 
HETATM   43  C27 UNL     1      12.220  19.443  16.325  1.00  0.00     0.125 C 
BRANCH  41  44
HETATM   44  N6  UNL     1      11.530  16.001  17.647  1.00  0.00     0.093 N 
HETATM   45  C21 UNL     1      10.944  15.435  16.482  1.00  0.00     0.273 C 
HETATM   46  C22 UNL     1      10.873  13.914  16.679  1.00  0.00     0.030 C 
HETATM   47  C23 UNL     1      10.022  13.643  17.873  1.00  0.00     0.003 C 
HETATM   48  C24 UNL     1       9.524  14.901  18.517  1.00  0.00     0.030 C 
HETATM   49  C25 UNL     1      10.652  15.885  18.771  1.00  0.00     0.273 C 
ENDBRANCH  41  44
ENDBRANCH  36  38
ENDBRANCH  13  33
ENDBRANCH   1   8
TORSDOF 14
ENDMDL
