MODEL 1
REMARK VINA RESULT: -8.215846748      0.000      0.000
REMARK  17 active torsions:
REMARK  status: ('A' for Active; 'I' for Inactive)
REMARK    1  A    between atoms: O1_2  and  C2_3 
REMARK    2  A    between atoms: C2_3  and  O2_4 
REMARK    3  A    between atoms: C2_3  and  C3_6 
REMARK    4  A    between atoms: C3_6  and  C4_7 
REMARK    5  A    between atoms: C3_6  and  N4_20 
REMARK    6  A    between atoms: C4_7  and  S1_8 
REMARK    7  A    between atoms: S1_8  and  C5_9 
REMARK    8  A    between atoms: C5_9  and  C6_10 
REMARK    9  A    between atoms: C7_16  and  N3_17 
REMARK   10  A    between atoms: N4_20  and  N5_22 
REMARK       I    between atoms: N9_30  and  C9_32 
REMARK   11  A    between atoms: C9_32  and  C10_34 
REMARK   12  A    between atoms: C11_37  and  O5_38 
REMARK   13  A    between atoms: C12_41  and  C13_42 
REMARK   14  A    between atoms: C13_42  and  N11_43 
REMARK       I    between atoms: N11_43  and  C14_44 
REMARK   15  A    between atoms: C14_44  and  O7_46 
REMARK   16  A    between atoms: O7_46  and  C15_47 
REMARK   17  A    between atoms: C21_54  and  O8_55 
ROOT
HETATM    1  N5  UNL     1      -5.018  -8.736 -26.380  1.00  0.00    -0.142 N 
HETATM    2  N6  UNL     1      -4.220  -8.760 -25.328  1.00  0.00    -0.204 N 
ATOM      3  H6  UNL     1      -3.255  -8.440 -25.412  1.00  0.00     0.212 HD
HETATM    4  N7  UNL     1      -4.674  -9.200 -24.161  1.00  0.00    -0.225 N 
ATOM      5  H7  UNL     1      -4.051  -9.210 -23.353  1.00  0.00     0.210 HD
HETATM    6  N8  UNL     1      -5.919  -9.624 -24.025  1.00  0.00    -0.265 N 
ATOM      7  H8  UNL     1      -6.226  -9.951 -23.110  1.00  0.00     0.190 HD
HETATM    8  C8  UNL     1      -6.776  -9.642 -25.018  1.00  0.00     0.197 A 
HETATM    9  N9  UNL     1      -8.009  -9.918 -25.013  1.00  0.00    -0.302 N 
ATOM     10  H9  UNL     1      -8.471  -9.869 -25.921  1.00  0.00     0.171 HD
HETATM   11  C9  UNL     1      -8.826 -10.276 -23.952  1.00  0.00     0.275 C 
HETATM   12  O4  UNL     1      -8.981 -11.454 -23.594  1.00  0.00    -0.266 OA
HETATM   13  C22 UNL     1      -6.288  -9.165 -26.291  1.00  0.00     0.328 A 
HETATM   14  O9  UNL     1      -7.053  -9.155 -27.286  1.00  0.00    -0.260 OA
ENDROOT
BRANCH  11  15
HETATM   15  C10 UNL     1      -9.569  -9.165 -23.223  1.00  0.00     0.119 A 
HETATM   16  N10 UNL     1     -10.843  -8.978 -23.456  1.00  0.00    -0.326 N 
HETATM   17  C11 UNL     1     -11.491  -8.050 -22.730  1.00  0.00     0.185 A 
ATOM     18  H10 UNL     1     -11.330  -9.522 -24.169  1.00  0.00     0.168 HD
HETATM   19  S2  UNL     1     -10.305  -7.435 -21.714  1.00  0.00    -0.046 SA
HETATM   20  C12 UNL     1      -8.970  -8.434 -22.292  1.00  0.00     0.049 A 
BRANCH  17  21
HETATM   21  O5  UNL     1     -12.750  -7.740 -22.820  1.00  0.00    -0.341 OA
ATOM     22  H5  UNL     1     -13.364  -7.661 -22.099  1.00  0.00     0.220 HD
ENDBRANCH  17  21
BRANCH  20  23
HETATM   23  C13 UNL     1      -7.582  -8.309 -21.700  1.00  0.00     0.273 C 
BRANCH  23  24
HETATM   24  N11 UNL     1      -6.938  -7.234 -22.411  1.00  0.00    -0.385 NA
HETATM   25  C14 UNL     1      -6.373  -6.262 -23.046  1.00  0.00     0.435 C 
HETATM   26  O6  UNL     1      -6.719  -5.053 -23.285  1.00  0.00    -0.221 OA
BRANCH  25  27
HETATM   27  O7  UNL     1      -5.060  -6.466 -23.670  1.00  0.00    -0.284 OA
BRANCH  27  28
HETATM   28  C15 UNL     1      -3.940  -5.767 -23.200  1.00  0.00     0.170 C 
HETATM   29  C16 UNL     1      -2.914  -5.462 -24.295  1.00  0.00     0.042 C 
HETATM   30  C17 UNL     1      -3.286  -4.288 -25.127  1.00  0.00     0.014 C 
HETATM   31  C18 UNL     1      -1.578  -5.251 -23.656  1.00  0.00     0.279 C 
HETATM   32  N12 UNL     1      -1.630  -4.830 -22.299  1.00  0.00     0.087 N 
HETATM   33  C19 UNL     1      -0.270  -4.659 -21.865  1.00  0.00     0.310 C 
HETATM   34  C20 UNL     1      -2.280  -5.777 -21.401  1.00  0.00     0.306 C 
HETATM   35  C21 UNL     1      -3.280  -6.634 -22.133  1.00  0.00     0.176 C 
BRANCH  35  36
HETATM   36  O8  UNL     1      -2.692  -7.761 -22.693  1.00  0.00    -0.391 OA
ATOM     37  H8  UNL     1      -1.859  -7.956 -22.279  1.00  0.00     0.210 HD
ENDBRANCH  35  36
ENDBRANCH  27  28
ENDBRANCH  25  27
ENDBRANCH  23  24
ENDBRANCH  20  23
ENDBRANCH  11  15
BRANCH   1  38
HETATM   38  N4  UNL     1      -4.592  -8.237 -27.595  1.00  0.00    -0.301 N 
ATOM     39  H4  UNL     1      -4.377  -8.855 -28.378  1.00  0.00     0.183 HD
BRANCH  38  40
HETATM   40  C3  UNL     1      -4.459  -6.746 -27.715  1.00  0.00     0.165 C 
BRANCH  40  41
HETATM   41  C2  UNL     1      -5.637  -6.246 -28.369  1.00  0.00     0.280 C 
BRANCH  41  42
HETATM   42  O1  UNL     1      -6.140  -4.979 -28.226  1.00  0.00    -0.364 OA
HETATM   43  C1  UNL     1      -7.538  -4.726 -28.007  1.00  0.00     0.204 C 
ENDBRANCH  41  42
BRANCH  41  44
HETATM   44  O2  UNL     1      -6.327  -6.998 -29.174  1.00  0.00    -0.369 OA
ATOM     45  H2  UNL     1      -5.990  -7.020 -30.062  1.00  0.00     0.212 HD
ENDBRANCH  41  44
ENDBRANCH  40  41
BRANCH  40  46
HETATM   46  C4  UNL     1      -3.154  -6.492 -28.353  1.00  0.00     0.106 C 
BRANCH  46  47
HETATM   47  S1  UNL     1      -2.795  -5.446 -29.621  1.00  0.00    -0.161 SA
BRANCH  47  48
HETATM   48  C5  UNL     1      -2.493  -5.779 -31.296  1.00  0.00     0.137 C 
BRANCH  48  49
HETATM   49  C6  UNL     1      -1.636  -4.712 -31.951  1.00  0.00     0.088 A 
HETATM   50  N1  UNL     1      -2.033  -3.915 -33.006  1.00  0.00    -0.241 N 
HETATM   51  O3  UNL     1      -1.069  -2.992 -33.157  1.00  0.00    -0.155 OA
ATOM     52  H1  UNL     1      -2.885  -4.008 -33.559  1.00  0.00     0.196 HD
HETATM   53  N2  UNL     1      -0.110  -3.179 -32.254  1.00  0.00    -0.224 N 
HETATM   54  C7  UNL     1      -0.451  -4.225 -31.524  1.00  0.00     0.146 A 
ATOM     55  H2  UNL     1       0.734  -2.617 -32.145  1.00  0.00     0.198 HD
BRANCH  54  56
HETATM   56  N3  UNL     1       0.229  -4.815 -30.574  1.00  0.00    -0.382 N 
ATOM     57  H32 UNL     1       1.140  -5.270 -30.630  1.00  0.00     0.157 HD
ATOM     58  H31 UNL     1      -0.158  -4.933 -29.638  1.00  0.00     0.157 HD
ENDBRANCH  54  56
ENDBRANCH  48  49
ENDBRANCH  47  48
ENDBRANCH  46  47
ENDBRANCH  40  46
ENDBRANCH  38  40
ENDBRANCH   1  38
TORSDOF 17
ENDMDL
MODEL 2
REMARK VINA RESULT: -8.093172819      2.249      3.187
REMARK  17 active torsions:
REMARK  status: ('A' for Active; 'I' for Inactive)
REMARK    1  A    between atoms: O1_2  and  C2_3 
REMARK    2  A    between atoms: C2_3  and  O2_4 
REMARK    3  A    between atoms: C2_3  and  C3_6 
REMARK    4  A    between atoms: C3_6  and  C4_7 
REMARK    5  A    between atoms: C3_6  and  N4_20 
REMARK    6  A    between atoms: C4_7  and  S1_8 
REMARK    7  A    between atoms: S1_8  and  C5_9 
REMARK    8  A    between atoms: C5_9  and  C6_10 
REMARK    9  A    between atoms: C7_16  and  N3_17 
REMARK   10  A    between atoms: N4_20  and  N5_22 
REMARK       I    between atoms: N9_30  and  C9_32 
REMARK   11  A    between atoms: C9_32  and  C10_34 
REMARK   12  A    between atoms: C11_37  and  O5_38 
REMARK   13  A    between atoms: C12_41  and  C13_42 
REMARK   14  A    between atoms: C13_42  and  N11_43 
REMARK       I    between atoms: N11_43  and  C14_44 
REMARK   15  A    between atoms: C14_44  and  O7_46 
REMARK   16  A    between atoms: O7_46  and  C15_47 
REMARK   17  A    between atoms: C21_54  and  O8_55 
ROOT
HETATM    1  N5  UNL     1      -4.977  -8.897 -25.872  1.00  0.00    -0.142 N 
HETATM    2  N6  UNL     1      -4.267  -8.873 -24.758  1.00  0.00    -0.204 N 
ATOM      3  H6  UNL     1      -3.294  -8.570 -24.779  1.00  0.00     0.212 HD
HETATM    4  N7  UNL     1      -4.822  -9.245 -23.611  1.00  0.00    -0.225 N 
ATOM      5  H7  UNL     1      -4.268  -9.220 -22.755  1.00  0.00     0.210 HD
HETATM    6  N8  UNL     1      -6.081  -9.646 -23.556  1.00  0.00    -0.265 N 
ATOM      7  H8  UNL     1      -6.467  -9.921 -22.653  1.00  0.00     0.190 HD
HETATM    8  C8  UNL     1      -6.854  -9.707 -24.614  1.00  0.00     0.197 A 
HETATM    9  N9  UNL     1      -8.088  -9.968 -24.695  1.00  0.00    -0.302 N 
ATOM     10  H9  UNL     1      -8.473  -9.962 -25.640  1.00  0.00     0.171 HD
HETATM   11  C9  UNL     1      -8.995 -10.259 -23.688  1.00  0.00     0.275 C 
HETATM   12  O4  UNL     1      -9.197 -11.415 -23.283  1.00  0.00    -0.266 OA
HETATM   13  C22 UNL     1      -6.257  -9.305 -25.865  1.00  0.00     0.328 A 
HETATM   14  O9  UNL     1      -6.938  -9.339 -26.919  1.00  0.00    -0.260 OA
ENDROOT
BRANCH  11  15
HETATM   15  C10 UNL     1      -9.776  -9.102 -23.081  1.00  0.00     0.119 A 
HETATM   16  N10 UNL     1     -11.055  -8.984 -23.331  1.00  0.00    -0.326 N 
HETATM   17  C11 UNL     1     -11.735  -8.006 -22.708  1.00  0.00     0.185 A 
ATOM     18  H10 UNL     1     -11.522  -9.618 -23.981  1.00  0.00     0.168 HD
HETATM   19  S2  UNL     1     -10.573  -7.246 -21.766  1.00  0.00    -0.046 SA
HETATM   20  C12 UNL     1      -9.204  -8.256 -22.235  1.00  0.00     0.049 A 
BRANCH  17  21
HETATM   21  O5  UNL     1     -13.005  -7.750 -22.829  1.00  0.00    -0.341 OA
ATOM     22  H5  UNL     1     -13.472  -7.019 -22.442  1.00  0.00     0.220 HD
ENDBRANCH  17  21
BRANCH  20  23
HETATM   23  C13 UNL     1      -7.823  -8.020 -21.662  1.00  0.00     0.273 C 
BRANCH  23  24
HETATM   24  N11 UNL     1      -7.181  -7.074 -22.538  1.00  0.00    -0.385 NA
HETATM   25  C14 UNL     1      -6.592  -6.233 -23.321  1.00  0.00     0.435 C 
HETATM   26  O6  UNL     1      -5.384  -6.108 -23.724  1.00  0.00    -0.221 OA
BRANCH  25  27
HETATM   27  O7  UNL     1      -7.365  -5.146 -23.935  1.00  0.00    -0.284 OA
BRANCH  27  28
HETATM   28  C15 UNL     1      -6.707  -4.049 -24.509  1.00  0.00     0.170 C 
HETATM   29  C16 UNL     1      -7.243  -2.700 -24.023  1.00  0.00     0.042 C 
HETATM   30  C17 UNL     1      -6.712  -2.310 -22.691  1.00  0.00     0.014 C 
HETATM   31  C18 UNL     1      -6.916  -1.657 -25.045  1.00  0.00     0.279 C 
HETATM   32  N12 UNL     1      -5.795  -1.962 -25.865  1.00  0.00     0.087 N 
HETATM   33  C19 UNL     1      -5.621  -0.851 -26.760  1.00  0.00     0.310 C 
HETATM   34  C20 UNL     1      -5.947  -3.173 -26.664  1.00  0.00     0.306 C 
HETATM   35  C21 UNL     1      -6.901  -4.143 -26.018  1.00  0.00     0.176 C 
BRANCH  35  36
HETATM   36  O8  UNL     1      -8.220  -3.895 -26.372  1.00  0.00    -0.391 OA
ATOM     37  H8  UNL     1      -8.551  -4.564 -26.961  1.00  0.00     0.210 HD
ENDBRANCH  35  36
ENDBRANCH  27  28
ENDBRANCH  25  27
ENDBRANCH  23  24
ENDBRANCH  20  23
ENDBRANCH  11  15
BRANCH   1  38
HETATM   38  N4  UNL     1      -4.445  -8.468 -27.072  1.00  0.00    -0.301 N 
ATOM     39  H4  UNL     1      -3.968  -9.112 -27.703  1.00  0.00     0.183 HD
BRANCH  38  40
HETATM   40  C3  UNL     1      -4.599  -7.013 -27.410  1.00  0.00     0.165 C 
BRANCH  40  41
HETATM   41  C2  UNL     1      -5.406  -6.915 -28.595  1.00  0.00     0.280 C 
BRANCH  41  42
HETATM   42  O1  UNL     1      -6.508  -6.112 -28.735  1.00  0.00    -0.364 OA
HETATM   43  C1  UNL     1      -7.842  -6.643 -28.817  1.00  0.00     0.204 C 
ENDBRANCH  41  42
BRANCH  41  44
HETATM   44  O2  UNL     1      -5.125  -7.611 -29.656  1.00  0.00    -0.369 OA
ATOM     45  H2  UNL     1      -4.981  -8.535 -29.484  1.00  0.00     0.212 HD
ENDBRANCH  41  44
ENDBRANCH  40  41
BRANCH  40  46
HETATM   46  C4  UNL     1      -3.240  -6.445 -27.451  1.00  0.00     0.106 C 
BRANCH  46  47
HETATM   47  S1  UNL     1      -2.670  -5.159 -28.373  1.00  0.00    -0.161 SA
BRANCH  47  48
HETATM   48  C5  UNL     1      -1.602  -5.145 -29.739  1.00  0.00     0.137 C 
BRANCH  48  49
HETATM   49  C6  UNL     1      -2.190  -5.866 -30.938  1.00  0.00     0.088 A 
HETATM   50  N1  UNL     1      -2.639  -7.171 -30.936  1.00  0.00    -0.241 N 
HETATM   51  O3  UNL     1      -3.246  -7.357 -32.120  1.00  0.00    -0.155 OA
ATOM     52  H1  UNL     1      -2.532  -7.856 -30.187  1.00  0.00     0.196 HD
HETATM   53  N2  UNL     1      -3.194  -6.240 -32.841  1.00  0.00    -0.224 N 
HETATM   54  C7  UNL     1      -2.550  -5.336 -32.127  1.00  0.00     0.146 A 
ATOM     55  H2  UNL     1      -3.582  -6.107 -33.775  1.00  0.00     0.198 HD
BRANCH  54  56
HETATM   56  N3  UNL     1      -2.199  -4.122 -32.469  1.00  0.00    -0.382 N 
ATOM     57  H32 UNL     1      -1.490  -3.522 -32.050  1.00  0.00     0.157 HD
ATOM     58  H31 UNL     1      -2.690  -3.613 -33.205  1.00  0.00     0.157 HD
ENDBRANCH  54  56
ENDBRANCH  48  49
ENDBRANCH  47  48
ENDBRANCH  46  47
ENDBRANCH  40  46
ENDBRANCH  38  40
ENDBRANCH   1  38
TORSDOF 17
ENDMDL
MODEL 3
REMARK VINA RESULT: -8.064443236      3.356      4.891
REMARK  17 active torsions:
REMARK  status: ('A' for Active; 'I' for Inactive)
REMARK    1  A    between atoms: O1_2  and  C2_3 
REMARK    2  A    between atoms: C2_3  and  O2_4 
REMARK    3  A    between atoms: C2_3  and  C3_6 
REMARK    4  A    between atoms: C3_6  and  C4_7 
REMARK    5  A    between atoms: C3_6  and  N4_20 
REMARK    6  A    between atoms: C4_7  and  S1_8 
REMARK    7  A    between atoms: S1_8  and  C5_9 
REMARK    8  A    between atoms: C5_9  and  C6_10 
REMARK    9  A    between atoms: C7_16  and  N3_17 
REMARK   10  A    between atoms: N4_20  and  N5_22 
REMARK       I    between atoms: N9_30  and  C9_32 
REMARK   11  A    between atoms: C9_32  and  C10_34 
REMARK   12  A    between atoms: C11_37  and  O5_38 
REMARK   13  A    between atoms: C12_41  and  C13_42 
REMARK   14  A    between atoms: C13_42  and  N11_43 
REMARK       I    between atoms: N11_43  and  C14_44 
REMARK   15  A    between atoms: C14_44  and  O7_46 
REMARK   16  A    between atoms: O7_46  and  C15_47 
REMARK   17  A    between atoms: C21_54  and  O8_55 
ROOT
HETATM    1  N5  UNL     1      -4.603  -7.859 -25.290  1.00  0.00    -0.142 N 
HETATM    2  N6  UNL     1      -5.138  -8.981 -25.735  1.00  0.00    -0.204 N 
ATOM      3  H6  UNL     1      -4.542  -9.780 -25.951  1.00  0.00     0.212 HD
HETATM    4  N7  UNL     1      -6.453  -9.070 -25.900  1.00  0.00    -0.225 N 
ATOM      5  H7  UNL     1      -6.857  -9.942 -26.241  1.00  0.00     0.210 HD
HETATM    6  N8  UNL     1      -7.247  -8.048 -25.631  1.00  0.00    -0.265 N 
ATOM      7  H8  UNL     1      -8.252  -8.161 -25.770  1.00  0.00     0.190 HD
HETATM    8  C8  UNL     1      -6.800  -6.895 -25.192  1.00  0.00     0.197 A 
HETATM    9  N9  UNL     1      -7.442  -5.880 -24.800  1.00  0.00    -0.302 N 
ATOM     10  H9  UNL     1      -6.868  -5.089 -24.508  1.00  0.00     0.171 HD
HETATM   11  C9  UNL     1      -8.810  -5.684 -24.708  1.00  0.00     0.275 C 
HETATM   12  O4  UNL     1      -9.488  -5.239 -25.648  1.00  0.00    -0.266 OA
HETATM   13  C22 UNL     1      -5.371  -6.793 -25.011  1.00  0.00     0.328 A 
HETATM   14  O9  UNL     1      -4.874  -5.718 -24.596  1.00  0.00    -0.260 OA
ENDROOT
BRANCH  11  15
HETATM   15  C10 UNL     1      -9.487  -6.018 -23.385  1.00  0.00     0.119 A 
HETATM   16  N10 UNL     1      -9.777  -5.057 -22.547  1.00  0.00    -0.326 N 
HETATM   17  C11 UNL     1     -10.456  -5.373 -21.430  1.00  0.00     0.185 A 
ATOM     18  H10 UNL     1      -9.497  -4.094 -22.736  1.00  0.00     0.168 HD
HETATM   19  S2  UNL     1     -10.687  -7.030 -21.556  1.00  0.00    -0.046 SA
HETATM   20  C12 UNL     1      -9.863  -7.258 -23.101  1.00  0.00     0.049 A 
BRANCH  17  21
HETATM   21  O5  UNL     1     -10.835  -4.550 -20.497  1.00  0.00    -0.341 OA
ATOM     22  H5  UNL     1     -10.304  -3.873 -20.093  1.00  0.00     0.220 HD
ENDBRANCH  17  21
BRANCH  20  23
HETATM   23  C13 UNL     1      -9.761  -8.626 -23.741  1.00  0.00     0.273 C 
BRANCH  23  24
HETATM   24  N11 UNL     1      -8.566  -9.229 -23.208  1.00  0.00    -0.385 NA
HETATM   25  C14 UNL     1      -7.503  -9.781 -22.727  1.00  0.00     0.435 C 
HETATM   26  O6  UNL     1      -7.262 -10.939 -22.237  1.00  0.00    -0.221 OA
BRANCH  25  27
HETATM   27  O7  UNL     1      -6.247  -9.022 -22.675  1.00  0.00    -0.284 OA
BRANCH  27  28
HETATM   28  C15 UNL     1      -5.697  -8.653 -21.439  1.00  0.00     0.170 C 
HETATM   29  C16 UNL     1      -5.460  -7.146 -21.309  1.00  0.00     0.042 C 
HETATM   30  C17 UNL     1      -6.696  -6.391 -20.974  1.00  0.00     0.014 C 
HETATM   31  C18 UNL     1      -4.405  -6.913 -20.274  1.00  0.00     0.279 C 
HETATM   32  N12 UNL     1      -4.280  -7.952 -19.311  1.00  0.00     0.087 N 
HETATM   33  C19 UNL     1      -3.246  -7.548 -18.397  1.00  0.00     0.310 C 
HETATM   34  C20 UNL     1      -3.914  -9.248 -19.871  1.00  0.00     0.306 C 
HETATM   35  C21 UNL     1      -4.361  -9.376 -21.304  1.00  0.00     0.176 C 
BRANCH  35  36
HETATM   36  O8  UNL     1      -3.422  -8.868 -22.192  1.00  0.00    -0.391 OA
ATOM     37  H8  UNL     1      -2.595  -8.695 -21.757  1.00  0.00     0.210 HD
ENDBRANCH  35  36
ENDBRANCH  27  28
ENDBRANCH  25  27
ENDBRANCH  23  24
ENDBRANCH  20  23
ENDBRANCH  11  15
BRANCH   1  38
HETATM   38  N4  UNL     1      -3.246  -7.751 -25.059  1.00  0.00    -0.301 N 
ATOM     39  H4  UNL     1      -2.883  -7.425 -24.162  1.00  0.00     0.183 HD
BRANCH  38  40
HETATM   40  C3  UNL     1      -2.326  -8.136 -26.181  1.00  0.00     0.165 C 
BRANCH  40  41
HETATM   41  C2  UNL     1      -1.064  -8.517 -25.611  1.00  0.00     0.280 C 
BRANCH  41  42
HETATM   42  O1  UNL     1       0.091  -7.783 -25.691  1.00  0.00    -0.364 OA
HETATM   43  C1  UNL     1       0.390  -6.715 -24.776  1.00  0.00     0.204 C 
ENDBRANCH  41  42
BRANCH  41  44
HETATM   44  O2  UNL     1      -0.935  -9.629 -24.951  1.00  0.00    -0.369 OA
ATOM     45  H2  UNL     1      -1.386 -10.366 -25.347  1.00  0.00     0.212 HD
ENDBRANCH  41  44
ENDBRANCH  40  41
BRANCH  40  46
HETATM   46  C4  UNL     1      -2.343  -7.016 -27.139  1.00  0.00     0.106 C 
BRANCH  46  47
HETATM   47  S1  UNL     1      -3.451  -6.704 -28.366  1.00  0.00    -0.161 SA
BRANCH  47  48
HETATM   48  C5  UNL     1      -4.712  -5.517 -28.462  1.00  0.00     0.137 C 
BRANCH  48  49
HETATM   49  C6  UNL     1      -6.082  -6.145 -28.636  1.00  0.00     0.088 A 
HETATM   50  N1  UNL     1      -6.313  -7.473 -28.936  1.00  0.00    -0.241 N 
HETATM   51  O3  UNL     1      -7.638  -7.655 -28.816  1.00  0.00    -0.155 OA
ATOM     52  H1  UNL     1      -5.618  -8.172 -29.197  1.00  0.00     0.196 HD
HETATM   53  N2  UNL     1      -8.227  -6.517 -28.457  1.00  0.00    -0.224 N 
HETATM   54  C7  UNL     1      -7.285  -5.599 -28.351  1.00  0.00     0.146 A 
ATOM     55  H2  UNL     1      -9.224  -6.380 -28.292  1.00  0.00     0.198 HD
BRANCH  54  56
HETATM   56  N3  UNL     1      -7.413  -4.321 -28.098  1.00  0.00    -0.382 N 
ATOM     57  H32 UNL     1      -6.724  -3.676 -27.714  1.00  0.00     0.157 HD
ATOM     58  H31 UNL     1      -8.305  -3.842 -28.216  1.00  0.00     0.157 HD
ENDBRANCH  54  56
ENDBRANCH  48  49
ENDBRANCH  47  48
ENDBRANCH  46  47
ENDBRANCH  40  46
ENDBRANCH  38  40
ENDBRANCH   1  38
TORSDOF 17
ENDMDL
MODEL 4
REMARK VINA RESULT: -7.953724049      2.335      3.591
REMARK  17 active torsions:
REMARK  status: ('A' for Active; 'I' for Inactive)
REMARK    1  A    between atoms: O1_2  and  C2_3 
REMARK    2  A    between atoms: C2_3  and  O2_4 
REMARK    3  A    between atoms: C2_3  and  C3_6 
REMARK    4  A    between atoms: C3_6  and  C4_7 
REMARK    5  A    between atoms: C3_6  and  N4_20 
REMARK    6  A    between atoms: C4_7  and  S1_8 
REMARK    7  A    between atoms: S1_8  and  C5_9 
REMARK    8  A    between atoms: C5_9  and  C6_10 
REMARK    9  A    between atoms: C7_16  and  N3_17 
REMARK   10  A    between atoms: N4_20  and  N5_22 
REMARK       I    between atoms: N9_30  and  C9_32 
REMARK   11  A    between atoms: C9_32  and  C10_34 
REMARK   12  A    between atoms: C11_37  and  O5_38 
REMARK   13  A    between atoms: C12_41  and  C13_42 
REMARK   14  A    between atoms: C13_42  and  N11_43 
REMARK       I    between atoms: N11_43  and  C14_44 
REMARK   15  A    between atoms: C14_44  and  O7_46 
REMARK   16  A    between atoms: O7_46  and  C15_47 
REMARK   17  A    between atoms: C21_54  and  O8_55 
ROOT
HETATM    1  N5  UNL     1      -2.648  -6.752 -25.297  1.00  0.00    -0.142 N 
HETATM    2  N6  UNL     1      -2.131  -7.655 -24.483  1.00  0.00    -0.204 N 
ATOM      3  H6  UNL     1      -1.173  -7.551 -24.147  1.00  0.00     0.212 HD
HETATM    4  N7  UNL     1      -2.859  -8.698 -24.103  1.00  0.00    -0.225 N 
ATOM      5  H7  UNL     1      -2.452  -9.388 -23.471  1.00  0.00     0.210 HD
HETATM    6  N8  UNL     1      -4.101  -8.858 -24.526  1.00  0.00    -0.265 N 
ATOM      7  H8  UNL     1      -4.624  -9.673 -24.207  1.00  0.00     0.190 HD
HETATM    8  C8  UNL     1      -4.689  -8.015 -25.340  1.00  0.00     0.197 A 
HETATM    9  N9  UNL     1      -5.887  -7.984 -25.740  1.00  0.00    -0.302 N 
ATOM     10  H9  UNL     1      -6.112  -7.226 -26.385  1.00  0.00     0.171 HD
HETATM   11  C9  UNL     1      -6.941  -8.830 -25.431  1.00  0.00     0.275 C 
HETATM   12  O4  UNL     1      -7.183  -9.862 -26.077  1.00  0.00    -0.266 OA
HETATM   13  C22 UNL     1      -3.902  -6.878 -25.759  1.00  0.00     0.328 A 
HETATM   14  O9  UNL     1      -4.401  -6.031 -26.538  1.00  0.00    -0.260 OA
ENDROOT
BRANCH  11  15
HETATM   15  C10 UNL     1      -7.834  -8.450 -24.258  1.00  0.00     0.119 A 
HETATM   16  N10 UNL     1      -8.714  -7.492 -24.401  1.00  0.00    -0.326 N 
HETATM   17  C11 UNL     1      -9.550  -7.242 -23.378  1.00  0.00     0.185 A 
ATOM     18  H10 UNL     1      -8.765  -6.951 -25.265  1.00  0.00     0.168 HD
HETATM   19  S2  UNL     1      -9.098  -8.356 -22.208  1.00  0.00    -0.046 SA
HETATM   20  C12 UNL     1      -7.796  -9.126 -23.118  1.00  0.00     0.049 A 
BRANCH  17  21
HETATM   21  O5  UNL     1     -10.487  -6.340 -23.349  1.00  0.00    -0.341 OA
ATOM     22  H5  UNL     1     -11.418  -6.498 -23.251  1.00  0.00     0.220 HD
ENDBRANCH  17  21
BRANCH  20  23
HETATM   23  C13 UNL     1      -6.994 -10.266 -22.528  1.00  0.00     0.273 C 
BRANCH  23  24
HETATM   24  N11 UNL     1      -5.949  -9.657 -21.745  1.00  0.00    -0.385 NA
HETATM   25  C14 UNL     1      -5.018  -9.118 -21.031  1.00  0.00     0.435 C 
HETATM   26  O6  UNL     1      -4.673  -9.239 -19.804  1.00  0.00    -0.221 OA
BRANCH  25  27
HETATM   27  O7  UNL     1      -4.102  -8.146 -21.642  1.00  0.00    -0.284 OA
BRANCH  27  28
HETATM   28  C15 UNL     1      -4.122  -6.805 -21.234  1.00  0.00     0.170 C 
HETATM   29  C16 UNL     1      -4.598  -5.847 -22.329  1.00  0.00     0.042 C 
HETATM   30  C17 UNL     1      -6.078  -5.816 -22.470  1.00  0.00     0.014 C 
HETATM   31  C18 UNL     1      -4.071  -4.479 -22.032  1.00  0.00     0.279 C 
HETATM   32  N12 UNL     1      -3.780  -4.240 -20.661  1.00  0.00     0.087 N 
HETATM   33  C19 UNL     1      -3.310  -2.884 -20.566  1.00  0.00     0.310 C 
HETATM   34  C20 UNL     1      -2.758  -5.117 -20.102  1.00  0.00     0.306 C 
HETATM   35  C21 UNL     1      -2.698  -6.431 -20.836  1.00  0.00     0.176 C 
BRANCH  35  36
HETATM   36  O8  UNL     1      -1.864  -6.374 -21.945  1.00  0.00    -0.391 OA
ATOM     37  H8  UNL     1      -0.973  -6.159 -21.695  1.00  0.00     0.210 HD
ENDBRANCH  35  36
ENDBRANCH  27  28
ENDBRANCH  25  27
ENDBRANCH  23  24
ENDBRANCH  20  23
ENDBRANCH  11  15
BRANCH   1  38
HETATM   38  N4  UNL     1      -1.935  -5.629 -25.670  1.00  0.00    -0.301 N 
ATOM     39  H4  UNL     1      -2.069  -4.733 -25.200  1.00  0.00     0.183 HD
BRANCH  38  40
HETATM   40  C3  UNL     1      -0.954  -5.783 -26.796  1.00  0.00     0.165 C 
BRANCH  40  41
HETATM   41  C2  UNL     1       0.181  -6.510 -26.301  1.00  0.00     0.280 C 
BRANCH  41  42
HETATM   42  O1  UNL     1       1.149  -5.996 -25.478  1.00  0.00    -0.364 OA
HETATM   43  C1  UNL     1       1.014  -5.981 -24.047  1.00  0.00     0.204 C 
ENDBRANCH  41  42
BRANCH  41  44
HETATM   44  O2  UNL     1       0.367  -7.758 -26.615  1.00  0.00    -0.369 OA
ATOM     45  H2  UNL     1       1.277  -7.984 -26.767  1.00  0.00     0.212 HD
ENDBRANCH  41  44
ENDBRANCH  40  41
BRANCH  40  46
HETATM   46  C4  UNL     1      -0.726  -4.432 -27.341  1.00  0.00     0.106 C 
BRANCH  46  47
HETATM   47  S1  UNL     1      -0.104  -4.000 -28.844  1.00  0.00    -0.161 SA
BRANCH  47  48
HETATM   48  C5  UNL     1      -0.053  -4.889 -30.332  1.00  0.00     0.137 C 
BRANCH  48  49
HETATM   49  C6  UNL     1      -0.630  -4.101 -31.494  1.00  0.00     0.088 A 
HETATM   50  N1  UNL     1       0.042  -3.121 -32.198  1.00  0.00    -0.241 N 
HETATM   51  O3  UNL     1      -0.740  -2.815 -33.246  1.00  0.00    -0.155 OA
ATOM     52  H1  UNL     1       0.949  -2.713 -31.969  1.00  0.00     0.196 HD
HETATM   53  N2  UNL     1      -1.847  -3.553 -33.222  1.00  0.00    -0.224 N 
HETATM   54  C7  UNL     1      -1.784  -4.331 -32.158  1.00  0.00     0.146 A 
ATOM     55  H2  UNL     1      -2.607  -3.523 -33.903  1.00  0.00     0.198 HD
BRANCH  54  56
HETATM   56  N3  UNL     1      -2.684  -5.161 -31.696  1.00  0.00    -0.382 N 
ATOM     57  H32 UNL     1      -2.575  -5.895 -30.997  1.00  0.00     0.157 HD
ATOM     58  H31 UNL     1      -3.631  -5.183 -32.075  1.00  0.00     0.157 HD
ENDBRANCH  54  56
ENDBRANCH  48  49
ENDBRANCH  47  48
ENDBRANCH  46  47
ENDBRANCH  40  46
ENDBRANCH  38  40
ENDBRANCH   1  38
TORSDOF 17
ENDMDL
MODEL 5
REMARK VINA RESULT: -7.911886854      1.209      1.298
REMARK  17 active torsions:
REMARK  status: ('A' for Active; 'I' for Inactive)
REMARK    1  A    between atoms: O1_2  and  C2_3 
REMARK    2  A    between atoms: C2_3  and  O2_4 
REMARK    3  A    between atoms: C2_3  and  C3_6 
REMARK    4  A    between atoms: C3_6  and  C4_7 
REMARK    5  A    between atoms: C3_6  and  N4_20 
REMARK    6  A    between atoms: C4_7  and  S1_8 
REMARK    7  A    between atoms: S1_8  and  C5_9 
REMARK    8  A    between atoms: C5_9  and  C6_10 
REMARK    9  A    between atoms: C7_16  and  N3_17 
REMARK   10  A    between atoms: N4_20  and  N5_22 
REMARK       I    between atoms: N9_30  and  C9_32 
REMARK   11  A    between atoms: C9_32  and  C10_34 
REMARK   12  A    between atoms: C11_37  and  O5_38 
REMARK   13  A    between atoms: C12_41  and  C13_42 
REMARK   14  A    between atoms: C13_42  and  N11_43 
REMARK       I    between atoms: N11_43  and  C14_44 
REMARK   15  A    between atoms: C14_44  and  O7_46 
REMARK   16  A    between atoms: O7_46  and  C15_47 
REMARK   17  A    between atoms: C21_54  and  O8_55 
ROOT
HETATM    1  N5  UNL     1      -4.947  -9.013 -25.768  1.00  0.00    -0.142 N 
HETATM    2  N6  UNL     1      -4.263  -9.062 -24.640  1.00  0.00    -0.204 N 
ATOM      3  H6  UNL     1      -3.278  -8.796 -24.627  1.00  0.00     0.212 HD
HETATM    4  N7  UNL     1      -4.857  -9.457 -23.520  1.00  0.00    -0.225 N 
ATOM      5  H7  UNL     1      -4.322  -9.489 -22.653  1.00  0.00     0.210 HD
HETATM    6  N8  UNL     1      -6.131  -9.811 -23.509  1.00  0.00    -0.265 N 
ATOM      7  H8  UNL     1      -6.548 -10.106 -22.626  1.00  0.00     0.190 HD
HETATM    8  C8  UNL     1      -6.882  -9.799 -24.585  1.00  0.00     0.197 A 
HETATM    9  N9  UNL     1      -8.123 -10.008 -24.702  1.00  0.00    -0.302 N 
ATOM     10  H9  UNL     1      -8.486  -9.949 -25.654  1.00  0.00     0.171 HD
HETATM   11  C9  UNL     1      -9.063 -10.304 -23.728  1.00  0.00     0.275 C 
HETATM   12  O4  UNL     1      -9.318 -11.466 -23.375  1.00  0.00    -0.266 OA
HETATM   13  C22 UNL     1      -6.241  -9.371 -25.805  1.00  0.00     0.328 A 
HETATM   14  O9  UNL     1      -6.899  -9.336 -26.874  1.00  0.00    -0.260 OA
ENDROOT
BRANCH  11  15
HETATM   15  C10 UNL     1      -9.813  -9.142 -23.091  1.00  0.00     0.119 A 
HETATM   16  N10 UNL     1     -11.080  -8.964 -23.364  1.00  0.00    -0.326 N 
HETATM   17  C11 UNL     1     -11.737  -7.985 -22.716  1.00  0.00     0.185 A 
ATOM     18  H10 UNL     1     -11.556  -9.551 -24.050  1.00  0.00     0.168 HD
HETATM   19  S2  UNL     1     -10.569  -7.311 -21.717  1.00  0.00    -0.046 SA
HETATM   20  C12 UNL     1      -9.229  -8.354 -22.198  1.00  0.00     0.049 A 
BRANCH  17  21
HETATM   21  O5  UNL     1     -12.992  -7.674 -22.855  1.00  0.00    -0.341 OA
ATOM     22  H5  UNL     1     -13.499  -7.721 -23.657  1.00  0.00     0.220 HD
ENDBRANCH  17  21
BRANCH  20  23
HETATM   23  C13 UNL     1      -7.854  -8.198 -21.584  1.00  0.00     0.273 C 
BRANCH  23  24
HETATM   24  N11 UNL     1      -7.164  -7.224 -22.391  1.00  0.00    -0.385 NA
HETATM   25  C14 UNL     1      -6.558  -6.344 -23.115  1.00  0.00     0.435 C 
HETATM   26  O6  UNL     1      -6.939  -5.257 -23.675  1.00  0.00    -0.221 OA
BRANCH  25  27
HETATM   27  O7  UNL     1      -5.135  -6.517 -23.434  1.00  0.00    -0.284 OA
BRANCH  27  28
HETATM   28  C15 UNL     1      -4.161  -5.794 -22.731  1.00  0.00     0.170 C 
HETATM   29  C16 UNL     1      -3.099  -5.168 -23.639  1.00  0.00     0.042 C 
HETATM   30  C17 UNL     1      -3.556  -3.909 -24.283  1.00  0.00     0.014 C 
HETATM   31  C18 UNL     1      -1.861  -4.928 -22.835  1.00  0.00     0.279 C 
HETATM   32  N12 UNL     1      -2.080  -4.782 -21.438  1.00  0.00     0.087 N 
HETATM   33  C19 UNL     1      -0.796  -4.539 -20.839  1.00  0.00     0.310 C 
HETATM   34  C20 UNL     1      -2.669  -5.952 -20.798  1.00  0.00     0.306 C 
HETATM   35  C21 UNL     1      -3.481  -6.765 -21.772  1.00  0.00     0.176 C 
BRANCH  35  36
HETATM   36  O8  UNL     1      -2.703  -7.688 -22.459  1.00  0.00    -0.391 OA
ATOM     37  H8  UNL     1      -3.043  -8.569 -22.357  1.00  0.00     0.210 HD
ENDBRANCH  35  36
ENDBRANCH  27  28
ENDBRANCH  25  27
ENDBRANCH  23  24
ENDBRANCH  20  23
ENDBRANCH  11  15
BRANCH   1  38
HETATM   38  N4  UNL     1      -4.372  -8.557 -26.938  1.00  0.00    -0.301 N 
ATOM     39  H4  UNL     1      -3.932  -9.198 -27.599  1.00  0.00     0.183 HD
BRANCH  38  40
HETATM   40  C3  UNL     1      -4.421  -7.079 -27.197  1.00  0.00     0.165 C 
BRANCH  40  41
HETATM   41  C2  UNL     1      -5.195  -6.862 -28.388  1.00  0.00     0.280 C 
BRANCH  41  42
HETATM   42  O1  UNL     1      -5.767  -5.670 -28.751  1.00  0.00    -0.364 OA
HETATM   43  C1  UNL     1      -6.746  -5.006 -27.935  1.00  0.00     0.204 C 
ENDBRANCH  41  42
BRANCH  41  44
HETATM   44  O2  UNL     1      -5.408  -7.826 -29.234  1.00  0.00    -0.369 OA
ATOM     45  H2  UNL     1      -4.622  -8.296 -29.486  1.00  0.00     0.212 HD
ENDBRANCH  41  44
ENDBRANCH  40  41
BRANCH  40  46
HETATM   46  C4  UNL     1      -3.026  -6.604 -27.183  1.00  0.00     0.106 C 
BRANCH  46  47
HETATM   47  S1  UNL     1      -2.424  -5.110 -27.671  1.00  0.00    -0.161 SA
BRANCH  47  48
HETATM   48  C5  UNL     1      -2.433  -4.354 -29.231  1.00  0.00     0.137 C 
BRANCH  48  49
HETATM   49  C6  UNL     1      -2.345  -5.362 -30.362  1.00  0.00     0.088 A 
HETATM   50  N1  UNL     1      -3.398  -6.126 -30.826  1.00  0.00    -0.241 N 
HETATM   51  O3  UNL     1      -2.953  -6.736 -31.936  1.00  0.00    -0.155 OA
ATOM     52  H1  UNL     1      -4.326  -6.209 -30.409  1.00  0.00     0.196 HD
HETATM   53  N2  UNL     1      -1.691  -6.387 -32.176  1.00  0.00    -0.224 N 
HETATM   54  C7  UNL     1      -1.320  -5.557 -31.220  1.00  0.00     0.146 A 
ATOM     55  H2  UNL     1      -1.117  -6.703 -32.957  1.00  0.00     0.198 HD
BRANCH  54  56
HETATM   56  N3  UNL     1      -0.143  -5.024 -31.010  1.00  0.00    -0.382 N 
ATOM     57  H32 UNL     1       0.243  -4.161 -31.390  1.00  0.00     0.157 HD
ATOM     58  H31 UNL     1       0.565  -5.502 -30.453  1.00  0.00     0.157 HD
ENDBRANCH  54  56
ENDBRANCH  48  49
ENDBRANCH  47  48
ENDBRANCH  46  47
ENDBRANCH  40  46
ENDBRANCH  38  40
ENDBRANCH   1  38
TORSDOF 17
ENDMDL
