MODEL 1
REMARK VINA RESULT: -8.126260348      0.000      0.000
REMARK  16 active torsions:
REMARK  status: ('A' for Active; 'I' for Inactive)
REMARK    1  A    between atoms: C2_2  and  O1_3 
REMARK    2  A    between atoms: C2_2  and  N1_5 
REMARK    3  A    between atoms: N1_5  and  S1_7 
REMARK    4  A    between atoms: S1_7  and  N2_10 
REMARK    5  A    between atoms: C4_14  and  C5_15 
REMARK    6  A    between atoms: C6_18  and  C7_19 
REMARK    7  A    between atoms: C7_19  and  O7_20 
REMARK    8  A    between atoms: O7_20  and  C8_21 
REMARK    9  A    between atoms: C8_21  and  C9_23 
REMARK   10  A    between atoms: C10_27  and  C11_28 
REMARK   11  A    between atoms: C12_31  and  N5_32 
REMARK       I    between atoms: N5_32  and  C13_34 
REMARK   12  A    between atoms: C13_34  and  C14_36 
REMARK   13  A    between atoms: C14_36  and  N6_38 
REMARK   14  A    between atoms: C17_40  and  C18_41 
REMARK   15  A    between atoms: C19_48  and  N10_49 
REMARK   16  A    between atoms: C20_53  and  O13_54 
ROOT
HETATM    1  O7  UNL     1      -5.295  -8.034 -28.690  1.00  0.00    -0.312 OA
ENDROOT
BRANCH   1   2
HETATM    2  C7  UNL     1      -6.664  -7.745 -28.832  1.00  0.00     0.218 C 
BRANCH   2   3
HETATM    3  C6  UNL     1      -7.227  -7.370 -27.530  1.00  0.00     0.015 C 
HETATM    4  C4  UNL     1      -7.597  -6.185 -27.102  1.00  0.00     0.127 C 
HETATM    5  N3  UNL     1      -8.091  -6.324 -25.749  1.00  0.00    -0.237 N 
HETATM    6  C3  UNL     1      -8.727  -6.254 -24.489  1.00  0.00     0.348 C 
HETATM    7  C20 UNL     1      -7.320  -7.487 -25.236  1.00  0.00     0.278 C 
HETATM    8  N2  UNL     1      -8.306  -7.570 -24.193  1.00  0.00    -0.152 N 
HETATM    9  O4  UNL     1      -9.390  -5.390 -23.884  1.00  0.00    -0.245 OA
HETATM   10  C19 UNL     1      -7.475  -8.386 -26.429  1.00  0.00     0.296 C 
BRANCH   4  11
HETATM   11  C5  UNL     1      -7.557  -4.896 -27.776  1.00  0.00     0.227 C 
HETATM   12  O5  UNL     1      -8.600  -4.300 -28.094  1.00  0.00    -0.643 OA
HETATM   13  O6  UNL     1      -6.363  -4.281 -28.093  1.00  0.00    -0.643 OA
ENDBRANCH   4  11
BRANCH   8  14
HETATM   14  S1  UNL     1      -8.748  -8.784 -23.079  1.00  0.00     0.331 S 
HETATM   15  O2  UNL     1      -8.797  -8.130 -21.719  1.00  0.00    -0.182 OA
HETATM   16  O3  UNL     1     -10.177  -9.257 -23.329  1.00  0.00    -0.182 OA
BRANCH  14  17
HETATM   17  N1  UNL     1      -7.750 -10.164 -23.095  1.00  0.00    -0.276 N 
ATOM     18  H1  UNL     1      -8.113 -11.101 -23.268  1.00  0.00     0.176 HD
BRANCH  17  19
HETATM   19  C2  UNL     1      -6.358  -9.906 -22.846  1.00  0.00     0.225 C 
HETATM   20  C1  UNL     1      -5.831 -10.708 -21.685  1.00  0.00     0.063 C 
BRANCH  19  21
HETATM   21  O1  UNL     1      -5.604 -10.332 -23.969  1.00  0.00    -0.377 OA
ATOM     22  H1  UNL     1      -6.211 -10.320 -24.699  1.00  0.00     0.212 HD
ENDBRANCH  19  21
ENDBRANCH  17  19
ENDBRANCH  14  17
ENDBRANCH   8  14
BRANCH   7  23
HETATM   23  O13 UNL     1      -6.038  -7.196 -24.842  1.00  0.00    -0.351 OA
ATOM     24  H13 UNL     1      -5.425  -7.921 -24.831  1.00  0.00     0.214 HD
ENDBRANCH   7  23
BRANCH  10  25
HETATM   25  N10 UNL     1      -6.470  -9.425 -26.473  1.00  0.00    -0.064 N 
ATOM     26 3H10 UNL     1      -6.806 -10.296 -26.064  1.00  0.00     0.275 HD
ATOM     27 2H10 UNL     1      -6.308  -9.757 -27.423  1.00  0.00     0.275 HD
ATOM     28 1H10 UNL     1      -5.610  -9.102 -26.030  1.00  0.00     0.275 HD
ENDBRANCH  10  25
ENDBRANCH   2   3
ENDBRANCH   1   2
BRANCH   1  29
HETATM   29  C8  UNL     1      -4.323  -7.194 -28.245  1.00  0.00     0.313 C 
HETATM   30  O8  UNL     1      -4.252  -6.926 -27.027  1.00  0.00    -0.257 OA
BRANCH  29  31
HETATM   31  C9  UNL     1      -3.368  -6.614 -29.233  1.00  0.00     0.143 A 
HETATM   32  N4  UNL     1      -3.726  -6.582 -30.521  1.00  0.00    -0.319 N 
HETATM   33  S2  UNL     1      -2.423  -5.894 -31.309  1.00  0.00    -0.005 SA
ATOM     34  H4  UNL     1      -4.601  -6.907 -30.933  1.00  0.00     0.174 HD
HETATM   35  C10 UNL     1      -1.406  -5.641 -29.975  1.00  0.00     0.127 A 
HETATM   36  C12 UNL     1      -2.146  -6.120 -28.923  1.00  0.00     0.094 A 
BRANCH  35  37
HETATM   37  C11 UNL     1      -0.044  -5.053 -29.908  1.00  0.00     0.220 C 
HETATM   38  O9  UNL     1       0.761  -5.468 -29.050  1.00  0.00    -0.643 OA
HETATM   39  O10 UNL     1       0.323  -4.065 -30.781  1.00  0.00    -0.643 OA
ENDBRANCH  35  37
BRANCH  36  40
HETATM   40  N5  UNL     1      -1.631  -6.084 -27.554  1.00  0.00    -0.322 N 
HETATM   41  C13 UNL     1      -1.102  -7.263 -26.969  1.00  0.00     0.246 C 
HETATM   42  O11 UNL     1      -1.100  -8.313 -27.668  1.00  0.00    -0.271 OA
ATOM     43  H5  UNL     1      -1.651  -5.213 -27.022  1.00  0.00     0.169 HD
BRANCH  41  44
HETATM   44  C14 UNL     1      -0.562  -7.326 -25.605  1.00  0.00     0.197 C 
HETATM   45  C15 UNL     1       0.134  -6.098 -25.133  1.00  0.00     0.044 C 
BRANCH  44  46
HETATM   46  N6  UNL     1      -1.658  -7.614 -24.669  1.00  0.00    -0.273 N 
HETATM   47  C16 UNL     1      -1.978  -6.980 -23.535  1.00  0.00     0.148 A 
HETATM   48  C17 UNL     1      -3.085  -7.597 -22.982  1.00  0.00     0.131 A 
HETATM   49  N8  UNL     1      -3.406  -8.600 -23.807  1.00  0.00    -0.280 N 
HETATM   50  N9  UNL     1      -2.547  -8.596 -24.805  1.00  0.00    -0.239 N 
ATOM     51  H8  UNL     1      -4.181  -9.252 -23.685  1.00  0.00     0.188 HD
ATOM     52  H9  UNL     1      -2.561  -9.259 -25.580  1.00  0.00     0.208 HD
BRANCH  48  53
HETATM   53  C18 UNL     1      -3.785  -7.257 -21.753  1.00  0.00     0.284 C 
HETATM   54  N7  UNL     1      -5.099  -6.745 -21.808  1.00  0.00    -0.056 NA
HETATM   55  O12 UNL     1      -3.224  -7.418 -20.640  1.00  0.00    -0.269 OA
ENDBRANCH  48  53
ENDBRANCH  44  46
ENDBRANCH  41  44
ENDBRANCH  36  40
ENDBRANCH  29  31
ENDBRANCH   1  29
TORSDOF 16
ENDMDL
MODEL 2
REMARK VINA RESULT: -7.921495080      1.204      1.895
REMARK  16 active torsions:
REMARK  status: ('A' for Active; 'I' for Inactive)
REMARK    1  A    between atoms: C2_2  and  O1_3 
REMARK    2  A    between atoms: C2_2  and  N1_5 
REMARK    3  A    between atoms: N1_5  and  S1_7 
REMARK    4  A    between atoms: S1_7  and  N2_10 
REMARK    5  A    between atoms: C4_14  and  C5_15 
REMARK    6  A    between atoms: C6_18  and  C7_19 
REMARK    7  A    between atoms: C7_19  and  O7_20 
REMARK    8  A    between atoms: O7_20  and  C8_21 
REMARK    9  A    between atoms: C8_21  and  C9_23 
REMARK   10  A    between atoms: C10_27  and  C11_28 
REMARK   11  A    between atoms: C12_31  and  N5_32 
REMARK       I    between atoms: N5_32  and  C13_34 
REMARK   12  A    between atoms: C13_34  and  C14_36 
REMARK   13  A    between atoms: C14_36  and  N6_38 
REMARK   14  A    between atoms: C17_40  and  C18_41 
REMARK   15  A    between atoms: C19_48  and  N10_49 
REMARK   16  A    between atoms: C20_53  and  O13_54 
ROOT
HETATM    1  O7  UNL     1      -5.407  -8.087 -28.591  1.00  0.00    -0.312 OA
ENDROOT
BRANCH   1   2
HETATM    2  C7  UNL     1      -6.762  -7.742 -28.748  1.00  0.00     0.218 C 
BRANCH   2   3
HETATM    3  C6  UNL     1      -7.306  -7.288 -27.463  1.00  0.00     0.015 C 
HETATM    4  C4  UNL     1      -7.590  -6.066 -27.074  1.00  0.00     0.127 C 
HETATM    5  N3  UNL     1      -8.106  -6.127 -25.723  1.00  0.00    -0.237 N 
HETATM    6  C3  UNL     1      -8.746  -5.973 -24.473  1.00  0.00     0.348 C 
HETATM    7  C20 UNL     1      -7.428  -7.329 -25.168  1.00  0.00     0.278 C 
HETATM    8  N2  UNL     1      -8.426  -7.307 -24.134  1.00  0.00    -0.152 N 
HETATM    9  O4  UNL     1      -9.347  -5.045 -23.901  1.00  0.00    -0.245 OA
HETATM   10  C19 UNL     1      -7.638  -8.249 -26.336  1.00  0.00     0.296 C 
BRANCH   4  11
HETATM   11  C5  UNL     1      -7.449  -4.804 -27.786  1.00  0.00     0.227 C 
HETATM   12  O5  UNL     1      -8.442  -4.150 -28.147  1.00  0.00    -0.643 OA
HETATM   13  O6  UNL     1      -6.209  -4.281 -28.090  1.00  0.00    -0.643 OA
ENDBRANCH   4  11
BRANCH   8  14
HETATM   14  S1  UNL     1      -8.967  -8.451 -22.991  1.00  0.00     0.331 S 
HETATM   15  O2  UNL     1      -9.626  -9.566 -23.768  1.00  0.00    -0.182 OA
HETATM   16  O3  UNL     1      -7.788  -9.119 -22.289  1.00  0.00    -0.182 OA
BRANCH  14  17
HETATM   17  N1  UNL     1      -9.985  -7.822 -21.779  1.00  0.00    -0.276 N 
ATOM     18  H1  UNL     1      -9.628  -7.476 -20.889  1.00  0.00     0.176 HD
BRANCH  17  19
HETATM   19  C2  UNL     1     -11.384  -7.816 -22.108  1.00  0.00     0.225 C 
HETATM   20  C1  UNL     1     -12.254  -7.717 -20.883  1.00  0.00     0.063 C 
BRANCH  19  21
HETATM   21  O1  UNL     1     -11.673  -6.655 -22.868  1.00  0.00    -0.377 OA
ATOM     22  H1  UNL     1     -11.122  -5.972 -22.503  1.00  0.00     0.212 HD
ENDBRANCH  19  21
ENDBRANCH  17  19
ENDBRANCH  14  17
ENDBRANCH   8  14
BRANCH   7  23
HETATM   23  O13 UNL     1      -6.132  -7.122 -24.769  1.00  0.00    -0.351 OA
ATOM     24  H13 UNL     1      -5.491  -6.998 -25.460  1.00  0.00     0.214 HD
ENDBRANCH   7  23
BRANCH  10  25
HETATM   25  N10 UNL     1      -6.714  -9.360 -26.339  1.00  0.00    -0.064 N 
ATOM     26 3H10 UNL     1      -7.065 -10.149 -25.795  1.00  0.00     0.275 HD
ATOM     27 2H10 UNL     1      -6.668  -9.815 -27.250  1.00  0.00     0.275 HD
ATOM     28 1H10 UNL     1      -5.795  -9.055 -26.018  1.00  0.00     0.275 HD
ENDBRANCH  10  25
ENDBRANCH   2   3
ENDBRANCH   1   2
BRANCH   1  29
HETATM   29  C8  UNL     1      -4.415  -7.303 -28.090  1.00  0.00     0.313 C 
HETATM   30  O8  UNL     1      -4.360  -7.093 -26.860  1.00  0.00    -0.257 OA
BRANCH  29  31
HETATM   31  C9  UNL     1      -3.420  -6.715 -29.033  1.00  0.00     0.143 A 
HETATM   32  N4  UNL     1      -3.731  -6.655 -30.332  1.00  0.00    -0.319 N 
HETATM   33  S2  UNL     1      -2.395  -5.965 -31.059  1.00  0.00    -0.005 SA
ATOM     34  H4  UNL     1      -4.594  -6.962 -30.781  1.00  0.00     0.174 HD
HETATM   35  C10 UNL     1      -1.423  -5.749 -29.686  1.00  0.00     0.127 A 
HETATM   36  C12 UNL     1      -2.205  -6.240 -28.670  1.00  0.00     0.094 A 
BRANCH  35  37
HETATM   37  C11 UNL     1      -0.059  -5.176 -29.559  1.00  0.00     0.220 C 
HETATM   38  O9  UNL     1       0.723  -5.639 -28.703  1.00  0.00    -0.643 OA
HETATM   39  O10 UNL     1       0.336  -4.151 -30.375  1.00  0.00    -0.643 OA
ENDBRANCH  35  37
BRANCH  36  40
HETATM   40  N5  UNL     1      -1.738  -6.235 -27.283  1.00  0.00    -0.322 N 
HETATM   41  C13 UNL     1      -1.172  -7.410 -26.727  1.00  0.00     0.246 C 
HETATM   42  O11 UNL     1      -1.096  -8.430 -27.466  1.00  0.00    -0.271 OA
ATOM     43  H5  UNL     1      -1.819  -5.389 -26.719  1.00  0.00     0.169 HD
BRANCH  41  44
HETATM   44  C14 UNL     1      -0.676  -7.504 -25.348  1.00  0.00     0.197 C 
HETATM   45  C15 UNL     1       0.035  -6.299 -24.839  1.00  0.00     0.044 C 
BRANCH  44  46
HETATM   46  N6  UNL     1      -1.807  -7.777 -24.450  1.00  0.00    -0.273 N 
HETATM   47  C16 UNL     1      -2.120  -7.179 -23.293  1.00  0.00     0.148 A 
HETATM   48  C17 UNL     1      -3.269  -7.762 -22.793  1.00  0.00     0.131 A 
HETATM   49  N8  UNL     1      -3.623  -8.707 -23.671  1.00  0.00    -0.280 N 
HETATM   50  N9  UNL     1      -2.742  -8.702 -24.650  1.00  0.00    -0.239 N 
ATOM     51  H8  UNL     1      -4.434  -9.322 -23.596  1.00  0.00     0.188 HD
ATOM     52  H9  UNL     1      -2.773  -9.327 -25.456  1.00  0.00     0.208 HD
BRANCH  48  53
HETATM   53  C18 UNL     1      -3.978  -7.442 -21.564  1.00  0.00     0.284 C 
HETATM   54  N7  UNL     1      -5.277  -6.890 -21.622  1.00  0.00    -0.056 NA
HETATM   55  O12 UNL     1      -3.440  -7.657 -20.449  1.00  0.00    -0.269 OA
ENDBRANCH  48  53
ENDBRANCH  44  46
ENDBRANCH  41  44
ENDBRANCH  36  40
ENDBRANCH  29  31
ENDBRANCH   1  29
TORSDOF 16
ENDMDL
MODEL 3
REMARK VINA RESULT: -7.695496620      1.871      2.575
REMARK  16 active torsions:
REMARK  status: ('A' for Active; 'I' for Inactive)
REMARK    1  A    between atoms: C2_2  and  O1_3 
REMARK    2  A    between atoms: C2_2  and  N1_5 
REMARK    3  A    between atoms: N1_5  and  S1_7 
REMARK    4  A    between atoms: S1_7  and  N2_10 
REMARK    5  A    between atoms: C4_14  and  C5_15 
REMARK    6  A    between atoms: C6_18  and  C7_19 
REMARK    7  A    between atoms: C7_19  and  O7_20 
REMARK    8  A    between atoms: O7_20  and  C8_21 
REMARK    9  A    between atoms: C8_21  and  C9_23 
REMARK   10  A    between atoms: C10_27  and  C11_28 
REMARK   11  A    between atoms: C12_31  and  N5_32 
REMARK       I    between atoms: N5_32  and  C13_34 
REMARK   12  A    between atoms: C13_34  and  C14_36 
REMARK   13  A    between atoms: C14_36  and  N6_38 
REMARK   14  A    between atoms: C17_40  and  C18_41 
REMARK   15  A    between atoms: C19_48  and  N10_49 
REMARK   16  A    between atoms: C20_53  and  O13_54 
ROOT
HETATM    1  O7  UNL     1      -4.726  -6.659 -28.828  1.00  0.00    -0.312 OA
ENDROOT
BRANCH   1   2
HETATM    2  C7  UNL     1      -5.653  -7.714 -28.762  1.00  0.00     0.218 C 
BRANCH   2   3
HETATM    3  C6  UNL     1      -6.308  -7.713 -27.448  1.00  0.00     0.015 C 
HETATM    4  C4  UNL     1      -7.402  -7.091 -27.072  1.00  0.00     0.127 C 
HETATM    5  N3  UNL     1      -7.645  -7.401 -25.680  1.00  0.00    -0.237 N 
HETATM    6  C3  UNL     1      -8.136  -7.671 -24.382  1.00  0.00     0.348 C 
HETATM    7  C20 UNL     1      -6.275  -7.632 -25.151  1.00  0.00     0.278 C 
HETATM    8  N2  UNL     1      -6.907  -8.277 -24.033  1.00  0.00    -0.152 N 
HETATM    9  O4  UNL     1      -9.210  -7.464 -23.787  1.00  0.00    -0.245 OA
HETATM   10  C19 UNL     1      -5.760  -8.494 -26.267  1.00  0.00     0.296 C 
BRANCH   4  11
HETATM   11  C5  UNL     1      -8.286  -6.220 -27.831  1.00  0.00     0.227 C 
HETATM   12  O5  UNL     1      -8.597  -6.478 -29.006  1.00  0.00    -0.643 OA
HETATM   13  O6  UNL     1      -8.817  -5.070 -27.280  1.00  0.00    -0.643 OA
ENDBRANCH   4  11
BRANCH   8  14
HETATM   14  S1  UNL     1      -6.358  -9.333 -22.812  1.00  0.00     0.331 S 
HETATM   15  O2  UNL     1      -7.269  -9.136 -21.624  1.00  0.00    -0.182 OA
HETATM   16  O3  UNL     1      -6.568 -10.790 -23.218  1.00  0.00    -0.182 OA
BRANCH  14  17
HETATM   17  N1  UNL     1      -4.716  -9.155 -22.401  1.00  0.00    -0.276 N 
ATOM     18  H1  UNL     1      -4.057  -8.641 -22.985  1.00  0.00     0.176 HD
BRANCH  17  19
HETATM   19  C2  UNL     1      -4.329  -9.787 -21.169  1.00  0.00     0.225 C 
HETATM   20  C1  UNL     1      -4.352  -8.827 -20.008  1.00  0.00     0.063 C 
BRANCH  19  21
HETATM   21  O1  UNL     1      -5.280 -10.788 -20.847  1.00  0.00    -0.377 OA
ATOM     22  H1  UNL     1      -4.847 -11.613 -21.028  1.00  0.00     0.212 HD
ENDBRANCH  19  21
ENDBRANCH  17  19
ENDBRANCH  14  17
ENDBRANCH   8  14
BRANCH   7  23
HETATM   23  O13 UNL     1      -5.567  -6.489 -24.875  1.00  0.00    -0.351 OA
ATOM     24  H13 UNL     1      -6.010  -5.835 -24.347  1.00  0.00     0.214 HD
ENDBRANCH   7  23
BRANCH  10  25
HETATM   25  N10 UNL     1      -4.315  -8.529 -26.319  1.00  0.00    -0.064 N 
ATOM     26 3H10 UNL     1      -3.973  -8.743 -27.255  1.00  0.00     0.275 HD
ATOM     27 2H10 UNL     1      -3.908  -7.600 -26.218  1.00  0.00     0.275 HD
ATOM     28 1H10 UNL     1      -3.954  -9.181 -25.622  1.00  0.00     0.275 HD
ENDBRANCH  10  25
ENDBRANCH   2   3
ENDBRANCH   1   2
BRANCH   1  29
HETATM   29  C8  UNL     1      -3.405  -6.747 -29.141  1.00  0.00     0.313 C 
HETATM   30  O8  UNL     1      -2.623  -7.310 -28.347  1.00  0.00    -0.257 OA
BRANCH  29  31
HETATM   31  C9  UNL     1      -2.932  -6.162 -30.428  1.00  0.00     0.143 A 
HETATM   32  N4  UNL     1      -3.389  -6.683 -31.572  1.00  0.00    -0.319 N 
HETATM   33  S2  UNL     1      -2.640  -5.798 -32.774  1.00  0.00    -0.005 SA
ATOM     34  H4  UNL     1      -4.049  -7.453 -31.686  1.00  0.00     0.174 HD
HETATM   35  C10 UNL     1      -1.730  -4.744 -31.805  1.00  0.00     0.127 A 
HETATM   36  C12 UNL     1      -2.055  -5.135 -30.529  1.00  0.00     0.094 A 
BRANCH  35  37
HETATM   37  C11 UNL     1      -0.798  -3.654 -32.189  1.00  0.00     0.220 C 
HETATM   38  O9  UNL     1       0.275  -3.517 -31.567  1.00  0.00    -0.643 OA
HETATM   39  O10 UNL     1      -1.113  -2.810 -33.218  1.00  0.00    -0.643 OA
ENDBRANCH  35  37
BRANCH  36  40
HETATM   40  N5  UNL     1      -1.483  -4.464 -29.362  1.00  0.00    -0.322 N 
HETATM   41  C13 UNL     1      -0.290  -4.962 -28.778  1.00  0.00     0.246 C 
HETATM   42  O11 UNL     1       0.235  -5.983 -29.300  1.00  0.00    -0.271 OA
ATOM     43  H5  UNL     1      -1.940  -3.640 -28.969  1.00  0.00     0.169 HD
BRANCH  41  44
HETATM   44  C14 UNL     1       0.359  -4.359 -27.607  1.00  0.00     0.197 C 
HETATM   45  C15 UNL     1      -0.085  -2.979 -27.267  1.00  0.00     0.044 C 
BRANCH  44  46
HETATM   46  N6  UNL     1       0.124  -5.213 -26.435  1.00  0.00    -0.273 N 
HETATM   47  C16 UNL     1      -0.912  -5.205 -25.588  1.00  0.00     0.148 A 
HETATM   48  C17 UNL     1      -0.711  -6.185 -24.634  1.00  0.00     0.131 A 
HETATM   49  N8  UNL     1       0.456  -6.767 -24.935  1.00  0.00    -0.280 N 
HETATM   50  N9  UNL     1       0.939  -6.176 -26.009  1.00  0.00    -0.239 N 
ATOM     51  H8  UNL     1       0.894  -7.533 -24.424  1.00  0.00     0.188 HD
ATOM     52  H9  UNL     1       1.822  -6.424 -26.454  1.00  0.00     0.208 HD
BRANCH  48  53
HETATM   53  C18 UNL     1      -1.568  -6.542 -23.515  1.00  0.00     0.284 C 
HETATM   54  N7  UNL     1      -2.766  -7.254 -23.742  1.00  0.00    -0.056 NA
HETATM   55  O12 UNL     1      -1.246  -6.219 -22.344  1.00  0.00    -0.269 OA
ENDBRANCH  48  53
ENDBRANCH  44  46
ENDBRANCH  41  44
ENDBRANCH  36  40
ENDBRANCH  29  31
ENDBRANCH   1  29
TORSDOF 16
ENDMDL
MODEL 4
REMARK VINA RESULT: -7.686497606      2.319      5.703
REMARK  16 active torsions:
REMARK  status: ('A' for Active; 'I' for Inactive)
REMARK    1  A    between atoms: C2_2  and  O1_3 
REMARK    2  A    between atoms: C2_2  and  N1_5 
REMARK    3  A    between atoms: N1_5  and  S1_7 
REMARK    4  A    between atoms: S1_7  and  N2_10 
REMARK    5  A    between atoms: C4_14  and  C5_15 
REMARK    6  A    between atoms: C6_18  and  C7_19 
REMARK    7  A    between atoms: C7_19  and  O7_20 
REMARK    8  A    between atoms: O7_20  and  C8_21 
REMARK    9  A    between atoms: C8_21  and  C9_23 
REMARK   10  A    between atoms: C10_27  and  C11_28 
REMARK   11  A    between atoms: C12_31  and  N5_32 
REMARK       I    between atoms: N5_32  and  C13_34 
REMARK   12  A    between atoms: C13_34  and  C14_36 
REMARK   13  A    between atoms: C14_36  and  N6_38 
REMARK   14  A    between atoms: C17_40  and  C18_41 
REMARK   15  A    between atoms: C19_48  and  N10_49 
REMARK   16  A    between atoms: C20_53  and  O13_54 
ROOT
HETATM    1  O7  UNL     1      -1.275  -6.205 -24.985  1.00  0.00    -0.312 OA
ENDROOT
BRANCH   1   2
HETATM    2  C7  UNL     1      -1.098  -6.312 -23.594  1.00  0.00     0.218 C 
BRANCH   2   3
HETATM    3  C6  UNL     1      -2.342  -6.778 -22.972  1.00  0.00     0.015 C 
HETATM    4  C4  UNL     1      -2.874  -6.425 -21.825  1.00  0.00     0.127 C 
HETATM    5  N3  UNL     1      -4.108  -7.161 -21.649  1.00  0.00    -0.237 N 
HETATM    6  C3  UNL     1      -5.390  -7.669 -21.340  1.00  0.00     0.348 C 
HETATM    7  C20 UNL     1      -3.850  -8.417 -22.402  1.00  0.00     0.278 C 
HETATM    8  N2  UNL     1      -5.272  -8.622 -22.377  1.00  0.00    -0.152 N 
HETATM    9  O4  UNL     1      -6.267  -7.392 -20.500  1.00  0.00    -0.245 OA
HETATM   10  C19 UNL     1      -3.244  -7.806 -23.632  1.00  0.00     0.296 C 
BRANCH   4  11
HETATM   11  C5  UNL     1      -2.395  -5.479 -20.827  1.00  0.00     0.227 C 
HETATM   12  O5  UNL     1      -2.839  -4.320 -20.770  1.00  0.00    -0.643 OA
HETATM   13  O6  UNL     1      -1.430  -5.828 -19.905  1.00  0.00    -0.643 OA
ENDBRANCH   4  11
BRANCH   8  14
HETATM   14  S1  UNL     1      -6.338  -9.620 -23.259  1.00  0.00     0.331 S 
HETATM   15  O2  UNL     1      -5.633  -9.979 -24.546  1.00  0.00    -0.182 OA
HETATM   16  O3  UNL     1      -6.545 -10.955 -22.550  1.00  0.00    -0.182 OA
BRANCH  14  17
HETATM   17  N1  UNL     1      -7.878  -8.949 -23.535  1.00  0.00    -0.276 N 
ATOM     18  H1  UNL     1      -8.050  -8.245 -24.252  1.00  0.00     0.176 HD
BRANCH  17  19
HETATM   19  C2  UNL     1      -8.919  -9.453 -22.679  1.00  0.00     0.225 C 
HETATM   20  C1  UNL     1     -10.190  -8.655 -22.802  1.00  0.00     0.063 C 
BRANCH  19  21
HETATM   21  O1  UNL     1      -9.258 -10.766 -23.092  1.00  0.00    -0.377 OA
ATOM     22  H1  UNL     1      -9.755 -10.656 -23.894  1.00  0.00     0.212 HD
ENDBRANCH  19  21
ENDBRANCH  17  19
ENDBRANCH  14  17
ENDBRANCH   8  14
BRANCH   7  23
HETATM   23  O13 UNL     1      -3.089  -9.341 -21.730  1.00  0.00    -0.351 OA
ATOM     24  H13 UNL     1      -2.394  -8.997 -21.181  1.00  0.00     0.214 HD
ENDBRANCH   7  23
BRANCH  10  25
HETATM   25  N10 UNL     1      -2.454  -8.752 -24.388  1.00  0.00    -0.064 N 
ATOM     26 3H10 UNL     1      -1.474  -8.742 -24.104  1.00  0.00     0.275 HD
ATOM     27 2H10 UNL     1      -2.672  -9.717 -24.138  1.00  0.00     0.275 HD
ATOM     28 1H10 UNL     1      -2.563  -8.583 -25.388  1.00  0.00     0.275 HD
ENDBRANCH  10  25
ENDBRANCH   2   3
ENDBRANCH   1   2
BRANCH   1  29
HETATM   29  C8  UNL     1      -0.507  -6.771 -25.954  1.00  0.00     0.313 C 
HETATM   30  O8  UNL     1       0.305  -7.670 -25.648  1.00  0.00    -0.257 OA
BRANCH  29  31
HETATM   31  C9  UNL     1      -0.658  -6.294 -27.359  1.00  0.00     0.143 A 
HETATM   32  N4  UNL     1       0.323  -5.558 -27.892  1.00  0.00    -0.319 N 
HETATM   33  S2  UNL     1      -0.200  -5.204 -29.437  1.00  0.00    -0.005 SA
ATOM     34  H4  UNL     1       1.199  -5.275 -27.451  1.00  0.00     0.174 HD
HETATM   35  C10 UNL     1      -1.694  -6.007 -29.407  1.00  0.00     0.127 A 
HETATM   36  C12 UNL     1      -1.733  -6.544 -28.143  1.00  0.00     0.094 A 
BRANCH  35  37
HETATM   37  C11 UNL     1      -2.737  -6.129 -30.456  1.00  0.00     0.220 C 
HETATM   38  O9  UNL     1      -2.746  -5.322 -31.408  1.00  0.00    -0.643 OA
HETATM   39  O10 UNL     1      -3.679  -7.118 -30.379  1.00  0.00    -0.643 OA
ENDBRANCH  35  37
BRANCH  36  40
HETATM   40  N5  UNL     1      -2.874  -7.342 -27.694  1.00  0.00    -0.322 N 
HETATM   41  C13 UNL     1      -4.016  -6.695 -27.155  1.00  0.00     0.246 C 
HETATM   42  O11 UNL     1      -3.997  -5.436 -27.085  1.00  0.00    -0.271 OA
ATOM     43  H5  UNL     1      -2.848  -8.359 -27.768  1.00  0.00     0.169 HD
BRANCH  41  44
HETATM   44  C14 UNL     1      -5.208  -7.408 -26.678  1.00  0.00     0.197 C 
HETATM   45  C15 UNL     1      -6.274  -6.552 -26.089  1.00  0.00     0.044 C 
BRANCH  44  46
HETATM   46  N6  UNL     1      -5.795  -8.161 -27.794  1.00  0.00    -0.273 N 
HETATM   47  C16 UNL     1      -5.999  -9.480 -27.900  1.00  0.00     0.148 A 
HETATM   48  C17 UNL     1      -6.578  -9.741 -29.128  1.00  0.00     0.131 A 
HETATM   49  N8  UNL     1      -6.710  -8.558 -29.738  1.00  0.00    -0.280 N 
HETATM   50  N9  UNL     1      -6.239  -7.629 -28.932  1.00  0.00    -0.239 N 
ATOM     51  H8  UNL     1      -7.107  -8.402 -30.665  1.00  0.00     0.188 HD
ATOM     52  H9  UNL     1      -6.217  -6.633 -29.150  1.00  0.00     0.208 HD
BRANCH  48  53
HETATM   53  C18 UNL     1      -6.976 -11.025 -29.680  1.00  0.00     0.284 C 
HETATM   54  N7  UNL     1      -6.441 -11.461 -30.912  1.00  0.00    -0.056 NA
HETATM   55  O12 UNL     1      -7.795 -11.753 -29.064  1.00  0.00    -0.269 OA
ENDBRANCH  48  53
ENDBRANCH  44  46
ENDBRANCH  41  44
ENDBRANCH  36  40
ENDBRANCH  29  31
ENDBRANCH   1  29
TORSDOF 16
ENDMDL
MODEL 5
REMARK VINA RESULT: -7.675000761      1.354      1.425
REMARK  16 active torsions:
REMARK  status: ('A' for Active; 'I' for Inactive)
REMARK    1  A    between atoms: C2_2  and  O1_3 
REMARK    2  A    between atoms: C2_2  and  N1_5 
REMARK    3  A    between atoms: N1_5  and  S1_7 
REMARK    4  A    between atoms: S1_7  and  N2_10 
REMARK    5  A    between atoms: C4_14  and  C5_15 
REMARK    6  A    between atoms: C6_18  and  C7_19 
REMARK    7  A    between atoms: C7_19  and  O7_20 
REMARK    8  A    between atoms: O7_20  and  C8_21 
REMARK    9  A    between atoms: C8_21  and  C9_23 
REMARK   10  A    between atoms: C10_27  and  C11_28 
REMARK   11  A    between atoms: C12_31  and  N5_32 
REMARK       I    between atoms: N5_32  and  C13_34 
REMARK   12  A    between atoms: C13_34  and  C14_36 
REMARK   13  A    between atoms: C14_36  and  N6_38 
REMARK   14  A    between atoms: C17_40  and  C18_41 
REMARK   15  A    between atoms: C19_48  and  N10_49 
REMARK   16  A    between atoms: C20_53  and  O13_54 
ROOT
HETATM    1  O7  UNL     1      -5.792  -7.567 -28.683  1.00  0.00    -0.312 OA
ENDROOT
BRANCH   1   2
HETATM    2  C7  UNL     1      -6.879  -6.692 -28.856  1.00  0.00     0.218 C 
BRANCH   2   3
HETATM    3  C6  UNL     1      -7.271  -6.130 -27.558  1.00  0.00     0.015 C 
HETATM    4  C4  UNL     1      -7.093  -4.913 -27.099  1.00  0.00     0.127 C 
HETATM    5  N3  UNL     1      -7.655  -4.843 -25.767  1.00  0.00    -0.237 N 
HETATM    6  C3  UNL     1      -8.246  -4.521 -24.524  1.00  0.00     0.348 C 
HETATM    7  C20 UNL     1      -7.504  -6.237 -25.274  1.00  0.00     0.278 C 
HETATM    8  N2  UNL     1      -8.467  -5.893 -24.264  1.00  0.00    -0.152 N 
HETATM    9  O4  UNL     1      -8.480  -3.464 -23.908  1.00  0.00    -0.245 OA
HETATM   10  C19 UNL     1      -7.991  -6.950 -26.502  1.00  0.00     0.296 C 
BRANCH   4  11
HETATM   11  C5  UNL     1      -6.455  -3.764 -27.725  1.00  0.00     0.227 C 
HETATM   12  O5  UNL     1      -7.110  -2.761 -28.055  1.00  0.00    -0.643 OA
HETATM   13  O6  UNL     1      -5.099  -3.739 -27.979  1.00  0.00    -0.643 OA
ENDBRANCH   4  11
BRANCH   8  14
HETATM   14  S1  UNL     1      -9.450  -6.803 -23.209  1.00  0.00     0.331 S 
HETATM   15  O2  UNL     1      -8.875  -6.634 -21.823  1.00  0.00    -0.182 OA
HETATM   16  O3  UNL     1     -10.851  -6.204 -23.118  1.00  0.00    -0.182 OA
BRANCH  14  17
HETATM   17  N1  UNL     1      -9.629  -8.442 -23.636  1.00  0.00    -0.276 N 
ATOM     18  H1  UNL     1     -10.356  -8.766 -24.272  1.00  0.00     0.176 HD
BRANCH  17  19
HETATM   19  C2  UNL     1      -8.675  -9.332 -23.031  1.00  0.00     0.225 C 
HETATM   20  C1  UNL     1      -8.763 -10.725 -23.596  1.00  0.00     0.063 C 
BRANCH  19  21
HETATM   21  O1  UNL     1      -7.367  -8.883 -23.341  1.00  0.00    -0.377 OA
ATOM     22  H1  UNL     1      -6.836  -9.669 -23.388  1.00  0.00     0.212 HD
ENDBRANCH  19  21
ENDBRANCH  17  19
ENDBRANCH  14  17
ENDBRANCH   8  14
BRANCH   7  23
HETATM   23  O13 UNL     1      -6.245  -6.556 -24.832  1.00  0.00    -0.351 OA
ATOM     24  H13 UNL     1      -5.788  -7.236 -25.313  1.00  0.00     0.214 HD
ENDBRANCH   7  23
BRANCH  10  25
HETATM   25  N10 UNL     1      -7.553  -8.327 -26.554  1.00  0.00    -0.064 N 
ATOM     26 3H10 UNL     1      -7.545  -8.688 -27.508  1.00  0.00     0.275 HD
ATOM     27 2H10 UNL     1      -6.558  -8.418 -26.351  1.00  0.00     0.275 HD
ATOM     28 1H10 UNL     1      -8.123  -8.902 -25.933  1.00  0.00     0.275 HD
ENDBRANCH  10  25
ENDBRANCH   2   3
ENDBRANCH   1   2
BRANCH   1  29
HETATM   29  C8  UNL     1      -4.592  -7.281 -28.110  1.00  0.00     0.313 C 
HETATM   30  O8  UNL     1      -4.425  -7.503 -26.892  1.00  0.00    -0.257 OA
BRANCH  29  31
HETATM   31  C9  UNL     1      -3.511  -6.705 -28.960  1.00  0.00     0.143 A 
HETATM   32  N4  UNL     1      -3.726  -6.590 -30.275  1.00  0.00    -0.319 N 
HETATM   33  S2  UNL     1      -2.316  -5.934 -30.882  1.00  0.00    -0.005 SA
ATOM     34  H4  UNL     1      -4.567  -6.846 -30.793  1.00  0.00     0.174 HD
HETATM   35  C10 UNL     1      -1.436  -5.802 -29.438  1.00  0.00     0.127 A 
HETATM   36  C12 UNL     1      -2.307  -6.293 -28.497  1.00  0.00     0.094 A 
BRANCH  35  37
HETATM   37  C11 UNL     1      -0.062  -5.292 -29.197  1.00  0.00     0.220 C 
HETATM   38  O9  UNL     1       0.646  -5.828 -28.321  1.00  0.00    -0.643 OA
HETATM   39  O10 UNL     1       0.421  -4.243 -29.930  1.00  0.00    -0.643 OA
ENDBRANCH  35  37
BRANCH  36  40
HETATM   40  N5  UNL     1      -1.940  -6.352 -27.082  1.00  0.00    -0.322 N 
HETATM   41  C13 UNL     1      -1.382  -7.542 -26.548  1.00  0.00     0.246 C 
HETATM   42  O11 UNL     1      -1.225  -8.517 -27.332  1.00  0.00    -0.271 OA
ATOM     43  H5  UNL     1      -2.084  -5.540 -26.481  1.00  0.00     0.169 HD
BRANCH  41  44
HETATM   44  C14 UNL     1      -0.983  -7.698 -25.144  1.00  0.00     0.197 C 
HETATM   45  C15 UNL     1      -0.268  -6.536 -24.547  1.00  0.00     0.044 C 
BRANCH  44  46
HETATM   46  N6  UNL     1      -2.179  -7.960 -24.332  1.00  0.00    -0.273 N 
HETATM   47  C16 UNL     1      -2.537  -7.408 -23.166  1.00  0.00     0.148 A 
HETATM   48  C17 UNL     1      -3.742  -7.959 -22.769  1.00  0.00     0.131 A 
HETATM   49  N8  UNL     1      -4.082  -8.839 -23.716  1.00  0.00    -0.280 N 
HETATM   50  N9  UNL     1      -3.141  -8.828 -24.638  1.00  0.00    -0.239 N 
ATOM     51  H8  UNL     1      -4.922  -9.418 -23.724  1.00  0.00     0.188 HD
ATOM     52  H9  UNL     1      -3.149  -9.409 -25.476  1.00  0.00     0.208 HD
BRANCH  48  53
HETATM   53  C18 UNL     1      -4.512  -7.667 -21.570  1.00  0.00     0.284 C 
HETATM   54  N7  UNL     1      -5.647  -6.831 -21.647  1.00  0.00    -0.056 NA
HETATM   55  O12 UNL     1      -4.172  -8.158 -20.465  1.00  0.00    -0.269 OA
ENDBRANCH  48  53
ENDBRANCH  44  46
ENDBRANCH  41  44
ENDBRANCH  36  40
ENDBRANCH  29  31
ENDBRANCH   1  29
TORSDOF 16
ENDMDL
