MODEL 1
REMARK VINA RESULT: -8.516695056      0.000      0.000
REMARK  16 active torsions:
REMARK  status: ('A' for Active; 'I' for Inactive)
REMARK    1  A    between atoms: C2_2  and  C5_5 
REMARK    2  A    between atoms: C8_8  and  N1_9 
REMARK       I    between atoms: N2_12  and  C11_13 
REMARK    3  A    between atoms: C11_13  and  C12_15 
REMARK    4  A    between atoms: C12_15  and  C13_16 
REMARK    5  A    between atoms: C13_16  and  C14_17 
REMARK    6  A    between atoms: C14_17  and  O3_19 
REMARK    7  A    between atoms: O3_19  and  C15_20 
REMARK    8  A    between atoms: C15_20  and  C16_21 
REMARK    9  A    between atoms: C16_21  and  C17_23 
REMARK   10  A    between atoms: C17_23  and  C18_24 
REMARK   11  A    between atoms: C17_23  and  N3_29 
REMARK   12  A    between atoms: C18_24  and  C19_25 
REMARK   13  A    between atoms: C19_25  and  C20_26 
REMARK   14  A    between atoms: N3_29  and  C21_31 
REMARK   15  A    between atoms: C21_31  and  C22_36 
REMARK   16  A    between atoms: N4_32  and  O7_34 
ROOT
HETATM    1  C14 UNL     1      11.786  17.702  18.697  1.00  0.00     0.259 C 
HETATM    2  O2  UNL     1      10.795  18.155  19.311  1.00  0.00    -0.265 OA
ENDROOT
BRANCH   1   3
HETATM    3  C13 UNL     1      12.963  17.136  19.350  1.00  0.00     0.120 C 
BRANCH   3   4
HETATM    4  C12 UNL     1      14.224  17.931  19.204  1.00  0.00     0.112 C 
BRANCH   4   5
HETATM    5  C11 UNL     1      14.104  19.339  19.563  1.00  0.00     0.220 C 
HETATM    6  N2  UNL     1      14.763  20.294  18.752  1.00  0.00    -0.349 N 
HETATM    7  C10 UNL     1      15.562  19.946  17.580  1.00  0.00     0.145 C 
HETATM    8  C27 UNL     1      14.628  21.709  19.134  1.00  0.00     0.145 C 
HETATM    9  C9  UNL     1      16.780  20.800  17.415  1.00  0.00     0.142 C 
HETATM   10  N1  UNL     1      16.816  21.995  18.208  1.00  0.00    -0.381 N 
HETATM   11  C28 UNL     1      16.053  22.161  19.384  1.00  0.00     0.142 C 
HETATM   12  O1  UNL     1      13.451  19.721  20.542  1.00  0.00    -0.273 OA
BRANCH  10  13
HETATM   13  C8  UNL     1      17.672  23.065  17.790  1.00  0.00     0.003 C 
HETATM   14  C7  UNL     1      18.982  22.928  17.680  1.00  0.00    -0.002 C 
HETATM   15  C6  UNL     1      19.720  24.164  17.225  1.00  0.00     0.034 C 
HETATM   16  C5  UNL     1      19.068  24.500  15.878  1.00  0.00    -0.003 C 
HETATM   17  C30 UNL     1      17.614  24.797  16.079  1.00  0.00     0.011 C 
HETATM   18  C29 UNL     1      17.113  24.412  17.454  1.00  0.00     0.057 C 
BRANCH  16  19
HETATM   19  C2  UNL     1      19.815  25.579  15.145  1.00  0.00    -0.048 C 
HETATM   20  C1  UNL     1      18.928  26.253  14.152  1.00  0.00     0.015 C 
HETATM   21  C3  UNL     1      20.317  26.564  16.169  1.00  0.00     0.015 C 
HETATM   22  C4  UNL     1      21.025  24.931  14.500  1.00  0.00     0.015 C 
ENDBRANCH  16  19
ENDBRANCH  10  13
ENDBRANCH   4   5
ENDBRANCH   3   4
ENDBRANCH   1   3
BRANCH   1  23
HETATM   23  O3  UNL     1      11.709  17.765  17.293  1.00  0.00    -0.314 OA
BRANCH  23  24
HETATM   24  C15 UNL     1      10.832  16.898  16.605  1.00  0.00     0.259 C 
BRANCH  24  25
HETATM   25  C16 UNL     1      10.338  17.509  15.327  1.00  0.00     0.173 C 
HETATM   26  O4  UNL     1       9.201  17.301  14.933  1.00  0.00    -0.293 OA
BRANCH  25  27
HETATM   27  C17 UNL     1      11.251  18.364  14.579  1.00  0.00     0.155 C 
BRANCH  27  28
HETATM   28  C18 UNL     1      11.285  18.319  13.097  1.00  0.00     0.043 C 
BRANCH  28  29
HETATM   29  C19 UNL     1      10.634  19.327  12.273  1.00  0.00     0.116 C 
BRANCH  29  30
HETATM   30  C20 UNL     1       9.195  19.458  12.258  1.00  0.00     0.172 C 
HETATM   31  O5  UNL     1       8.348  18.722  11.723  1.00  0.00    -0.648 OA
HETATM   32  O6  UNL     1       8.648  20.597  12.957  1.00  0.00    -0.648 OA
ENDBRANCH  29  30
ENDBRANCH  28  29
ENDBRANCH  27  28
BRANCH  27  33
HETATM   33  N3  UNL     1      10.873  19.758  14.986  1.00  0.00    -0.366 N 
ATOM     34  H3  UNL     1       9.896  20.047  14.940  1.00  0.00     0.161 HD
BRANCH  33  35
HETATM   35  C21 UNL     1      11.851  20.677  15.432  1.00  0.00     0.102 C 
HETATM   36  N4  UNL     1      11.923  20.960  16.711  1.00  0.00    -0.257 N 
ATOM     37  H4  UNL     1      12.623  21.621  17.048  1.00  0.00     0.195 HD
BRANCH  36  38
HETATM   38  O7  UNL     1      11.056  20.368  17.593  1.00  0.00    -0.288 OA
ATOM     39  H7  UNL     1      11.239  20.390  18.525  1.00  0.00     0.244 HD
ENDBRANCH  36  38
BRANCH  35  40
HETATM   40  C22 UNL     1      12.783  21.312  14.466  1.00  0.00     0.055 C 
HETATM   41  C23 UNL     1      14.079  20.527  14.413  1.00  0.00     0.012 C 
HETATM   42  C24 UNL     1      15.096  21.609  14.142  1.00  0.00     0.001 C 
HETATM   43  C25 UNL     1      14.671  22.683  15.119  1.00  0.00     0.001 C 
HETATM   44  C26 UNL     1      13.164  22.689  14.937  1.00  0.00     0.012 C 
ENDBRANCH  35  40
ENDBRANCH  33  35
ENDBRANCH  27  33
ENDBRANCH  25  27
ENDBRANCH  24  25
ENDBRANCH  23  24
ENDBRANCH   1  23
TORSDOF 16
ENDMDL
MODEL 2
REMARK VINA RESULT: -8.436375487      3.696      7.047
REMARK  16 active torsions:
REMARK  status: ('A' for Active; 'I' for Inactive)
REMARK    1  A    between atoms: C2_2  and  C5_5 
REMARK    2  A    between atoms: C8_8  and  N1_9 
REMARK       I    between atoms: N2_12  and  C11_13 
REMARK    3  A    between atoms: C11_13  and  C12_15 
REMARK    4  A    between atoms: C12_15  and  C13_16 
REMARK    5  A    between atoms: C13_16  and  C14_17 
REMARK    6  A    between atoms: C14_17  and  O3_19 
REMARK    7  A    between atoms: O3_19  and  C15_20 
REMARK    8  A    between atoms: C15_20  and  C16_21 
REMARK    9  A    between atoms: C16_21  and  C17_23 
REMARK   10  A    between atoms: C17_23  and  C18_24 
REMARK   11  A    between atoms: C17_23  and  N3_29 
REMARK   12  A    between atoms: C18_24  and  C19_25 
REMARK   13  A    between atoms: C19_25  and  C20_26 
REMARK   14  A    between atoms: N3_29  and  C21_31 
REMARK   15  A    between atoms: C21_31  and  C22_36 
REMARK   16  A    between atoms: N4_32  and  O7_34 
ROOT
HETATM    1  C14 UNL     1      15.720  22.126  14.544  1.00  0.00     0.259 C 
HETATM    2  O2  UNL     1      16.011  21.886  13.351  1.00  0.00    -0.265 OA
ENDROOT
BRANCH   1   3
HETATM    3  C13 UNL     1      16.161  23.314  15.270  1.00  0.00     0.120 C 
BRANCH   3   4
HETATM    4  C12 UNL     1      17.601  23.319  15.681  1.00  0.00     0.112 C 
BRANCH   4   5
HETATM    5  C11 UNL     1      18.013  24.489  16.447  1.00  0.00     0.220 C 
HETATM    6  N2  UNL     1      19.017  25.325  15.903  1.00  0.00    -0.349 N 
HETATM    7  C10 UNL     1      19.666  25.077  14.618  1.00  0.00     0.145 C 
HETATM    8  C27 UNL     1      19.418  26.499  16.694  1.00  0.00     0.145 C 
HETATM    9  C9  UNL     1      21.124  25.419  14.612  1.00  0.00     0.142 C 
HETATM   10  N1  UNL     1      21.583  26.212  15.717  1.00  0.00    -0.381 N 
HETATM   11  C28 UNL     1      20.897  26.286  16.949  1.00  0.00     0.142 C 
HETATM   12  O1  UNL     1      17.519  24.770  17.547  1.00  0.00    -0.273 OA
BRANCH  10  13
HETATM   13  C8  UNL     1      22.798  26.956  15.564  1.00  0.00     0.003 C 
HETATM   14  C7  UNL     1      22.823  28.187  15.081  1.00  0.00    -0.002 C 
HETATM   15  C6  UNL     1      24.195  28.812  14.994  1.00  0.00     0.034 C 
HETATM   16  C5  UNL     1      24.710  28.757  16.438  1.00  0.00    -0.003 C 
HETATM   17  C30 UNL     1      24.807  27.332  16.886  1.00  0.00     0.011 C 
HETATM   18  C29 UNL     1      24.116  26.364  15.950  1.00  0.00     0.057 C 
BRANCH  16  19
HETATM   19  C2  UNL     1      25.982  29.540  16.611  1.00  0.00    -0.048 C 
HETATM   20  C1  UNL     1      26.997  29.126  15.599  1.00  0.00     0.015 C 
HETATM   21  C3  UNL     1      25.643  31.001  16.464  1.00  0.00     0.015 C 
HETATM   22  C4  UNL     1      26.455  29.320  18.035  1.00  0.00     0.015 C 
ENDBRANCH  16  19
ENDBRANCH  10  13
ENDBRANCH   4   5
ENDBRANCH   3   4
ENDBRANCH   1   3
BRANCH   1  23
HETATM   23  O3  UNL     1      14.916  21.160  15.178  1.00  0.00    -0.314 OA
BRANCH  23  24
HETATM   24  C15 UNL     1      13.745  21.566  15.855  1.00  0.00     0.259 C 
BRANCH  24  25
HETATM   25  C16 UNL     1      13.354  20.586  16.922  1.00  0.00     0.173 C 
HETATM   26  O4  UNL     1      12.524  19.719  16.701  1.00  0.00    -0.293 OA
BRANCH  25  27
HETATM   27  C17 UNL     1      14.003  20.695  18.223  1.00  0.00     0.155 C 
BRANCH  27  28
HETATM   28  C18 UNL     1      14.335  19.480  19.005  1.00  0.00     0.043 C 
BRANCH  28  29
HETATM   29  C19 UNL     1      13.723  19.195  20.295  1.00  0.00     0.116 C 
BRANCH  29  30
HETATM   30  C20 UNL     1      12.517  18.403  20.387  1.00  0.00     0.172 C 
HETATM   31  O5  UNL     1      11.334  18.761  20.260  1.00  0.00    -0.648 OA
HETATM   32  O6  UNL     1      12.695  16.997  20.664  1.00  0.00    -0.648 OA
ENDBRANCH  29  30
ENDBRANCH  28  29
ENDBRANCH  27  28
BRANCH  27  33
HETATM   33  N3  UNL     1      15.285  21.422  17.939  1.00  0.00    -0.366 N 
ATOM     34  H3  UNL     1      15.763  21.269  17.052  1.00  0.00     0.161 HD
BRANCH  33  35
HETATM   35  C21 UNL     1      15.840  22.315  18.885  1.00  0.00     0.102 C 
HETATM   36  N4  UNL     1      15.400  23.550  18.928  1.00  0.00    -0.257 N 
ATOM     37  H4  UNL     1      15.790  24.206  19.605  1.00  0.00     0.195 HD
BRANCH  36  38
HETATM   38  O7  UNL     1      14.417  23.958  18.064  1.00  0.00    -0.288 OA
ATOM     39  H7  UNL     1      13.630  24.368  18.401  1.00  0.00     0.244 HD
ENDBRANCH  36  38
BRANCH  35  40
HETATM   40  C22 UNL     1      16.905  21.861  19.815  1.00  0.00     0.055 C 
HETATM   41  C23 UNL     1      17.571  23.062  20.456  1.00  0.00     0.012 C 
HETATM   42  C24 UNL     1      18.990  22.581  20.636  1.00  0.00     0.001 C 
HETATM   43  C25 UNL     1      19.270  21.938  19.296  1.00  0.00     0.001 C 
HETATM   44  C26 UNL     1      17.993  21.152  19.056  1.00  0.00     0.012 C 
ENDBRANCH  35  40
ENDBRANCH  33  35
ENDBRANCH  27  33
ENDBRANCH  25  27
ENDBRANCH  24  25
ENDBRANCH  23  24
ENDBRANCH   1  23
TORSDOF 16
ENDMDL
MODEL 3
REMARK VINA RESULT: -8.431388987      2.904      5.154
REMARK  16 active torsions:
REMARK  status: ('A' for Active; 'I' for Inactive)
REMARK    1  A    between atoms: C2_2  and  C5_5 
REMARK    2  A    between atoms: C8_8  and  N1_9 
REMARK       I    between atoms: N2_12  and  C11_13 
REMARK    3  A    between atoms: C11_13  and  C12_15 
REMARK    4  A    between atoms: C12_15  and  C13_16 
REMARK    5  A    between atoms: C13_16  and  C14_17 
REMARK    6  A    between atoms: C14_17  and  O3_19 
REMARK    7  A    between atoms: O3_19  and  C15_20 
REMARK    8  A    between atoms: C15_20  and  C16_21 
REMARK    9  A    between atoms: C16_21  and  C17_23 
REMARK   10  A    between atoms: C17_23  and  C18_24 
REMARK   11  A    between atoms: C17_23  and  N3_29 
REMARK   12  A    between atoms: C18_24  and  C19_25 
REMARK   13  A    between atoms: C19_25  and  C20_26 
REMARK   14  A    between atoms: N3_29  and  C21_31 
REMARK   15  A    between atoms: C21_31  and  C22_36 
REMARK   16  A    between atoms: N4_32  and  O7_34 
ROOT
HETATM    1  C14 UNL     1      17.268  20.957  16.973  1.00  0.00     0.259 C 
HETATM    2  O2  UNL     1      18.426  20.682  16.590  1.00  0.00    -0.265 OA
ENDROOT
BRANCH   1   3
HETATM    3  C13 UNL     1      16.737  20.609  18.288  1.00  0.00     0.120 C 
BRANCH   3   4
HETATM    4  C12 UNL     1      16.632  21.744  19.260  1.00  0.00     0.112 C 
BRANCH   4   5
HETATM    5  C11 UNL     1      17.901  22.176  19.833  1.00  0.00     0.220 C 
HETATM    6  N2  UNL     1      18.415  23.436  19.445  1.00  0.00    -0.349 N 
HETATM    7  C10 UNL     1      17.748  24.324  18.497  1.00  0.00     0.145 C 
HETATM    8  C27 UNL     1      19.698  23.851  20.035  1.00  0.00     0.145 C 
HETATM    9  C9  UNL     1      18.695  25.050  17.593  1.00  0.00     0.142 C 
HETATM   10  N1  UNL     1      20.076  25.020  17.983  1.00  0.00    -0.381 N 
HETATM   11  C28 UNL     1      20.612  24.036  18.841  1.00  0.00     0.142 C 
HETATM   12  O1  UNL     1      18.536  21.483  20.639  1.00  0.00    -0.273 OA
BRANCH  10  13
HETATM   13  C8  UNL     1      20.950  26.033  17.471  1.00  0.00     0.003 C 
HETATM   14  C7  UNL     1      21.574  26.897  18.253  1.00  0.00    -0.002 C 
HETATM   15  C6  UNL     1      22.456  27.891  17.535  1.00  0.00     0.034 C 
HETATM   16  C5  UNL     1      23.443  27.007  16.763  1.00  0.00    -0.003 C 
HETATM   17  C30 UNL     1      22.700  26.155  15.782  1.00  0.00     0.011 C 
HETATM   18  C29 UNL     1      21.202  26.162  16.002  1.00  0.00     0.057 C 
BRANCH  16  19
HETATM   19  C2  UNL     1      24.558  27.810  16.152  1.00  0.00    -0.048 C 
HETATM   20  C1  UNL     1      24.034  28.709  15.082  1.00  0.00     0.015 C 
HETATM   21  C3  UNL     1      25.202  28.610  17.255  1.00  0.00     0.015 C 
HETATM   22  C4  UNL     1      25.590  26.827  15.635  1.00  0.00     0.015 C 
ENDBRANCH  16  19
ENDBRANCH  10  13
ENDBRANCH   4   5
ENDBRANCH   3   4
ENDBRANCH   1   3
BRANCH   1  23
HETATM   23  O3  UNL     1      16.469  21.646  16.040  1.00  0.00    -0.314 OA
BRANCH  23  24
HETATM   24  C15 UNL     1      15.280  21.048  15.567  1.00  0.00     0.259 C 
BRANCH  24  25
HETATM   25  C16 UNL     1      14.063  21.664  16.194  1.00  0.00     0.173 C 
HETATM   26  O4  UNL     1      14.141  22.714  16.811  1.00  0.00    -0.293 OA
BRANCH  25  27
HETATM   27  C17 UNL     1      12.788  20.977  16.031  1.00  0.00     0.155 C 
BRANCH  27  28
HETATM   28  C18 UNL     1      12.145  20.887  14.697  1.00  0.00     0.043 C 
BRANCH  28  29
HETATM   29  C19 UNL     1      10.819  21.427  14.436  1.00  0.00     0.116 C 
BRANCH  29  30
HETATM   30  C20 UNL     1       9.657  20.912  15.125  1.00  0.00     0.172 C 
HETATM   31  O5  UNL     1       9.371  19.735  15.404  1.00  0.00    -0.648 OA
HETATM   32  O6  UNL     1       8.684  21.888  15.556  1.00  0.00    -0.648 OA
ENDBRANCH  29  30
ENDBRANCH  28  29
ENDBRANCH  27  28
BRANCH  27  33
HETATM   33  N3  UNL     1      13.053  19.580  16.507  1.00  0.00    -0.366 N 
ATOM     34  H3  UNL     1      13.876  19.082  16.169  1.00  0.00     0.161 HD
BRANCH  33  35
HETATM   35  C21 UNL     1      12.180  18.943  17.419  1.00  0.00     0.102 C 
HETATM   36  N4  UNL     1      11.335  18.045  16.971  1.00  0.00    -0.257 N 
ATOM     37  H4  UNL     1      10.699  17.576  17.616  1.00  0.00     0.195 HD
BRANCH  36  38
HETATM   38  O7  UNL     1      11.308  17.738  15.635  1.00  0.00    -0.288 OA
ATOM     39  H7  UNL     1      11.119  16.850  15.356  1.00  0.00     0.244 HD
ENDBRANCH  36  38
BRANCH  35  40
HETATM   40  C22 UNL     1      12.219  19.285  18.864  1.00  0.00     0.055 C 
HETATM   41  C23 UNL     1      13.658  19.390  19.326  1.00  0.00     0.012 C 
HETATM   42  C24 UNL     1      13.569  18.913  20.755  1.00  0.00     0.001 C 
HETATM   43  C25 UNL     1      12.700  17.683  20.616  1.00  0.00     0.001 C 
HETATM   44  C26 UNL     1      11.612  18.177  19.679  1.00  0.00     0.012 C 
ENDBRANCH  35  40
ENDBRANCH  33  35
ENDBRANCH  27  33
ENDBRANCH  25  27
ENDBRANCH  24  25
ENDBRANCH  23  24
ENDBRANCH   1  23
TORSDOF 16
ENDMDL
MODEL 4
REMARK VINA RESULT: -8.405347771      3.744      9.353
REMARK  16 active torsions:
REMARK  status: ('A' for Active; 'I' for Inactive)
REMARK    1  A    between atoms: C2_2  and  C5_5 
REMARK    2  A    between atoms: C8_8  and  N1_9 
REMARK       I    between atoms: N2_12  and  C11_13 
REMARK    3  A    between atoms: C11_13  and  C12_15 
REMARK    4  A    between atoms: C12_15  and  C13_16 
REMARK    5  A    between atoms: C13_16  and  C14_17 
REMARK    6  A    between atoms: C14_17  and  O3_19 
REMARK    7  A    between atoms: O3_19  and  C15_20 
REMARK    8  A    between atoms: C15_20  and  C16_21 
REMARK    9  A    between atoms: C16_21  and  C17_23 
REMARK   10  A    between atoms: C17_23  and  C18_24 
REMARK   11  A    between atoms: C17_23  and  N3_29 
REMARK   12  A    between atoms: C18_24  and  C19_25 
REMARK   13  A    between atoms: C19_25  and  C20_26 
REMARK   14  A    between atoms: N3_29  and  C21_31 
REMARK   15  A    between atoms: C21_31  and  C22_36 
REMARK   16  A    between atoms: N4_32  and  O7_34 
ROOT
HETATM    1  C14 UNL     1      17.497  21.238  18.409  1.00  0.00     0.259 C 
HETATM    2  O2  UNL     1      18.715  21.048  18.621  1.00  0.00    -0.265 OA
ENDROOT
BRANCH   1   3
HETATM    3  C13 UNL     1      16.477  21.246  19.454  1.00  0.00     0.120 C 
BRANCH   3   4
HETATM    4  C12 UNL     1      15.103  21.643  19.009  1.00  0.00     0.112 C 
BRANCH   4   5
HETATM    5  C11 UNL     1      14.146  20.546  18.928  1.00  0.00     0.220 C 
HETATM    6  N2  UNL     1      13.607  20.222  17.660  1.00  0.00    -0.349 N 
HETATM    7  C10 UNL     1      13.951  20.929  16.430  1.00  0.00     0.145 C 
HETATM    8  C27 UNL     1      12.642  19.112  17.604  1.00  0.00     0.145 C 
HETATM    9  C9  UNL     1      12.793  21.099  15.498  1.00  0.00     0.142 C 
HETATM   10  N1  UNL     1      11.639  20.295  15.783  1.00  0.00    -0.381 N 
HETATM   11  C28 UNL     1      11.379  19.747  17.058  1.00  0.00     0.142 C 
HETATM   12  O1  UNL     1      13.795  19.898  19.922  1.00  0.00    -0.273 OA
BRANCH  10  13
HETATM   13  C8  UNL     1      10.704  20.045  14.726  1.00  0.00     0.003 C 
HETATM   14  C7  UNL     1      10.358  20.971  13.848  1.00  0.00    -0.002 C 
HETATM   15  C6  UNL     1       9.360  20.523  12.806  1.00  0.00     0.034 C 
HETATM   16  C5  UNL     1      10.051  19.331  12.132  1.00  0.00    -0.003 C 
HETATM   17  C30 UNL     1      10.285  18.247  13.139  1.00  0.00     0.011 C 
HETATM   18  C29 UNL     1      10.066  18.702  14.566  1.00  0.00     0.057 C 
BRANCH  16  19
HETATM   19  C2  UNL     1       9.314  18.874  10.904  1.00  0.00    -0.048 C 
HETATM   20  C1  UNL     1       8.178  17.979  11.274  1.00  0.00     0.015 C 
HETATM   21  C3  UNL     1       8.816  20.103  10.187  1.00  0.00     0.015 C 
HETATM   22  C4  UNL     1      10.323  18.192  10.001  1.00  0.00     0.015 C 
ENDBRANCH  16  19
ENDBRANCH  10  13
ENDBRANCH   4   5
ENDBRANCH   3   4
ENDBRANCH   1   3
BRANCH   1  23
HETATM   23  O3  UNL     1      17.142  21.452  17.064  1.00  0.00    -0.314 OA
BRANCH  23  24
HETATM   24  C15 UNL     1      17.953  22.278  16.254  1.00  0.00     0.259 C 
BRANCH  24  25
HETATM   25  C16 UNL     1      17.411  23.675  16.168  1.00  0.00     0.173 C 
HETATM   26  O4  UNL     1      16.209  23.875  16.097  1.00  0.00    -0.293 OA
BRANCH  25  27
HETATM   27  C17 UNL     1      18.361  24.780  16.184  1.00  0.00     0.155 C 
BRANCH  27  28
HETATM   28  C18 UNL     1      18.424  25.738  15.054  1.00  0.00     0.043 C 
BRANCH  28  29
HETATM   29  C19 UNL     1      19.669  26.363  14.632  1.00  0.00     0.116 C 
BRANCH  29  30
HETATM   30  C20 UNL     1      20.206  27.502  15.342  1.00  0.00     0.172 C 
HETATM   31  O5  UNL     1      20.328  27.675  16.566  1.00  0.00    -0.648 OA
HETATM   32  O6  UNL     1      20.670  28.601  14.529  1.00  0.00    -0.648 OA
ENDBRANCH  29  30
ENDBRANCH  28  29
ENDBRANCH  27  28
BRANCH  27  33
HETATM   33  N3  UNL     1      18.013  25.553  17.421  1.00  0.00    -0.366 N 
ATOM     34  H3  UNL     1      17.821  26.552  17.352  1.00  0.00     0.161 HD
BRANCH  33  35
HETATM   35  C21 UNL     1      17.947  24.918  18.683  1.00  0.00     0.102 C 
HETATM   36  N4  UNL     1      16.784  24.809  19.281  1.00  0.00    -0.257 N 
ATOM     37  H4  UNL     1      16.720  24.353  20.192  1.00  0.00     0.195 HD
BRANCH  36  38
HETATM   38  O7  UNL     1      15.657  25.310  18.683  1.00  0.00    -0.288 OA
ATOM     39  H7  UNL     1      15.258  24.844  17.957  1.00  0.00     0.244 HD
ENDBRANCH  36  38
BRANCH  35  40
HETATM   40  C22 UNL     1      19.175  24.380  19.321  1.00  0.00     0.055 C 
HETATM   41  C23 UNL     1      19.015  24.391  20.829  1.00  0.00     0.012 C 
HETATM   42  C24 UNL     1      20.428  24.645  21.297  1.00  0.00     0.001 C 
HETATM   43  C25 UNL     1      20.862  25.763  20.376  1.00  0.00     0.001 C 
HETATM   44  C26 UNL     1      20.348  25.276  19.033  1.00  0.00     0.012 C 
ENDBRANCH  35  40
ENDBRANCH  33  35
ENDBRANCH  27  33
ENDBRANCH  25  27
ENDBRANCH  24  25
ENDBRANCH  23  24
ENDBRANCH   1  23
TORSDOF 16
ENDMDL
MODEL 5
REMARK VINA RESULT: -8.355816107      6.168     12.149
REMARK  16 active torsions:
REMARK  status: ('A' for Active; 'I' for Inactive)
REMARK    1  A    between atoms: C2_2  and  C5_5 
REMARK    2  A    between atoms: C8_8  and  N1_9 
REMARK       I    between atoms: N2_12  and  C11_13 
REMARK    3  A    between atoms: C11_13  and  C12_15 
REMARK    4  A    between atoms: C12_15  and  C13_16 
REMARK    5  A    between atoms: C13_16  and  C14_17 
REMARK    6  A    between atoms: C14_17  and  O3_19 
REMARK    7  A    between atoms: O3_19  and  C15_20 
REMARK    8  A    between atoms: C15_20  and  C16_21 
REMARK    9  A    between atoms: C16_21  and  C17_23 
REMARK   10  A    between atoms: C17_23  and  C18_24 
REMARK   11  A    between atoms: C17_23  and  N3_29 
REMARK   12  A    between atoms: C18_24  and  C19_25 
REMARK   13  A    between atoms: C19_25  and  C20_26 
REMARK   14  A    between atoms: N3_29  and  C21_31 
REMARK   15  A    between atoms: C21_31  and  C22_36 
REMARK   16  A    between atoms: N4_32  and  O7_34 
ROOT
HETATM    1  C14 UNL     1      22.077  27.999  15.736  1.00  0.00     0.259 C 
HETATM    2  O2  UNL     1      22.774  29.001  15.465  1.00  0.00    -0.265 OA
ENDROOT
BRANCH   1   3
HETATM    3  C13 UNL     1      20.889  27.602  14.986  1.00  0.00     0.120 C 
BRANCH   3   4
HETATM    4  C12 UNL     1      19.819  26.926  15.787  1.00  0.00     0.112 C 
BRANCH   4   5
HETATM    5  C11 UNL     1      19.456  25.593  15.320  1.00  0.00     0.220 C 
HETATM    6  N2  UNL     1      18.297  24.987  15.862  1.00  0.00    -0.349 N 
HETATM    7  C10 UNL     1      17.449  25.621  16.868  1.00  0.00     0.145 C 
HETATM    8  C27 UNL     1      17.952  23.642  15.377  1.00  0.00     0.145 C 
HETATM    9  C9  UNL     1      16.914  24.662  17.885  1.00  0.00     0.142 C 
HETATM   10  N1  UNL     1      17.037  23.271  17.556  1.00  0.00    -0.381 N 
HETATM   11  C28 UNL     1      17.977  22.781  16.624  1.00  0.00     0.142 C 
HETATM   12  O1  UNL     1      20.122  24.982  14.475  1.00  0.00    -0.273 OA
BRANCH  10  13
HETATM   13  C8  UNL     1      16.171  22.336  18.211  1.00  0.00     0.003 C 
HETATM   14  C7  UNL     1      14.863  22.321  18.017  1.00  0.00    -0.002 C 
HETATM   15  C6  UNL     1      14.113  21.264  18.792  1.00  0.00     0.034 C 
HETATM   16  C5  UNL     1      14.770  19.952  18.344  1.00  0.00    -0.003 C 
HETATM   17  C30 UNL     1      16.219  19.956  18.723  1.00  0.00     0.011 C 
HETATM   18  C29 UNL     1      16.716  21.317  19.161  1.00  0.00     0.057 C 
BRANCH  16  19
HETATM   19  C2  UNL     1      14.015  18.749  18.835  1.00  0.00    -0.048 C 
HETATM   20  C1  UNL     1      14.798  17.501  18.596  1.00  0.00     0.015 C 
HETATM   21  C3  UNL     1      13.753  18.942  20.307  1.00  0.00     0.015 C 
HETATM   22  C4  UNL     1      12.673  18.740  18.128  1.00  0.00     0.015 C 
ENDBRANCH  16  19
ENDBRANCH  10  13
ENDBRANCH   4   5
ENDBRANCH   3   4
ENDBRANCH   1   3
BRANCH   1  23
HETATM   23  O3  UNL     1      22.509  27.241  16.841  1.00  0.00    -0.314 OA
BRANCH  23  24
HETATM   24  C15 UNL     1      23.871  26.880  16.946  1.00  0.00     0.259 C 
BRANCH  24  25
HETATM   25  C16 UNL     1      24.426  27.197  18.304  1.00  0.00     0.173 C 
HETATM   26  O4  UNL     1      25.138  28.174  18.476  1.00  0.00    -0.293 OA
BRANCH  25  27
HETATM   27  C17 UNL     1      24.078  26.312  19.409  1.00  0.00     0.155 C 
BRANCH  27  28
HETATM   28  C18 UNL     1      25.023  26.102  20.533  1.00  0.00     0.043 C 
BRANCH  28  29
HETATM   29  C19 UNL     1      24.625  25.446  21.770  1.00  0.00     0.116 C 
BRANCH  29  30
HETATM   30  C20 UNL     1      24.332  26.216  22.958  1.00  0.00     0.172 C 
HETATM   31  O5  UNL     1      25.035  26.396  23.967  1.00  0.00    -0.648 OA
HETATM   32  O6  UNL     1      23.048  26.874  22.993  1.00  0.00    -0.648 OA
ENDBRANCH  29  30
ENDBRANCH  28  29
ENDBRANCH  27  28
BRANCH  27  33
HETATM   33  N3  UNL     1      22.818  26.899  19.974  1.00  0.00    -0.366 N 
ATOM     34  H3  UNL     1      22.866  27.755  20.526  1.00  0.00     0.161 HD
BRANCH  33  35
HETATM   35  C21 UNL     1      21.565  26.281  19.754  1.00  0.00     0.102 C 
HETATM   36  N4  UNL     1      20.591  26.987  19.230  1.00  0.00    -0.257 N 
ATOM     37  H4  UNL     1      19.681  26.556  19.065  1.00  0.00     0.195 HD
BRANCH  36  38
HETATM   38  O7  UNL     1      20.796  28.303  18.906  1.00  0.00    -0.288 OA
ATOM     39  H7  UNL     1      20.262  28.979  19.306  1.00  0.00     0.244 HD
ENDBRANCH  36  38
BRANCH  35  40
HETATM   40  C22 UNL     1      21.355  24.855  20.110  1.00  0.00     0.055 C 
HETATM   41  C23 UNL     1      20.670  24.137  18.964  1.00  0.00     0.012 C 
HETATM   42  C24 UNL     1      19.832  23.111  19.688  1.00  0.00     0.001 C 
HETATM   43  C25 UNL     1      19.220  23.938  20.797  1.00  0.00     0.001 C 
HETATM   44  C26 UNL     1      20.415  24.742  21.278  1.00  0.00     0.012 C 
ENDBRANCH  35  40
ENDBRANCH  33  35
ENDBRANCH  27  33
ENDBRANCH  25  27
ENDBRANCH  24  25
ENDBRANCH  23  24
ENDBRANCH   1  23
TORSDOF 16
ENDMDL
