MODEL 1
REMARK VINA RESULT: -9.231888508      0.000      0.000
REMARK  15 active torsions:
REMARK  status: ('A' for Active; 'I' for Inactive)
REMARK    1  A    between atoms: O1_1  and  C1_3 
REMARK    2  A    between atoms: C1_3  and  C2_4 
REMARK    3  A    between atoms: C1_3  and  N1_15 
REMARK    4  A    between atoms: N2_18  and  C13_19 
REMARK    5  A    between atoms: C13_19  and  C14_20 
REMARK    6  A    between atoms: C14_20  and  C15_21 
REMARK    7  A    between atoms: C15_21  and  C16_22 
REMARK    8  A    between atoms: C16_22  and  C17_23 
REMARK    9  A    between atoms: C17_23  and  N3_24 
REMARK       I    between atoms: N3_24  and  C18_26 
REMARK       I    between atoms: C18_26  and  N5_34 
REMARK   10  A    between atoms: N4_27  and  C19_29 
REMARK   11  A    between atoms: C19_29  and  C20_30 
REMARK   12  A    between atoms: C20_30  and  C21_31 
REMARK   13  A    between atoms: C21_31  and  O4_32 
REMARK   14  A    between atoms: N5_34  and  C22_36 
REMARK   15  A    between atoms: C22_36  and  C23_37 
ROOT
HETATM    1  C16 UNL     1      18.323  21.895  20.226  1.00  0.00     0.020 C 
ENDROOT
BRANCH   1   2
HETATM    2  C15 UNL     1      18.499  21.482  18.786  1.00  0.00     0.003 C 
BRANCH   2   3
HETATM    3  C14 UNL     1      17.282  20.644  18.405  1.00  0.00     0.019 C 
BRANCH   3   4
HETATM    4  C13 UNL     1      16.318  20.664  19.597  1.00  0.00     0.117 C 
BRANCH   4   5
HETATM    5  N2  UNL     1      15.195  19.887  19.251  1.00  0.00    -0.409 N 
HETATM    6  C12 UNL     1      15.290  18.930  18.238  1.00  0.00     0.136 C 
HETATM    7  C11 UNL     1      14.461  17.700  18.643  1.00  0.00     0.144 C 
HETATM    8  N1  UNL     1      13.115  18.202  19.071  1.00  0.00    -0.358 N 
HETATM    9  C31 UNL     1      13.123  19.199  20.091  1.00  0.00     0.144 C 
HETATM   10  C30 UNL     1      13.903  20.424  19.571  1.00  0.00     0.136 C 
BRANCH   8  11
HETATM   11  C1  UNL     1      12.023  17.605  18.494  1.00  0.00     0.148 C 
BRANCH  11  12
HETATM   12  O1  UNL     1      11.541  16.567  19.133  1.00  0.00    -0.346 OA
ATOM     13  H1  UNL     1      10.646  16.670  19.436  1.00  0.00     0.219 HD
ENDBRANCH  11  12
BRANCH  11  14
HETATM   14  C2  UNL     1      11.318  17.944  17.291  1.00  0.00     0.017 A 
HETATM   15  C3  UNL     1      10.651  16.920  16.576  1.00  0.00     0.018 A 
HETATM   16  C4  UNL     1      10.047  17.200  15.383  1.00  0.00     0.040 A 
HETATM   17  C5  UNL     1      10.063  18.470  14.839  1.00  0.00     0.102 A 
HETATM   18  C6  UNL     1      10.714  19.457  15.543  1.00  0.00     0.102 A 
HETATM   19  O3  UNL     1       9.382  18.534  13.613  1.00  0.00    -0.348 OA
HETATM   20  C7  UNL     1      11.342  19.203  16.762  1.00  0.00     0.055 A 
HETATM   21  O2  UNL     1      10.818  20.782  15.130  1.00  0.00    -0.348 OA
HETATM   22  C8  UNL     1      10.175  21.557  14.149  1.00  0.00     0.178 C 
HETATM   23  C9  UNL     1       9.000  20.858  13.520  1.00  0.00     0.053 C 
HETATM   24  C10 UNL     1       9.410  19.640  12.732  1.00  0.00     0.178 C 
ENDBRANCH  11  14
ENDBRANCH   8  11
ENDBRANCH   4   5
ENDBRANCH   3   4
ENDBRANCH   2   3
ENDBRANCH   1   2
BRANCH   1  25
HETATM   25  C17 UNL     1      18.649  23.368  20.325  1.00  0.00     0.138 C 
BRANCH  25  26
HETATM   26  N3  UNL     1      17.520  24.188  19.955  1.00  0.00    -0.227 N 
HETATM   27  C18 UNL     1      17.589  24.852  18.691  1.00  0.00     0.669 C 
HETATM   28  N4  UNL     1      18.747  25.237  18.252  1.00  0.00    -0.227 N 
HETATM   29  N5  UNL     1      16.381  25.054  17.982  1.00  0.00    -0.222 N 
ATOM     30  H4  UNL     1      19.565  25.048  18.832  1.00  0.00     0.177 HD
ATOM     31  H5  UNL     1      16.222  25.933  17.489  1.00  0.00     0.178 HD
ATOM     32  H3  UNL     1      16.710  24.289  20.567  1.00  0.00     0.177 HD
BRANCH  28  33
HETATM   33  C19 UNL     1      18.950  25.910  17.005  1.00  0.00     0.140 C 
BRANCH  33  34
HETATM   34  C20 UNL     1      20.211  26.747  16.998  1.00  0.00     0.046 C 
BRANCH  34  35
HETATM   35  C21 UNL     1      20.488  27.263  15.601  1.00  0.00     0.165 C 
BRANCH  35  36
HETATM   36  O4  UNL     1      20.475  28.663  15.630  1.00  0.00    -0.401 OA
ATOM     37  H4  UNL     1      21.364  28.978  15.517  1.00  0.00     0.209 HD
ENDBRANCH  35  36
ENDBRANCH  34  35
ENDBRANCH  33  34
ENDBRANCH  28  33
BRANCH  29  38
HETATM   38  C22 UNL     1      15.385  24.036  17.954  1.00  0.00     0.176 C 
BRANCH  38  39
HETATM   39  C23 UNL     1      15.450  23.259  16.695  1.00  0.00    -0.037 A 
HETATM   40  C24 UNL     1      16.329  23.548  15.687  1.00  0.00     0.012 A 
HETATM   41  C25 UNL     1      16.357  22.803  14.539  1.00  0.00     0.040 A 
HETATM   42  C26 UNL     1      15.503  21.722  14.335  1.00  0.00     0.105 A 
HETATM   43  C27 UNL     1      14.613  21.428  15.350  1.00  0.00     0.105 A 
HETATM   44  O6  UNL     1      15.313  20.811  13.294  1.00  0.00    -0.323 OA
HETATM   45  C28 UNL     1      14.593  22.186  16.504  1.00  0.00     0.048 A 
HETATM   46  O5  UNL     1      13.894  20.323  14.887  1.00  0.00    -0.323 OA
HETATM   47  C29 UNL     1      13.968  20.350  13.476  1.00  0.00     0.352 C 
ENDBRANCH  38  39
ENDBRANCH  29  38
ENDBRANCH  25  26
ENDBRANCH   1  25
TORSDOF 15
ENDMDL
MODEL 2
REMARK VINA RESULT: -9.216555587      3.236     11.206
REMARK  15 active torsions:
REMARK  status: ('A' for Active; 'I' for Inactive)
REMARK    1  A    between atoms: O1_1  and  C1_3 
REMARK    2  A    between atoms: C1_3  and  C2_4 
REMARK    3  A    between atoms: C1_3  and  N1_15 
REMARK    4  A    between atoms: N2_18  and  C13_19 
REMARK    5  A    between atoms: C13_19  and  C14_20 
REMARK    6  A    between atoms: C14_20  and  C15_21 
REMARK    7  A    between atoms: C15_21  and  C16_22 
REMARK    8  A    between atoms: C16_22  and  C17_23 
REMARK    9  A    between atoms: C17_23  and  N3_24 
REMARK       I    between atoms: N3_24  and  C18_26 
REMARK       I    between atoms: C18_26  and  N5_34 
REMARK   10  A    between atoms: N4_27  and  C19_29 
REMARK   11  A    between atoms: C19_29  and  C20_30 
REMARK   12  A    between atoms: C20_30  and  C21_31 
REMARK   13  A    between atoms: C21_31  and  O4_32 
REMARK   14  A    between atoms: N5_34  and  C22_36 
REMARK   15  A    between atoms: C22_36  and  C23_37 
ROOT
HETATM    1  C16 UNL     1      14.271  22.128  14.595  1.00  0.00     0.020 C 
ENDROOT
BRANCH   1   2
HETATM    2  C15 UNL     1      15.765  21.924  14.665  1.00  0.00     0.003 C 
BRANCH   2   3
HETATM    3  C14 UNL     1      16.367  23.194  15.258  1.00  0.00     0.019 C 
BRANCH   3   4
HETATM    4  C13 UNL     1      17.828  22.892  15.608  1.00  0.00     0.117 C 
BRANCH   4   5
HETATM    5  N2  UNL     1      18.540  24.107  15.555  1.00  0.00    -0.409 N 
HETATM    6  C12 UNL     1      19.918  24.122  15.782  1.00  0.00     0.136 C 
HETATM    7  C11 UNL     1      20.563  25.140  14.827  1.00  0.00     0.144 C 
HETATM    8  N1  UNL     1      19.774  26.410  14.945  1.00  0.00    -0.358 N 
HETATM    9  C31 UNL     1      18.370  26.287  14.723  1.00  0.00     0.144 C 
HETATM   10  C30 UNL     1      17.794  25.313  15.772  1.00  0.00     0.136 C 
BRANCH   8  11
HETATM   11  C1  UNL     1      20.485  27.558  15.180  1.00  0.00     0.148 C 
BRANCH  11  12
HETATM   12  O1  UNL     1      19.854  28.679  14.922  1.00  0.00    -0.346 OA
ATOM     13  H1  UNL     1      20.421  29.432  14.798  1.00  0.00     0.219 HD
ENDBRANCH  11  12
BRANCH  11  14
HETATM   14  C2  UNL     1      21.823  27.727  15.671  1.00  0.00     0.017 A 
HETATM   15  C3  UNL     1      22.714  28.566  14.957  1.00  0.00     0.018 A 
HETATM   16  C4  UNL     1      24.016  28.676  15.354  1.00  0.00     0.040 A 
HETATM   17  C5  UNL     1      24.506  27.984  16.446  1.00  0.00     0.102 A 
HETATM   18  C6  UNL     1      23.631  27.172  17.131  1.00  0.00     0.102 A 
HETATM   19  O3  UNL     1      25.866  28.244  16.676  1.00  0.00    -0.348 OA
HETATM   20  C7  UNL     1      22.296  27.038  16.750  1.00  0.00     0.055 A 
HETATM   21  O2  UNL     1      23.970  26.414  18.248  1.00  0.00    -0.348 OA
HETATM   22  C8  UNL     1      25.067  26.398  19.126  1.00  0.00     0.178 C 
HETATM   23  C9  UNL     1      26.000  27.562  18.928  1.00  0.00     0.053 C 
HETATM   24  C10 UNL     1      26.682  27.528  17.583  1.00  0.00     0.178 C 
ENDBRANCH  11  14
ENDBRANCH   8  11
ENDBRANCH   4   5
ENDBRANCH   3   4
ENDBRANCH   2   3
ENDBRANCH   1   2
BRANCH   1  25
HETATM   25  C17 UNL     1      13.615  20.981  15.329  1.00  0.00     0.138 C 
BRANCH  25  26
HETATM   26  N3  UNL     1      13.301  21.335  16.694  1.00  0.00    -0.227 N 
HETATM   27  C18 UNL     1      13.940  20.574  17.722  1.00  0.00     0.669 C 
HETATM   28  N4  UNL     1      14.208  19.326  17.498  1.00  0.00    -0.227 N 
HETATM   29  N5  UNL     1      14.250  21.232  18.936  1.00  0.00    -0.222 N 
ATOM     30  H4  UNL     1      13.948  18.936  16.592  1.00  0.00     0.177 HD
ATOM     31  H5  UNL     1      14.117  20.748  19.824  1.00  0.00     0.178 HD
ATOM     32  H3  UNL     1      12.654  22.092  16.914  1.00  0.00     0.177 HD
BRANCH  28  33
HETATM   33  C19 UNL     1      14.844  18.458  18.443  1.00  0.00     0.140 C 
BRANCH  33  34
HETATM   34  C20 UNL     1      13.891  17.438  19.025  1.00  0.00     0.046 C 
BRANCH  34  35
HETATM   35  C21 UNL     1      13.481  17.844  20.425  1.00  0.00     0.165 C 
BRANCH  35  36
HETATM   36  O4  UNL     1      12.640  18.961  20.340  1.00  0.00    -0.401 OA
ATOM     37  H4  UNL     1      13.159  19.713  20.078  1.00  0.00     0.209 HD
ENDBRANCH  35  36
ENDBRANCH  34  35
ENDBRANCH  33  34
ENDBRANCH  28  33
BRANCH  29  38
HETATM   38  C22 UNL     1      14.747  22.568  18.925  1.00  0.00     0.176 C 
BRANCH  38  39
HETATM   39  C23 UNL     1      16.224  22.589  19.018  1.00  0.00    -0.037 A 
HETATM   40  C24 UNL     1      16.981  21.452  19.102  1.00  0.00     0.012 A 
HETATM   41  C25 UNL     1      18.346  21.517  19.185  1.00  0.00     0.040 A 
HETATM   42  C26 UNL     1      19.032  22.729  19.188  1.00  0.00     0.105 A 
HETATM   43  C27 UNL     1      18.272  23.878  19.103  1.00  0.00     0.105 A 
HETATM   44  O6  UNL     1      20.381  23.087  19.261  1.00  0.00    -0.323 OA
HETATM   45  C28 UNL     1      16.896  23.802  19.020  1.00  0.00     0.048 A 
HETATM   46  O5  UNL     1      19.198  24.924  19.128  1.00  0.00    -0.323 OA
HETATM   47  C29 UNL     1      20.357  24.428  19.767  1.00  0.00     0.352 C 
ENDBRANCH  38  39
ENDBRANCH  29  38
ENDBRANCH  25  26
ENDBRANCH   1  25
TORSDOF 15
ENDMDL
MODEL 3
REMARK VINA RESULT: -9.188428658      3.216     11.279
REMARK  15 active torsions:
REMARK  status: ('A' for Active; 'I' for Inactive)
REMARK    1  A    between atoms: O1_1  and  C1_3 
REMARK    2  A    between atoms: C1_3  and  C2_4 
REMARK    3  A    between atoms: C1_3  and  N1_15 
REMARK    4  A    between atoms: N2_18  and  C13_19 
REMARK    5  A    between atoms: C13_19  and  C14_20 
REMARK    6  A    between atoms: C14_20  and  C15_21 
REMARK    7  A    between atoms: C15_21  and  C16_22 
REMARK    8  A    between atoms: C16_22  and  C17_23 
REMARK    9  A    between atoms: C17_23  and  N3_24 
REMARK       I    between atoms: N3_24  and  C18_26 
REMARK       I    between atoms: C18_26  and  N5_34 
REMARK   10  A    between atoms: N4_27  and  C19_29 
REMARK   11  A    between atoms: C19_29  and  C20_30 
REMARK   12  A    between atoms: C20_30  and  C21_31 
REMARK   13  A    between atoms: C21_31  and  O4_32 
REMARK   14  A    between atoms: N5_34  and  C22_36 
REMARK   15  A    between atoms: C22_36  and  C23_37 
ROOT
HETATM    1  C16 UNL     1      14.993  21.125  14.926  1.00  0.00     0.020 C 
ENDROOT
BRANCH   1   2
HETATM    2  C15 UNL     1      15.141  22.608  15.164  1.00  0.00     0.003 C 
BRANCH   2   3
HETATM    3  C14 UNL     1      16.457  23.039  14.524  1.00  0.00     0.019 C 
BRANCH   3   4
HETATM    4  C13 UNL     1      17.552  22.912  15.589  1.00  0.00     0.117 C 
BRANCH   4   5
HETATM    5  N2  UNL     1      18.316  24.095  15.559  1.00  0.00    -0.409 N 
HETATM    6  C12 UNL     1      19.694  24.044  15.786  1.00  0.00     0.136 C 
HETATM    7  C11 UNL     1      20.384  25.051  14.850  1.00  0.00     0.144 C 
HETATM    8  N1  UNL     1      19.652  26.352  14.992  1.00  0.00    -0.358 N 
HETATM    9  C31 UNL     1      18.244  26.295  14.768  1.00  0.00     0.144 C 
HETATM   10  C30 UNL     1      17.624  25.328  15.798  1.00  0.00     0.136 C 
BRANCH   8  11
HETATM   11  C1  UNL     1      20.413  27.463  15.247  1.00  0.00     0.148 C 
BRANCH  11  12
HETATM   12  O1  UNL     1      19.869  28.611  14.920  1.00  0.00    -0.346 OA
ATOM     13  H1  UNL     1      19.391  28.601  14.099  1.00  0.00     0.219 HD
ENDBRANCH  11  12
BRANCH  11  14
HETATM   14  C2  UNL     1      21.723  27.567  15.825  1.00  0.00     0.017 A 
HETATM   15  C3  UNL     1      21.925  27.114  17.151  1.00  0.00     0.018 A 
HETATM   16  C4  UNL     1      23.139  27.282  17.753  1.00  0.00     0.040 A 
HETATM   17  C5  UNL     1      24.197  27.889  17.104  1.00  0.00     0.102 A 
HETATM   18  C6  UNL     1      23.989  28.325  15.816  1.00  0.00     0.102 A 
HETATM   19  O3  UNL     1      25.348  27.955  17.906  1.00  0.00    -0.348 OA
HETATM   20  C7  UNL     1      22.761  28.170  15.174  1.00  0.00     0.055 A 
HETATM   21  O2  UNL     1      24.951  28.953  15.031  1.00  0.00    -0.348 OA
HETATM   22  C8  UNL     1      26.346  29.107  15.126  1.00  0.00     0.178 C 
HETATM   23  C9  UNL     1      26.961  28.272  16.217  1.00  0.00     0.053 C 
HETATM   24  C10 UNL     1      26.509  28.699  17.590  1.00  0.00     0.178 C 
ENDBRANCH  11  14
ENDBRANCH   8  11
ENDBRANCH   4   5
ENDBRANCH   3   4
ENDBRANCH   2   3
ENDBRANCH   1   2
BRANCH   1  25
HETATM   25  C17 UNL     1      13.565  20.748  15.250  1.00  0.00     0.138 C 
BRANCH  25  26
HETATM   26  N3  UNL     1      13.173  21.224  16.555  1.00  0.00    -0.227 N 
HETATM   27  C18 UNL     1      13.695  20.519  17.684  1.00  0.00     0.669 C 
HETATM   28  N4  UNL     1      13.911  19.245  17.578  1.00  0.00    -0.227 N 
HETATM   29  N5  UNL     1      13.950  21.257  18.864  1.00  0.00    -0.222 N 
ATOM     30  H4  UNL     1      13.697  18.797  16.687  1.00  0.00     0.177 HD
ATOM     31  H5  UNL     1      13.727  20.853  19.774  1.00  0.00     0.178 HD
ATOM     32  H3  UNL     1      12.552  22.026  16.666  1.00  0.00     0.177 HD
BRANCH  28  33
HETATM   33  C19 UNL     1      14.430  18.427  18.633  1.00  0.00     0.140 C 
BRANCH  33  34
HETATM   34  C20 UNL     1      13.345  17.667  19.362  1.00  0.00     0.046 C 
BRANCH  34  35
HETATM   35  C21 UNL     1      13.053  18.322  20.695  1.00  0.00     0.165 C 
BRANCH  35  36
HETATM   36  O4  UNL     1      11.749  18.833  20.668  1.00  0.00    -0.401 OA
ATOM     37  H4  UNL     1      11.474  19.014  21.559  1.00  0.00     0.209 HD
ENDBRANCH  35  36
ENDBRANCH  34  35
ENDBRANCH  33  34
ENDBRANCH  28  33
BRANCH  29  38
HETATM   38  C22 UNL     1      14.516  22.563  18.789  1.00  0.00     0.176 C 
BRANCH  38  39
HETATM   39  C23 UNL     1      15.990  22.514  18.918  1.00  0.00    -0.037 A 
HETATM   40  C24 UNL     1      16.694  21.342  18.973  1.00  0.00     0.012 A 
HETATM   41  C25 UNL     1      18.058  21.342  19.092  1.00  0.00     0.040 A 
HETATM   42  C26 UNL     1      18.796  22.521  19.162  1.00  0.00     0.105 A 
HETATM   43  C27 UNL     1      18.089  23.706  19.106  1.00  0.00     0.105 A 
HETATM   44  O6  UNL     1      20.157  22.815  19.281  1.00  0.00    -0.323 OA
HETATM   45  C28 UNL     1      16.714  23.694  18.987  1.00  0.00     0.048 A 
HETATM   46  O5  UNL     1      19.060  24.707  19.196  1.00  0.00    -0.323 OA
HETATM   47  C29 UNL     1      20.179  24.134  19.841  1.00  0.00     0.352 C 
ENDBRANCH  38  39
ENDBRANCH  29  38
ENDBRANCH  25  26
ENDBRANCH   1  25
TORSDOF 15
ENDMDL
MODEL 4
REMARK VINA RESULT: -9.005121181      3.456     11.453
REMARK  15 active torsions:
REMARK  status: ('A' for Active; 'I' for Inactive)
REMARK    1  A    between atoms: O1_1  and  C1_3 
REMARK    2  A    between atoms: C1_3  and  C2_4 
REMARK    3  A    between atoms: C1_3  and  N1_15 
REMARK    4  A    between atoms: N2_18  and  C13_19 
REMARK    5  A    between atoms: C13_19  and  C14_20 
REMARK    6  A    between atoms: C14_20  and  C15_21 
REMARK    7  A    between atoms: C15_21  and  C16_22 
REMARK    8  A    between atoms: C16_22  and  C17_23 
REMARK    9  A    between atoms: C17_23  and  N3_24 
REMARK       I    between atoms: N3_24  and  C18_26 
REMARK       I    between atoms: C18_26  and  N5_34 
REMARK   10  A    between atoms: N4_27  and  C19_29 
REMARK   11  A    between atoms: C19_29  and  C20_30 
REMARK   12  A    between atoms: C20_30  and  C21_31 
REMARK   13  A    between atoms: C21_31  and  O4_32 
REMARK   14  A    between atoms: N5_34  and  C22_36 
REMARK   15  A    between atoms: C22_36  and  C23_37 
ROOT
HETATM    1  C16 UNL     1      14.200  22.394  15.327  1.00  0.00     0.020 C 
ENDROOT
BRANCH   1   2
HETATM    2  C15 UNL     1      15.628  22.217  14.873  1.00  0.00     0.003 C 
BRANCH   2   3
HETATM    3  C14 UNL     1      16.413  23.427  15.369  1.00  0.00     0.019 C 
BRANCH   3   4
HETATM    4  C13 UNL     1      17.901  23.058  15.332  1.00  0.00     0.117 C 
BRANCH   4   5
HETATM    5  N2  UNL     1      18.639  24.258  15.359  1.00  0.00    -0.409 N 
HETATM    6  C12 UNL     1      20.023  24.224  15.543  1.00  0.00     0.136 C 
HETATM    7  C11 UNL     1      20.663  25.306  14.657  1.00  0.00     0.144 C 
HETATM    8  N1  UNL     1      19.909  26.578  14.906  1.00  0.00    -0.358 N 
HETATM    9  C31 UNL     1      18.496  26.503  14.720  1.00  0.00     0.144 C 
HETATM   10  C30 UNL     1      17.929  25.457  15.701  1.00  0.00     0.136 C 
BRANCH   8  11
HETATM   11  C1  UNL     1      20.654  27.687  15.214  1.00  0.00     0.148 C 
BRANCH  11  12
HETATM   12  O1  UNL     1      20.058  28.840  15.026  1.00  0.00    -0.346 OA
ATOM     13  H1  UNL     1      20.263  29.501  15.678  1.00  0.00     0.219 HD
ENDBRANCH  11  12
BRANCH  11  14
HETATM   14  C2  UNL     1      21.995  27.784  15.716  1.00  0.00     0.017 A 
HETATM   15  C3  UNL     1      22.942  28.551  14.995  1.00  0.00     0.018 A 
HETATM   16  C4  UNL     1      24.245  28.588  15.404  1.00  0.00     0.040 A 
HETATM   17  C5  UNL     1      24.681  27.891  16.516  1.00  0.00     0.102 A 
HETATM   18  C6  UNL     1      23.750  27.149  17.207  1.00  0.00     0.102 A 
HETATM   19  O3  UNL     1      26.052  28.071  16.755  1.00  0.00    -0.348 OA
HETATM   20  C7  UNL     1      22.414  27.090  16.815  1.00  0.00     0.055 A 
HETATM   21  O2  UNL     1      24.030  26.395  18.343  1.00  0.00    -0.348 OA
HETATM   22  C8  UNL     1      25.116  26.331  19.234  1.00  0.00     0.178 C 
HETATM   23  C9  UNL     1      26.122  27.431  19.022  1.00  0.00     0.053 C 
HETATM   24  C10 UNL     1      26.813  27.327  17.686  1.00  0.00     0.178 C 
ENDBRANCH  11  14
ENDBRANCH   8  11
ENDBRANCH   4   5
ENDBRANCH   3   4
ENDBRANCH   2   3
ENDBRANCH   1   2
BRANCH   1  25
HETATM   25  C17 UNL     1      13.917  21.343  16.377  1.00  0.00     0.138 C 
BRANCH  25  26
HETATM   26  N3  UNL     1      14.770  21.503  17.531  1.00  0.00    -0.227 N 
HETATM   27  C18 UNL     1      15.133  20.314  18.236  1.00  0.00     0.669 C 
HETATM   28  N4  UNL     1      14.289  19.331  18.276  1.00  0.00    -0.227 N 
HETATM   29  N5  UNL     1      16.406  20.273  18.854  1.00  0.00    -0.222 N 
ATOM     30  H4  UNL     1      13.394  19.449  17.801  1.00  0.00     0.177 HD
ATOM     31  H5  UNL     1      16.510  19.845  19.774  1.00  0.00     0.178 HD
ATOM     32  H3  UNL     1      15.097  22.422  17.830  1.00  0.00     0.177 HD
BRANCH  28  33
HETATM   33  C19 UNL     1      14.532  18.089  18.947  1.00  0.00     0.140 C 
BRANCH  33  34
HETATM   34  C20 UNL     1      13.809  17.996  20.273  1.00  0.00     0.046 C 
BRANCH  34  35
HETATM   35  C21 UNL     1      12.319  17.853  20.047  1.00  0.00     0.165 C 
BRANCH  35  36
HETATM   36  O4  UNL     1      11.660  18.870  20.750  1.00  0.00    -0.401 OA
ATOM     37  H4  UNL     1      11.404  18.535  21.601  1.00  0.00     0.209 HD
ENDBRANCH  35  36
ENDBRANCH  34  35
ENDBRANCH  33  34
ENDBRANCH  28  33
BRANCH  29  38
HETATM   38  C22 UNL     1      17.542  20.829  18.198  1.00  0.00     0.176 C 
BRANCH  38  39
HETATM   39  C23 UNL     1      18.114  21.950  18.978  1.00  0.00    -0.037 A 
HETATM   40  C24 UNL     1      17.479  22.508  20.054  1.00  0.00     0.012 A 
HETATM   41  C25 UNL     1      18.044  23.544  20.748  1.00  0.00     0.040 A 
HETATM   42  C26 UNL     1      19.282  24.080  20.403  1.00  0.00     0.105 A 
HETATM   43  C27 UNL     1      19.926  23.519  19.318  1.00  0.00     0.105 A 
HETATM   44  O6  UNL     1      20.078  25.107  20.916  1.00  0.00    -0.323 OA
HETATM   45  C28 UNL     1      19.347  22.475  18.624  1.00  0.00     0.048 A 
HETATM   46  O5  UNL     1      21.120  24.236  19.199  1.00  0.00    -0.323 OA
HETATM   47  C29 UNL     1      20.904  25.493  19.809  1.00  0.00     0.352 C 
ENDBRANCH  38  39
ENDBRANCH  29  38
ENDBRANCH  25  26
ENDBRANCH   1  25
TORSDOF 15
ENDMDL
MODEL 5
REMARK VINA RESULT: -8.826816650      2.204      9.866
REMARK  15 active torsions:
REMARK  status: ('A' for Active; 'I' for Inactive)
REMARK    1  A    between atoms: O1_1  and  C1_3 
REMARK    2  A    between atoms: C1_3  and  C2_4 
REMARK    3  A    between atoms: C1_3  and  N1_15 
REMARK    4  A    between atoms: N2_18  and  C13_19 
REMARK    5  A    between atoms: C13_19  and  C14_20 
REMARK    6  A    between atoms: C14_20  and  C15_21 
REMARK    7  A    between atoms: C15_21  and  C16_22 
REMARK    8  A    between atoms: C16_22  and  C17_23 
REMARK    9  A    between atoms: C17_23  and  N3_24 
REMARK       I    between atoms: N3_24  and  C18_26 
REMARK       I    between atoms: C18_26  and  N5_34 
REMARK   10  A    between atoms: N4_27  and  C19_29 
REMARK   11  A    between atoms: C19_29  and  C20_30 
REMARK   12  A    between atoms: C20_30  and  C21_31 
REMARK   13  A    between atoms: C21_31  and  O4_32 
REMARK   14  A    between atoms: N5_34  and  C22_36 
REMARK   15  A    between atoms: C22_36  and  C23_37 
ROOT
HETATM    1  C16 UNL     1      12.675  17.704  20.314  1.00  0.00     0.020 C 
ENDROOT
BRANCH   1   2
HETATM    2  C15 UNL     1      13.865  17.770  19.388  1.00  0.00     0.003 C 
BRANCH   2   3
HETATM    3  C14 UNL     1      14.544  19.116  19.621  1.00  0.00     0.019 C 
BRANCH   3   4
HETATM    4  C13 UNL     1      15.034  19.626  18.261  1.00  0.00     0.117 C 
BRANCH   4   5
HETATM    5  N2  UNL     1      15.773  20.804  18.488  1.00  0.00    -0.409 N 
HETATM    6  C12 UNL     1      17.168  20.758  18.529  1.00  0.00     0.136 C 
HETATM    7  C11 UNL     1      17.722  22.024  17.854  1.00  0.00     0.144 C 
HETATM    8  N1  UNL     1      16.996  23.192  18.451  1.00  0.00    -0.358 N 
HETATM    9  C31 UNL     1      15.572  23.132  18.386  1.00  0.00     0.144 C 
HETATM   10  C30 UNL     1      15.100  21.881  19.155  1.00  0.00     0.136 C 
BRANCH   8  11
HETATM   11  C1  UNL     1      17.769  24.219  18.929  1.00  0.00     0.148 C 
BRANCH  11  12
HETATM   12  O1  UNL     1      17.478  24.632  20.139  1.00  0.00    -0.346 OA
ATOM     13  H1  UNL     1      17.740  24.037  20.833  1.00  0.00     0.219 HD
ENDBRANCH  11  12
BRANCH  11  14
HETATM   14  C2  UNL     1      18.858  24.916  18.307  1.00  0.00     0.017 A 
HETATM   15  C3  UNL     1      20.111  24.958  18.967  1.00  0.00     0.018 A 
HETATM   16  C4  UNL     1      21.138  25.687  18.439  1.00  0.00     0.040 A 
HETATM   17  C5  UNL     1      20.997  26.399  17.263  1.00  0.00     0.102 A 
HETATM   18  C6  UNL     1      19.775  26.351  16.631  1.00  0.00     0.102 A 
HETATM   19  O3  UNL     1      22.174  27.074  16.903  1.00  0.00    -0.348 OA
HETATM   20  C7  UNL     1      18.707  25.617  17.145  1.00  0.00     0.055 A 
HETATM   21  O2  UNL     1      19.476  27.011  15.443  1.00  0.00    -0.348 OA
HETATM   22  C8  UNL     1      20.246  27.643  14.451  1.00  0.00     0.178 C 
HETATM   23  C9  UNL     1      21.725  27.412  14.614  1.00  0.00     0.053 C 
HETATM   24  C10 UNL     1      22.268  28.039  15.873  1.00  0.00     0.178 C 
ENDBRANCH  11  14
ENDBRANCH   8  11
ENDBRANCH   4   5
ENDBRANCH   3   4
ENDBRANCH   2   3
ENDBRANCH   1   2
BRANCH   1  25
HETATM   25  C17 UNL     1      11.455  18.125  19.526  1.00  0.00     0.138 C 
BRANCH  25  26
HETATM   26  N3  UNL     1      11.696  18.066  18.104  1.00  0.00    -0.227 N 
HETATM   27  C18 UNL     1      10.751  17.335  17.317  1.00  0.00     0.669 C 
HETATM   28  N4  UNL     1      10.167  16.305  17.845  1.00  0.00    -0.227 N 
HETATM   29  N5  UNL     1      10.504  17.780  15.997  1.00  0.00    -0.222 N 
ATOM     30  H4  UNL     1      10.408  16.058  18.804  1.00  0.00     0.177 HD
ATOM     31  H5  UNL     1      10.389  17.101  15.245  1.00  0.00     0.178 HD
ATOM     32  H3  UNL     1      12.502  18.524  17.679  1.00  0.00     0.177 HD
BRANCH  28  33
HETATM   33  C19 UNL     1       9.204  15.491  17.164  1.00  0.00     0.140 C 
BRANCH  33  34
HETATM   34  C20 UNL     1       8.812  14.268  17.963  1.00  0.00     0.046 C 
BRANCH  34  35
HETATM   35  C21 UNL     1       7.413  14.432  18.517  1.00  0.00     0.165 C 
BRANCH  35  36
HETATM   36  O4  UNL     1       7.395  15.543  19.370  1.00  0.00    -0.401 OA
ATOM     37  H4  UNL     1       6.492  15.793  19.526  1.00  0.00     0.209 HD
ENDBRANCH  35  36
ENDBRANCH  34  35
ENDBRANCH  33  34
ENDBRANCH  28  33
BRANCH  29  38
HETATM   38  C22 UNL     1      10.414  19.174  15.713  1.00  0.00     0.176 C 
BRANCH  38  39
HETATM   39  C23 UNL     1      11.643  19.664  15.049  1.00  0.00    -0.037 A 
HETATM   40  C24 UNL     1      12.061  19.210  13.828  1.00  0.00     0.012 A 
HETATM   41  C25 UNL     1      13.204  19.692  13.249  1.00  0.00     0.040 A 
HETATM   42  C26 UNL     1      13.995  20.660  13.862  1.00  0.00     0.105 A 
HETATM   43  C27 UNL     1      13.577  21.121  15.095  1.00  0.00     0.105 A 
HETATM   44  O6  UNL     1      15.179  21.317  13.516  1.00  0.00    -0.323 OA
HETATM   45  C28 UNL     1      12.422  20.628  15.670  1.00  0.00     0.048 A 
HETATM   46  O5  UNL     1      14.537  22.064  15.470  1.00  0.00    -0.323 OA
HETATM   47  C29 UNL     1      15.722  21.739  14.773  1.00  0.00     0.352 C 
ENDBRANCH  38  39
ENDBRANCH  29  38
ENDBRANCH  25  26
ENDBRANCH   1  25
TORSDOF 15
ENDMDL
