MODEL 1
REMARK VINA RESULT: -8.875341641      0.000      0.000
REMARK  13 active torsions:
REMARK  status: ('A' for Active; 'I' for Inactive)
REMARK    1  A    between atoms: C2_2  and  C3_3 
REMARK    2  A    between atoms: C3_3  and  C4_4 
REMARK    3  A    between atoms: C4_4  and  C5_5 
REMARK    4  A    between atoms: C5_5  and  C6_6 
REMARK    5  A    between atoms: C6_6  and  C7_7 
REMARK    6  A    between atoms: C10_12  and  C11_13 
REMARK       I    between atoms: C11_13  and  N2_15 
REMARK    7  A    between atoms: N2_15  and  C12_17 
REMARK    8  A    between atoms: C12_17  and  C13_18 
REMARK    9  A    between atoms: C13_18  and  C14_19 
REMARK   10  A    between atoms: C14_19  and  N3_20 
REMARK   11  A    between atoms: C26_36  and  C28_38 
REMARK   12  A    between atoms: C28_38  and  O4_39 
REMARK   13  A    between atoms: O4_39  and  C29_40 
ROOT
HETATM    1  C7  UNL     1      20.307  24.763  16.534  1.00  0.00    -0.048 A 
HETATM    2  C8  UNL     1      19.343  23.763  16.325  1.00  0.00     0.038 A 
HETATM    3  C9  UNL     1      18.637  23.154  17.325  1.00  0.00     0.051 A 
HETATM    4  N1  UNL     1      17.730  22.204  17.061  1.00  0.00    -0.337 N 
ATOM      5  H1  UNL     1      17.561  21.931  16.093  1.00  0.00     0.167 HD
HETATM    6  C10 UNL     1      17.039  21.604  18.039  1.00  0.00     0.177 A 
HETATM    7  N4  UNL     1      17.256  21.959  19.308  1.00  0.00    -0.304 N 
ATOM      8  H4  UNL     1      16.726  21.497  20.047  1.00  0.00     0.171 HD
HETATM    9  C19 UNL     1      18.172  22.926  19.653  1.00  0.00     0.260 A 
HETATM   10  O3  UNL     1      18.258  23.139  20.837  1.00  0.00    -0.267 OA
HETATM   11  C20 UNL     1      18.866  23.527  18.655  1.00  0.00     0.075 A 
HETATM   12  C21 UNL     1      19.815  24.512  18.907  1.00  0.00     0.057 A 
HETATM   13  C22 UNL     1      20.550  25.144  17.842  1.00  0.00    -0.025 A 
HETATM   14  C23 UNL     1      21.540  26.183  18.135  1.00  0.00     0.008 C 
HETATM   15  C24 UNL     1      22.772  26.276  17.319  1.00  0.00     0.023 C 
HETATM   16  C25 UNL     1      20.873  27.545  18.350  1.00  0.00     0.023 C 
HETATM   17  C26 UNL     1      22.125  25.909  19.544  1.00  0.00     0.062 C 
HETATM   18  C27 UNL     1      22.986  27.150  19.907  1.00  0.00     0.042 C 
HETATM   19  N5  UNL     1      21.079  25.894  20.499  1.00  0.00    -0.345 N 
ATOM     20  H5  UNL     1      21.041  26.543  21.285  1.00  0.00     0.163 HD
HETATM   21  C31 UNL     1      20.071  24.886  20.272  1.00  0.00     0.254 C 
HETATM   22  O6  UNL     1      19.535  24.452  21.282  1.00  0.00    -0.268 OA
ENDROOT
BRANCH   6  23
HETATM   23  C11 UNL     1      16.037  20.550  17.778  1.00  0.00     0.285 C 
HETATM   24  O1  UNL     1      15.313  20.743  16.762  1.00  0.00    -0.264 OA
HETATM   25  N2  UNL     1      15.910  19.425  18.605  1.00  0.00    -0.354 N 
ATOM     26  H2  UNL     1      16.539  19.356  19.405  1.00  0.00     0.162 HD
BRANCH  25  27
HETATM   27  C12 UNL     1      14.962  18.359  18.412  1.00  0.00     0.128 C 
BRANCH  27  28
HETATM   28  C13 UNL     1      14.050  18.178  19.603  1.00  0.00     0.065 C 
BRANCH  28  29
HETATM   29  C14 UNL     1      12.927  19.186  19.458  1.00  0.00     0.069 C 
BRANCH  29  30
HETATM   30  N3  UNL     1      12.088  18.959  18.364  1.00  0.00    -0.350 N 
HETATM   31  C15 UNL     1      11.202  17.875  18.345  1.00  0.00     0.094 C 
HETATM   32  C16 UNL     1      10.758  17.476  16.943  1.00  0.00     0.213 C 
HETATM   33  O2  UNL     1      10.396  18.537  16.154  1.00  0.00    -0.381 OA
HETATM   34  C17 UNL     1      10.540  19.779  16.750  1.00  0.00     0.213 C 
HETATM   35  C18 UNL     1      11.916  19.943  17.375  1.00  0.00     0.094 C 
ENDBRANCH  29  30
ENDBRANCH  28  29
ENDBRANCH  27  28
ENDBRANCH  25  27
ENDBRANCH   6  23
BRANCH   1  36
HETATM   36  C6  UNL     1      20.856  25.295  15.316  1.00  0.00     0.039 C 
BRANCH  36  37
HETATM   37  C5  UNL     1      19.831  25.649  14.226  1.00  0.00     0.005 C 
BRANCH  37  38
HETATM   38  C4  UNL     1      19.183  26.989  14.555  1.00  0.00     0.000 C 
BRANCH  38  39
HETATM   39  C3  UNL     1      20.221  27.992  14.957  1.00  0.00    -0.000 C 
BRANCH  39  40
HETATM   40  C2  UNL     1      21.199  28.256  13.839  1.00  0.00    -0.005 C 
HETATM   41  C1  UNL     1      22.573  28.443  14.416  1.00  0.00     0.005 C 
ENDBRANCH  39  40
ENDBRANCH  38  39
ENDBRANCH  37  38
ENDBRANCH  36  37
ENDBRANCH   1  36
BRANCH  17  42
HETATM   42  C28 UNL     1      23.065  24.771  19.522  1.00  0.00     0.210 C 
BRANCH  42  43
HETATM   43  O4  UNL     1      24.338  24.972  20.081  1.00  0.00    -0.319 OA
BRANCH  43  44
HETATM   44  C29 UNL     1      25.470  24.683  19.353  1.00  0.00     0.254 C 
HETATM   45  C30 UNL     1      25.842  23.275  18.993  1.00  0.00     0.126 C 
HETATM   46  O5  UNL     1      26.205  25.621  18.981  1.00  0.00    -0.266 OA
ENDBRANCH  43  44
ENDBRANCH  42  43
ENDBRANCH  17  42
TORSDOF 13
ENDMDL
MODEL 2
REMARK VINA RESULT: -8.535429706      2.763      5.029
REMARK  13 active torsions:
REMARK  status: ('A' for Active; 'I' for Inactive)
REMARK    1  A    between atoms: C2_2  and  C3_3 
REMARK    2  A    between atoms: C3_3  and  C4_4 
REMARK    3  A    between atoms: C4_4  and  C5_5 
REMARK    4  A    between atoms: C5_5  and  C6_6 
REMARK    5  A    between atoms: C6_6  and  C7_7 
REMARK    6  A    between atoms: C10_12  and  C11_13 
REMARK       I    between atoms: C11_13  and  N2_15 
REMARK    7  A    between atoms: N2_15  and  C12_17 
REMARK    8  A    between atoms: C12_17  and  C13_18 
REMARK    9  A    between atoms: C13_18  and  C14_19 
REMARK   10  A    between atoms: C14_19  and  N3_20 
REMARK   11  A    between atoms: C26_36  and  C28_38 
REMARK   12  A    between atoms: C28_38  and  O4_39 
REMARK   13  A    between atoms: O4_39  and  C29_40 
ROOT
HETATM    1  C7  UNL     1      18.409  24.519  19.492  1.00  0.00    -0.048 A 
HETATM    2  C8  UNL     1      17.146  24.120  19.024  1.00  0.00     0.038 A 
HETATM    3  C9  UNL     1      16.835  23.946  17.705  1.00  0.00     0.051 A 
HETATM    4  N1  UNL     1      15.609  23.565  17.320  1.00  0.00    -0.337 N 
ATOM      5  H1  UNL     1      14.893  23.400  18.027  1.00  0.00     0.167 HD
HETATM    6  C10 UNL     1      15.301  23.397  16.027  1.00  0.00     0.177 A 
HETATM    7  N4  UNL     1      16.235  23.612  15.097  1.00  0.00    -0.304 N 
ATOM      8  H4  UNL     1      15.992  23.481  14.115  1.00  0.00     0.171 HD
HETATM    9  C19 UNL     1      17.514  24.004  15.419  1.00  0.00     0.260 A 
HETATM   10  O3  UNL     1      18.246  24.158  14.473  1.00  0.00    -0.267 OA
HETATM   11  C20 UNL     1      17.815  24.171  16.730  1.00  0.00     0.075 A 
HETATM   12  C21 UNL     1      19.079  24.570  17.150  1.00  0.00     0.057 A 
HETATM   13  C22 UNL     1      19.391  24.749  18.545  1.00  0.00    -0.025 A 
HETATM   14  C23 UNL     1      20.732  25.164  18.961  1.00  0.00     0.008 C 
HETATM   15  C24 UNL     1      20.896  26.067  20.124  1.00  0.00     0.023 C 
HETATM   16  C25 UNL     1      21.698  23.975  18.999  1.00  0.00     0.023 C 
HETATM   17  C26 UNL     1      21.350  26.015  17.823  1.00  0.00     0.062 C 
HETATM   18  C27 UNL     1      22.840  26.234  18.200  1.00  0.00     0.042 C 
HETATM   19  N5  UNL     1      21.379  25.259  16.625  1.00  0.00    -0.345 N 
ATOM     20  H5  UNL     1      22.246  25.040  16.133  1.00  0.00     0.163 HD
HETATM   21  C31 UNL     1      20.085  24.824  16.155  1.00  0.00     0.254 C 
HETATM   22  O6  UNL     1      19.985  24.717  14.941  1.00  0.00    -0.268 OA
ENDROOT
BRANCH   6  23
HETATM   23  C11 UNL     1      13.956  22.983  15.575  1.00  0.00     0.285 C 
HETATM   24  O1  UNL     1      13.327  23.853  14.911  1.00  0.00    -0.264 OA
HETATM   25  N2  UNL     1      13.432  21.715  15.867  1.00  0.00    -0.354 N 
ATOM     26  H2  UNL     1      14.015  21.079  16.411  1.00  0.00     0.162 HD
BRANCH  25  27
HETATM   27  C12 UNL     1      12.135  21.242  15.458  1.00  0.00     0.128 C 
BRANCH  27  28
HETATM   28  C13 UNL     1      11.854  19.841  15.946  1.00  0.00     0.065 C 
BRANCH  28  29
HETATM   29  C14 UNL     1      11.351  19.961  17.370  1.00  0.00     0.069 C 
BRANCH  29  30
HETATM   30  N3  UNL     1      12.107  19.256  18.310  1.00  0.00    -0.350 N 
HETATM   31  C15 UNL     1      11.496  18.410  19.244  1.00  0.00     0.094 C 
HETATM   32  C16 UNL     1      12.353  18.139  20.473  1.00  0.00     0.213 C 
HETATM   33  O2  UNL     1      13.658  17.837  20.183  1.00  0.00    -0.381 OA
HETATM   34  C17 UNL     1      13.976  17.875  18.835  1.00  0.00     0.213 C 
HETATM   35  C18 UNL     1      13.504  19.168  18.186  1.00  0.00     0.094 C 
ENDBRANCH  29  30
ENDBRANCH  28  29
ENDBRANCH  27  28
ENDBRANCH  25  27
ENDBRANCH   6  23
BRANCH   1  36
HETATM   36  C6  UNL     1      18.502  24.559  20.927  1.00  0.00     0.039 C 
BRANCH  36  37
HETATM   37  C5  UNL     1      19.116  23.314  21.587  1.00  0.00     0.005 C 
BRANCH  37  38
HETATM   38  C4  UNL     1      18.368  22.070  21.119  1.00  0.00     0.000 C 
BRANCH  38  39
HETATM   39  C3  UNL     1      19.186  21.306  20.123  1.00  0.00    -0.000 C 
BRANCH  39  40
HETATM   40  C2  UNL     1      18.395  21.002  18.875  1.00  0.00    -0.005 C 
HETATM   41  C1  UNL     1      16.978  20.677  19.254  1.00  0.00     0.005 C 
ENDBRANCH  39  40
ENDBRANCH  38  39
ENDBRANCH  37  38
ENDBRANCH  36  37
ENDBRANCH   1  36
BRANCH  17  42
HETATM   42  C28 UNL     1      20.753  27.365  17.779  1.00  0.00     0.210 C 
BRANCH  42  43
HETATM   43  O4  UNL     1      21.428  28.347  17.035  1.00  0.00    -0.319 OA
BRANCH  43  44
HETATM   44  C29 UNL     1      21.263  28.420  15.670  1.00  0.00     0.254 C 
HETATM   45  C30 UNL     1      22.414  28.257  14.723  1.00  0.00     0.126 C 
HETATM   46  O5  UNL     1      20.120  28.627  15.211  1.00  0.00    -0.266 OA
ENDBRANCH  43  44
ENDBRANCH  42  43
ENDBRANCH  17  42
TORSDOF 13
ENDMDL
MODEL 3
REMARK VINA RESULT: -8.531215570      1.660      2.227
REMARK  13 active torsions:
REMARK  status: ('A' for Active; 'I' for Inactive)
REMARK    1  A    between atoms: C2_2  and  C3_3 
REMARK    2  A    between atoms: C3_3  and  C4_4 
REMARK    3  A    between atoms: C4_4  and  C5_5 
REMARK    4  A    between atoms: C5_5  and  C6_6 
REMARK    5  A    between atoms: C6_6  and  C7_7 
REMARK    6  A    between atoms: C10_12  and  C11_13 
REMARK       I    between atoms: C11_13  and  N2_15 
REMARK    7  A    between atoms: N2_15  and  C12_17 
REMARK    8  A    between atoms: C12_17  and  C13_18 
REMARK    9  A    between atoms: C13_18  and  C14_19 
REMARK   10  A    between atoms: C14_19  and  N3_20 
REMARK   11  A    between atoms: C26_36  and  C28_38 
REMARK   12  A    between atoms: C28_38  and  O4_39 
REMARK   13  A    between atoms: O4_39  and  C29_40 
ROOT
HETATM    1  C7  UNL     1      20.276  24.752  16.762  1.00  0.00    -0.048 A 
HETATM    2  C8  UNL     1      19.272  23.771  16.714  1.00  0.00     0.038 A 
HETATM    3  C9  UNL     1      18.709  23.192  17.816  1.00  0.00     0.051 A 
HETATM    4  N1  UNL     1      17.755  22.258  17.706  1.00  0.00    -0.337 N 
ATOM      5  H1  UNL     1      17.441  21.974  16.777  1.00  0.00     0.167 HD
HETATM    6  C10 UNL     1      17.204  21.687  18.784  1.00  0.00     0.177 A 
HETATM    7  N4  UNL     1      17.612  22.056  20.002  1.00  0.00    -0.304 N 
ATOM      8  H4  UNL     1      17.186  21.617  20.818  1.00  0.00     0.171 HD
HETATM    9  C19 UNL     1      18.586  23.009  20.191  1.00  0.00     0.260 A 
HETATM   10  O3  UNL     1      18.848  23.237  21.346  1.00  0.00    -0.267 OA
HETATM   11  C20 UNL     1      19.137  23.580  19.092  1.00  0.00     0.075 A 
HETATM   12  C21 UNL     1      20.131  24.548  19.185  1.00  0.00     0.057 A 
HETATM   13  C22 UNL     1      20.715  25.148  18.013  1.00  0.00    -0.025 A 
HETATM   14  C23 UNL     1      21.756  26.170  18.139  1.00  0.00     0.008 C 
HETATM   15  C24 UNL     1      22.857  26.224  17.150  1.00  0.00     0.023 C 
HETATM   16  C25 UNL     1      21.154  27.548  18.425  1.00  0.00     0.023 C 
HETATM   17  C26 UNL     1      22.536  25.905  19.452  1.00  0.00     0.062 C 
HETATM   18  C27 UNL     1      23.464  27.132  19.664  1.00  0.00     0.042 C 
HETATM   19  N5  UNL     1      21.641  25.926  20.551  1.00  0.00    -0.345 N 
ATOM     20  H5  UNL     1      21.731  26.588  21.322  1.00  0.00     0.163 HD
HETATM   21  C31 UNL     1      20.592  24.936  20.491  1.00  0.00     0.254 C 
HETATM   22  O6  UNL     1      20.202  24.529  21.576  1.00  0.00    -0.268 OA
ENDROOT
BRANCH   6  23
HETATM   23  C11 UNL     1      16.154  20.651  18.691  1.00  0.00     0.285 C 
HETATM   24  O1  UNL     1      16.538  19.545  18.221  1.00  0.00    -0.264 OA
HETATM   25  N2  UNL     1      14.834  20.892  19.099  1.00  0.00    -0.354 N 
ATOM     26  H2  UNL     1      14.618  21.819  19.466  1.00  0.00     0.162 HD
BRANCH  25  27
HETATM   27  C12 UNL     1      13.762  19.934  19.041  1.00  0.00     0.128 C 
BRANCH  27  28
HETATM   28  C13 UNL     1      13.157  19.830  17.661  1.00  0.00     0.065 C 
BRANCH  28  29
HETATM   29  C14 UNL     1      13.411  21.152  16.966  1.00  0.00     0.069 C 
BRANCH  29  30
HETATM   30  N3  UNL     1      13.963  21.035  15.688  1.00  0.00    -0.350 N 
HETATM   31  C15 UNL     1      13.184  20.626  14.598  1.00  0.00     0.094 C 
HETATM   32  C16 UNL     1      14.001  20.066  13.441  1.00  0.00     0.213 C 
HETATM   33  O2  UNL     1      15.098  20.822  13.120  1.00  0.00    -0.381 OA
HETATM   34  C17 UNL     1      15.294  21.931  13.928  1.00  0.00     0.213 C 
HETATM   35  C18 UNL     1      15.233  21.566  15.403  1.00  0.00     0.094 C 
ENDBRANCH  29  30
ENDBRANCH  28  29
ENDBRANCH  27  28
ENDBRANCH  25  27
ENDBRANCH   6  23
BRANCH   1  36
HETATM   36  C6  UNL     1      20.649  25.254  15.467  1.00  0.00     0.039 C 
BRANCH  36  37
HETATM   37  C5  UNL     1      19.493  25.454  14.473  1.00  0.00     0.005 C 
BRANCH  37  38
HETATM   38  C4  UNL     1      19.114  26.930  14.425  1.00  0.00     0.000 C 
BRANCH  38  39
HETATM   39  C3  UNL     1      20.227  27.778  14.963  1.00  0.00    -0.000 C 
BRANCH  39  40
HETATM   40  C2  UNL     1      21.153  28.237  13.864  1.00  0.00    -0.005 C 
HETATM   41  C1  UNL     1      22.528  28.444  14.430  1.00  0.00     0.005 C 
ENDBRANCH  39  40
ENDBRANCH  38  39
ENDBRANCH  37  38
ENDBRANCH  36  37
ENDBRANCH   1  36
BRANCH  17  42
HETATM   42  C28 UNL     1      23.441  24.747  19.314  1.00  0.00     0.210 C 
BRANCH  42  43
HETATM   43  O4  UNL     1      24.802  24.951  19.595  1.00  0.00    -0.319 OA
BRANCH  43  44
HETATM   44  C29 UNL     1      25.767  24.279  18.879  1.00  0.00     0.254 C 
HETATM   45  C30 UNL     1      26.342  24.832  17.609  1.00  0.00     0.126 C 
HETATM   46  O5  UNL     1      26.176  23.178  19.303  1.00  0.00    -0.266 OA
ENDBRANCH  43  44
ENDBRANCH  42  43
ENDBRANCH  17  42
TORSDOF 13
ENDMDL
MODEL 4
REMARK VINA RESULT: -8.428317973      1.643      2.196
REMARK  13 active torsions:
REMARK  status: ('A' for Active; 'I' for Inactive)
REMARK    1  A    between atoms: C2_2  and  C3_3 
REMARK    2  A    between atoms: C3_3  and  C4_4 
REMARK    3  A    between atoms: C4_4  and  C5_5 
REMARK    4  A    between atoms: C5_5  and  C6_6 
REMARK    5  A    between atoms: C6_6  and  C7_7 
REMARK    6  A    between atoms: C10_12  and  C11_13 
REMARK       I    between atoms: C11_13  and  N2_15 
REMARK    7  A    between atoms: N2_15  and  C12_17 
REMARK    8  A    between atoms: C12_17  and  C13_18 
REMARK    9  A    between atoms: C13_18  and  C14_19 
REMARK   10  A    between atoms: C14_19  and  N3_20 
REMARK   11  A    between atoms: C26_36  and  C28_38 
REMARK   12  A    between atoms: C28_38  and  O4_39 
REMARK   13  A    between atoms: O4_39  and  C29_40 
ROOT
HETATM    1  C7  UNL     1      20.272  24.789  16.491  1.00  0.00    -0.048 A 
HETATM    2  C8  UNL     1      19.262  23.834  16.289  1.00  0.00     0.038 A 
HETATM    3  C9  UNL     1      18.530  23.264  17.293  1.00  0.00     0.051 A 
HETATM    4  N1  UNL     1      17.580  22.355  17.036  1.00  0.00    -0.337 N 
ATOM      5  H1  UNL     1      17.397  22.085  16.070  1.00  0.00     0.167 HD
HETATM    6  C10 UNL     1      16.863  21.793  18.018  1.00  0.00     0.177 A 
HETATM    7  N4  UNL     1      17.099  22.145  19.285  1.00  0.00    -0.304 N 
ATOM      8  H4  UNL     1      16.549  21.712  20.027  1.00  0.00     0.171 HD
HETATM    9  C19 UNL     1      18.059  23.070  19.623  1.00  0.00     0.260 A 
HETATM   10  O3  UNL     1      18.157  23.285  20.806  1.00  0.00    -0.267 OA
HETATM   11  C20 UNL     1      18.779  23.633  18.621  1.00  0.00     0.075 A 
HETATM   12  C21 UNL     1      19.772  24.574  18.866  1.00  0.00     0.057 A 
HETATM   13  C22 UNL     1      20.535  25.165  17.796  1.00  0.00    -0.025 A 
HETATM   14  C23 UNL     1      21.572  26.159  18.082  1.00  0.00     0.008 C 
HETATM   15  C24 UNL     1      22.806  26.190  17.264  1.00  0.00     0.023 C 
HETATM   16  C25 UNL     1      20.969  27.551  18.291  1.00  0.00     0.023 C 
HETATM   17  C26 UNL     1      22.146  25.866  19.492  1.00  0.00     0.062 C 
HETATM   18  C27 UNL     1      23.065  27.068  19.847  1.00  0.00     0.042 C 
HETATM   19  N5  UNL     1      21.102  25.904  20.449  1.00  0.00    -0.345 N 
ATOM     20  H5  UNL     1      21.095  26.559  21.231  1.00  0.00     0.163 HD
HETATM   21  C31 UNL     1      20.048  24.943  20.228  1.00  0.00     0.254 C 
HETATM   22  O6  UNL     1      19.494  24.540  21.242  1.00  0.00    -0.268 OA
ENDROOT
BRANCH   6  23
HETATM   23  C11 UNL     1      15.813  20.786  17.764  1.00  0.00     0.285 C 
HETATM   24  O1  UNL     1      16.084  19.621  18.167  1.00  0.00    -0.264 OA
HETATM   25  N2  UNL     1      14.609  21.113  17.122  1.00  0.00    -0.354 N 
ATOM     26  H2  UNL     1      14.480  22.082  16.831  1.00  0.00     0.162 HD
BRANCH  25  27
HETATM   27  C12 UNL     1      13.542  20.188  16.844  1.00  0.00     0.128 C 
BRANCH  27  28
HETATM   28  C13 UNL     1      12.706  20.614  15.660  1.00  0.00     0.065 C 
BRANCH  28  29
HETATM   29  C14 UNL     1      11.478  19.728  15.643  1.00  0.00     0.069 C 
BRANCH  29  30
HETATM   30  N3  UNL     1      10.535  20.067  14.670  1.00  0.00    -0.350 N 
HETATM   31  C15 UNL     1      10.356  21.396  14.267  1.00  0.00     0.094 C 
HETATM   32  C16 UNL     1       9.003  21.661  13.622  1.00  0.00     0.213 C 
HETATM   33  O2  UNL     1       8.637  20.719  12.696  1.00  0.00    -0.381 OA
HETATM   34  C17 UNL     1       9.536  19.676  12.543  1.00  0.00     0.213 C 
HETATM   35  C18 UNL     1       9.925  19.074  13.885  1.00  0.00     0.094 C 
ENDBRANCH  29  30
ENDBRANCH  28  29
ENDBRANCH  27  28
ENDBRANCH  25  27
ENDBRANCH   6  23
BRANCH   1  36
HETATM   36  C6  UNL     1      20.843  25.288  15.269  1.00  0.00     0.039 C 
BRANCH  36  37
HETATM   37  C5  UNL     1      19.892  26.104  14.378  1.00  0.00     0.005 C 
BRANCH  37  38
HETATM   38  C4  UNL     1      20.194  27.590  14.541  1.00  0.00     0.000 C 
BRANCH  38  39
HETATM   39  C3  UNL     1      21.617  27.882  14.174  1.00  0.00    -0.000 C 
BRANCH  39  40
HETATM   40  C2  UNL     1      22.255  28.836  15.153  1.00  0.00    -0.005 C 
HETATM   41  C1  UNL     1      23.748  28.678  15.096  1.00  0.00     0.005 C 
ENDBRANCH  39  40
ENDBRANCH  38  39
ENDBRANCH  37  38
ENDBRANCH  36  37
ENDBRANCH   1  36
BRANCH  17  42
HETATM   42  C28 UNL     1      23.032  24.686  19.475  1.00  0.00     0.210 C 
BRANCH  42  43
HETATM   43  O4  UNL     1      24.321  24.836  20.014  1.00  0.00    -0.319 OA
BRANCH  43  44
HETATM   44  C29 UNL     1      25.430  24.551  19.250  1.00  0.00     0.254 C 
HETATM   45  C30 UNL     1      25.860  23.141  18.970  1.00  0.00     0.126 C 
HETATM   46  O5  UNL     1      26.096  25.495  18.777  1.00  0.00    -0.266 OA
ENDBRANCH  43  44
ENDBRANCH  42  43
ENDBRANCH  17  42
TORSDOF 13
ENDMDL
MODEL 5
REMARK VINA RESULT: -8.405767975      1.716      2.558
REMARK  13 active torsions:
REMARK  status: ('A' for Active; 'I' for Inactive)
REMARK    1  A    between atoms: C2_2  and  C3_3 
REMARK    2  A    between atoms: C3_3  and  C4_4 
REMARK    3  A    between atoms: C4_4  and  C5_5 
REMARK    4  A    between atoms: C5_5  and  C6_6 
REMARK    5  A    between atoms: C6_6  and  C7_7 
REMARK    6  A    between atoms: C10_12  and  C11_13 
REMARK       I    between atoms: C11_13  and  N2_15 
REMARK    7  A    between atoms: N2_15  and  C12_17 
REMARK    8  A    between atoms: C12_17  and  C13_18 
REMARK    9  A    between atoms: C13_18  and  C14_19 
REMARK   10  A    between atoms: C14_19  and  N3_20 
REMARK   11  A    between atoms: C26_36  and  C28_38 
REMARK   12  A    between atoms: C28_38  and  O4_39 
REMARK   13  A    between atoms: O4_39  and  C29_40 
ROOT
HETATM    1  C7  UNL     1      20.396  26.618  17.240  1.00  0.00    -0.048 A 
HETATM    2  C8  UNL     1      19.399  25.959  16.501  1.00  0.00     0.038 A 
HETATM    3  C9  UNL     1      18.675  24.896  16.964  1.00  0.00     0.051 A 
HETATM    4  N1  UNL     1      17.737  24.307  16.210  1.00  0.00    -0.337 N 
ATOM      5  H1  UNL     1      17.559  24.662  15.271  1.00  0.00     0.167 HD
HETATM    6  C10 UNL     1      17.028  23.264  16.660  1.00  0.00     0.177 A 
HETATM    7  N4  UNL     1      17.259  22.797  17.890  1.00  0.00    -0.304 N 
ATOM      8  H4  UNL     1      16.714  22.003  18.226  1.00  0.00     0.171 HD
HETATM    9  C19 UNL     1      18.206  23.351  18.720  1.00  0.00     0.260 A 
HETATM   10  O3  UNL     1      18.300  22.823  19.800  1.00  0.00    -0.267 OA
HETATM   11  C20 UNL     1      18.918  24.407  18.254  1.00  0.00     0.075 A 
HETATM   12  C21 UNL     1      19.899  25.029  19.019  1.00  0.00     0.057 A 
HETATM   13  C22 UNL     1      20.653  26.148  18.515  1.00  0.00    -0.025 A 
HETATM   14  C23 UNL     1      21.676  26.790  19.344  1.00  0.00     0.008 C 
HETATM   15  C24 UNL     1      22.910  27.314  18.715  1.00  0.00     0.023 C 
HETATM   16  C25 UNL     1      21.055  27.779  20.334  1.00  0.00     0.023 C 
HETATM   17  C26 UNL     1      22.254  25.723  20.310  1.00  0.00     0.062 C 
HETATM   18  C27 UNL     1      23.156  26.489  21.317  1.00  0.00     0.042 C 
HETATM   19  N5  UNL     1      21.209  25.174  21.093  1.00  0.00    -0.345 N 
ATOM     20  H5  UNL     1      21.193  25.236  22.112  1.00  0.00     0.163 HD
HETATM   21  C31 UNL     1      20.169  24.520  20.336  1.00  0.00     0.254 C 
HETATM   22  O6  UNL     1      19.620  23.588  20.908  1.00  0.00    -0.268 OA
ENDROOT
BRANCH   6  23
HETATM   23  C11 UNL     1      15.992  22.593  15.849  1.00  0.00     0.285 C 
HETATM   24  O1  UNL     1      16.404  22.096  14.764  1.00  0.00    -0.264 OA
HETATM   25  N2  UNL     1      14.655  22.521  16.264  1.00  0.00    -0.354 N 
ATOM     26  H2  UNL     1      14.415  22.954  17.157  1.00  0.00     0.162 HD
BRANCH  25  27
HETATM   27  C12 UNL     1      13.593  21.883  15.530  1.00  0.00     0.128 C 
BRANCH  27  28
HETATM   28  C13 UNL     1      13.436  20.426  15.896  1.00  0.00     0.065 C 
BRANCH  28  29
HETATM   29  C14 UNL     1      12.564  20.372  17.134  1.00  0.00     0.069 C 
BRANCH  29  30
HETATM   30  N3  UNL     1      13.079  19.587  18.168  1.00  0.00    -0.350 N 
HETATM   31  C15 UNL     1      12.236  18.997  19.118  1.00  0.00     0.094 C 
HETATM   32  C16 UNL     1      12.943  18.631  20.416  1.00  0.00     0.213 C 
HETATM   33  O2  UNL     1      14.145  17.998  20.233  1.00  0.00    -0.381 OA
HETATM   34  C17 UNL     1      14.524  17.845  18.910  1.00  0.00     0.213 C 
HETATM   35  C18 UNL     1      14.416  19.153  18.142  1.00  0.00     0.094 C 
ENDBRANCH  29  30
ENDBRANCH  28  29
ENDBRANCH  27  28
ENDBRANCH  25  27
ENDBRANCH   6  23
BRANCH   1  36
HETATM   36  C6  UNL     1      20.960  27.751  16.558  1.00  0.00     0.039 C 
BRANCH  36  37
HETATM   37  C5  UNL     1      20.907  27.696  15.022  1.00  0.00     0.005 C 
BRANCH  37  38
HETATM   38  C4  UNL     1      22.235  28.182  14.451  1.00  0.00     0.000 C 
BRANCH  38  39
HETATM   39  C3  UNL     1      23.028  28.903  15.498  1.00  0.00    -0.000 C 
BRANCH  39  40
HETATM   40  C2  UNL     1      24.476  28.485  15.481  1.00  0.00    -0.005 C 
HETATM   41  C1  UNL     1      24.563  26.993  15.630  1.00  0.00     0.005 C 
ENDBRANCH  39  40
ENDBRANCH  38  39
ENDBRANCH  37  38
ENDBRANCH  36  37
ENDBRANCH   1  36
BRANCH  17  42
HETATM   42  C28 UNL     1      23.156  24.793  19.603  1.00  0.00     0.210 C 
BRANCH  42  43
HETATM   43  O4  UNL     1      24.478  24.693  20.069  1.00  0.00    -0.319 OA
BRANCH  43  44
HETATM   44  C29 UNL     1      25.510  24.463  19.187  1.00  0.00     0.254 C 
HETATM   45  C30 UNL     1      26.309  25.585  18.593  1.00  0.00     0.126 C 
HETATM   46  O5  UNL     1      25.787  23.286  18.876  1.00  0.00    -0.266 OA
ENDBRANCH  43  44
ENDBRANCH  42  43
ENDBRANCH  17  42
TORSDOF 13
ENDMDL
