MODEL 1
REMARK VINA RESULT: -6.738221818      0.000      0.000
REMARK  5 active torsions:
REMARK  status: ('A' for Active; 'I' for Inactive)
REMARK    1  A    between atoms: N1_2  and  C2_4 
REMARK    2  A    between atoms: N2_6  and  C4_7 
REMARK    3  A    between atoms: C5_10  and  N4_11 
REMARK    4  A    between atoms: C7_18  and  C8_19 
REMARK    5  A    between atoms: C8_19  and  C9_20 
ROOT
HETATM    1  C4  UNL     1      -3.981   4.056   9.980  1.00  0.00     0.149 A 
HETATM    2  N3  UNL     1      -3.960   4.306   8.665  1.00  0.00    -0.175 N 
ATOM      3  H3  UNL     1      -3.818   3.509   8.044  1.00  0.00     0.186 HD
HETATM    4  C5  UNL     1      -4.107   5.506   8.090  1.00  0.00     0.678 A 
HETATM    5  N5  UNL     1      -4.292   6.546   8.923  1.00  0.00    -0.183 N 
ATOM      6  H5  UNL     1      -4.411   7.483   8.538  1.00  0.00     0.185 HD
HETATM    7  C6  UNL     1      -4.324   6.367  10.277  1.00  0.00     0.122 A 
HETATM    8  S1  UNL     1      -4.521   7.372  11.649  1.00  0.00    -0.056 SA
HETATM    9  C7  UNL     1      -4.400   6.173  12.874  1.00  0.00     0.058 A 
HETATM   10  N6  UNL     1      -4.218   5.080  12.162  1.00  0.00    -0.348 N 
ATOM     11  H6  UNL     1      -4.111   4.182  12.634  1.00  0.00     0.166 HD
HETATM   12  C15 UNL     1      -4.173   5.137  10.857  1.00  0.00     0.112 A 
ENDROOT
BRANCH   9  13
HETATM   13  C8  UNL     1      -4.471   6.344  14.372  1.00  0.00     0.105 C 
BRANCH  13  14
HETATM   14  C9  UNL     1      -4.853   5.019  14.913  1.00  0.00    -0.027 A 
HETATM   15  C10 UNL     1      -6.211   4.744  15.124  1.00  0.00     0.011 A 
HETATM   16  C11 UNL     1      -6.643   3.535  15.618  1.00  0.00     0.028 A 
HETATM   17  C12 UNL     1      -5.708   2.572  15.911  1.00  0.00     0.074 A 
HETATM   18 CL1  UNL     1      -6.280   1.036  16.540  1.00  0.00    -0.081 Cl
HETATM   19  C13 UNL     1      -4.361   2.814  15.713  1.00  0.00     0.160 A 
HETATM   20  F1  UNL     1      -3.480   1.851  16.012  1.00  0.00    -0.203 F 
HETATM   21  C14 UNL     1      -3.936   4.041  15.213  1.00  0.00     0.081 A 
HETATM   22 CL2  UNL     1      -2.225   4.320  14.973  1.00  0.00    -0.080 Cl
ENDBRANCH  13  14
ENDBRANCH   9  13
BRANCH   1  23
HETATM   23  N2  UNL     1      -3.809   2.734  10.474  1.00  0.00    -0.361 N 
HETATM   24  C3  UNL     1      -4.711   1.715  10.997  1.00  0.00     0.151 C 
HETATM   25  C2  UNL     1      -3.669   0.688  10.666  1.00  0.00     0.112 C 
HETATM   26  C16 UNL     1      -2.696   1.860  10.670  1.00  0.00     0.151 C 
BRANCH  25  27
HETATM   27  N1  UNL     1      -3.449  -0.262  11.709  1.00  0.00    -0.418 N 
HETATM   28  C1  UNL     1      -3.200  -1.597  11.279  1.00  0.00     0.140 C 
ATOM     29  H1  UNL     1      -3.468  -0.002  12.695  1.00  0.00     0.153 HD
ENDBRANCH  25  27
ENDBRANCH   1  23
BRANCH   4  30
HETATM   30  N4  UNL     1      -4.067   5.599   6.814  1.00  0.00    -0.234 N 
ATOM     31  H42 UNL     1      -4.301   4.841   6.172  1.00  0.00     0.174 HD
ATOM     32  H41 UNL     1      -3.784   6.481   6.386  1.00  0.00     0.174 HD
ENDBRANCH   4  30
TORSDOF 5
ENDMDL
MODEL 2
REMARK VINA RESULT: -6.620707509      3.197      5.861
REMARK  5 active torsions:
REMARK  status: ('A' for Active; 'I' for Inactive)
REMARK    1  A    between atoms: N1_2  and  C2_4 
REMARK    2  A    between atoms: N2_6  and  C4_7 
REMARK    3  A    between atoms: C5_10  and  N4_11 
REMARK    4  A    between atoms: C7_18  and  C8_19 
REMARK    5  A    between atoms: C8_19  and  C9_20 
ROOT
HETATM    1  C4  UNL     1      -3.981   0.883  13.044  1.00  0.00     0.149 A 
HETATM    2  N3  UNL     1      -3.991  -0.374  12.583  1.00  0.00    -0.175 N 
ATOM      3  H3  UNL     1      -4.375  -1.090  13.199  1.00  0.00     0.186 HD
HETATM    4  C5  UNL     1      -3.543  -0.777  11.388  1.00  0.00     0.678 A 
HETATM    5  N5  UNL     1      -3.039   0.180  10.587  1.00  0.00    -0.183 N 
ATOM      6  H5  UNL     1      -2.685  -0.073   9.665  1.00  0.00     0.185 HD
HETATM    7  C6  UNL     1      -2.995   1.484  10.991  1.00  0.00     0.122 A 
HETATM    8  S1  UNL     1      -2.454   2.964  10.322  1.00  0.00    -0.056 SA
HETATM    9  C7  UNL     1      -2.844   4.005  11.632  1.00  0.00     0.058 A 
HETATM   10  N6  UNL     1      -3.363   3.161  12.499  1.00  0.00    -0.348 N 
ATOM     11  H6  UNL     1      -3.696   3.503  13.401  1.00  0.00     0.166 HD
HETATM   12  C15 UNL     1      -3.456   1.888  12.215  1.00  0.00     0.112 A 
ENDROOT
BRANCH   9  13
HETATM   13  C8  UNL     1      -2.628   5.493  11.752  1.00  0.00     0.105 C 
BRANCH  13  14
HETATM   14  C9  UNL     1      -3.898   6.123  11.323  1.00  0.00    -0.027 A 
HETATM   15  C10 UNL     1      -4.095   6.383   9.960  1.00  0.00     0.011 A 
HETATM   16  C11 UNL     1      -5.250   6.960   9.486  1.00  0.00     0.028 A 
HETATM   17  C12 UNL     1      -6.238   7.288  10.382  1.00  0.00     0.074 A 
HETATM   18 CL1  UNL     1      -7.704   8.023   9.758  1.00  0.00    -0.081 Cl
HETATM   19  C13 UNL     1      -6.073   7.044  11.734  1.00  0.00     0.160 A 
HETATM   20  F1  UNL     1      -7.057   7.380  12.577  1.00  0.00    -0.203 F 
HETATM   21  C14 UNL     1      -4.900   6.460  12.201  1.00  0.00     0.081 A 
HETATM   22 CL2  UNL     1      -4.717   6.163  13.917  1.00  0.00    -0.080 Cl
ENDBRANCH  13  14
ENDBRANCH   9  13
BRANCH   1  23
HETATM   23  N2  UNL     1      -4.484   1.189  14.338  1.00  0.00    -0.361 N 
HETATM   24  C3  UNL     1      -5.221   2.311  14.907  1.00  0.00     0.151 C 
HETATM   25  C2  UNL     1      -5.668   1.398  16.011  1.00  0.00     0.112 C 
HETATM   26  C16 UNL     1      -4.475   0.540  15.611  1.00  0.00     0.151 C 
BRANCH  25  27
HETATM   27  N1  UNL     1      -5.564   1.979  17.311  1.00  0.00    -0.418 N 
HETATM   28  C1  UNL     1      -6.626   1.665  18.207  1.00  0.00     0.140 C 
ATOM     29  H1  UNL     1      -4.783   2.577  17.580  1.00  0.00     0.153 HD
ENDBRANCH  25  27
ENDBRANCH   1  23
BRANCH   4  30
HETATM   30  N4  UNL     1      -3.616  -2.017  11.076  1.00  0.00    -0.234 N 
ATOM     31  H42 UNL     1      -3.754  -2.773  11.747  1.00  0.00     0.174 HD
ATOM     32  H41 UNL     1      -3.534  -2.291  10.097  1.00  0.00     0.174 HD
ENDBRANCH   4  30
TORSDOF 5
ENDMDL
MODEL 3
REMARK VINA RESULT: -6.531081646      3.909      6.027
REMARK  5 active torsions:
REMARK  status: ('A' for Active; 'I' for Inactive)
REMARK    1  A    between atoms: N1_2  and  C2_4 
REMARK    2  A    between atoms: N2_6  and  C4_7 
REMARK    3  A    between atoms: C5_10  and  N4_11 
REMARK    4  A    between atoms: C7_18  and  C8_19 
REMARK    5  A    between atoms: C8_19  and  C9_20 
ROOT
HETATM    1  C4  UNL     1      -5.099   2.121  14.309  1.00  0.00     0.149 A 
HETATM    2  N3  UNL     1      -5.726   1.633  15.386  1.00  0.00    -0.175 N 
ATOM      3  H3  UNL     1      -5.702   0.621  15.517  1.00  0.00     0.186 HD
HETATM    4  C5  UNL     1      -6.382   2.350  16.307  1.00  0.00     0.678 A 
HETATM    5  N5  UNL     1      -6.405   3.682  16.118  1.00  0.00    -0.183 N 
ATOM      6  H5  UNL     1      -6.890   4.275  16.790  1.00  0.00     0.185 HD
HETATM    7  C6  UNL     1      -5.788   4.251  15.040  1.00  0.00     0.122 A 
HETATM    8  S1  UNL     1      -5.582   5.839  14.434  1.00  0.00    -0.056 SA
HETATM    9  C7  UNL     1      -4.662   5.469  13.032  1.00  0.00     0.058 A 
HETATM   10  N6  UNL     1      -4.566   4.158  13.111  1.00  0.00    -0.348 N 
ATOM     11  H6  UNL     1      -4.057   3.644  12.393  1.00  0.00     0.166 HD
HETATM   12  C15 UNL     1      -5.119   3.511  14.104  1.00  0.00     0.112 A 
ENDROOT
BRANCH   9  13
HETATM   13  C8  UNL     1      -4.121   6.409  11.982  1.00  0.00     0.105 C 
BRANCH  13  14
HETATM   14  C9  UNL     1      -5.267   6.735  11.101  1.00  0.00    -0.027 A 
HETATM   15  C10 UNL     1      -6.178   7.716  11.515  1.00  0.00     0.011 A 
HETATM   16  C11 UNL     1      -7.262   8.076  10.748  1.00  0.00     0.028 A 
HETATM   17  C12 UNL     1      -7.451   7.450   9.541  1.00  0.00     0.074 A 
HETATM   18 CL1  UNL     1      -8.840   7.923   8.577  1.00  0.00    -0.081 Cl
HETATM   19  C13 UNL     1      -6.569   6.477   9.105  1.00  0.00     0.160 A 
HETATM   20  F1  UNL     1      -6.787   5.888   7.922  1.00  0.00    -0.203 F 
HETATM   21  C14 UNL     1      -5.476   6.122   9.889  1.00  0.00     0.081 A 
HETATM   22 CL2  UNL     1      -4.376   4.887   9.313  1.00  0.00    -0.080 Cl
ENDBRANCH  13  14
ENDBRANCH   9  13
BRANCH   1  23
HETATM   23  N2  UNL     1      -4.437   1.255  13.396  1.00  0.00    -0.361 N 
HETATM   24  C3  UNL     1      -4.300  -0.191  13.278  1.00  0.00     0.151 C 
HETATM   25  C2  UNL     1      -3.968   0.004  11.828  1.00  0.00     0.112 C 
HETATM   26  C16 UNL     1      -3.630   1.433  12.231  1.00  0.00     0.151 C 
BRANCH  25  27
HETATM   27  N1  UNL     1      -2.848  -0.763  11.388  1.00  0.00    -0.418 N 
HETATM   28  C1  UNL     1      -3.044  -2.174  11.363  1.00  0.00     0.140 C 
ATOM     29  H1  UNL     1      -1.966  -0.331  11.112  1.00  0.00     0.153 HD
ENDBRANCH  25  27
ENDBRANCH   1  23
BRANCH   4  30
HETATM   30  N4  UNL     1      -6.937   1.749  17.291  1.00  0.00    -0.234 N 
ATOM     31  H42 UNL     1      -6.709   0.801  17.592  1.00  0.00     0.174 HD
ATOM     32  H41 UNL     1      -7.661   2.230  17.827  1.00  0.00     0.174 HD
ENDBRANCH   4  30
TORSDOF 5
ENDMDL
MODEL 4
REMARK VINA RESULT: -6.512477595      3.457      5.560
REMARK  5 active torsions:
REMARK  status: ('A' for Active; 'I' for Inactive)
REMARK    1  A    between atoms: N1_2  and  C2_4 
REMARK    2  A    between atoms: N2_6  and  C4_7 
REMARK    3  A    between atoms: C5_10  and  N4_11 
REMARK    4  A    between atoms: C7_18  and  C8_19 
REMARK    5  A    between atoms: C8_19  and  C9_20 
ROOT
HETATM    1  C4  UNL     1      -2.694   1.932  11.547  1.00  0.00     0.149 A 
HETATM    2  N3  UNL     1      -2.867   0.639  11.248  1.00  0.00    -0.175 N 
ATOM      3  H3  UNL     1      -2.288   0.254  10.502  1.00  0.00     0.186 HD
HETATM    4  C5  UNL     1      -3.731  -0.196  11.839  1.00  0.00     0.678 A 
HETATM    5  N5  UNL     1      -4.487   0.327  12.821  1.00  0.00    -0.183 N 
ATOM      6  H5  UNL     1      -5.161  -0.265  13.306  1.00  0.00     0.185 HD
HETATM    7  C6  UNL     1      -4.366   1.640  13.179  1.00  0.00     0.122 A 
HETATM    8  S1  UNL     1      -5.104   2.679  14.323  1.00  0.00    -0.056 SA
HETATM    9  C7  UNL     1      -4.246   4.122  13.961  1.00  0.00     0.058 A 
HETATM   10  N6  UNL     1      -3.449   3.725  12.991  1.00  0.00    -0.348 N 
ATOM     11  H6  UNL     1      -2.802   4.388  12.564  1.00  0.00     0.166 HD
HETATM   12  C15 UNL     1      -3.481   2.487  12.571  1.00  0.00     0.112 A 
ENDROOT
BRANCH   9  13
HETATM   13  C8  UNL     1      -4.389   5.488  14.587  1.00  0.00     0.105 C 
BRANCH  13  14
HETATM   14  C9  UNL     1      -4.317   6.457  13.469  1.00  0.00    -0.027 A 
HETATM   15  C10 UNL     1      -5.394   6.538  12.577  1.00  0.00     0.011 A 
HETATM   16  C11 UNL     1      -5.402   7.417  11.519  1.00  0.00     0.028 A 
HETATM   17  C12 UNL     1      -4.316   8.238  11.338  1.00  0.00     0.074 A 
HETATM   18 CL1  UNL     1      -4.345   9.353   9.982  1.00  0.00    -0.081 Cl
HETATM   19  C13 UNL     1      -3.237   8.181  12.202  1.00  0.00     0.160 A 
HETATM   20  F1  UNL     1      -2.196   8.996  11.991  1.00  0.00    -0.203 F 
HETATM   21  C14 UNL     1      -3.241   7.288  13.269  1.00  0.00     0.081 A 
HETATM   22 CL2  UNL     1      -1.862   7.237  14.346  1.00  0.00    -0.080 Cl
ENDBRANCH  13  14
ENDBRANCH   9  13
BRANCH   1  23
HETATM   23  N2  UNL     1      -1.744   2.722  10.844  1.00  0.00    -0.361 N 
HETATM   24  C3  UNL     1      -1.740   3.410   9.558  1.00  0.00     0.151 C 
HETATM   25  C2  UNL     1      -0.631   4.277  10.077  1.00  0.00     0.112 C 
HETATM   26  C16 UNL     1      -0.408   3.163  11.091  1.00  0.00     0.151 C 
BRANCH  25  27
HETATM   27  N1  UNL     1       0.441   4.452   9.151  1.00  0.00    -0.418 N 
HETATM   28  C1  UNL     1       0.953   5.777   9.050  1.00  0.00     0.140 C 
ATOM     29  H1  UNL     1       0.815   3.680   8.598  1.00  0.00     0.153 HD
ENDBRANCH  25  27
ENDBRANCH   1  23
BRANCH   4  30
HETATM   30  N4  UNL     1      -3.790  -1.415  11.452  1.00  0.00    -0.234 N 
ATOM     31  H42 UNL     1      -4.024  -1.708  10.503  1.00  0.00     0.174 HD
ATOM     32  H41 UNL     1      -3.593  -2.161  12.119  1.00  0.00     0.174 HD
ENDBRANCH   4  30
TORSDOF 5
ENDMDL
MODEL 5
REMARK VINA RESULT: -6.457453591      3.570      5.501
REMARK  5 active torsions:
REMARK  status: ('A' for Active; 'I' for Inactive)
REMARK    1  A    between atoms: N1_2  and  C2_4 
REMARK    2  A    between atoms: N2_6  and  C4_7 
REMARK    3  A    between atoms: C5_10  and  N4_11 
REMARK    4  A    between atoms: C7_18  and  C8_19 
REMARK    5  A    between atoms: C8_19  and  C9_20 
ROOT
HETATM    1  C4  UNL     1      -0.445   5.308  12.155  1.00  0.00     0.149 A 
HETATM    2  N3  UNL     1       0.828   5.335  11.741  1.00  0.00    -0.175 N 
ATOM      3  H3  UNL     1       1.419   6.081  12.109  1.00  0.00     0.186 HD
HETATM    4  C5  UNL     1       1.397   4.474  10.887  1.00  0.00     0.678 A 
HETATM    5  N5  UNL     1       0.603   3.498  10.411  1.00  0.00    -0.183 N 
ATOM      6  H5  UNL     1       0.986   2.814   9.758  1.00  0.00     0.185 HD
HETATM    7  C6  UNL     1      -0.706   3.408  10.788  1.00  0.00     0.122 A 
HETATM    8  S1  UNL     1      -2.022   2.371  10.435  1.00  0.00    -0.056 SA
HETATM    9  C7  UNL     1      -3.219   3.119  11.415  1.00  0.00     0.058 A 
HETATM   10  N6  UNL     1      -2.542   4.113  11.952  1.00  0.00    -0.348 N 
ATOM     11  H6  UNL     1      -3.007   4.749  12.599  1.00  0.00     0.166 HD
HETATM   12  C15 UNL     1      -1.280   4.291  11.661  1.00  0.00     0.112 A 
ENDROOT
BRANCH   9  13
HETATM   13  C8  UNL     1      -4.667   2.736  11.593  1.00  0.00     0.105 C 
BRANCH  13  14
HETATM   14  C9  UNL     1      -4.804   2.312  13.006  1.00  0.00    -0.027 A 
HETATM   15  C10 UNL     1      -5.239   3.249  13.952  1.00  0.00     0.011 A 
HETATM   16  C11 UNL     1      -5.395   2.928  15.280  1.00  0.00     0.028 A 
HETATM   17  C12 UNL     1      -5.114   1.646  15.685  1.00  0.00     0.074 A 
HETATM   18 CL1  UNL     1      -5.320   1.255  17.384  1.00  0.00    -0.081 Cl
HETATM   19  C13 UNL     1      -4.682   0.698  14.774  1.00  0.00     0.160 A 
HETATM   20  F1  UNL     1      -4.416  -0.541  15.207  1.00  0.00    -0.203 F 
HETATM   21  C14 UNL     1      -4.528   1.035  13.433  1.00  0.00     0.081 A 
HETATM   22 CL2  UNL     1      -3.979  -0.184  12.302  1.00  0.00    -0.080 Cl
ENDBRANCH  13  14
ENDBRANCH   9  13
BRANCH   1  23
HETATM   23  N2  UNL     1      -0.936   6.283  13.065  1.00  0.00    -0.361 N 
HETATM   24  C3  UNL     1      -0.680   7.702  13.276  1.00  0.00     0.151 C 
HETATM   25  C2  UNL     1      -2.005   7.791  13.975  1.00  0.00     0.112 C 
HETATM   26  C16 UNL     1      -1.870   6.283  14.146  1.00  0.00     0.151 C 
BRANCH  25  27
HETATM   27  N1  UNL     1      -1.960   8.527  15.197  1.00  0.00    -0.418 N 
HETATM   28  C1  UNL     1      -2.050   9.942  15.063  1.00  0.00     0.140 C 
ATOM     29  H1  UNL     1      -1.869   8.071  16.105  1.00  0.00     0.153 HD
ENDBRANCH  25  27
ENDBRANCH   1  23
BRANCH   4  30
HETATM   30  N4  UNL     1       2.631   4.620  10.579  1.00  0.00    -0.234 N 
ATOM     31  H42 UNL     1       3.170   5.470  10.744  1.00  0.00     0.174 HD
ATOM     32  H41 UNL     1       3.129   3.847  10.137  1.00  0.00     0.174 HD
ENDBRANCH   4  30
TORSDOF 5
ENDMDL
