MODEL 1
REMARK VINA RESULT: -7.495463354      0.000      0.000
REMARK  6 active torsions:
REMARK  status: ('A' for Active; 'I' for Inactive)
REMARK    1  A    between atoms: O1_2  and  C2_3 
REMARK    2  A    between atoms: C4_6  and  C5_7 
REMARK    3  A    between atoms: C5_7  and  O2_9 
REMARK    4  A    between atoms: C8_13  and  C9_14 
REMARK    5  A    between atoms: C9_14  and  N1_16 
REMARK    6  A    between atoms: C12_21  and  N3_22 
ROOT
HETATM    1  N1  UNL     1      -4.370   4.590  10.733  1.00  0.00    -0.366 N 
ATOM      2  H1  UNL     1      -4.557   3.732  10.214  1.00  0.00     0.161 HD
HETATM    3  C11 UNL     1      -4.910   5.514  10.141  1.00  0.00     0.141 A 
HETATM    4  N2  UNL     1      -5.593   5.189   8.954  1.00  0.00    -0.175 N 
ATOM      5  H2  UNL     1      -5.636   4.217   8.648  1.00  0.00     0.186 HD
HETATM    6  C12 UNL     1      -6.179   6.123   8.234  1.00  0.00     0.678 A 
HETATM    7  N4  UNL     1      -6.165   7.430   8.589  1.00  0.00    -0.177 N 
ATOM      8  H4  UNL     1      -6.634   8.125   8.007  1.00  0.00     0.185 HD
HETATM    9  C13 UNL     1      -5.536   7.800   9.704  1.00  0.00     0.156 A 
HETATM   10  N5  UNL     1      -5.506   9.161  10.139  1.00  0.00    -0.080 NA
HETATM   11  C14 UNL     1      -4.900   6.828  10.490  1.00  0.00     0.130 A 
HETATM   12  C15 UNL     1      -4.209   7.320  11.684  1.00  0.00     0.107 C 
HETATM   13  N6  UNL     1      -3.692   7.727  12.643  1.00  0.00    -0.191 NA
ENDROOT
BRANCH   1  14
HETATM   14  C9  UNL     1      -3.602   4.262  11.838  1.00  0.00     0.116 C 
HETATM   15  C10 UNL     1      -2.122   4.138  11.254  1.00  0.00     0.037 C 
BRANCH  14  16
HETATM   16  C8  UNL     1      -3.877   2.932  12.472  1.00  0.00     0.011 A 
HETATM   17  C7  UNL     1      -4.094   2.835  13.849  1.00  0.00     0.059 A 
HETATM   18  C4  UNL     1      -4.376   1.687  14.527  1.00  0.00     0.056 A 
HETATM   19 CL1  UNL     1      -3.995   4.295  14.852  1.00  0.00    -0.083 Cl
HETATM   20  C3  UNL     1      -4.466   0.497  13.764  1.00  0.00     0.165 A 
HETATM   21  C2  UNL     1      -4.269   0.554  12.410  1.00  0.00     0.130 A 
HETATM   22  F1  UNL     1      -4.761  -0.642  14.452  1.00  0.00    -0.202 F 
HETATM   23  C16 UNL     1      -3.981   1.742  11.795  1.00  0.00     0.080 A 
HETATM   24 CL2  UNL     1      -3.776   1.747  10.056  1.00  0.00    -0.081 Cl
BRANCH  18  25
HETATM   25  C5  UNL     1      -4.444   1.594  15.968  1.00  0.00     0.054 C 
HETATM   26  C6  UNL     1      -5.594   1.714  16.856  1.00  0.00     0.077 C 
BRANCH  25  27
HETATM   27  O2  UNL     1      -3.329   1.366  16.605  1.00  0.00    -0.364 OA
ATOM     28  H2  UNL     1      -3.085   1.979  17.288  1.00  0.00     0.217 HD
ENDBRANCH  25  27
ENDBRANCH  18  25
BRANCH  21  29
HETATM   29  O1  UNL     1      -4.378  -0.667  11.715  1.00  0.00    -0.351 OA
HETATM   30  C1  UNL     1      -3.247  -1.461  11.429  1.00  0.00     0.210 C 
ENDBRANCH  21  29
ENDBRANCH  14  16
ENDBRANCH   1  14
BRANCH   6  31
HETATM   31  N3  UNL     1      -6.752   5.836   7.101  1.00  0.00    -0.234 N 
ATOM     32  H32 UNL     1      -7.575   5.236   7.147  1.00  0.00     0.174 HD
ATOM     33  H31 UNL     1      -6.414   6.235   6.225  1.00  0.00     0.174 HD
ENDBRANCH   6  31
TORSDOF 6
ENDMDL
MODEL 2
REMARK VINA RESULT: -6.924800976      4.054      7.473
REMARK  6 active torsions:
REMARK  status: ('A' for Active; 'I' for Inactive)
REMARK    1  A    between atoms: O1_2  and  C2_3 
REMARK    2  A    between atoms: C4_6  and  C5_7 
REMARK    3  A    between atoms: C5_7  and  O2_9 
REMARK    4  A    between atoms: C8_13  and  C9_14 
REMARK    5  A    between atoms: C9_14  and  N1_16 
REMARK    6  A    between atoms: C12_21  and  N3_22 
ROOT
HETATM    1  N1  UNL     1      -3.111   3.864  13.135  1.00  0.00    -0.366 N 
ATOM      2  H1  UNL     1      -3.096   4.530  13.907  1.00  0.00     0.161 HD
HETATM    3  C11 UNL     1      -3.610   2.824  13.544  1.00  0.00     0.141 A 
HETATM    4  N2  UNL     1      -3.995   2.800  14.898  1.00  0.00    -0.175 N 
ATOM      5  H2  UNL     1      -3.871   3.634  15.471  1.00  0.00     0.186 HD
HETATM    6  C12 UNL     1      -4.512   1.713  15.433  1.00  0.00     0.678 A 
HETATM    7  N4  UNL     1      -4.709   0.577  14.725  1.00  0.00    -0.177 N 
ATOM      8  H4  UNL     1      -5.117  -0.244  15.173  1.00  0.00     0.185 HD
HETATM    9  C13 UNL     1      -4.367   0.539  13.437  1.00  0.00     0.156 A 
HETATM   10  N5  UNL     1      -4.570  -0.626  12.635  1.00  0.00    -0.080 NA
HETATM   11  C14 UNL     1      -3.810   1.679  12.839  1.00  0.00     0.130 A 
HETATM   12  C15 UNL     1      -3.436   1.546  11.429  1.00  0.00     0.107 C 
HETATM   13  N6  UNL     1      -3.175   1.431  10.303  1.00  0.00    -0.191 NA
ENDROOT
BRANCH   1  14
HETATM   14  C9  UNL     1      -2.559   4.482  12.026  1.00  0.00     0.116 C 
HETATM   15  C10 UNL     1      -1.676   5.660  12.643  1.00  0.00     0.037 C 
BRANCH  14  16
HETATM   16  C8  UNL     1      -3.516   5.167  11.097  1.00  0.00     0.011 A 
HETATM   17  C7  UNL     1      -3.349   5.072   9.713  1.00  0.00     0.059 A 
HETATM   18  C4  UNL     1      -4.168   5.629   8.777  1.00  0.00     0.056 A 
HETATM   19 CL1  UNL     1      -1.967   4.171   9.061  1.00  0.00    -0.083 Cl
HETATM   20  C3  UNL     1      -5.287   6.356   9.254  1.00  0.00     0.165 A 
HETATM   21  C2  UNL     1      -5.488   6.463  10.604  1.00  0.00     0.130 A 
HETATM   22  F1  UNL     1      -6.105   6.897   8.308  1.00  0.00    -0.202 F 
HETATM   23  C16 UNL     1      -4.620   5.883  11.488  1.00  0.00     0.080 A 
HETATM   24 CL2  UNL     1      -4.959   6.030  13.200  1.00  0.00    -0.081 Cl
BRANCH  18  25
HETATM   25  C5  UNL     1      -3.886   5.642   7.359  1.00  0.00     0.054 C 
HETATM   26  C6  UNL     1      -3.119   6.598   6.570  1.00  0.00     0.077 C 
BRANCH  25  27
HETATM   27  O2  UNL     1      -4.371   4.663   6.645  1.00  0.00    -0.364 OA
ATOM     28  H2  UNL     1      -3.765   4.191   6.087  1.00  0.00     0.217 HD
ENDBRANCH  25  27
ENDBRANCH  18  25
BRANCH  21  29
HETATM   29  O1  UNL     1      -6.623   7.196  11.006  1.00  0.00    -0.351 OA
HETATM   30  C1  UNL     1      -6.608   8.605  11.074  1.00  0.00     0.210 C 
ENDBRANCH  21  29
ENDBRANCH  14  16
ENDBRANCH   1  14
BRANCH   6  31
HETATM   31  N3  UNL     1      -4.805   1.665  16.701  1.00  0.00    -0.234 N 
ATOM     32  H32 UNL     1      -4.047   1.409  17.333  1.00  0.00     0.174 HD
ATOM     33  H31 UNL     1      -5.735   1.917  17.036  1.00  0.00     0.174 HD
ENDBRANCH   6  31
TORSDOF 6
ENDMDL
MODEL 3
REMARK VINA RESULT: -6.865992225      4.316      6.718
REMARK  6 active torsions:
REMARK  status: ('A' for Active; 'I' for Inactive)
REMARK    1  A    between atoms: O1_2  and  C2_3 
REMARK    2  A    between atoms: C4_6  and  C5_7 
REMARK    3  A    between atoms: C5_7  and  O2_9 
REMARK    4  A    between atoms: C8_13  and  C9_14 
REMARK    5  A    between atoms: C9_14  and  N1_16 
REMARK    6  A    between atoms: C12_21  and  N3_22 
ROOT
HETATM    1  N1  UNL     1       0.298   4.678  11.567  1.00  0.00    -0.366 N 
ATOM      2  H1  UNL     1       0.081   4.866  12.545  1.00  0.00     0.161 HD
HETATM    3  C11 UNL     1       1.492   4.888  11.398  1.00  0.00     0.141 A 
HETATM    4  N2  UNL     1       2.219   5.330  12.520  1.00  0.00    -0.175 N 
ATOM      5  H2  UNL     1       1.745   5.434  13.417  1.00  0.00     0.186 HD
HETATM    6  C12 UNL     1       3.502   5.611  12.426  1.00  0.00     0.678 A 
HETATM    7  N4  UNL     1       4.190   5.487  11.266  1.00  0.00    -0.177 N 
ATOM      8  H4  UNL     1       5.184   5.710  11.233  1.00  0.00     0.185 HD
HETATM    9  C13 UNL     1       3.556   5.071  10.169  1.00  0.00     0.156 A 
HETATM   10  N5  UNL     1       4.235   4.903   8.923  1.00  0.00    -0.080 NA
HETATM   11  C14 UNL     1       2.189   4.768  10.237  1.00  0.00     0.130 A 
HETATM   12  C15 UNL     1       1.563   4.344   8.983  1.00  0.00     0.107 C 
HETATM   13  N6  UNL     1       1.091   3.980   7.985  1.00  0.00    -0.191 NA
ENDROOT
BRANCH   1  14
HETATM   14  C9  UNL     1      -0.871   4.283  10.938  1.00  0.00     0.116 C 
HETATM   15  C10 UNL     1      -1.385   5.610  10.215  1.00  0.00     0.037 C 
BRANCH  14  16
HETATM   16  C8  UNL     1      -2.002   3.869  11.830  1.00  0.00     0.011 A 
HETATM   17  C7  UNL     1      -2.713   2.694  11.571  1.00  0.00     0.059 A 
HETATM   18  C4  UNL     1      -3.739   2.208  12.325  1.00  0.00     0.056 A 
HETATM   19 CL1  UNL     1      -2.296   1.717  10.151  1.00  0.00    -0.083 Cl
HETATM   20  C3  UNL     1      -4.103   2.957  13.472  1.00  0.00     0.165 A 
HETATM   21  C2  UNL     1      -3.423   4.109  13.762  1.00  0.00     0.130 A 
HETATM   22  F1  UNL     1      -5.122   2.453  14.225  1.00  0.00    -0.202 F 
HETATM   23  C16 UNL     1      -2.407   4.542  12.956  1.00  0.00     0.080 A 
HETATM   24 CL2  UNL     1      -1.557   6.006  13.407  1.00  0.00    -0.081 Cl
BRANCH  18  25
HETATM   25  C5  UNL     1      -4.553   1.074  11.950  1.00  0.00     0.054 C 
HETATM   26  C6  UNL     1      -4.371  -0.342  12.244  1.00  0.00     0.077 C 
BRANCH  25  27
HETATM   27  O2  UNL     1      -5.623   1.315  11.243  1.00  0.00    -0.364 OA
ATOM     28  H2  UNL     1      -5.495   1.646  10.362  1.00  0.00     0.217 HD
ENDBRANCH  25  27
ENDBRANCH  18  25
BRANCH  21  29
HETATM   29  O1  UNL     1      -3.837   4.799  14.919  1.00  0.00    -0.351 OA
HETATM   30  C1  UNL     1      -4.890   5.738  14.886  1.00  0.00     0.210 C 
ENDBRANCH  21  29
ENDBRANCH  14  16
ENDBRANCH   1  14
BRANCH   6  31
HETATM   31  N3  UNL     1       4.161   6.085  13.443  1.00  0.00    -0.234 N 
ATOM     32  H32 UNL     1       3.687   6.794  14.002  1.00  0.00     0.174 HD
ATOM     33  H31 UNL     1       5.084   5.723  13.687  1.00  0.00     0.174 HD
ENDBRANCH   6  31
TORSDOF 6
ENDMDL
MODEL 4
REMARK VINA RESULT: -6.850186919      1.737      3.574
REMARK  6 active torsions:
REMARK  status: ('A' for Active; 'I' for Inactive)
REMARK    1  A    between atoms: O1_2  and  C2_3 
REMARK    2  A    between atoms: C4_6  and  C5_7 
REMARK    3  A    between atoms: C5_7  and  O2_9 
REMARK    4  A    between atoms: C8_13  and  C9_14 
REMARK    5  A    between atoms: C9_14  and  N1_16 
REMARK    6  A    between atoms: C12_21  and  N3_22 
ROOT
HETATM    1  N1  UNL     1      -4.412   6.134  10.311  1.00  0.00    -0.366 N 
ATOM      2  H1  UNL     1      -3.620   5.765   9.786  1.00  0.00     0.161 HD
HETATM    3  C11 UNL     1      -5.221   6.580   9.509  1.00  0.00     0.141 A 
HETATM    4  N2  UNL     1      -4.870   6.498   8.148  1.00  0.00    -0.175 N 
ATOM      5  H2  UNL     1      -3.989   6.060   7.881  1.00  0.00     0.186 HD
HETATM    6  C12 UNL     1      -5.665   6.980   7.215  1.00  0.00     0.678 A 
HETATM    7  N4  UNL     1      -6.850   7.567   7.502  1.00  0.00    -0.177 N 
ATOM      8  H4  UNL     1      -7.442   7.925   6.753  1.00  0.00     0.185 HD
HETATM    9  C13 UNL     1      -7.239   7.673   8.773  1.00  0.00     0.156 A 
HETATM   10  N5  UNL     1      -8.489   8.264   9.135  1.00  0.00    -0.080 NA
HETATM   11  C14 UNL     1      -6.412   7.172   9.790  1.00  0.00     0.130 A 
HETATM   12  C15 UNL     1      -6.899   7.351  11.159  1.00  0.00     0.107 C 
HETATM   13  N6  UNL     1      -7.316   7.476  12.237  1.00  0.00    -0.191 NA
ENDROOT
BRANCH   1  14
HETATM   14  C9  UNL     1      -4.160   5.939  11.659  1.00  0.00     0.116 C 
HETATM   15  C10 UNL     1      -2.598   6.234  11.804  1.00  0.00     0.037 C 
BRANCH  14  16
HETATM   16  C8  UNL     1      -4.337   4.543  12.177  1.00  0.00     0.011 A 
HETATM   17  C7  UNL     1      -3.957   3.446  11.398  1.00  0.00     0.059 A 
HETATM   18  C4  UNL     1      -4.048   2.140  11.775  1.00  0.00     0.056 A 
HETATM   19 CL1  UNL     1      -3.305   3.716   9.771  1.00  0.00    -0.083 Cl
HETATM   20  C3  UNL     1      -4.562   1.879  13.070  1.00  0.00     0.165 A 
HETATM   21  C2  UNL     1      -4.936   2.930  13.865  1.00  0.00     0.130 A 
HETATM   22  F1  UNL     1      -4.636   0.569  13.439  1.00  0.00    -0.202 F 
HETATM   23  C16 UNL     1      -4.824   4.218  13.418  1.00  0.00     0.080 A 
HETATM   24 CL2  UNL     1      -5.288   5.514  14.502  1.00  0.00    -0.081 Cl
BRANCH  18  25
HETATM   25  C5  UNL     1      -3.790   1.024  10.894  1.00  0.00     0.054 C 
HETATM   26  C6  UNL     1      -2.591   0.209  10.748  1.00  0.00     0.077 C 
BRANCH  25  27
HETATM   27  O2  UNL     1      -4.755   0.660  10.094  1.00  0.00    -0.364 OA
ATOM     28  H2  UNL     1      -4.584  -0.071   9.512  1.00  0.00     0.217 HD
ENDBRANCH  25  27
ENDBRANCH  18  25
BRANCH  21  29
HETATM   29  O1  UNL     1      -5.433   2.596  15.140  1.00  0.00    -0.351 OA
HETATM   30  C1  UNL     1      -4.589   2.105  16.159  1.00  0.00     0.210 C 
ENDBRANCH  21  29
ENDBRANCH  14  16
ENDBRANCH   1  14
BRANCH   6  31
HETATM   31  N3  UNL     1      -5.312   6.968   5.962  1.00  0.00    -0.234 N 
ATOM     32  H32 UNL     1      -4.311   6.962   5.771  1.00  0.00     0.174 HD
ATOM     33  H31 UNL     1      -6.011   6.919   5.220  1.00  0.00     0.174 HD
ENDBRANCH   6  31
TORSDOF 6
ENDMDL
MODEL 5
REMARK VINA RESULT: -6.756544954      1.917      2.310
REMARK  6 active torsions:
REMARK  status: ('A' for Active; 'I' for Inactive)
REMARK    1  A    between atoms: O1_2  and  C2_3 
REMARK    2  A    between atoms: C4_6  and  C5_7 
REMARK    3  A    between atoms: C5_7  and  O2_9 
REMARK    4  A    between atoms: C8_13  and  C9_14 
REMARK    5  A    between atoms: C9_14  and  N1_16 
REMARK    6  A    between atoms: C12_21  and  N3_22 
ROOT
HETATM    1  N1  UNL     1      -4.121   6.635   9.864  1.00  0.00    -0.366 N 
ATOM      2  H1  UNL     1      -3.309   6.403   9.292  1.00  0.00     0.161 HD
HETATM    3  C11 UNL     1      -4.997   7.056   9.120  1.00  0.00     0.141 A 
HETATM    4  N2  UNL     1      -4.679   7.132   7.751  1.00  0.00    -0.175 N 
ATOM      5  H2  UNL     1      -3.763   6.819   7.429  1.00  0.00     0.186 HD
HETATM    6  C12 UNL     1      -5.548   7.602   6.881  1.00  0.00     0.678 A 
HETATM    7  N4  UNL     1      -6.782   8.026   7.242  1.00  0.00    -0.177 N 
ATOM      8  H4  UNL     1      -7.430   8.380   6.539  1.00  0.00     0.185 HD
HETATM    9  C13 UNL     1      -7.142   7.977   8.525  1.00  0.00     0.156 A 
HETATM   10  N5  UNL     1      -8.438   8.392   8.963  1.00  0.00    -0.080 NA
HETATM   11  C14 UNL     1      -6.237   7.485   9.476  1.00  0.00     0.130 A 
HETATM   12  C15 UNL     1      -6.700   7.489  10.865  1.00  0.00     0.107 C 
HETATM   13  N6  UNL     1      -7.097   7.472  11.958  1.00  0.00    -0.191 NA
ENDROOT
BRANCH   1  14
HETATM   14  C9  UNL     1      -3.810   6.352  11.183  1.00  0.00     0.116 C 
HETATM   15  C10 UNL     1      -2.239   6.621  11.273  1.00  0.00     0.037 C 
BRANCH  14  16
HETATM   16  C8  UNL     1      -3.981   4.928  11.620  1.00  0.00     0.011 A 
HETATM   17  C7  UNL     1      -4.378   4.632  12.927  1.00  0.00     0.059 A 
HETATM   18  C4  UNL     1      -4.589   3.381  13.425  1.00  0.00     0.056 A 
HETATM   19 CL1  UNL     1      -4.635   5.954  14.081  1.00  0.00    -0.083 Cl
HETATM   20  C3  UNL     1      -4.398   2.295  12.535  1.00  0.00     0.165 A 
HETATM   21  C2  UNL     1      -4.018   2.547  11.244  1.00  0.00     0.130 A 
HETATM   22  F1  UNL     1      -4.624   1.050  13.042  1.00  0.00    -0.202 F 
HETATM   23  C16 UNL     1      -3.816   3.830  10.813  1.00  0.00     0.080 A 
HETATM   24 CL2  UNL     1      -3.365   4.081   9.139  1.00  0.00    -0.081 Cl
BRANCH  18  25
HETATM   25  C5  UNL     1      -4.851   3.099  14.818  1.00  0.00     0.054 C 
HETATM   26  C6  UNL     1      -6.118   3.053  15.538  1.00  0.00     0.077 C 
BRANCH  25  27
HETATM   27  O2  UNL     1      -3.823   2.836  15.577  1.00  0.00    -0.364 OA
ATOM     28  H2  UNL     1      -3.408   3.570  16.016  1.00  0.00     0.217 HD
ENDBRANCH  25  27
ENDBRANCH  18  25
BRANCH  21  29
HETATM   29  O1  UNL     1      -3.851   1.420  10.415  1.00  0.00    -0.351 OA
HETATM   30  C1  UNL     1      -2.676   0.640  10.453  1.00  0.00     0.210 C 
ENDBRANCH  21  29
ENDBRANCH  14  16
ENDBRANCH   1  14
BRANCH   6  31
HETATM   31  N3  UNL     1      -5.233   7.739   5.625  1.00  0.00    -0.234 N 
ATOM     32  H32 UNL     1      -4.616   8.516   5.393  1.00  0.00     0.174 HD
ATOM     33  H31 UNL     1      -5.555   7.068   4.926  1.00  0.00     0.174 HD
ENDBRANCH   6  31
TORSDOF 6
ENDMDL
