MODEL 1
REMARK VINA RESULT: -6.649922671      0.000      0.000
REMARK  6 active torsions:
REMARK  status: ('A' for Active; 'I' for Inactive)
REMARK    1  A    between atoms: O1_2  and  C2_3 
REMARK    2  A    between atoms: C3_4  and  N1_5 
REMARK    3  A    between atoms: N2_11  and  C8_13 
REMARK    4  A    between atoms: C11_16  and  O2_17 
REMARK    5  A    between atoms: C11_16  and  C12_19 
REMARK    6  A    between atoms: C19_32  and  N5_33 
ROOT
HETATM    1  N1  UNL     1      -2.757   4.822  13.223  1.00  0.00    -0.318 N 
HETATM    2  C4  UNL     1      -1.692   5.049  14.191  1.00  0.00     0.135 C 
HETATM    3  C5  UNL     1      -1.749   6.522  14.537  1.00  0.00     0.065 C 
HETATM    4  C6  UNL     1      -3.018   7.008  13.779  1.00  0.00     0.239 C 
HETATM    5  F1  UNL     1      -4.031   6.641  14.651  1.00  0.00    -0.241 F 
HETATM    6  C7  UNL     1      -2.894   6.096  12.581  1.00  0.00     0.116 C 
HETATM    7  N2  UNL     1      -3.584   6.273  11.453  1.00  0.00    -0.367 N 
ATOM      8  H2  UNL     1      -2.982   6.425  10.645  1.00  0.00     0.161 HD
ENDROOT
BRANCH   1   9
HETATM    9  C3  UNL     1      -3.361   3.578  13.096  1.00  0.00     0.147 A 
HETATM   10  C2  UNL     1      -3.227   2.867  11.909  1.00  0.00     0.156 A 
HETATM   11  C19 UNL     1      -3.810   1.615  11.765  1.00  0.00     0.137 A 
HETATM   12  N4  UNL     1      -4.503   1.115  12.796  1.00  0.00    -0.337 N 
HETATM   13  C18 UNL     1      -4.632   1.817  13.958  1.00  0.00     0.183 A 
ATOM     14  H4  UNL     1      -4.939   0.197  12.711  1.00  0.00     0.168 HD
HETATM   15  N3  UNL     1      -4.062   3.026  14.082  1.00  0.00    -0.336 N 
ATOM     16  H3  UNL     1      -4.170   3.536  14.959  1.00  0.00     0.168 HD
BRANCH  10  17
HETATM   17  O1  UNL     1      -2.524   3.344  10.820  1.00  0.00    -0.349 OA
HETATM   18  C1  UNL     1      -1.131   3.194  10.664  1.00  0.00     0.210 C 
ENDBRANCH  10  17
BRANCH  11  19
HETATM   19  N5  UNL     1      -3.717   0.914  10.702  1.00  0.00    -0.383 N 
ATOM     20  H52 UNL     1      -4.265   1.195   9.889  1.00  0.00     0.157 HD
ATOM     21  H51 UNL     1      -3.127   0.086  10.625  1.00  0.00     0.157 HD
ENDBRANCH  11  19
ENDBRANCH   1   9
BRANCH   7  22
HETATM   22  C8  UNL     1      -4.913   6.300  11.132  1.00  0.00     0.155 C 
HETATM   23  C9  UNL     1      -5.617   7.530  11.629  1.00  0.00     0.034 C 
HETATM   24  C10 UNL     1      -5.857   8.461  10.423  1.00  0.00     0.041 C 
HETATM   25  C11 UNL     1      -6.937   7.803   9.636  1.00  0.00     0.070 C 
HETATM   26  C16 UNL     1      -6.428   6.490   9.136  1.00  0.00     0.119 C 
HETATM   27  C17 UNL     1      -5.077   6.103   9.629  1.00  0.00     0.266 C 
HETATM   28  F2  UNL     1      -4.030   6.644   8.913  1.00  0.00    -0.204 F 
HETATM   29  F3  UNL     1      -4.975   4.719   9.374  1.00  0.00    -0.204 F 
BRANCH  25  30
HETATM   30  O2  UNL     1      -7.988   7.516  10.534  1.00  0.00    -0.389 OA
ATOM     31  H2  UNL     1      -8.538   6.861  10.120  1.00  0.00     0.210 HD
ENDBRANCH  25  30
BRANCH  25  32
HETATM   32  C12 UNL     1      -7.514   8.675   8.558  1.00  0.00    -0.020 C 
HETATM   33  C13 UNL     1      -6.763   8.545   7.247  1.00  0.00     0.017 C 
HETATM   34  C14 UNL     1      -7.369  10.118   8.993  1.00  0.00     0.017 C 
HETATM   35  C15 UNL     1      -8.979   8.370   8.340  1.00  0.00     0.017 C 
ENDBRANCH  25  32
ENDBRANCH   7  22
TORSDOF 6
ENDMDL
MODEL 2
REMARK VINA RESULT: -6.549094792      2.007      3.142
REMARK  6 active torsions:
REMARK  status: ('A' for Active; 'I' for Inactive)
REMARK    1  A    between atoms: O1_2  and  C2_3 
REMARK    2  A    between atoms: C3_4  and  N1_5 
REMARK    3  A    between atoms: N2_11  and  C8_13 
REMARK    4  A    between atoms: C11_16  and  O2_17 
REMARK    5  A    between atoms: C11_16  and  C12_19 
REMARK    6  A    between atoms: C19_32  and  N5_33 
ROOT
HETATM    1  N1  UNL     1      -2.875   3.895   9.907  1.00  0.00    -0.318 N 
HETATM    2  C4  UNL     1      -1.607   3.505   9.304  1.00  0.00     0.135 C 
HETATM    3  C5  UNL     1      -1.325   4.531   8.226  1.00  0.00     0.065 C 
HETATM    4  C6  UNL     1      -2.476   5.561   8.417  1.00  0.00     0.239 C 
HETATM    5  F1  UNL     1      -1.992   6.342   9.455  1.00  0.00    -0.241 F 
HETATM    6  C7  UNL     1      -3.546   4.584   8.845  1.00  0.00     0.116 C 
HETATM    7  N2  UNL     1      -4.843   4.893   8.881  1.00  0.00    -0.367 N 
ATOM      8  H2  UNL     1      -5.402   4.307   8.261  1.00  0.00     0.161 HD
ENDROOT
BRANCH   1   9
HETATM    9  C3  UNL     1      -3.179   3.563  11.220  1.00  0.00     0.147 A 
HETATM   10  C2  UNL     1      -3.720   2.315  11.507  1.00  0.00     0.156 A 
HETATM   11  C19 UNL     1      -4.018   1.956  12.814  1.00  0.00     0.137 A 
HETATM   12  N4  UNL     1      -3.772   2.842  13.787  1.00  0.00    -0.337 N 
HETATM   13  C18 UNL     1      -3.241   4.065  13.501  1.00  0.00     0.183 A 
ATOM     14  H4  UNL     1      -3.983   2.598  14.755  1.00  0.00     0.168 HD
HETATM   15  N3  UNL     1      -2.958   4.397  12.233  1.00  0.00    -0.336 N 
ATOM     16  H3  UNL     1      -2.562   5.317  12.038  1.00  0.00     0.168 HD
BRANCH  10  17
HETATM   17  O1  UNL     1      -3.992   1.371  10.535  1.00  0.00    -0.349 OA
HETATM   18  C1  UNL     1      -3.156   0.270  10.262  1.00  0.00     0.210 C 
ENDBRANCH  10  17
BRANCH  11  19
HETATM   19  N5  UNL     1      -4.511   0.824  13.137  1.00  0.00    -0.383 N 
ATOM     20  H52 UNL     1      -5.510   0.771  13.335  1.00  0.00     0.157 HD
ATOM     21  H51 UNL     1      -3.957  -0.029  13.212  1.00  0.00     0.157 HD
ENDBRANCH  11  19
ENDBRANCH   1   9
BRANCH   7  22
HETATM   22  C8  UNL     1      -5.596   5.813   9.557  1.00  0.00     0.155 C 
HETATM   23  C9  UNL     1      -4.771   6.873  10.228  1.00  0.00     0.034 C 
HETATM   24  C10 UNL     1      -4.898   8.170   9.403  1.00  0.00     0.041 C 
HETATM   25  C11 UNL     1      -6.279   8.662   9.668  1.00  0.00     0.070 C 
HETATM   26  C16 UNL     1      -7.251   7.657   9.138  1.00  0.00     0.119 C 
HETATM   27  C17 UNL     1      -6.645   6.400   8.620  1.00  0.00     0.266 C 
HETATM   28  F2  UNL     1      -6.199   6.475   7.317  1.00  0.00    -0.204 F 
HETATM   29  F3  UNL     1      -7.711   5.477   8.554  1.00  0.00    -0.204 F 
BRANCH  25  30
HETATM   30  O2  UNL     1      -6.447   8.691  11.070  1.00  0.00    -0.389 OA
ATOM     31  H2  UNL     1      -7.240   8.205  11.265  1.00  0.00     0.210 HD
ENDBRANCH  25  30
BRANCH  25  32
HETATM   32  C12 UNL     1      -6.526  10.057   9.173  1.00  0.00    -0.020 C 
HETATM   33  C13 UNL     1      -7.866  10.194   8.476  1.00  0.00     0.017 C 
HETATM   34  C14 UNL     1      -5.471  10.383   8.137  1.00  0.00     0.017 C 
HETATM   35  C15 UNL     1      -6.434  11.059  10.303  1.00  0.00     0.017 C 
ENDBRANCH  25  32
ENDBRANCH   7  22
TORSDOF 6
ENDMDL
MODEL 3
REMARK VINA RESULT: -6.523388552      2.698      6.368
REMARK  6 active torsions:
REMARK  status: ('A' for Active; 'I' for Inactive)
REMARK    1  A    between atoms: O1_2  and  C2_3 
REMARK    2  A    between atoms: C3_4  and  N1_5 
REMARK    3  A    between atoms: N2_11  and  C8_13 
REMARK    4  A    between atoms: C11_16  and  O2_17 
REMARK    5  A    between atoms: C11_16  and  C12_19 
REMARK    6  A    between atoms: C19_32  and  N5_33 
ROOT
HETATM    1  N1  UNL     1      -3.104   6.979   9.666  1.00  0.00    -0.318 N 
HETATM    2  C4  UNL     1      -1.916   7.518   9.017  1.00  0.00     0.135 C 
HETATM    3  C5  UNL     1      -0.769   6.620   9.431  1.00  0.00     0.065 C 
HETATM    4  C6  UNL     1      -1.483   5.491  10.229  1.00  0.00     0.239 C 
HETATM    5  F1  UNL     1      -1.928   4.659   9.213  1.00  0.00    -0.241 F 
HETATM    6  C7  UNL     1      -2.577   6.339  10.834  1.00  0.00     0.116 C 
HETATM    7  N2  UNL     1      -3.341   5.930  11.848  1.00  0.00    -0.367 N 
ATOM      8  H2  UNL     1      -3.252   6.524  12.672  1.00  0.00     0.161 HD
ENDROOT
BRANCH   1   9
HETATM    9  C3  UNL     1      -4.368   7.165   9.123  1.00  0.00     0.147 A 
HETATM   10  C2  UNL     1      -4.797   6.349   8.082  1.00  0.00     0.156 A 
HETATM   11  C19 UNL     1      -6.062   6.508   7.534  1.00  0.00     0.137 A 
HETATM   12  N4  UNL     1      -6.854   7.466   8.032  1.00  0.00    -0.337 N 
HETATM   13  C18 UNL     1      -6.428   8.265   9.052  1.00  0.00     0.183 A 
ATOM     14  H4  UNL     1      -7.788   7.600   7.643  1.00  0.00     0.168 HD
HETATM   15  N3  UNL     1      -5.203   8.098   9.572  1.00  0.00    -0.336 N 
ATOM     16  H3  UNL     1      -4.901   8.705  10.334  1.00  0.00     0.168 HD
BRANCH  10  17
HETATM   17  O1  UNL     1      -4.014   5.350   7.536  1.00  0.00    -0.349 OA
HETATM   18  C1  UNL     1      -3.227   5.521   6.380  1.00  0.00     0.210 C 
ENDBRANCH  10  17
BRANCH  11  19
HETATM   19  N5  UNL     1      -6.511   5.786   6.582  1.00  0.00    -0.383 N 
ATOM     20  H52 UNL     1      -6.791   4.828   6.793  1.00  0.00     0.157 HD
ATOM     21  H51 UNL     1      -6.602   6.115   5.621  1.00  0.00     0.157 HD
ENDBRANCH  11  19
ENDBRANCH   1   9
BRANCH   7  22
HETATM   22  C8  UNL     1      -4.217   4.897  12.038  1.00  0.00     0.155 C 
HETATM   23  C9  UNL     1      -4.590   4.197  10.763  1.00  0.00     0.034 C 
HETATM   24  C10 UNL     1      -3.843   2.848  10.723  1.00  0.00     0.041 C 
HETATM   25  C11 UNL     1      -4.528   1.997  11.735  1.00  0.00     0.070 C 
HETATM   26  C16 UNL     1      -4.336   2.614  13.083  1.00  0.00     0.119 C 
HETATM   27  C17 UNL     1      -3.656   3.939  13.083  1.00  0.00     0.266 C 
HETATM   28  F2  UNL     1      -2.279   3.876  13.050  1.00  0.00    -0.204 F 
HETATM   29  F3  UNL     1      -3.934   4.495  14.351  1.00  0.00    -0.204 F 
BRANCH  25  30
HETATM   30  O2  UNL     1      -5.911   2.053  11.456  1.00  0.00    -0.389 OA
ATOM     31  H2  UNL     1      -6.313   1.310  11.890  1.00  0.00     0.210 HD
ENDBRANCH  25  30
BRANCH  25  32
HETATM   32  C12 UNL     1      -4.131   0.550  11.674  1.00  0.00    -0.020 C 
HETATM   33  C13 UNL     1      -4.296  -0.151  13.009  1.00  0.00     0.017 C 
HETATM   34  C14 UNL     1      -2.657   0.481  11.334  1.00  0.00     0.017 C 
HETATM   35  C15 UNL     1      -4.918  -0.183  10.611  1.00  0.00     0.017 C 
ENDBRANCH  25  32
ENDBRANCH   7  22
TORSDOF 6
ENDMDL
MODEL 4
REMARK VINA RESULT: -6.482003981      4.062      5.859
REMARK  6 active torsions:
REMARK  status: ('A' for Active; 'I' for Inactive)
REMARK    1  A    between atoms: O1_2  and  C2_3 
REMARK    2  A    between atoms: C3_4  and  N1_5 
REMARK    3  A    between atoms: N2_11  and  C8_13 
REMARK    4  A    between atoms: C11_16  and  O2_17 
REMARK    5  A    between atoms: C11_16  and  C12_19 
REMARK    6  A    between atoms: C19_32  and  N5_33 
ROOT
HETATM    1  N1  UNL     1      -4.566   3.738  13.715  1.00  0.00    -0.318 N 
HETATM    2  C4  UNL     1      -5.587   3.996  14.722  1.00  0.00     0.135 C 
HETATM    3  C5  UNL     1      -5.529   5.483  15.005  1.00  0.00     0.065 C 
HETATM    4  C6  UNL     1      -4.495   5.994  13.961  1.00  0.00     0.239 C 
HETATM    5  F1  UNL     1      -5.274   6.120  12.822  1.00  0.00    -0.241 F 
HETATM    6  C7  UNL     1      -3.604   4.774  13.951  1.00  0.00     0.116 C 
HETATM    7  N2  UNL     1      -2.381   4.767  13.419  1.00  0.00    -0.367 N 
ATOM      8  H2  UNL     1      -1.657   4.548  14.103  1.00  0.00     0.161 HD
ENDROOT
BRANCH   1   9
HETATM    9  C3  UNL     1      -4.677   2.672  12.834  1.00  0.00     0.147 A 
HETATM   10  C2  UNL     1      -4.372   1.386  13.267  1.00  0.00     0.156 A 
HETATM   11  C19 UNL     1      -4.490   0.303  12.407  1.00  0.00     0.137 A 
HETATM   12  N4  UNL     1      -4.904   0.530  11.154  1.00  0.00    -0.337 N 
HETATM   13  C18 UNL     1      -5.202   1.792  10.733  1.00  0.00     0.183 A 
ATOM     14  H4  UNL     1      -4.998  -0.253  10.506  1.00  0.00     0.168 HD
HETATM   15  N3  UNL     1      -5.083   2.829  11.576  1.00  0.00    -0.336 N 
ATOM     16  H3  UNL     1      -5.309   3.766  11.244  1.00  0.00     0.168 HD
BRANCH  10  17
HETATM   17  O1  UNL     1      -3.940   1.106  14.549  1.00  0.00    -0.349 OA
HETATM   18  C1  UNL     1      -4.792   0.654  15.577  1.00  0.00     0.210 C 
ENDBRANCH  10  17
BRANCH  11  19
HETATM   19  N5  UNL     1      -4.229  -0.898  12.750  1.00  0.00    -0.383 N 
ATOM     20  H52 UNL     1      -3.589  -1.050  13.530  1.00  0.00     0.157 HD
ATOM     21  H51 UNL     1      -4.624  -1.715  12.283  1.00  0.00     0.157 HD
ENDBRANCH  11  19
ENDBRANCH   1   9
BRANCH   7  22
HETATM   22  C8  UNL     1      -1.873   4.988  12.169  1.00  0.00     0.155 C 
HETATM   23  C9  UNL     1      -1.153   6.300  12.046  1.00  0.00     0.034 C 
HETATM   24  C10 UNL     1       0.362   6.012  12.026  1.00  0.00     0.041 C 
HETATM   25  C11 UNL     1       0.623   5.409  10.689  1.00  0.00     0.070 C 
HETATM   26  C16 UNL     1      -0.115   4.112  10.601  1.00  0.00     0.119 C 
HETATM   27  C17 UNL     1      -1.002   3.807  11.758  1.00  0.00     0.266 C 
HETATM   28  F2  UNL     1      -0.360   3.230  12.833  1.00  0.00    -0.204 F 
HETATM   29  F3  UNL     1      -1.866   2.789  11.300  1.00  0.00    -0.204 F 
BRANCH  25  30
HETATM   30  O2  UNL     1       0.048   6.269   9.727  1.00  0.00    -0.389 OA
ATOM     31  H2  UNL     1      -0.640   5.779   9.291  1.00  0.00     0.210 HD
ENDBRANCH  25  30
BRANCH  25  32
HETATM   32  C12 UNL     1       2.081   5.296  10.353  1.00  0.00    -0.020 C 
HETATM   33  C13 UNL     1       2.381   4.092   9.480  1.00  0.00     0.017 C 
HETATM   34  C14 UNL     1       2.846   5.089  11.643  1.00  0.00     0.017 C 
HETATM   35  C15 UNL     1       2.582   6.554   9.678  1.00  0.00     0.017 C 
ENDBRANCH  25  32
ENDBRANCH   7  22
TORSDOF 6
ENDMDL
MODEL 5
REMARK VINA RESULT: -6.437443834      2.047      2.910
REMARK  6 active torsions:
REMARK  status: ('A' for Active; 'I' for Inactive)
REMARK    1  A    between atoms: O1_2  and  C2_3 
REMARK    2  A    between atoms: C3_4  and  N1_5 
REMARK    3  A    between atoms: N2_11  and  C8_13 
REMARK    4  A    between atoms: C11_16  and  O2_17 
REMARK    5  A    between atoms: C11_16  and  C12_19 
REMARK    6  A    between atoms: C19_32  and  N5_33 
ROOT
HETATM    1  N1  UNL     1      -1.633   3.433  10.960  1.00  0.00    -0.318 N 
HETATM    2  C4  UNL     1      -0.496   3.732  11.821  1.00  0.00     0.135 C 
HETATM    3  C5  UNL     1      -0.367   5.241  11.833  1.00  0.00     0.065 C 
HETATM    4  C6  UNL     1      -1.614   5.703  11.025  1.00  0.00     0.239 C 
HETATM    5  F1  UNL     1      -2.611   5.660  11.987  1.00  0.00    -0.241 F 
HETATM    6  C7  UNL     1      -1.661   4.545  10.056  1.00  0.00     0.116 C 
HETATM    7  N2  UNL     1      -2.389   4.557   8.939  1.00  0.00    -0.367 N 
ATOM      8  H2  UNL     1      -1.820   4.455   8.099  1.00  0.00     0.161 HD
ENDROOT
BRANCH   1   9
HETATM    9  C3  UNL     1      -2.380   2.275  11.130  1.00  0.00     0.147 A 
HETATM   10  C2  UNL     1      -3.133   2.106  12.285  1.00  0.00     0.156 A 
HETATM   11  C19 UNL     1      -3.898   0.963  12.470  1.00  0.00     0.137 A 
HETATM   12  N4  UNL     1      -3.890   0.031  11.509  1.00  0.00    -0.337 N 
HETATM   13  C18 UNL     1      -3.149   0.201  10.377  1.00  0.00     0.183 A 
ATOM     14  H4  UNL     1      -4.446  -0.816  11.625  1.00  0.00     0.168 HD
HETATM   15  N3  UNL     1      -2.414   1.312  10.213  1.00  0.00    -0.336 N 
ATOM     16  H3  UNL     1      -1.866   1.421   9.360  1.00  0.00     0.168 HD
BRANCH  10  17
HETATM   17  O1  UNL     1      -3.171   3.040  13.304  1.00  0.00    -0.349 OA
HETATM   18  C1  UNL     1      -4.300   3.831  13.595  1.00  0.00     0.210 C 
ENDBRANCH  10  17
BRANCH  11  19
HETATM   19  N5  UNL     1      -4.614   0.756  13.507  1.00  0.00    -0.383 N 
ATOM     20  H52 UNL     1      -4.162   0.795  14.422  1.00  0.00     0.157 HD
ATOM     21  H51 UNL     1      -5.612   0.549  13.470  1.00  0.00     0.157 HD
ENDBRANCH  11  19
ENDBRANCH   1   9
BRANCH   7  22
HETATM   22  C8  UNL     1      -3.723   4.676   8.660  1.00  0.00     0.155 C 
HETATM   23  C9  UNL     1      -4.586   4.667   9.888  1.00  0.00     0.034 C 
HETATM   24  C10 UNL     1      -5.061   6.112  10.148  1.00  0.00     0.041 C 
HETATM   25  C11 UNL     1      -6.067   6.385   9.084  1.00  0.00     0.070 C 
HETATM   26  C16 UNL     1      -5.381   6.334   7.757  1.00  0.00     0.119 C 
HETATM   27  C17 UNL     1      -3.954   5.910   7.795  1.00  0.00     0.266 C 
HETATM   28  F2  UNL     1      -3.064   6.923   8.080  1.00  0.00    -0.204 F 
HETATM   29  F3  UNL     1      -3.640   5.555   6.466  1.00  0.00    -0.204 F 
BRANCH  25  30
HETATM   30  O2  UNL     1      -6.992   5.317   9.104  1.00  0.00    -0.389 OA
ATOM     31  H2  UNL     1      -7.681   5.534   8.488  1.00  0.00     0.210 HD
ENDBRANCH  25  30
BRANCH  25  32
HETATM   32  C12 UNL     1      -6.854   7.644   9.307  1.00  0.00    -0.020 C 
HETATM   33  C13 UNL     1      -7.130   7.900  10.776  1.00  0.00     0.017 C 
HETATM   34  C14 UNL     1      -8.204   7.479   8.641  1.00  0.00     0.017 C 
HETATM   35  C15 UNL     1      -6.149   8.838   8.703  1.00  0.00     0.017 C 
ENDBRANCH  25  32
ENDBRANCH   7  22
TORSDOF 6
ENDMDL
