MODEL 1
REMARK VINA RESULT: -7.587697402      0.000      0.000
REMARK  9 active torsions:
REMARK  status: ('A' for Active; 'I' for Inactive)
REMARK    1  A    between atoms: C6_7  and  C7_8 
REMARK    2  A    between atoms: C7_8  and  N1_10 
REMARK    3  A    between atoms: C7_8  and  C16_28 
REMARK    4  A    between atoms: N1_10  and  C8_13 
REMARK    5  A    between atoms: C8_13  and  C9_14 
REMARK    6  A    between atoms: C10_16  and  O2_17 
REMARK    7  A    between atoms: C10_16  and  C11_19 
REMARK    8  A    between atoms: C14_22  and  O3_23 
REMARK    9  A    between atoms: C15_25  and  O4_26 
ROOT
HETATM    1  N1  UNL     1      -3.826   4.645  13.694  1.00  0.00    -0.035 N 
ATOM      2  H11 UNL     1      -3.542   4.226  14.579  1.00  0.00     0.280 HD
ATOM      3  H12 UNL     1      -2.901   4.708  13.269  1.00  0.00     0.280 HD
ENDROOT
BRANCH   1   4
HETATM    4  C7  UNL     1      -4.477   5.981  13.868  1.00  0.00     0.340 C 
HETATM    5 CL2  UNL     1      -6.000   5.896  14.721  1.00  0.00    -0.072 Cl
BRANCH   4   6
HETATM    6  C6  UNL     1      -4.637   6.563  12.524  1.00  0.00     0.092 A 
HETATM    7  C5  UNL     1      -3.705   6.558  11.525  1.00  0.00     0.060 A 
HETATM    8  C4  UNL     1      -3.906   7.022  10.236  1.00  0.00     0.028 A 
HETATM    9 CL1  UNL     1      -2.056   6.023  11.915  1.00  0.00    -0.082 Cl
HETATM   10  C3  UNL     1      -5.126   7.535   9.910  1.00  0.00     0.026 A 
HETATM   11  C2  UNL     1      -6.086   7.551  10.915  1.00  0.00     0.005 A 
HETATM   12  C1  UNL     1      -7.406   8.132  10.483  1.00  0.00     0.068 C 
HETATM   13  N2  UNL     1      -5.853   7.092  12.150  1.00  0.00    -0.359 N 
ATOM     14  H2  UNL     1      -6.603   7.135  12.839  1.00  0.00     0.165 HD
ENDBRANCH   4   6
BRANCH   4  15
HETATM   15  C16 UNL     1      -3.485   6.772  14.732  1.00  0.00     0.441 C 
HETATM   16  F1  UNL     1      -4.136   7.031  15.950  1.00  0.00    -0.167 F 
HETATM   17  F2  UNL     1      -3.141   7.955  14.216  1.00  0.00    -0.167 F 
HETATM   18  F3  UNL     1      -2.400   5.967  15.053  1.00  0.00    -0.167 F 
ENDBRANCH   4  15
ENDBRANCH   1   4
BRANCH   1  19
HETATM   19  C8  UNL     1      -4.716   3.820  12.955  1.00  0.00     0.270 C 
BRANCH  19  20
HETATM   20  C9  UNL     1      -5.221   2.605  13.720  1.00  0.00     0.182 C 
HETATM   21  O1  UNL     1      -4.854   2.801  15.033  1.00  0.00    -0.343 OA
HETATM   22  C10 UNL     1      -4.644   1.589  15.662  1.00  0.00     0.194 C 
HETATM   23  C14 UNL     1      -4.235   0.645  14.627  1.00  0.00     0.212 C 
HETATM   24  C15 UNL     1      -4.471   1.360  13.321  1.00  0.00     0.182 C 
BRANCH  22  25
HETATM   25  O2  UNL     1      -3.597   1.831  16.586  1.00  0.00    -0.363 OA
ATOM     26  H2  UNL     1      -3.573   1.059  17.139  1.00  0.00     0.213 HD
ENDBRANCH  22  25
BRANCH  22  27
HETATM   27  C11 UNL     1      -5.845   1.236  16.471  1.00  0.00     0.043 C 
HETATM   28  C12 UNL     1      -5.579   0.681  17.814  1.00  0.00     0.015 C 
HETATM   29  C13 UNL     1      -6.665   2.505  16.626  1.00  0.00     0.015 C 
ENDBRANCH  22  27
BRANCH  23  30
HETATM   30  O3  UNL     1      -4.877  -0.578  14.620  1.00  0.00    -0.387 OA
ATOM     31  H3  UNL     1      -4.722  -1.133  13.864  1.00  0.00     0.210 HD
ENDBRANCH  23  30
BRANCH  24  32
HETATM   32  O4  UNL     1      -3.227   1.651  12.765  1.00  0.00    -0.390 OA
ATOM     33  H4  UNL     1      -2.512   1.297  13.281  1.00  0.00     0.210 HD
ENDBRANCH  24  32
ENDBRANCH  19  20
ENDBRANCH   1  19
TORSDOF 9
ENDMDL
MODEL 2
REMARK VINA RESULT: -7.548179252      2.301      3.171
REMARK  9 active torsions:
REMARK  status: ('A' for Active; 'I' for Inactive)
REMARK    1  A    between atoms: C6_7  and  C7_8 
REMARK    2  A    between atoms: C7_8  and  N1_10 
REMARK    3  A    between atoms: C7_8  and  C16_28 
REMARK    4  A    between atoms: N1_10  and  C8_13 
REMARK    5  A    between atoms: C8_13  and  C9_14 
REMARK    6  A    between atoms: C10_16  and  O2_17 
REMARK    7  A    between atoms: C10_16  and  C11_19 
REMARK    8  A    between atoms: C14_22  and  O3_23 
REMARK    9  A    between atoms: C15_25  and  O4_26 
ROOT
HETATM    1  N1  UNL     1      -2.875   3.863  13.101  1.00  0.00    -0.035 N 
ATOM      2  H11 UNL     1      -2.622   3.408  13.979  1.00  0.00     0.280 HD
ATOM      3  H12 UNL     1      -2.126   3.476  12.527  1.00  0.00     0.280 HD
ENDROOT
BRANCH   1   4
HETATM    4  C7  UNL     1      -2.828   5.356  13.188  1.00  0.00     0.340 C 
HETATM    5 CL2  UNL     1      -4.305   6.120  12.651  1.00  0.00    -0.072 Cl
BRANCH   4   6
HETATM    6  C6  UNL     1      -1.666   5.799  12.399  1.00  0.00     0.092 A 
HETATM    7  C5  UNL     1      -1.408   7.076  11.988  1.00  0.00     0.060 A 
HETATM    8  C4  UNL     1      -0.262   7.493  11.333  1.00  0.00     0.028 A 
HETATM    9 CL1  UNL     1      -2.678   8.301  12.200  1.00  0.00    -0.082 Cl
HETATM   10  C3  UNL     1       0.704   6.572  11.057  1.00  0.00     0.026 A 
HETATM   11  C2  UNL     1       0.457   5.266  11.464  1.00  0.00     0.005 A 
HETATM   12  C1  UNL     1       1.565   4.306  11.125  1.00  0.00     0.068 C 
HETATM   13  N2  UNL     1      -0.664   4.903  12.098  1.00  0.00    -0.359 N 
ATOM     14  H2  UNL     1      -0.781   3.927  12.368  1.00  0.00     0.165 HD
ENDBRANCH   4   6
BRANCH   4  15
HETATM   15  C16 UNL     1      -2.658   5.639  14.688  1.00  0.00     0.441 C 
HETATM   16  F1  UNL     1      -3.953   5.733  15.226  1.00  0.00    -0.167 F 
HETATM   17  F2  UNL     1      -2.043   6.795  14.954  1.00  0.00    -0.167 F 
HETATM   18  F3  UNL     1      -2.075   4.542  15.308  1.00  0.00    -0.167 F 
ENDBRANCH   4  15
ENDBRANCH   1   4
BRANCH   1  19
HETATM   19  C8  UNL     1      -4.167   3.493  12.642  1.00  0.00     0.270 C 
BRANCH  19  20
HETATM   20  C9  UNL     1      -4.848   2.424  13.484  1.00  0.00     0.182 C 
HETATM   21  O1  UNL     1      -4.511   2.698  14.792  1.00  0.00    -0.343 OA
HETATM   22  C10 UNL     1      -4.477   1.535  15.536  1.00  0.00     0.194 C 
HETATM   23  C14 UNL     1      -4.145   0.456  14.612  1.00  0.00     0.212 C 
HETATM   24  C15 UNL     1      -4.240   1.067  13.237  1.00  0.00     0.182 C 
BRANCH  22  25
HETATM   25  O2  UNL     1      -3.447   1.738  16.488  1.00  0.00    -0.363 OA
ATOM     26  H2  UNL     1      -3.217   0.867  16.792  1.00  0.00     0.213 HD
ENDBRANCH  22  25
BRANCH  22  27
HETATM   27  C11 UNL     1      -5.744   1.405  16.311  1.00  0.00     0.043 C 
HETATM   28  C12 UNL     1      -5.604   0.930  17.703  1.00  0.00     0.015 C 
HETATM   29  C13 UNL     1      -6.396   2.776  16.330  1.00  0.00     0.015 C 
ENDBRANCH  22  27
BRANCH  23  30
HETATM   30  O3  UNL     1      -4.931  -0.678  14.680  1.00  0.00    -0.387 OA
ATOM     31  H3  UNL     1      -4.535  -1.487  14.379  1.00  0.00     0.210 HD
ENDBRANCH  23  30
BRANCH  24  32
HETATM   32  O4  UNL     1      -2.949   1.156  12.722  1.00  0.00    -0.390 OA
ATOM     33  H4  UNL     1      -2.944   1.201  11.773  1.00  0.00     0.210 HD
ENDBRANCH  24  32
ENDBRANCH  19  20
ENDBRANCH   1  19
TORSDOF 9
ENDMDL
MODEL 3
REMARK VINA RESULT: -7.380256098      2.481      3.426
REMARK  9 active torsions:
REMARK  status: ('A' for Active; 'I' for Inactive)
REMARK    1  A    between atoms: C6_7  and  C7_8 
REMARK    2  A    between atoms: C7_8  and  N1_10 
REMARK    3  A    between atoms: C7_8  and  C16_28 
REMARK    4  A    between atoms: N1_10  and  C8_13 
REMARK    5  A    between atoms: C8_13  and  C9_14 
REMARK    6  A    between atoms: C10_16  and  O2_17 
REMARK    7  A    between atoms: C10_16  and  C11_19 
REMARK    8  A    between atoms: C14_22  and  O3_23 
REMARK    9  A    between atoms: C15_25  and  O4_26 
ROOT
HETATM    1  N1  UNL     1      -2.804   3.852  13.197  1.00  0.00    -0.035 N 
ATOM      2  H11 UNL     1      -2.627   3.620  14.175  1.00  0.00     0.280 HD
ATOM      3  H12 UNL     1      -2.155   3.186  12.779  1.00  0.00     0.280 HD
ENDROOT
BRANCH   1   4
HETATM    4  C7  UNL     1      -2.469   5.273  12.870  1.00  0.00     0.340 C 
HETATM    5 CL2  UNL     1      -3.776   6.120  12.078  1.00  0.00    -0.072 Cl
BRANCH   4   6
HETATM    6  C6  UNL     1      -1.252   5.251  12.042  1.00  0.00     0.092 A 
HETATM    7  C5  UNL     1      -1.176   4.897  10.724  1.00  0.00     0.060 A 
HETATM    8  C4  UNL     1      -0.042   4.977   9.934  1.00  0.00     0.028 A 
HETATM    9 CL1  UNL     1      -2.608   4.166   9.967  1.00  0.00    -0.082 Cl
HETATM   10  C3  UNL     1       1.111   5.439  10.494  1.00  0.00     0.026 A 
HETATM   11  C2  UNL     1       1.055   5.801  11.835  1.00  0.00     0.005 A 
HETATM   12  C1  UNL     1       2.364   6.300  12.383  1.00  0.00     0.068 C 
HETATM   13  N2  UNL     1      -0.062   5.711  12.565  1.00  0.00    -0.359 N 
ATOM     14  H2  UNL     1      -0.033   5.993  13.544  1.00  0.00     0.165 HD
ENDBRANCH   4   6
BRANCH   4  15
HETATM   15  C16 UNL     1      -2.233   5.927  14.239  1.00  0.00     0.441 C 
HETATM   16  F1  UNL     1      -3.502   6.159  14.796  1.00  0.00    -0.167 F 
HETATM   17  F2  UNL     1      -1.616   7.111  14.174  1.00  0.00    -0.167 F 
HETATM   18  F3  UNL     1      -1.612   5.022  15.089  1.00  0.00    -0.167 F 
ENDBRANCH   4  15
ENDBRANCH   1   4
BRANCH   1  19
HETATM   19  C8  UNL     1      -4.152   3.623  12.813  1.00  0.00     0.270 C 
BRANCH  19  20
HETATM   20  C9  UNL     1      -4.847   2.520  13.599  1.00  0.00     0.182 C 
HETATM   21  O1  UNL     1      -4.503   2.717  14.918  1.00  0.00    -0.343 OA
HETATM   22  C10 UNL     1      -4.484   1.515  15.597  1.00  0.00     0.194 C 
HETATM   23  C14 UNL     1      -4.172   0.483  14.614  1.00  0.00     0.212 C 
HETATM   24  C15 UNL     1      -4.261   1.169  13.276  1.00  0.00     0.182 C 
BRANCH  22  25
HETATM   25  O2  UNL     1      -3.448   1.650  16.555  1.00  0.00    -0.363 OA
ATOM     26  H2  UNL     1      -2.650   1.436  16.086  1.00  0.00     0.213 HD
ENDBRANCH  22  25
BRANCH  22  27
HETATM   27  C11 UNL     1      -5.751   1.362  16.369  1.00  0.00     0.043 C 
HETATM   28  C12 UNL     1      -5.608   0.869  17.755  1.00  0.00     0.015 C 
HETATM   29  C13 UNL     1      -6.416   2.726  16.406  1.00  0.00     0.015 C 
ENDBRANCH  22  27
BRANCH  23  30
HETATM   30  O3  UNL     1      -4.975  -0.641  14.624  1.00  0.00    -0.387 OA
ATOM     31  H3  UNL     1      -5.470  -0.815  13.832  1.00  0.00     0.210 HD
ENDBRANCH  23  30
BRANCH  24  32
HETATM   32  O4  UNL     1      -2.970   1.266  12.761  1.00  0.00    -0.390 OA
ATOM     33  H4  UNL     1      -2.721   0.492  12.269  1.00  0.00     0.210 HD
ENDBRANCH  24  32
ENDBRANCH  19  20
ENDBRANCH   1  19
TORSDOF 9
ENDMDL
MODEL 4
REMARK VINA RESULT: -7.239045505      2.451      2.717
REMARK  9 active torsions:
REMARK  status: ('A' for Active; 'I' for Inactive)
REMARK    1  A    between atoms: C6_7  and  C7_8 
REMARK    2  A    between atoms: C7_8  and  N1_10 
REMARK    3  A    between atoms: C7_8  and  C16_28 
REMARK    4  A    between atoms: N1_10  and  C8_13 
REMARK    5  A    between atoms: C8_13  and  C9_14 
REMARK    6  A    between atoms: C10_16  and  O2_17 
REMARK    7  A    between atoms: C10_16  and  C11_19 
REMARK    8  A    between atoms: C14_22  and  O3_23 
REMARK    9  A    between atoms: C15_25  and  O4_26 
ROOT
HETATM    1  N1  UNL     1      -4.577   4.287  11.964  1.00  0.00    -0.035 N 
ATOM      2  H11 UNL     1      -4.704   3.416  11.451  1.00  0.00     0.280 HD
ATOM      3  H12 UNL     1      -5.497   4.687  11.784  1.00  0.00     0.280 HD
ENDROOT
BRANCH   1   4
HETATM    4  C7  UNL     1      -3.463   5.124  11.418  1.00  0.00     0.340 C 
HETATM    5 CL2  UNL     1      -2.032   5.100  12.421  1.00  0.00    -0.072 Cl
BRANCH   4   6
HETATM    6  C6  UNL     1      -3.989   6.490  11.252  1.00  0.00     0.092 A 
HETATM    7  C5  UNL     1      -3.291   7.576  10.806  1.00  0.00     0.060 A 
HETATM    8  C4  UNL     1      -3.826   8.830  10.561  1.00  0.00     0.028 A 
HETATM    9 CL1  UNL     1      -1.530   7.428  10.623  1.00  0.00    -0.082 Cl
HETATM   10  C3  UNL     1      -5.157   9.025  10.780  1.00  0.00     0.026 A 
HETATM   11  C2  UNL     1      -5.883   7.932  11.238  1.00  0.00     0.005 A 
HETATM   12  C1  UNL     1      -7.343   8.223  11.458  1.00  0.00     0.068 C 
HETATM   13  N2  UNL     1      -5.329   6.735  11.461  1.00  0.00    -0.359 N 
ATOM     14  H2  UNL     1      -5.920   5.976  11.798  1.00  0.00     0.165 HD
ENDBRANCH   4   6
BRANCH   4  15
HETATM   15  C16 UNL     1      -3.120   4.463  10.076  1.00  0.00     0.441 C 
HETATM   16  F1  UNL     1      -3.663   3.168  10.119  1.00  0.00    -0.167 F 
HETATM   17  F2  UNL     1      -1.809   4.327   9.859  1.00  0.00    -0.167 F 
HETATM   18  F3  UNL     1      -3.791   5.114   9.049  1.00  0.00    -0.167 F 
ENDBRANCH   4  15
ENDBRANCH   1   4
BRANCH   1  19
HETATM   19  C8  UNL     1      -4.328   4.080  13.347  1.00  0.00     0.270 C 
BRANCH  19  20
HETATM   20  C9  UNL     1      -4.971   2.823  13.916  1.00  0.00     0.182 C 
HETATM   21  O1  UNL     1      -4.644   2.800  15.254  1.00  0.00    -0.343 OA
HETATM   22  C10 UNL     1      -4.568   1.499  15.711  1.00  0.00     0.194 C 
HETATM   23  C14 UNL     1      -4.200   0.674  14.565  1.00  0.00     0.212 C 
HETATM   24  C15 UNL     1      -4.317   1.581  13.368  1.00  0.00     0.182 C 
BRANCH  22  25
HETATM   25  O2  UNL     1      -3.545   1.512  16.691  1.00  0.00    -0.363 OA
ATOM     26  H2  UNL     1      -3.399   0.598  16.907  1.00  0.00     0.213 HD
ENDBRANCH  22  25
BRANCH  22  27
HETATM   27  C11 UNL     1      -5.829   1.150  16.426  1.00  0.00     0.043 C 
HETATM   28  C12 UNL     1      -5.669   0.448  17.715  1.00  0.00     0.015 C 
HETATM   29  C13 UNL     1      -6.574   2.451  16.672  1.00  0.00     0.015 C 
ENDBRANCH  22  27
BRANCH  23  30
HETATM   30  O3  UNL     1      -4.946  -0.472  14.365  1.00  0.00    -0.387 OA
ATOM     31  H3  UNL     1      -5.297  -0.601  13.492  1.00  0.00     0.210 HD
ENDBRANCH  23  30
BRANCH  24  32
HETATM   32  O4  UNL     1      -3.030   1.830  12.896  1.00  0.00    -0.390 OA
ATOM     33  H4  UNL     1      -2.572   1.030  12.665  1.00  0.00     0.210 HD
ENDBRANCH  24  32
ENDBRANCH  19  20
ENDBRANCH   1  19
TORSDOF 9
ENDMDL
MODEL 5
REMARK VINA RESULT: -7.221021668      3.764      6.833
REMARK  9 active torsions:
REMARK  status: ('A' for Active; 'I' for Inactive)
REMARK    1  A    between atoms: C6_7  and  C7_8 
REMARK    2  A    between atoms: C7_8  and  N1_10 
REMARK    3  A    between atoms: C7_8  and  C16_28 
REMARK    4  A    between atoms: N1_10  and  C8_13 
REMARK    5  A    between atoms: C8_13  and  C9_14 
REMARK    6  A    between atoms: C10_16  and  O2_17 
REMARK    7  A    between atoms: C10_16  and  C11_19 
REMARK    8  A    between atoms: C14_22  and  O3_23 
REMARK    9  A    between atoms: C15_25  and  O4_26 
ROOT
HETATM    1  N1  UNL     1      -3.866   5.264  11.334  1.00  0.00    -0.035 N 
ATOM      2  H11 UNL     1      -3.147   5.922  11.632  1.00  0.00     0.280 HD
ATOM      3  H12 UNL     1      -4.661   5.717  11.784  1.00  0.00     0.280 HD
ENDROOT
BRANCH   1   4
HETATM    4  C7  UNL     1      -3.628   3.876  11.840  1.00  0.00     0.340 C 
HETATM    5 CL2  UNL     1      -3.955   2.645  10.644  1.00  0.00    -0.072 Cl
BRANCH   4   6
HETATM    6  C6  UNL     1      -4.461   3.704  13.042  1.00  0.00     0.092 A 
HETATM    7  C5  UNL     1      -4.650   2.542  13.736  1.00  0.00     0.060 A 
HETATM    8  C4  UNL     1      -5.356   2.418  14.920  1.00  0.00     0.028 A 
HETATM    9 CL1  UNL     1      -4.044   1.030  13.025  1.00  0.00    -0.082 Cl
HETATM   10  C3  UNL     1      -5.926   3.533  15.458  1.00  0.00     0.026 A 
HETATM   11  C2  UNL     1      -5.749   4.724  14.764  1.00  0.00     0.005 A 
HETATM   12  C1  UNL     1      -6.407   5.910  15.417  1.00  0.00     0.068 C 
HETATM   13  N2  UNL     1      -5.057   4.802  13.622  1.00  0.00    -0.359 N 
ATOM     14  H2  UNL     1      -4.966   5.709  13.164  1.00  0.00     0.165 HD
ENDBRANCH   4   6
BRANCH   4  15
HETATM   15  C16 UNL     1      -2.127   3.847  12.161  1.00  0.00     0.441 C 
HETATM   16  F1  UNL     1      -2.001   4.199  13.515  1.00  0.00    -0.167 F 
HETATM   17  F2  UNL     1      -1.407   4.729  11.462  1.00  0.00    -0.167 F 
HETATM   18  F3  UNL     1      -1.654   2.544  12.069  1.00  0.00    -0.167 F 
ENDBRANCH   4  15
ENDBRANCH   1   4
BRANCH   1  19
HETATM   19  C8  UNL     1      -3.999   5.196   9.922  1.00  0.00     0.270 C 
BRANCH  19  20
HETATM   20  C9  UNL     1      -4.757   6.364   9.309  1.00  0.00     0.182 C 
HETATM   21  O1  UNL     1      -6.090   6.135   9.573  1.00  0.00    -0.343 OA
HETATM   22  C10 UNL     1      -6.881   6.682   8.582  1.00  0.00     0.194 C 
HETATM   23  C14 UNL     1      -6.078   6.691   7.363  1.00  0.00     0.212 C 
HETATM   24  C15 UNL     1      -4.682   6.333   7.803  1.00  0.00     0.182 C 
BRANCH  22  25
HETATM   25  O2  UNL     1      -7.988   5.805   8.468  1.00  0.00    -0.363 OA
ATOM     26  H2  UNL     1      -8.693   6.238   8.935  1.00  0.00     0.213 HD
ENDBRANCH  22  25
BRANCH  22  27
HETATM   27  C11 UNL     1      -7.427   7.989   9.048  1.00  0.00     0.043 C 
HETATM   28  C12 UNL     1      -8.764   8.351   8.535  1.00  0.00     0.015 C 
HETATM   29  C13 UNL     1      -7.491   7.927  10.564  1.00  0.00     0.015 C 
ENDBRANCH  22  27
BRANCH  23  30
HETATM   30  O3  UNL     1      -6.060   7.871   6.645  1.00  0.00    -0.387 OA
ATOM     31  H3  UNL     1      -5.793   8.650   7.119  1.00  0.00     0.210 HD
ENDBRANCH  23  30
BRANCH  24  32
HETATM   32  O4  UNL     1      -4.398   5.058   7.318  1.00  0.00    -0.390 OA
ATOM     33  H4  UNL     1      -4.635   4.378   7.938  1.00  0.00     0.210 HD
ENDBRANCH  24  32
ENDBRANCH  19  20
ENDBRANCH   1  19
TORSDOF 9
ENDMDL
