MODEL 1
REMARK VINA RESULT: -7.075557383      0.000      0.000
REMARK  5 active torsions:
REMARK  status: ('A' for Active; 'I' for Inactive)
REMARK    1  A    between atoms: N5_16  and  C6_17 
REMARK    2  A    between atoms: N6_19  and  C8_20 
REMARK    3  A    between atoms: C8_20  and  C9_21 
REMARK    4  A    between atoms: C9_21  and  C10_23 
REMARK    5  A    between atoms: C12_28  and  O1_29 
ROOT
HETATM    1  N1  UNL     1      -4.465  -0.313  15.704  1.00  0.00    -0.383 N 
ATOM      2  H11 UNL     1      -3.844  -0.819  15.074  1.00  0.00     0.157 HD
ATOM      3  H12 UNL     1      -4.821  -0.743  16.557  1.00  0.00     0.157 HD
HETATM    4  C1  UNL     1      -4.835   0.895  15.461  1.00  0.00     0.132 A 
HETATM    5  N2  UNL     1      -5.658   1.566  16.297  1.00  0.00    -0.317 N 
ATOM      6  H2  UNL     1      -6.011   1.129  17.149  1.00  0.00     0.170 HD
HETATM    7  C2  UNL     1      -5.999   2.827  15.975  1.00  0.00     0.182 A 
HETATM    8 CL1  UNL     1      -7.074   3.660  17.097  1.00  0.00    -0.045 Cl
HETATM    9  N3  UNL     1      -5.554   3.435  14.861  1.00  0.00    -0.317 N 
ATOM     10  H3  UNL     1      -5.837   4.393  14.654  1.00  0.00     0.170 HD
HETATM   11  C3  UNL     1      -4.736   2.780  14.022  1.00  0.00     0.142 A 
HETATM   12  C4  UNL     1      -4.355   1.477  14.310  1.00  0.00     0.122 A 
HETATM   13  N4  UNL     1      -3.551   1.104  13.300  1.00  0.00    -0.346 N 
ATOM     14  H4  UNL     1      -3.100   0.194  13.210  1.00  0.00     0.167 HD
HETATM   15  C5  UNL     1      -3.435   2.122  12.425  1.00  0.00     0.185 A 
HETATM   16  N5  UNL     1      -4.166   3.152  12.873  1.00  0.00    -0.318 N 
ENDROOT
BRANCH  16  17
HETATM   17  C6  UNL     1      -4.299   4.436  12.209  1.00  0.00     0.151 C 
HETATM   18  C7  UNL     1      -3.402   5.475  12.783  1.00  0.00     0.300 C 
HETATM   19  N6  UNL     1      -3.535   6.569  11.751  1.00  0.00     0.094 N 
HETATM   20  C11 UNL     1      -3.426   5.811  10.518  1.00  0.00     0.306 C 
HETATM   21  C12 UNL     1      -3.760   4.360  10.799  1.00  0.00     0.171 C 
BRANCH  19  22
HETATM   22  C8  UNL     1      -4.774   7.229  11.973  1.00  0.00     0.297 C 
BRANCH  22  23
HETATM   23  C9  UNL     1      -5.383   7.867  10.793  1.00  0.00     0.164 C 
HETATM   24 CL2  UNL     1      -4.355   9.331  10.340  1.00  0.00    -0.119 Cl
BRANCH  23  25
HETATM   25  C10 UNL     1      -6.790   8.289  10.741  1.00  0.00     0.206 C 
HETATM   26 CL3  UNL     1      -7.795   7.862  12.123  1.00  0.00    -0.082 Cl
HETATM   27 CL4  UNL     1      -6.721  10.113  10.633  1.00  0.00    -0.082 Cl
HETATM   28 CL5  UNL     1      -7.579   7.767   9.245  1.00  0.00    -0.082 Cl
ENDBRANCH  23  25
ENDBRANCH  22  23
ENDBRANCH  19  22
BRANCH  21  29
HETATM   29  O1  UNL     1      -4.735   3.878   9.930  1.00  0.00    -0.392 OA
ATOM     30  H1  UNL     1      -4.465   3.998   9.027  1.00  0.00     0.210 HD
ENDBRANCH  21  29
ENDBRANCH  16  17
TORSDOF 5
ENDMDL
MODEL 2
REMARK VINA RESULT: -7.003954364      2.589      3.133
REMARK  5 active torsions:
REMARK  status: ('A' for Active; 'I' for Inactive)
REMARK    1  A    between atoms: N5_16  and  C6_17 
REMARK    2  A    between atoms: N6_19  and  C8_20 
REMARK    3  A    between atoms: C8_20  and  C9_21 
REMARK    4  A    between atoms: C9_21  and  C10_23 
REMARK    5  A    between atoms: C12_28  and  O1_29 
ROOT
HETATM    1  N1  UNL     1      -5.691  -0.178  17.783  1.00  0.00    -0.383 N 
ATOM      2  H11 UNL     1      -5.173  -0.976  17.417  1.00  0.00     0.157 HD
ATOM      3  H12 UNL     1      -6.128  -0.207  18.704  1.00  0.00     0.157 HD
HETATM    4  C1  UNL     1      -5.822   0.909  17.108  1.00  0.00     0.132 A 
HETATM    5  N2  UNL     1      -6.509   1.967  17.593  1.00  0.00    -0.317 N 
ATOM      6  H2  UNL     1      -6.944   1.931  18.515  1.00  0.00     0.170 HD
HETATM    7  C2  UNL     1      -6.601   3.068  16.827  1.00  0.00     0.182 A 
HETATM    8 CL1  UNL     1      -7.506   4.421  17.505  1.00  0.00    -0.045 Cl
HETATM    9  N3  UNL     1      -6.041   3.152  15.608  1.00  0.00    -0.317 N 
ATOM     10  H3  UNL     1      -6.135   4.006  15.060  1.00  0.00     0.170 HD
HETATM   11  C3  UNL     1      -5.356   2.108  15.114  1.00  0.00     0.142 A 
HETATM   12  C4  UNL     1      -5.232   0.949  15.865  1.00  0.00     0.122 A 
HETATM   13  N4  UNL     1      -4.507   0.105  15.111  1.00  0.00    -0.346 N 
ATOM     14  H4  UNL     1      -4.236  -0.841  15.378  1.00  0.00     0.167 HD
HETATM   15  C5  UNL     1      -4.193   0.707  13.947  1.00  0.00     0.185 A 
HETATM   16  N5  UNL     1      -4.718   1.940  13.952  1.00  0.00    -0.318 N 
ENDROOT
BRANCH  16  17
HETATM   17  C6  UNL     1      -4.599   2.905  12.874  1.00  0.00     0.151 C 
HETATM   18  C7  UNL     1      -3.227   3.467  12.755  1.00  0.00     0.300 C 
HETATM   19  N6  UNL     1      -3.326   4.182  11.429  1.00  0.00     0.094 N 
HETATM   20  C11 UNL     1      -4.006   3.188  10.621  1.00  0.00     0.306 C 
HETATM   21  C12 UNL     1      -4.730   2.219  11.534  1.00  0.00     0.171 C 
BRANCH  19  22
HETATM   22  C8  UNL     1      -4.023   5.401  11.642  1.00  0.00     0.297 C 
BRANCH  22  23
HETATM   23  C9  UNL     1      -3.185   6.604  11.785  1.00  0.00     0.164 C 
HETATM   24 CL2  UNL     1      -1.692   6.392  10.722  1.00  0.00    -0.119 Cl
BRANCH  23  25
HETATM   25  C10 UNL     1      -2.725   7.116  13.084  1.00  0.00     0.206 C 
HETATM   26 CL3  UNL     1      -3.702   6.697  14.489  1.00  0.00    -0.082 Cl
HETATM   27 CL4  UNL     1      -1.066   6.382  13.310  1.00  0.00    -0.082 Cl
HETATM   28 CL5  UNL     1      -2.455   8.865  13.045  1.00  0.00    -0.082 Cl
ENDBRANCH  23  25
ENDBRANCH  22  23
ENDBRANCH  19  22
BRANCH  21  29
HETATM   29  O1  UNL     1      -6.070   2.084  11.184  1.00  0.00    -0.392 OA
ATOM     30  H1  UNL     1      -6.165   2.036  10.240  1.00  0.00     0.210 HD
ENDBRANCH  21  29
ENDBRANCH  16  17
TORSDOF 5
ENDMDL
MODEL 3
REMARK VINA RESULT: -6.916010031      2.016      2.619
REMARK  5 active torsions:
REMARK  status: ('A' for Active; 'I' for Inactive)
REMARK    1  A    between atoms: N5_16  and  C6_17 
REMARK    2  A    between atoms: N6_19  and  C8_20 
REMARK    3  A    between atoms: C8_20  and  C9_21 
REMARK    4  A    between atoms: C9_21  and  C10_23 
REMARK    5  A    between atoms: C12_28  and  O1_29 
ROOT
HETATM    1  N1  UNL     1      -4.521   0.411  16.230  1.00  0.00    -0.383 N 
ATOM      2  H11 UNL     1      -4.524   1.086  16.995  1.00  0.00     0.157 HD
ATOM      3  H12 UNL     1      -4.576  -0.592  16.407  1.00  0.00     0.157 HD
HETATM    4  C1  UNL     1      -4.450   0.784  15.001  1.00  0.00     0.132 A 
HETATM    5  N2  UNL     1      -4.446  -0.109  13.988  1.00  0.00    -0.317 N 
ATOM      6  H2  UNL     1      -4.500  -1.112  14.172  1.00  0.00     0.170 HD
HETATM    7  C2  UNL     1      -4.369   0.359  12.729  1.00  0.00     0.182 A 
HETATM    8 CL1  UNL     1      -4.368  -0.847  11.442  1.00  0.00    -0.045 Cl
HETATM    9  N3  UNL     1      -4.297   1.672  12.448  1.00  0.00    -0.317 N 
ATOM     10  H3  UNL     1      -4.240   1.985  11.479  1.00  0.00     0.170 HD
HETATM   11  C3  UNL     1      -4.299   2.570  13.446  1.00  0.00     0.142 A 
HETATM   12  C4  UNL     1      -4.376   2.138  14.761  1.00  0.00     0.122 A 
HETATM   13  N4  UNL     1      -4.357   3.253  15.510  1.00  0.00    -0.346 N 
ATOM     14  H4  UNL     1      -4.400   3.282  16.529  1.00  0.00     0.167 HD
HETATM   15  C5  UNL     1      -4.273   4.329  14.703  1.00  0.00     0.185 A 
HETATM   16  N5  UNL     1      -4.236   3.905  13.433  1.00  0.00    -0.318 N 
ENDROOT
BRANCH  16  17
HETATM   17  C6  UNL     1      -4.147   4.763  12.266  1.00  0.00     0.151 C 
HETATM   18  C7  UNL     1      -4.468   6.183  12.571  1.00  0.00     0.300 C 
HETATM   19  N6  UNL     1      -4.024   6.856  11.294  1.00  0.00     0.094 N 
HETATM   20  C11 UNL     1      -2.744   6.212  11.064  1.00  0.00     0.306 C 
HETATM   21  C12 UNL     1      -2.709   4.898  11.819  1.00  0.00     0.171 C 
BRANCH  19  22
HETATM   22  C8  UNL     1      -5.025   6.632  10.312  1.00  0.00     0.297 C 
BRANCH  22  23
HETATM   23  C9  UNL     1      -5.658   7.839   9.752  1.00  0.00     0.164 C 
HETATM   24 CL2  UNL     1      -4.982   9.305  10.643  1.00  0.00    -0.119 Cl
BRANCH  23  25
HETATM   25  C10 UNL     1      -7.114   8.017   9.661  1.00  0.00     0.206 C 
HETATM   26 CL3  UNL     1      -7.997   6.831   8.703  1.00  0.00    -0.082 Cl
HETATM   27 CL4  UNL     1      -7.703   7.901  11.388  1.00  0.00    -0.082 Cl
HETATM   28 CL5  UNL     1      -7.546   9.651   9.135  1.00  0.00    -0.082 Cl
ENDBRANCH  23  25
ENDBRANCH  22  23
ENDBRANCH  19  22
BRANCH  21  29
HETATM   29  O1  UNL     1      -2.354   3.838  10.992  1.00  0.00    -0.392 OA
ATOM     30  H1  UNL     1      -3.129   3.420  10.634  1.00  0.00     0.210 HD
ENDBRANCH  21  29
ENDBRANCH  16  17
TORSDOF 5
ENDMDL
MODEL 4
REMARK VINA RESULT: -6.867093602      1.457      1.826
REMARK  5 active torsions:
REMARK  status: ('A' for Active; 'I' for Inactive)
REMARK    1  A    between atoms: N5_16  and  C6_17 
REMARK    2  A    between atoms: N6_19  and  C8_20 
REMARK    3  A    between atoms: C8_20  and  C9_21 
REMARK    4  A    between atoms: C9_21  and  C10_23 
REMARK    5  A    between atoms: C12_28  and  O1_29 
ROOT
HETATM    1  N1  UNL     1      -5.599  -0.061  17.687  1.00  0.00    -0.383 N 
ATOM      2  H11 UNL     1      -5.066  -0.844  17.310  1.00  0.00     0.157 HD
ATOM      3  H12 UNL     1      -6.024  -0.107  18.614  1.00  0.00     0.157 HD
HETATM    4  C1  UNL     1      -5.767   1.025  17.020  1.00  0.00     0.132 A 
HETATM    5  N2  UNL     1      -6.474   2.063  17.520  1.00  0.00    -0.317 N 
ATOM      6  H2  UNL     1      -6.897   2.011  18.447  1.00  0.00     0.170 HD
HETATM    7  C2  UNL     1      -6.605   3.166  16.762  1.00  0.00     0.182 A 
HETATM    8 CL1  UNL     1      -7.536   4.491  17.459  1.00  0.00    -0.045 Cl
HETATM    9  N3  UNL     1      -6.061   3.271  15.537  1.00  0.00    -0.317 N 
ATOM     10  H3  UNL     1      -6.184   4.125  14.995  1.00  0.00     0.170 HD
HETATM   11  C3  UNL     1      -5.357   2.247  15.028  1.00  0.00     0.142 A 
HETATM   12  C4  UNL     1      -5.194   1.087  15.770  1.00  0.00     0.122 A 
HETATM   13  N4  UNL     1      -4.456   0.267  15.003  1.00  0.00    -0.346 N 
ATOM     14  H4  UNL     1      -4.158  -0.674  15.260  1.00  0.00     0.167 HD
HETATM   15  C5  UNL     1      -4.172   0.884  13.839  1.00  0.00     0.185 A 
HETATM   16  N5  UNL     1      -4.728   2.102  13.858  1.00  0.00    -0.318 N 
ENDROOT
BRANCH  16  17
HETATM   17  C6  UNL     1      -4.648   3.077  12.784  1.00  0.00     0.151 C 
HETATM   18  C7  UNL     1      -3.344   3.791  12.754  1.00  0.00     0.300 C 
HETATM   19  N6  UNL     1      -3.434   4.492  11.419  1.00  0.00     0.094 N 
HETATM   20  C11 UNL     1      -3.940   3.428  10.574  1.00  0.00     0.306 C 
HETATM   21  C12 UNL     1      -4.610   2.382  11.442  1.00  0.00     0.171 C 
BRANCH  19  22
HETATM   22  C8  UNL     1      -4.278   5.623  11.578  1.00  0.00     0.297 C 
BRANCH  22  23
HETATM   23  C9  UNL     1      -4.709   6.282  10.332  1.00  0.00     0.164 C 
HETATM   24 CL2  UNL     1      -3.213   6.963   9.497  1.00  0.00    -0.119 Cl
BRANCH  23  25
HETATM   25  C10 UNL     1      -5.745   7.325  10.289  1.00  0.00     0.206 C 
HETATM   26 CL3  UNL     1      -6.628   7.624  11.783  1.00  0.00    -0.082 Cl
HETATM   27 CL4  UNL     1      -4.844   8.853   9.848  1.00  0.00    -0.082 Cl
HETATM   28 CL5  UNL     1      -6.887   7.063   8.962  1.00  0.00    -0.082 Cl
ENDBRANCH  23  25
ENDBRANCH  22  23
ENDBRANCH  19  22
BRANCH  21  29
HETATM   29  O1  UNL     1      -5.898   2.096  11.005  1.00  0.00    -0.392 OA
ATOM     30  H1  UNL     1      -5.953   1.201  10.690  1.00  0.00     0.210 HD
ENDBRANCH  21  29
ENDBRANCH  16  17
TORSDOF 5
ENDMDL
MODEL 5
REMARK VINA RESULT: -6.794991931      2.077      2.889
REMARK  5 active torsions:
REMARK  status: ('A' for Active; 'I' for Inactive)
REMARK    1  A    between atoms: N5_16  and  C6_17 
REMARK    2  A    between atoms: N6_19  and  C8_20 
REMARK    3  A    between atoms: C8_20  and  C9_21 
REMARK    4  A    between atoms: C9_21  and  C10_23 
REMARK    5  A    between atoms: C12_28  and  O1_29 
ROOT
HETATM    1  N1  UNL     1      -4.463   0.421  16.214  1.00  0.00    -0.383 N 
ATOM      2  H11 UNL     1      -4.466   1.084  16.989  1.00  0.00     0.157 HD
ATOM      3  H12 UNL     1      -4.476  -0.586  16.378  1.00  0.00     0.157 HD
HETATM    4  C1  UNL     1      -4.444   0.813  14.990  1.00  0.00     0.132 A 
HETATM    5  N2  UNL     1      -4.441  -0.066  13.963  1.00  0.00    -0.317 N 
ATOM      6  H2  UNL     1      -4.453  -1.071  14.134  1.00  0.00     0.170 HD
HETATM    7  C2  UNL     1      -4.421   0.423  12.710  1.00  0.00     0.182 A 
HETATM    8 CL1  UNL     1      -4.418  -0.764  11.406  1.00  0.00    -0.045 Cl
HETATM    9  N3  UNL     1      -4.405   1.741  12.447  1.00  0.00    -0.317 N 
ATOM     10  H3  UNL     1      -4.390   2.069  11.482  1.00  0.00     0.170 HD
HETATM   11  C3  UNL     1      -4.407   2.625  13.458  1.00  0.00     0.142 A 
HETATM   12  C4  UNL     1      -4.427   2.172  14.768  1.00  0.00     0.122 A 
HETATM   13  N4  UNL     1      -4.424   3.277  15.533  1.00  0.00    -0.346 N 
ATOM     14  H4  UNL     1      -4.435   3.289  16.553  1.00  0.00     0.167 HD
HETATM   15  C5  UNL     1      -4.404   4.366  14.740  1.00  0.00     0.185 A 
HETATM   16  N5  UNL     1      -4.394   3.961  13.463  1.00  0.00    -0.318 N 
ENDROOT
BRANCH  16  17
HETATM   17  C6  UNL     1      -4.372   4.838  12.306  1.00  0.00     0.151 C 
HETATM   18  C7  UNL     1      -4.733   6.241  12.643  1.00  0.00     0.300 C 
HETATM   19  N6  UNL     1      -4.354   6.948  11.363  1.00  0.00     0.094 N 
HETATM   20  C11 UNL     1      -3.061   6.353  11.083  1.00  0.00     0.306 C 
HETATM   21  C12 UNL     1      -2.955   5.030  11.816  1.00  0.00     0.171 C 
BRANCH  19  22
HETATM   22  C8  UNL     1      -5.378   6.701  10.410  1.00  0.00     0.297 C 
BRANCH  22  23
HETATM   23  C9  UNL     1      -6.275   7.835  10.123  1.00  0.00     0.164 C 
HETATM   24 CL2  UNL     1      -7.502   7.956  11.496  1.00  0.00    -0.119 Cl
BRANCH  23  25
HETATM   25  C10 UNL     1      -7.017   7.976   8.862  1.00  0.00     0.206 C 
HETATM   26 CL3  UNL     1      -6.569   9.331   7.829  1.00  0.00    -0.082 Cl
HETATM   27 CL4  UNL     1      -6.675   6.430   7.949  1.00  0.00    -0.082 Cl
HETATM   28 CL5  UNL     1      -8.768   7.979   9.125  1.00  0.00    -0.082 Cl
ENDBRANCH  23  25
ENDBRANCH  22  23
ENDBRANCH  19  22
BRANCH  21  29
HETATM   29  O1  UNL     1      -2.590   3.995  10.962  1.00  0.00    -0.392 OA
ATOM     30  H1  UNL     1      -2.550   3.172  11.434  1.00  0.00     0.210 HD
ENDBRANCH  21  29
ENDBRANCH  16  17
TORSDOF 5
ENDMDL
