MODEL 1
REMARK VINA RESULT: -8.697010875      0.000      0.000
REMARK  9 active torsions:
REMARK  status: ('A' for Active; 'I' for Inactive)
REMARK    1  A    between atoms: C6_6  and  C7_7 
REMARK    2  A    between atoms: C7_7  and  O1_8 
REMARK    3  A    between atoms: C8_10  and  C9_11 
REMARK    4  A    between atoms: C9_11  and  C10_12 
REMARK    5  A    between atoms: C10_12  and  C11_13 
REMARK    6  A    between atoms: C11_13  and  N1_14 
REMARK    7  A    between atoms: N1_14  and  S1_16 
REMARK    8  A    between atoms: S1_16  and  N2_17 
REMARK    9  A    between atoms: S1_16  and  C12_21 
ROOT
HETATM    1  N1  UNL     1      15.822  11.153  11.058  1.00  0.00    -0.332 N 
ATOM      2  H1  UNL     1      16.530  11.544  11.680  1.00  0.00     0.170 HD
ENDROOT
BRANCH   1   3
HETATM    3  C11 UNL     1      16.124  10.349   9.889  1.00  0.00     0.131 C 
BRANCH   3   4
HETATM    4  C10 UNL     1      16.789   9.042  10.341  1.00  0.00     0.021 C 
BRANCH   4   5
HETATM    5  C9  UNL     1      16.124   7.862   9.720  1.00  0.00     0.012 C 
BRANCH   5   6
HETATM    6  C8  UNL     1      16.975   6.775   9.268  1.00  0.00    -0.027 C 
HETATM    7  C2  UNL     1      16.535   5.326   9.557  1.00  0.00    -0.036 C 
HETATM    8  C1  UNL     1      16.107   5.074  10.973  1.00  0.00     0.016 C 
HETATM    9  C3  UNL     1      15.648   4.704   8.544  1.00  0.00     0.016 C 
HETATM   10  C4  UNL     1      18.016   5.041   9.415  1.00  0.00    -0.005 C 
HETATM   11  C5  UNL     1      18.346   5.440   8.009  1.00  0.00     0.013 C 
HETATM   12  C18 UNL     1      18.164   6.394  10.122  1.00  0.00     0.016 C 
HETATM   13  C6  UNL     1      17.437   6.665   7.874  1.00  0.00     0.019 C 
BRANCH  13  14
HETATM   14  C7  UNL     1      18.215   7.777   7.295  1.00  0.00     0.169 C 
BRANCH  14  15
HETATM   15  O1  UNL     1      17.546   8.765   6.644  1.00  0.00    -0.400 OA
ATOM     16  H1  UNL     1      18.043   9.499   6.302  1.00  0.00     0.209 HD
ENDBRANCH  14  15
ENDBRANCH  13  14
ENDBRANCH   5   6
ENDBRANCH   4   5
ENDBRANCH   3   4
ENDBRANCH   1   3
BRANCH   1  17
HETATM   17  S1  UNL     1      14.138  11.366  11.268  1.00  0.00     0.134 S 
HETATM   18  O2  UNL     1      13.450  10.232  10.520  1.00  0.00    -0.224 OA
BRANCH  17  19
HETATM   19  N2  UNL     1      13.612  12.695  10.687  1.00  0.00    -0.341 N 
ATOM     20  H22 UNL     1      13.628  12.900   9.688  1.00  0.00     0.167 HD
ATOM     21  H21 UNL     1      13.253  13.334  11.396  1.00  0.00     0.167 HD
ENDBRANCH  17  19
BRANCH  17  22
HETATM   22  C12 UNL     1      13.689  11.305  12.970  1.00  0.00     0.079 A 
HETATM   23  C13 UNL     1      12.988  12.340  13.553  1.00  0.00     0.027 A 
HETATM   24  C14 UNL     1      12.638  12.278  14.902  1.00  0.00     0.025 A 
HETATM   25  C15 UNL     1      12.972  11.202  15.692  1.00  0.00     0.035 A 
HETATM   26 CL1  UNL     1      12.515  11.152  17.396  1.00  0.00    -0.084 Cl
HETATM   27  C16 UNL     1      13.671  10.170  15.106  1.00  0.00     0.049 A 
HETATM   28  C17 UNL     1      14.019  10.231  13.764  1.00  0.00     0.057 A 
HETATM   29 CL2  UNL     1      14.908   8.921  13.018  1.00  0.00    -0.083 Cl
ENDBRANCH  17  22
ENDBRANCH   1  17
TORSDOF 9
ENDMDL
MODEL 2
REMARK VINA RESULT: -8.542083662      1.487      2.081
REMARK  9 active torsions:
REMARK  status: ('A' for Active; 'I' for Inactive)
REMARK    1  A    between atoms: C6_6  and  C7_7 
REMARK    2  A    between atoms: C7_7  and  O1_8 
REMARK    3  A    between atoms: C8_10  and  C9_11 
REMARK    4  A    between atoms: C9_11  and  C10_12 
REMARK    5  A    between atoms: C10_12  and  C11_13 
REMARK    6  A    between atoms: C11_13  and  N1_14 
REMARK    7  A    between atoms: N1_14  and  S1_16 
REMARK    8  A    between atoms: S1_16  and  N2_17 
REMARK    9  A    between atoms: S1_16  and  C12_21 
ROOT
HETATM    1  N1  UNL     1      15.982  11.209  11.055  1.00  0.00    -0.332 N 
ATOM      2  H1  UNL     1      16.635  11.738  11.633  1.00  0.00     0.170 HD
ENDROOT
BRANCH   1   3
HETATM    3  C11 UNL     1      16.387  10.287  10.010  1.00  0.00     0.131 C 
BRANCH   3   4
HETATM    4  C10 UNL     1      17.519   9.397  10.542  1.00  0.00     0.021 C 
BRANCH   4   5
HETATM    5  C9  UNL     1      17.944   8.404   9.516  1.00  0.00     0.012 C 
BRANCH   5   6
HETATM    6  C8  UNL     1      17.575   7.016   9.736  1.00  0.00    -0.027 C 
HETATM    7  C2  UNL     1      16.882   6.248   8.592  1.00  0.00    -0.036 C 
HETATM    8  C1  UNL     1      15.736   6.978   7.954  1.00  0.00     0.016 C 
HETATM    9  C3  UNL     1      17.782   5.582   7.619  1.00  0.00     0.016 C 
HETATM   10  C4  UNL     1      16.368   5.387   9.727  1.00  0.00    -0.005 C 
HETATM   11  C5  UNL     1      17.600   4.811  10.355  1.00  0.00     0.013 C 
HETATM   12  C18 UNL     1      16.286   6.725  10.471  1.00  0.00     0.016 C 
HETATM   13  C6  UNL     1      18.540   6.012  10.215  1.00  0.00     0.019 C 
BRANCH  13  14
HETATM   14  C7  UNL     1      19.219   6.241  11.505  1.00  0.00     0.169 C 
BRANCH  14  15
HETATM   15  O1  UNL     1      20.568   6.087  11.563  1.00  0.00    -0.400 OA
ATOM     16  H1  UNL     1      21.001   5.623  10.856  1.00  0.00     0.209 HD
ENDBRANCH  14  15
ENDBRANCH  13  14
ENDBRANCH   5   6
ENDBRANCH   4   5
ENDBRANCH   3   4
ENDBRANCH   1   3
BRANCH   1  17
HETATM   17  S1  UNL     1      14.281  11.301  11.199  1.00  0.00     0.134 S 
HETATM   18  O2  UNL     1      13.705  10.110  10.447  1.00  0.00    -0.224 OA
BRANCH  17  19
HETATM   19  N2  UNL     1      13.682  12.580  10.577  1.00  0.00    -0.341 N 
ATOM     20  H22 UNL     1      13.745  12.784   9.580  1.00  0.00     0.167 HD
ATOM     21  H21 UNL     1      13.225  13.186  11.258  1.00  0.00     0.167 HD
ENDBRANCH  17  19
BRANCH  17  22
HETATM   22  C12 UNL     1      13.773  11.232  12.885  1.00  0.00     0.079 A 
HETATM   23  C13 UNL     1      13.037  12.256  13.444  1.00  0.00     0.027 A 
HETATM   24  C14 UNL     1      12.641  12.188  14.779  1.00  0.00     0.025 A 
HETATM   25  C15 UNL     1      12.963  11.116  15.580  1.00  0.00     0.035 A 
HETATM   26 CL1  UNL     1      12.448  11.058  17.267  1.00  0.00    -0.084 Cl
HETATM   27  C16 UNL     1      13.698  10.095  15.019  1.00  0.00     0.049 A 
HETATM   28  C17 UNL     1      14.091  10.162  13.689  1.00  0.00     0.057 A 
HETATM   29 CL2  UNL     1      15.025   8.866  12.974  1.00  0.00    -0.083 Cl
ENDBRANCH  17  22
ENDBRANCH   1  17
TORSDOF 9
ENDMDL
MODEL 3
REMARK VINA RESULT: -8.505987569      1.040      1.307
REMARK  9 active torsions:
REMARK  status: ('A' for Active; 'I' for Inactive)
REMARK    1  A    between atoms: C6_6  and  C7_7 
REMARK    2  A    between atoms: C7_7  and  O1_8 
REMARK    3  A    between atoms: C8_10  and  C9_11 
REMARK    4  A    between atoms: C9_11  and  C10_12 
REMARK    5  A    between atoms: C10_12  and  C11_13 
REMARK    6  A    between atoms: C11_13  and  N1_14 
REMARK    7  A    between atoms: N1_14  and  S1_16 
REMARK    8  A    between atoms: S1_16  and  N2_17 
REMARK    9  A    between atoms: S1_16  and  C12_21 
ROOT
HETATM    1  N1  UNL     1      15.852  11.054  11.066  1.00  0.00    -0.332 N 
ATOM      2  H1  UNL     1      16.552  11.307  11.763  1.00  0.00     0.170 HD
ENDROOT
BRANCH   1   3
HETATM    3  C11 UNL     1      16.161  10.431   9.793  1.00  0.00     0.131 C 
BRANCH   3   4
HETATM    4  C10 UNL     1      16.989   9.164  10.047  1.00  0.00     0.021 C 
BRANCH   4   5
HETATM    5  C9  UNL     1      16.113   7.962  10.132  1.00  0.00     0.012 C 
BRANCH   5   6
HETATM    6  C8  UNL     1      16.728   6.667   9.896  1.00  0.00    -0.027 C 
HETATM    7  C2  UNL     1      16.958   5.730  11.098  1.00  0.00    -0.036 C 
HETATM    8  C1  UNL     1      17.604   6.384  12.285  1.00  0.00     0.016 C 
HETATM    9  C3  UNL     1      15.828   4.837  11.450  1.00  0.00     0.016 C 
HETATM   10  C4  UNL     1      18.025   5.139  10.201  1.00  0.00    -0.005 C 
HETATM   11  C5  UNL     1      17.277   4.629   9.007  1.00  0.00     0.013 C 
HETATM   12  C18 UNL     1      18.235   6.599   9.784  1.00  0.00     0.016 C 
HETATM   13  C6  UNL     1      16.213   5.724   8.888  1.00  0.00     0.019 C 
BRANCH  13  14
HETATM   14  C7  UNL     1      16.133   6.163   7.482  1.00  0.00     0.169 C 
BRANCH  14  15
HETATM   15  O1  UNL     1      16.893   5.519   6.558  1.00  0.00    -0.400 OA
ATOM     16  H1  UNL     1      17.664   5.959   6.220  1.00  0.00     0.209 HD
ENDBRANCH  14  15
ENDBRANCH  13  14
ENDBRANCH   5   6
ENDBRANCH   4   5
ENDBRANCH   3   4
ENDBRANCH   1   3
BRANCH   1  17
HETATM   17  S1  UNL     1      14.172  11.313  11.258  1.00  0.00     0.134 S 
HETATM   18  O2  UNL     1      13.461  10.205  10.494  1.00  0.00    -0.224 OA
BRANCH  17  19
HETATM   19  N2  UNL     1      13.690  12.661  10.681  1.00  0.00    -0.341 N 
ATOM     20  H22 UNL     1      13.810  13.543  11.178  1.00  0.00     0.167 HD
ATOM     21  H21 UNL     1      13.247  12.575   9.766  1.00  0.00     0.167 HD
ENDBRANCH  17  19
BRANCH  17  22
HETATM   22  C12 UNL     1      13.700  11.253  12.955  1.00  0.00     0.079 A 
HETATM   23  C13 UNL     1      12.956  12.268  13.518  1.00  0.00     0.027 A 
HETATM   24  C14 UNL     1      12.589  12.206  14.862  1.00  0.00     0.025 A 
HETATM   25  C15 UNL     1      12.949  11.150  15.667  1.00  0.00     0.035 A 
HETATM   26 CL1  UNL     1      12.471  11.100  17.365  1.00  0.00    -0.084 Cl
HETATM   27  C16 UNL     1      13.692  10.137  15.101  1.00  0.00     0.049 A 
HETATM   28  C17 UNL     1      14.057  10.198  13.763  1.00  0.00     0.057 A 
HETATM   29 CL2  UNL     1      15.001   8.913  13.042  1.00  0.00    -0.083 Cl
ENDBRANCH  17  22
ENDBRANCH   1  17
TORSDOF 9
ENDMDL
MODEL 4
REMARK VINA RESULT: -8.377103395      1.658      2.326
REMARK  9 active torsions:
REMARK  status: ('A' for Active; 'I' for Inactive)
REMARK    1  A    between atoms: C6_6  and  C7_7 
REMARK    2  A    between atoms: C7_7  and  O1_8 
REMARK    3  A    between atoms: C8_10  and  C9_11 
REMARK    4  A    between atoms: C9_11  and  C10_12 
REMARK    5  A    between atoms: C10_12  and  C11_13 
REMARK    6  A    between atoms: C11_13  and  N1_14 
REMARK    7  A    between atoms: N1_14  and  S1_16 
REMARK    8  A    between atoms: S1_16  and  N2_17 
REMARK    9  A    between atoms: S1_16  and  C12_21 
ROOT
HETATM    1  N1  UNL     1      15.034   8.503  12.583  1.00  0.00    -0.332 N 
ATOM      2  H1  UNL     1      14.377   7.744  12.403  1.00  0.00     0.170 HD
ENDROOT
BRANCH   1   3
HETATM    3  C11 UNL     1      16.455   8.311  12.806  1.00  0.00     0.131 C 
BRANCH   3   4
HETATM    4  C10 UNL     1      16.850   6.910  12.320  1.00  0.00     0.021 C 
BRANCH   4   5
HETATM    5  C9  UNL     1      16.042   6.509  11.135  1.00  0.00     0.012 C 
BRANCH   5   6
HETATM    6  C8  UNL     1      16.699   6.527   9.839  1.00  0.00    -0.027 C 
HETATM    7  C2  UNL     1      16.783   5.213   9.038  1.00  0.00    -0.036 C 
HETATM    8  C1  UNL     1      17.261   4.029   9.827  1.00  0.00     0.016 C 
HETATM    9  C3  UNL     1      15.627   4.915   8.156  1.00  0.00     0.016 C 
HETATM   10  C4  UNL     1      17.964   5.899   8.385  1.00  0.00    -0.005 C 
HETATM   11  C5  UNL     1      17.383   7.117   7.735  1.00  0.00     0.013 C 
HETATM   12  C18 UNL     1      18.208   6.437   9.800  1.00  0.00     0.016 C 
HETATM   13  C6  UNL     1      16.330   7.486   8.784  1.00  0.00     0.019 C 
BRANCH  13  14
HETATM   14  C7  UNL     1      16.427   8.930   9.074  1.00  0.00     0.169 C 
BRANCH  14  15
HETATM   15  O1  UNL     1      15.327   9.570   9.548  1.00  0.00    -0.400 OA
ATOM     16  H1  UNL     1      15.444  10.238  10.214  1.00  0.00     0.209 HD
ENDBRANCH  14  15
ENDBRANCH  13  14
ENDBRANCH   5   6
ENDBRANCH   4   5
ENDBRANCH   3   4
ENDBRANCH   1   3
BRANCH   1  17
HETATM   17  S1  UNL     1      14.594  10.154  12.658  1.00  0.00     0.134 S 
HETATM   18  O2  UNL     1      13.618  10.405  11.517  1.00  0.00    -0.224 OA
BRANCH  17  19
HETATM   19  N2  UNL     1      15.786  11.115  12.472  1.00  0.00    -0.341 N 
ATOM     20  H22 UNL     1      16.755  10.795  12.491  1.00  0.00     0.167 HD
ATOM     21  H21 UNL     1      15.507  12.086  12.332  1.00  0.00     0.167 HD
ENDBRANCH  17  19
BRANCH  17  22
HETATM   22  C12 UNL     1      13.818  10.545  14.191  1.00  0.00     0.079 A 
HETATM   23  C13 UNL     1      13.965   9.722  15.287  1.00  0.00     0.027 A 
HETATM   24  C14 UNL     1      13.346  10.044  16.495  1.00  0.00     0.025 A 
HETATM   25  C15 UNL     1      12.577  11.176  16.639  1.00  0.00     0.035 A 
HETATM   26 CL1  UNL     1      11.806  11.557  18.180  1.00  0.00    -0.084 Cl
HETATM   27  C16 UNL     1      12.432  11.996  15.542  1.00  0.00     0.049 A 
HETATM   28  C17 UNL     1      13.049  11.676  14.340  1.00  0.00     0.057 A 
HETATM   29 CL2  UNL     1      12.866  12.717  12.945  1.00  0.00    -0.083 Cl
ENDBRANCH  17  22
ENDBRANCH   1  17
TORSDOF 9
ENDMDL
MODEL 5
REMARK VINA RESULT: -8.263655396      1.427      2.414
REMARK  9 active torsions:
REMARK  status: ('A' for Active; 'I' for Inactive)
REMARK    1  A    between atoms: C6_6  and  C7_7 
REMARK    2  A    between atoms: C7_7  and  O1_8 
REMARK    3  A    between atoms: C8_10  and  C9_11 
REMARK    4  A    between atoms: C9_11  and  C10_12 
REMARK    5  A    between atoms: C10_12  and  C11_13 
REMARK    6  A    between atoms: C11_13  and  N1_14 
REMARK    7  A    between atoms: N1_14  and  S1_16 
REMARK    8  A    between atoms: S1_16  and  N2_17 
REMARK    9  A    between atoms: S1_16  and  C12_21 
ROOT
HETATM    1  N1  UNL     1      15.988  11.259  11.221  1.00  0.00    -0.332 N 
ATOM      2  H1  UNL     1      16.617  11.851  11.765  1.00  0.00     0.170 HD
ENDROOT
BRANCH   1   3
HETATM    3  C11 UNL     1      16.434  10.259  10.269  1.00  0.00     0.131 C 
BRANCH   3   4
HETATM    4  C10 UNL     1      17.160   9.139  11.027  1.00  0.00     0.021 C 
BRANCH   4   5
HETATM    5  C9  UNL     1      17.924   8.268  10.090  1.00  0.00     0.012 C 
BRANCH   5   6
HETATM    6  C8  UNL     1      17.164   7.346   9.263  1.00  0.00    -0.027 C 
HETATM    7  C2  UNL     1      17.463   7.294   7.752  1.00  0.00    -0.036 C 
HETATM    8  C1  UNL     1      17.527   8.635   7.080  1.00  0.00     0.016 C 
HETATM    9  C3  UNL     1      18.544   6.366   7.336  1.00  0.00     0.016 C 
HETATM   10  C4  UNL     1      16.051   6.754   7.676  1.00  0.00    -0.005 C 
HETATM   11  C5  UNL     1      16.085   5.486   8.474  1.00  0.00     0.013 C 
HETATM   12  C18 UNL     1      15.790   7.770   8.793  1.00  0.00     0.016 C 
HETATM   13  C6  UNL     1      17.049   5.914   9.585  1.00  0.00     0.019 C 
BRANCH  13  14
HETATM   14  C7  UNL     1      16.478   5.524  10.889  1.00  0.00     0.169 C 
BRANCH  14  15
HETATM   15  O1  UNL     1      15.745   4.383  10.960  1.00  0.00    -0.400 OA
ATOM     16  H1  UNL     1      15.656   3.953  11.802  1.00  0.00     0.209 HD
ENDBRANCH  14  15
ENDBRANCH  13  14
ENDBRANCH   5   6
ENDBRANCH   4   5
ENDBRANCH   3   4
ENDBRANCH   1   3
BRANCH   1  17
HETATM   17  S1  UNL     1      14.282  11.326  11.323  1.00  0.00     0.134 S 
HETATM   18  O2  UNL     1      13.745  10.108  10.586  1.00  0.00    -0.224 OA
BRANCH  17  19
HETATM   19  N2  UNL     1      13.678  12.579  10.656  1.00  0.00    -0.341 N 
ATOM     20  H22 UNL     1      13.722  12.739   9.649  1.00  0.00     0.167 HD
ATOM     21  H21 UNL     1      13.237  13.218  11.318  1.00  0.00     0.167 HD
ENDBRANCH  17  19
BRANCH  17  22
HETATM   22  C12 UNL     1      13.734  11.288  12.997  1.00  0.00     0.079 A 
HETATM   23  C13 UNL     1      13.025  12.343  13.532  1.00  0.00     0.027 A 
HETATM   24  C14 UNL     1      12.597  12.299  14.859  1.00  0.00     0.025 A 
HETATM   25  C15 UNL     1      12.861  11.222  15.674  1.00  0.00     0.035 A 
HETATM   26 CL1  UNL     1      12.307  11.195  17.349  1.00  0.00    -0.084 Cl
HETATM   27  C16 UNL     1      13.570  10.171  15.136  1.00  0.00     0.049 A 
HETATM   28  C17 UNL     1      13.995  10.213  13.815  1.00  0.00     0.057 A 
HETATM   29 CL2  UNL     1      14.897   8.879  13.130  1.00  0.00    -0.083 Cl
ENDBRANCH  17  22
ENDBRANCH   1  17
TORSDOF 9
ENDMDL
