MODEL 1
REMARK VINA RESULT: -7.212669591      0.000      0.000
REMARK  8 active torsions:
REMARK  status: ('A' for Active; 'I' for Inactive)
REMARK    1  A    between atoms: C2_2  and  C4_4 
REMARK    2  A    between atoms: C4_4  and  C5_6 
REMARK    3  A    between atoms: C5_6  and  N1_7 
REMARK    4  A    between atoms: C5_6  and  C10_20 
REMARK       I    between atoms: N1_7  and  C6_9 
REMARK       I    between atoms: C6_9  and  N2_11 
REMARK    5  A    between atoms: N2_11  and  C7_13 
REMARK    6  A    between atoms: C10_20  and  C13_23 
REMARK    7  A    between atoms: C13_23  and  N4_24 
REMARK    8  A    between atoms: N4_24  and  C14_26 
ROOT
HETATM    1  C5  UNL     1      16.088   8.486  10.718  1.00  0.00     0.114 C 
ENDROOT
BRANCH   1   2
HETATM    2  C4  UNL     1      16.774   9.148   9.598  1.00  0.00     0.109 C 
HETATM    3 CL1  UNL     1      18.362   9.827   9.832  1.00  0.00    -0.122 Cl
BRANCH   2   4
HETATM    4  C2  UNL     1      16.944   8.110   8.469  1.00  0.00    -0.002 C 
HETATM    5  C1  UNL     1      17.613   8.669   7.248  1.00  0.00     0.011 C 
HETATM    6  C3  UNL     1      15.664   7.404   8.138  1.00  0.00     0.011 C 
ENDBRANCH   2   4
ENDBRANCH   1   2
BRANCH   1   7
HETATM    7  N1  UNL     1      15.972   9.605  11.712  1.00  0.00    -0.336 N 
HETATM    8  C6  UNL     1      14.828  10.409  11.900  1.00  0.00     0.322 C 
HETATM    9  O1  UNL     1      13.806  10.170  11.194  1.00  0.00    -0.247 OA
HETATM   10  N2  UNL     1      14.923  11.409  12.851  1.00  0.00    -0.289 N 
ATOM     11  H2  UNL     1      15.726  12.030  12.759  1.00  0.00     0.172 HD
ATOM     12  H1  UNL     1      16.785   9.799  12.298  1.00  0.00     0.164 HD
BRANCH  10  13
HETATM   13  C7  UNL     1      14.131  11.663  13.841  1.00  0.00     0.153 A 
HETATM   14  N3  UNL     1      13.672  12.871  14.204  1.00  0.00    -0.344 N 
HETATM   15  C8  UNL     1      12.884  12.964  15.223  1.00  0.00     0.121 A 
ATOM     16  H3  UNL     1      13.944  13.705  13.684  1.00  0.00     0.167 HD
HETATM   17  C9  UNL     1      12.546  11.812  15.889  1.00  0.00     0.093 A 
HETATM   18 CL2  UNL     1      11.499  11.632  17.309  1.00  0.00    -0.075 Cl
HETATM   19  S1  UNL     1      13.403  10.629  14.997  1.00  0.00    -0.040 SA
ENDBRANCH  10  13
ENDBRANCH   1   7
BRANCH   1  20
HETATM   20  C10 UNL     1      16.720   7.441  11.520  1.00  0.00    -0.010 C 
HETATM   21  C11 UNL     1      15.605   6.673  12.251  1.00  0.00     0.018 C 
HETATM   22  C12 UNL     1      17.445   8.156  12.733  1.00  0.00     0.018 C 
BRANCH  20  23
HETATM   23  C13 UNL     1      17.700   6.474  11.050  1.00  0.00     0.125 C 
BRANCH  23  24
HETATM   24  N4  UNL     1      17.369   5.123  11.324  1.00  0.00    -0.413 N 
ATOM     25  H4  UNL     1      17.069   4.813  12.248  1.00  0.00     0.154 HD
BRANCH  24  26
HETATM   26  C14 UNL     1      17.484   4.227  10.223  1.00  0.00     0.014 C 
HETATM   27  C15 UNL     1      17.980   2.860  10.537  1.00  0.00     0.037 C 
HETATM   28  C16 UNL     1      16.086   4.112   9.607  1.00  0.00     0.037 C 
HETATM   29  C17 UNL     1      18.363   4.763   9.098  1.00  0.00     0.037 C 
ENDBRANCH  24  26
ENDBRANCH  23  24
ENDBRANCH  20  23
ENDBRANCH   1  20
TORSDOF 8
ENDMDL
MODEL 2
REMARK VINA RESULT: -7.025519844      1.345      1.877
REMARK  8 active torsions:
REMARK  status: ('A' for Active; 'I' for Inactive)
REMARK    1  A    between atoms: C2_2  and  C4_4 
REMARK    2  A    between atoms: C4_4  and  C5_6 
REMARK    3  A    between atoms: C5_6  and  N1_7 
REMARK    4  A    between atoms: C5_6  and  C10_20 
REMARK       I    between atoms: N1_7  and  C6_9 
REMARK       I    between atoms: C6_9  and  N2_11 
REMARK    5  A    between atoms: N2_11  and  C7_13 
REMARK    6  A    between atoms: C10_20  and  C13_23 
REMARK    7  A    between atoms: C13_23  and  N4_24 
REMARK    8  A    between atoms: N4_24  and  C14_26 
ROOT
HETATM    1  C5  UNL     1      15.871   8.573  10.583  1.00  0.00     0.114 C 
ENDROOT
BRANCH   1   2
HETATM    2  C4  UNL     1      16.423   9.266   9.409  1.00  0.00     0.109 C 
HETATM    3 CL1  UNL     1      17.795  10.324   9.590  1.00  0.00    -0.122 Cl
BRANCH   2   4
HETATM    4  C2  UNL     1      16.875   8.192   8.397  1.00  0.00    -0.002 C 
HETATM    5  C1  UNL     1      17.618   8.761   7.224  1.00  0.00     0.011 C 
HETATM    6  C3  UNL     1      15.754   7.292   7.973  1.00  0.00     0.011 C 
ENDBRANCH   2   4
ENDBRANCH   1   2
BRANCH   1   7
HETATM    7  N1  UNL     1      15.797   9.685  11.589  1.00  0.00    -0.336 N 
HETATM    8  C6  UNL     1      14.671  10.507  11.810  1.00  0.00     0.322 C 
HETATM    9  O1  UNL     1      13.630  10.291  11.126  1.00  0.00    -0.247 OA
HETATM   10  N2  UNL     1      14.805  11.497  12.768  1.00  0.00    -0.289 N 
ATOM     11  H2  UNL     1      15.617  12.105  12.662  1.00  0.00     0.172 HD
ATOM     12  H1  UNL     1      16.626   9.860  12.158  1.00  0.00     0.164 HD
BRANCH  10  13
HETATM   13  C7  UNL     1      14.040  11.755  13.777  1.00  0.00     0.153 A 
HETATM   14  N3  UNL     1      13.643  12.971  14.185  1.00  0.00    -0.344 N 
HETATM   15  C8  UNL     1      12.875  13.067  15.219  1.00  0.00     0.121 A 
ATOM     16  H3  UNL     1      13.944  13.807  13.685  1.00  0.00     0.167 HD
HETATM   17  C9  UNL     1      12.496  11.912  15.855  1.00  0.00     0.093 A 
HETATM   18 CL2  UNL     1      11.462  11.735  17.286  1.00  0.00    -0.075 Cl
HETATM   19  S1  UNL     1      13.284  10.720  14.914  1.00  0.00    -0.040 SA
ENDBRANCH  10  13
ENDBRANCH   1   7
BRANCH   1  20
HETATM   20  C10 UNL     1      16.618   7.556  11.319  1.00  0.00    -0.010 C 
HETATM   21  C11 UNL     1      16.826   8.073  12.753  1.00  0.00     0.018 C 
HETATM   22  C12 UNL     1      18.104   7.578  10.768  1.00  0.00     0.018 C 
BRANCH  20  23
HETATM   23  C13 UNL     1      16.295   6.140  11.392  1.00  0.00     0.125 C 
BRANCH  23  24
HETATM   24  N4  UNL     1      15.307   5.812  12.355  1.00  0.00    -0.413 N 
ATOM     25  H4  UNL     1      14.498   6.410  12.529  1.00  0.00     0.154 HD
BRANCH  24  26
HETATM   26  C14 UNL     1      15.518   4.594  13.062  1.00  0.00     0.014 C 
HETATM   27  C15 UNL     1      16.848   4.432  13.709  1.00  0.00     0.037 C 
HETATM   28  C16 UNL     1      14.435   4.526  14.144  1.00  0.00     0.037 C 
HETATM   29  C17 UNL     1      15.293   3.353  12.207  1.00  0.00     0.037 C 
ENDBRANCH  24  26
ENDBRANCH  23  24
ENDBRANCH  20  23
ENDBRANCH   1  20
TORSDOF 8
ENDMDL
MODEL 3
REMARK VINA RESULT: -6.942213270      7.139      9.514
REMARK  8 active torsions:
REMARK  status: ('A' for Active; 'I' for Inactive)
REMARK    1  A    between atoms: C2_2  and  C4_4 
REMARK    2  A    between atoms: C4_4  and  C5_6 
REMARK    3  A    between atoms: C5_6  and  N1_7 
REMARK    4  A    between atoms: C5_6  and  C10_20 
REMARK       I    between atoms: N1_7  and  C6_9 
REMARK       I    between atoms: C6_9  and  N2_11 
REMARK    5  A    between atoms: N2_11  and  C7_13 
REMARK    6  A    between atoms: C10_20  and  C13_23 
REMARK    7  A    between atoms: C13_23  and  N4_24 
REMARK    8  A    between atoms: N4_24  and  C14_26 
ROOT
HETATM    1  C5  UNL     1      17.015   2.482  19.486  1.00  0.00     0.114 C 
ENDROOT
BRANCH   1   2
HETATM    2  C4  UNL     1      15.994   2.368  20.538  1.00  0.00     0.109 C 
HETATM    3 CL1  UNL     1      15.690   3.712  21.603  1.00  0.00    -0.122 Cl
BRANCH   2   4
HETATM    4  C2  UNL     1      14.640   2.084  19.853  1.00  0.00    -0.002 C 
HETATM    5  C1  UNL     1      13.517   2.919  20.396  1.00  0.00     0.011 C 
HETATM    6  C3  UNL     1      14.300   0.625  19.831  1.00  0.00     0.011 C 
ENDBRANCH   2   4
ENDBRANCH   1   2
BRANCH   1   7
HETATM    7  N1  UNL     1      16.193   2.909  18.305  1.00  0.00    -0.336 N 
HETATM    8  C6  UNL     1      16.143   4.218  17.781  1.00  0.00     0.322 C 
HETATM    9  O1  UNL     1      16.853   5.109  18.329  1.00  0.00    -0.247 OA
HETATM   10  N2  UNL     1      15.304   4.421  16.699  1.00  0.00    -0.289 N 
ATOM     11  H2  UNL     1      14.345   4.098  16.818  1.00  0.00     0.172 HD
ATOM     12  H1  UNL     1      15.626   2.196  17.844  1.00  0.00     0.164 HD
BRANCH  10  13
HETATM   13  C7  UNL     1      15.573   4.965  15.557  1.00  0.00     0.153 A 
HETATM   14  N3  UNL     1      16.466   5.941  15.331  1.00  0.00    -0.344 N 
HETATM   15  C8  UNL     1      16.621   6.384  14.127  1.00  0.00     0.121 A 
ATOM     16  H3  UNL     1      17.013   6.329  16.099  1.00  0.00     0.167 HD
HETATM   17  C9  UNL     1      15.863   5.828  13.128  1.00  0.00     0.093 A 
HETATM   18 CL2  UNL     1      15.856   6.231  11.401  1.00  0.00    -0.075 Cl
HETATM   19  S1  UNL     1      14.941   4.673  13.992  1.00  0.00    -0.040 SA
ENDBRANCH  10  13
ENDBRANCH   1   7
BRANCH   1  20
HETATM   20  C10 UNL     1      17.725   1.322  18.950  1.00  0.00    -0.010 C 
HETATM   21  C11 UNL     1      17.853   0.288  20.082  1.00  0.00     0.018 C 
HETATM   22  C12 UNL     1      19.238   1.750  18.753  1.00  0.00     0.018 C 
BRANCH  20  23
HETATM   23  C13 UNL     1      17.402   0.611  17.723  1.00  0.00     0.125 C 
BRANCH  23  24
HETATM   24  N4  UNL     1      18.405   0.682  16.723  1.00  0.00    -0.413 N 
ATOM     25  H4  UNL     1      19.360   0.363  16.887  1.00  0.00     0.154 HD
BRANCH  24  26
HETATM   26  C14 UNL     1      17.990   1.227  15.475  1.00  0.00     0.014 C 
HETATM   27  C15 UNL     1      18.369   2.642  15.217  1.00  0.00     0.037 C 
HETATM   28  C16 UNL     1      18.612   0.346  14.386  1.00  0.00     0.037 C 
HETATM   29  C17 UNL     1      16.487   1.129  15.243  1.00  0.00     0.037 C 
ENDBRANCH  24  26
ENDBRANCH  23  24
ENDBRANCH  20  23
ENDBRANCH   1  20
TORSDOF 8
ENDMDL
MODEL 4
REMARK VINA RESULT: -6.916197883      1.810      2.881
REMARK  8 active torsions:
REMARK  status: ('A' for Active; 'I' for Inactive)
REMARK    1  A    between atoms: C2_2  and  C4_4 
REMARK    2  A    between atoms: C4_4  and  C5_6 
REMARK    3  A    between atoms: C5_6  and  N1_7 
REMARK    4  A    between atoms: C5_6  and  C10_20 
REMARK       I    between atoms: N1_7  and  C6_9 
REMARK       I    between atoms: C6_9  and  N2_11 
REMARK    5  A    between atoms: N2_11  and  C7_13 
REMARK    6  A    between atoms: C10_20  and  C13_23 
REMARK    7  A    between atoms: C13_23  and  N4_24 
REMARK    8  A    between atoms: N4_24  and  C14_26 
ROOT
HETATM    1  C5  UNL     1      16.251   8.011  10.790  1.00  0.00     0.114 C 
ENDROOT
BRANCH   1   2
HETATM    2  C4  UNL     1      17.427   8.350   9.974  1.00  0.00     0.109 C 
HETATM    3 CL1  UNL     1      18.338   7.085   9.196  1.00  0.00    -0.122 Cl
BRANCH   2   4
HETATM    4  C2  UNL     1      16.957   9.269   8.827  1.00  0.00    -0.002 C 
HETATM    5  C1  UNL     1      17.182   8.679   7.466  1.00  0.00     0.011 C 
HETATM    6  C3  UNL     1      17.509  10.658   8.939  1.00  0.00     0.011 C 
ENDBRANCH   2   4
ENDBRANCH   1   2
BRANCH   1   7
HETATM    7  N1  UNL     1      16.160   9.196  11.706  1.00  0.00    -0.336 N 
HETATM    8  C6  UNL     1      15.071  10.091  11.770  1.00  0.00     0.322 C 
HETATM    9  O1  UNL     1      14.079   9.881  11.015  1.00  0.00    -0.247 OA
HETATM   10  N2  UNL     1      15.184  11.141  12.664  1.00  0.00    -0.289 N 
ATOM     11  H2  UNL     1      16.036  11.696  12.588  1.00  0.00     0.172 HD
ATOM     12  H1  UNL     1      16.949   9.369  12.330  1.00  0.00     0.164 HD
BRANCH  10  13
HETATM   13  C7  UNL     1      14.355  11.514  13.584  1.00  0.00     0.153 A 
HETATM   14  N3  UNL     1      13.960  12.771  13.837  1.00  0.00    -0.344 N 
HETATM   15  C8  UNL     1      13.121  12.986  14.796  1.00  0.00     0.121 A 
ATOM     16  H3  UNL     1      14.317  13.548  13.279  1.00  0.00     0.167 HD
HETATM   17  C9  UNL     1      12.669  11.908  15.515  1.00  0.00     0.093 A 
HETATM   18 CL2  UNL     1      11.531  11.896  16.875  1.00  0.00    -0.075 Cl
HETATM   19  S1  UNL     1      13.493  10.613  14.759  1.00  0.00    -0.040 SA
ENDBRANCH  10  13
ENDBRANCH   1   7
BRANCH   1  20
HETATM   20  C10 UNL     1      16.247   6.901  11.739  1.00  0.00    -0.010 C 
HETATM   21  C11 UNL     1      17.671   6.764  12.307  1.00  0.00     0.018 C 
HETATM   22  C12 UNL     1      16.125   5.564  10.897  1.00  0.00     0.018 C 
BRANCH  20  23
HETATM   23  C13 UNL     1      15.306   6.710  12.832  1.00  0.00     0.125 C 
BRANCH  23  24
HETATM   24  N4  UNL     1      15.907   6.596  14.111  1.00  0.00    -0.413 N 
ATOM     25  H4  UNL     1      16.544   7.304  14.478  1.00  0.00     0.154 HD
BRANCH  24  26
HETATM   26  C14 UNL     1      15.561   5.429  14.851  1.00  0.00     0.014 C 
HETATM   27  C15 UNL     1      16.629   4.403  14.996  1.00  0.00     0.037 C 
HETATM   28  C16 UNL     1      15.145   5.905  16.246  1.00  0.00     0.037 C 
HETATM   29  C17 UNL     1      14.335   4.709  14.302  1.00  0.00     0.037 C 
ENDBRANCH  24  26
ENDBRANCH  23  24
ENDBRANCH  20  23
ENDBRANCH   1  20
TORSDOF 8
ENDMDL
MODEL 5
REMARK VINA RESULT: -6.886435342      4.508      8.280
REMARK  8 active torsions:
REMARK  status: ('A' for Active; 'I' for Inactive)
REMARK    1  A    between atoms: C2_2  and  C4_4 
REMARK    2  A    between atoms: C4_4  and  C5_6 
REMARK    3  A    between atoms: C5_6  and  N1_7 
REMARK    4  A    between atoms: C5_6  and  C10_20 
REMARK       I    between atoms: N1_7  and  C6_9 
REMARK       I    between atoms: C6_9  and  N2_11 
REMARK    5  A    between atoms: N2_11  and  C7_13 
REMARK    6  A    between atoms: C10_20  and  C13_23 
REMARK    7  A    between atoms: C13_23  and  N4_24 
REMARK    8  A    between atoms: N4_24  and  C14_26 
ROOT
HETATM    1  C5  UNL     1      17.085   7.677   9.562  1.00  0.00     0.114 C 
ENDROOT
BRANCH   1   2
HETATM    2  C4  UNL     1      16.214   8.788   9.148  1.00  0.00     0.109 C 
HETATM    3 CL1  UNL     1      15.024   9.417  10.253  1.00  0.00    -0.122 Cl
BRANCH   2   4
HETATM    4  C2  UNL     1      17.116   9.991   8.802  1.00  0.00    -0.002 C 
HETATM    5  C1  UNL     1      17.635   9.955   7.395  1.00  0.00     0.011 C 
HETATM    6  C3  UNL     1      18.213  10.195   9.803  1.00  0.00     0.011 C 
ENDBRANCH   2   4
ENDBRANCH   1   2
BRANCH   1   7
HETATM    7  N1  UNL     1      16.846   6.675   8.470  1.00  0.00    -0.336 N 
HETATM    8  C6  UNL     1      17.789   6.303   7.489  1.00  0.00     0.322 C 
HETATM    9  O1  UNL     1      18.935   6.834   7.529  1.00  0.00    -0.247 OA
HETATM   10  N2  UNL     1      17.372   5.378   6.548  1.00  0.00    -0.289 N 
ATOM     11  H2  UNL     1      16.498   5.598   6.071  1.00  0.00     0.172 HD
ATOM     12  H1  UNL     1      15.929   6.229   8.435  1.00  0.00     0.164 HD
BRANCH  10  13
HETATM   13  C7  UNL     1      17.940   4.272   6.192  1.00  0.00     0.153 A 
HETATM   14  N3  UNL     1      17.340   3.082   6.041  1.00  0.00    -0.344 N 
HETATM   15  C8  UNL     1      18.048   2.063   5.679  1.00  0.00     0.121 A 
ATOM     16  H3  UNL     1      16.339   2.982   6.210  1.00  0.00     0.167 HD
HETATM   17  C9  UNL     1      19.390   2.249   5.462  1.00  0.00     0.093 A 
HETATM   18 CL2  UNL     1      20.599   1.049   4.969  1.00  0.00    -0.075 Cl
HETATM   19  S1  UNL     1      19.570   3.917   5.800  1.00  0.00    -0.040 SA
ENDBRANCH  10  13
ENDBRANCH   1   7
BRANCH   1  20
HETATM   20  C10 UNL     1      16.827   6.880  10.759  1.00  0.00    -0.010 C 
HETATM   21  C11 UNL     1      18.156   6.235  11.189  1.00  0.00     0.018 C 
HETATM   22  C12 UNL     1      16.003   5.605  10.302  1.00  0.00     0.018 C 
BRANCH  20  23
HETATM   23  C13 UNL     1      16.135   7.330  11.957  1.00  0.00     0.125 C 
BRANCH  23  24
HETATM   24  N4  UNL     1      15.289   6.357  12.546  1.00  0.00    -0.413 N 
ATOM     25  H4  UNL     1      14.846   5.618  12.000  1.00  0.00     0.154 HD
BRANCH  24  26
HETATM   26  C14 UNL     1      15.099   6.479  13.952  1.00  0.00     0.014 C 
HETATM   27  C15 UNL     1      14.368   7.690  14.414  1.00  0.00     0.037 C 
HETATM   28  C16 UNL     1      14.320   5.237  14.396  1.00  0.00     0.037 C 
HETATM   29  C17 UNL     1      16.401   6.427  14.744  1.00  0.00     0.037 C 
ENDBRANCH  24  26
ENDBRANCH  23  24
ENDBRANCH  20  23
ENDBRANCH   1  20
TORSDOF 8
ENDMDL
