MODEL 1
REMARK VINA RESULT: -8.613080841      0.000      0.000
REMARK  7 active torsions:
REMARK  status: ('A' for Active; 'I' for Inactive)
REMARK    1  A    between atoms: C2_2  and  C4_4 
REMARK    2  A    between atoms: C4_4  and  C5_5 
REMARK    3  A    between atoms: C5_5  and  C6_6 
REMARK    4  A    between atoms: C6_6  and  N1_7 
REMARK    5  A    between atoms: N1_7  and  C7_9 
REMARK    6  A    between atoms: C8_12  and  N3_13 
REMARK    7  A    between atoms: N3_13  and  C9_15 
ROOT
HETATM    1  C7  UNL     1      14.391  10.038  12.308  1.00  0.00     0.140 A 
HETATM    2  N2  UNL     1      13.645  10.748  13.180  1.00  0.00    -0.175 N 
ATOM      3  H2  UNL     1      13.517  10.392  14.126  1.00  0.00     0.186 HD
HETATM    4  C8  UNL     1      13.064  11.913  12.837  1.00  0.00     0.685 A 
HETATM    5  N5  UNL     1      13.250  12.360  11.581  1.00  0.00    -0.200 N 
ATOM      6  H5  UNL     1      12.816  13.242  11.306  1.00  0.00     0.183 HD
HETATM    7  C13 UNL     1      13.981  11.697  10.676  1.00  0.00     0.133 A 
HETATM    8  C14 UNL     1      14.572  10.510  11.024  1.00  0.00     0.094 A 
HETATM    9 CL3  UNL     1      15.535   9.633   9.836  1.00  0.00    -0.079 Cl
ENDROOT
BRANCH   1  10
HETATM   10  N1  UNL     1      14.951   8.931  12.614  1.00  0.00    -0.374 N 
ATOM     11  H1  UNL     1      14.407   8.074  12.515  1.00  0.00     0.161 HD
BRANCH  10  12
HETATM   12  C6  UNL     1      16.318   8.823  13.093  1.00  0.00     0.133 C 
BRANCH  12  13
HETATM   13  C5  UNL     1      16.799   7.438  12.861  1.00  0.00    -0.001 C 
HETATM   14  C15 UNL     1      17.791   6.991  13.935  1.00  0.00     0.039 C 
HETATM   15  C16 UNL     1      18.999   7.788  13.564  1.00  0.00     0.168 C 
HETATM   16  O1  UNL     1      18.878   8.203  12.265  1.00  0.00    -0.390 OA
HETATM   17  C17 UNL     1      17.806   7.535  11.691  1.00  0.00     0.178 C 
BRANCH  13  18
HETATM   18  C4  UNL     1      15.827   6.397  12.508  1.00  0.00     0.017 C 
BRANCH  18  19
HETATM   19  C2  UNL     1      15.439   5.375  13.498  1.00  0.00    -0.022 C 
HETATM   20  C1  UNL     1      14.262   5.646  14.374  1.00  0.00     0.009 C 
HETATM   21  C3  UNL     1      15.071   4.113  12.684  1.00  0.00     0.009 C 
ENDBRANCH  18  19
ENDBRANCH  13  18
ENDBRANCH  12  13
ENDBRANCH  10  12
ENDBRANCH   1  10
BRANCH   4  22
HETATM   22  N3  UNL     1      12.348  12.592  13.673  1.00  0.00    -0.175 N 
ATOM     23  H3  UNL     1      11.629  13.228  13.331  1.00  0.00     0.186 HD
BRANCH  22  24
HETATM   24  C9  UNL     1      12.565  12.451  15.056  1.00  0.00     0.144 A 
HETATM   25  N4  UNL     1      11.809  11.763  15.953  1.00  0.00    -0.331 N 
HETATM   26  C10 UNL     1      12.356  11.875  17.177  1.00  0.00     0.106 A 
ATOM     27  H4  UNL     1      10.960  11.242  15.732  1.00  0.00     0.168 HD
HETATM   28 CL1  UNL     1      11.696  11.136  18.632  1.00  0.00    -0.064 Cl
HETATM   29  C11 UNL     1      13.477  12.643  17.077  1.00  0.00     0.070 A 
HETATM   30  C12 UNL     1      13.620  13.011  15.750  1.00  0.00     0.081 A 
HETATM   31 CL2  UNL     1      14.924  14.007  15.136  1.00  0.00    -0.080 Cl
ENDBRANCH  22  24
ENDBRANCH   4  22
TORSDOF 7
ENDMDL
MODEL 2
REMARK VINA RESULT: -8.610153323      1.390      1.999
REMARK  7 active torsions:
REMARK  status: ('A' for Active; 'I' for Inactive)
REMARK    1  A    between atoms: C2_2  and  C4_4 
REMARK    2  A    between atoms: C4_4  and  C5_5 
REMARK    3  A    between atoms: C5_5  and  C6_6 
REMARK    4  A    between atoms: C6_6  and  N1_7 
REMARK    5  A    between atoms: N1_7  and  C7_9 
REMARK    6  A    between atoms: C8_12  and  N3_13 
REMARK    7  A    between atoms: N3_13  and  C9_15 
ROOT
HETATM    1  C7  UNL     1      14.710   9.931  12.588  1.00  0.00     0.140 A 
HETATM    2  N2  UNL     1      13.904  10.684  13.365  1.00  0.00    -0.175 N 
ATOM      3  H2  UNL     1      13.828  10.464  14.358  1.00  0.00     0.186 HD
HETATM    4  C8  UNL     1      13.197  11.717  12.870  1.00  0.00     0.685 A 
HETATM    5  N5  UNL     1      13.317  11.985  11.555  1.00  0.00    -0.200 N 
ATOM      6  H5  UNL     1      12.788  12.765  11.165  1.00  0.00     0.183 HD
HETATM    7  C13 UNL     1      14.103  11.271  10.738  1.00  0.00     0.133 A 
HETATM    8  C14 UNL     1      14.823  10.219  11.243  1.00  0.00     0.094 A 
HETATM    9 CL3  UNL     1      15.858   9.276  10.171  1.00  0.00    -0.079 Cl
ENDROOT
BRANCH   1  10
HETATM   10  N1  UNL     1      15.389   8.947  13.039  1.00  0.00    -0.374 N 
ATOM     11  H1  UNL     1      16.289   8.745  12.603  1.00  0.00     0.161 HD
BRANCH  10  12
HETATM   12  C6  UNL     1      14.955   8.101  14.137  1.00  0.00     0.133 C 
BRANCH  12  13
HETATM   13  C5  UNL     1      15.251   6.687  13.797  1.00  0.00    -0.001 C 
HETATM   14  C15 UNL     1      14.444   5.713  14.657  1.00  0.00     0.039 C 
HETATM   15  C16 UNL     1      15.133   5.850  15.976  1.00  0.00     0.168 C 
HETATM   16  O1  UNL     1      16.375   6.392  15.776  1.00  0.00    -0.390 OA
HETATM   17  C17 UNL     1      16.638   6.390  14.413  1.00  0.00     0.178 C 
BRANCH  13  18
HETATM   18  C4  UNL     1      15.312   6.291  12.386  1.00  0.00     0.017 C 
BRANCH  18  19
HETATM   19  C2  UNL     1      16.207   5.200  11.957  1.00  0.00    -0.022 C 
HETATM   20  C1  UNL     1      15.619   3.847  11.733  1.00  0.00     0.009 C 
HETATM   21  C3  UNL     1      16.785   5.636  10.591  1.00  0.00     0.009 C 
ENDBRANCH  18  19
ENDBRANCH  13  18
ENDBRANCH  12  13
ENDBRANCH  10  12
ENDBRANCH   1  10
BRANCH   4  22
HETATM   22  N3  UNL     1      12.425  12.437  13.615  1.00  0.00    -0.175 N 
ATOM     23  H3  UNL     1      11.711  13.029  13.191  1.00  0.00     0.186 HD
BRANCH  22  24
HETATM   24  C9  UNL     1      12.570  12.402  15.014  1.00  0.00     0.144 A 
HETATM   25  N4  UNL     1      11.780  11.765  15.919  1.00  0.00    -0.331 N 
HETATM   26  C10 UNL     1      12.259  11.978  17.158  1.00  0.00     0.106 A 
ATOM     27  H4  UNL     1      10.953  11.212  15.693  1.00  0.00     0.168 HD
HETATM   28 CL1  UNL     1      11.536  11.332  18.627  1.00  0.00    -0.064 Cl
HETATM   29  C11 UNL     1      13.370  12.759  17.060  1.00  0.00     0.070 A 
HETATM   30  C12 UNL     1      13.577  13.033  15.718  1.00  0.00     0.081 A 
HETATM   31 CL2  UNL     1      14.894  14.010  15.101  1.00  0.00    -0.080 Cl
ENDBRANCH  22  24
ENDBRANCH   4  22
TORSDOF 7
ENDMDL
MODEL 3
REMARK VINA RESULT: -8.452409387      1.407      2.360
REMARK  7 active torsions:
REMARK  status: ('A' for Active; 'I' for Inactive)
REMARK    1  A    between atoms: C2_2  and  C4_4 
REMARK    2  A    between atoms: C4_4  and  C5_5 
REMARK    3  A    between atoms: C5_5  and  C6_6 
REMARK    4  A    between atoms: C6_6  and  N1_7 
REMARK    5  A    between atoms: N1_7  and  C7_9 
REMARK    6  A    between atoms: C8_12  and  N3_13 
REMARK    7  A    between atoms: N3_13  and  C9_15 
ROOT
HETATM    1  C7  UNL     1      14.085  10.266  13.266  1.00  0.00     0.140 A 
HETATM    2  N2  UNL     1      13.557  10.441  14.495  1.00  0.00    -0.175 N 
ATOM      3  H2  UNL     1      13.794   9.779  15.234  1.00  0.00     0.186 HD
HETATM    4  C8  UNL     1      12.726  11.462  14.777  1.00  0.00     0.685 A 
HETATM    5  N5  UNL     1      12.430  12.320  13.782  1.00  0.00    -0.200 N 
ATOM      6  H5  UNL     1      11.802  13.100  13.980  1.00  0.00     0.183 HD
HETATM    7  C13 UNL     1      12.926  12.195  12.544  1.00  0.00     0.133 A 
HETATM    8  C14 UNL     1      13.772  11.155  12.258  1.00  0.00     0.094 A 
HETATM    9 CL3  UNL     1      14.427  10.986  10.629  1.00  0.00    -0.079 Cl
ENDROOT
BRANCH   1  10
HETATM   10  N1  UNL     1      14.876   9.304  12.979  1.00  0.00    -0.374 N 
ATOM     11  H1  UNL     1      15.235   9.245  12.027  1.00  0.00     0.161 HD
BRANCH  10  12
HETATM   12  C6  UNL     1      15.292   8.290  13.932  1.00  0.00     0.133 C 
BRANCH  12  13
HETATM   13  C5  UNL     1      15.999   7.209  13.201  1.00  0.00    -0.001 C 
HETATM   14  C15 UNL     1      17.181   6.658  14.000  1.00  0.00     0.039 C 
HETATM   15  C16 UNL     1      18.160   7.781  13.883  1.00  0.00     0.168 C 
HETATM   16  O1  UNL     1      17.805   8.572  12.822  1.00  0.00    -0.390 OA
HETATM   17  C17 UNL     1      16.820   7.916  12.098  1.00  0.00     0.178 C 
BRANCH  13  18
HETATM   18  C4  UNL     1      15.211   6.159  12.546  1.00  0.00     0.017 C 
BRANCH  18  19
HETATM   19  C2  UNL     1      15.734   4.783  12.454  1.00  0.00    -0.022 C 
HETATM   20  C1  UNL     1      14.888   3.665  12.965  1.00  0.00     0.009 C 
HETATM   21  C3  UNL     1      15.931   4.503  10.946  1.00  0.00     0.009 C 
ENDBRANCH  18  19
ENDBRANCH  13  18
ENDBRANCH  12  13
ENDBRANCH  10  12
ENDBRANCH   1  10
BRANCH   4  22
HETATM   22  N3  UNL     1      12.221  11.627  15.955  1.00  0.00    -0.175 N 
ATOM     23  H3  UNL     1      11.240  11.405  16.126  1.00  0.00     0.186 HD
BRANCH  22  24
HETATM   24  C9  UNL     1      13.025  12.114  17.000  1.00  0.00     0.144 A 
HETATM   25  N4  UNL     1      14.232  12.736  16.904  1.00  0.00    -0.331 N 
HETATM   26  C10 UNL     1      14.674  13.045  18.136  1.00  0.00     0.106 A 
ATOM     27  H4  UNL     1      14.724  12.935  16.033  1.00  0.00     0.168 HD
HETATM   28 CL1  UNL     1      16.198  13.860  18.469  1.00  0.00    -0.064 Cl
HETATM   29  C11 UNL     1      13.749  12.623  19.042  1.00  0.00     0.070 A 
HETATM   30  C12 UNL     1      12.708  12.036  18.343  1.00  0.00     0.081 A 
HETATM   31 CL2  UNL     1      11.283  11.342  19.088  1.00  0.00    -0.080 Cl
ENDBRANCH  22  24
ENDBRANCH   4  22
TORSDOF 7
ENDMDL
MODEL 4
REMARK VINA RESULT: -8.365167883      1.495      2.561
REMARK  7 active torsions:
REMARK  status: ('A' for Active; 'I' for Inactive)
REMARK    1  A    between atoms: C2_2  and  C4_4 
REMARK    2  A    between atoms: C4_4  and  C5_5 
REMARK    3  A    between atoms: C5_5  and  C6_6 
REMARK    4  A    between atoms: C6_6  and  N1_7 
REMARK    5  A    between atoms: N1_7  and  C7_9 
REMARK    6  A    between atoms: C8_12  and  N3_13 
REMARK    7  A    between atoms: N3_13  and  C9_15 
ROOT
HETATM    1  C7  UNL     1      13.966  10.352  13.151  1.00  0.00     0.140 A 
HETATM    2  N2  UNL     1      13.477  10.449  14.405  1.00  0.00    -0.175 N 
ATOM      3  H2  UNL     1      13.707   9.723  15.083  1.00  0.00     0.186 HD
HETATM    4  C8  UNL     1      12.694  11.475  14.787  1.00  0.00     0.685 A 
HETATM    5  N5  UNL     1      12.408  12.420  13.871  1.00  0.00    -0.200 N 
ATOM      6  H5  UNL     1      11.816  13.204  14.146  1.00  0.00     0.183 HD
HETATM    7  C13 UNL     1      12.866  12.373  12.614  1.00  0.00     0.133 A 
HETATM    8  C14 UNL     1      13.664  11.328  12.224  1.00  0.00     0.094 A 
HETATM    9 CL3  UNL     1      14.270  11.264  10.569  1.00  0.00    -0.079 Cl
ENDROOT
BRANCH   1  10
HETATM   10  N1  UNL     1      14.711   9.387  12.768  1.00  0.00    -0.374 N 
ATOM     11  H1  UNL     1      14.276   8.615  12.262  1.00  0.00     0.161 HD
BRANCH  10  12
HETATM   12  C6  UNL     1      16.142   9.324  13.013  1.00  0.00     0.133 C 
BRANCH  12  13
HETATM   13  C5  UNL     1      16.654   8.019  12.527  1.00  0.00    -0.001 C 
HETATM   14  C15 UNL     1      18.113   8.110  12.077  1.00  0.00     0.039 C 
HETATM   15  C16 UNL     1      17.976   8.868  10.797  1.00  0.00     0.168 C 
HETATM   16  O1  UNL     1      16.681   8.776  10.360  1.00  0.00    -0.390 OA
HETATM   17  C17 UNL     1      16.029   7.819  11.126  1.00  0.00     0.178 C 
BRANCH  13  18
HETATM   18  C4  UNL     1      16.368   6.808  13.304  1.00  0.00     0.017 C 
BRANCH  18  19
HETATM   19  C2  UNL     1      15.141   6.031  13.046  1.00  0.00    -0.022 C 
HETATM   20  C1  UNL     1      15.273   4.578  12.733  1.00  0.00     0.009 C 
HETATM   21  C3  UNL     1      14.310   6.105  14.348  1.00  0.00     0.009 C 
ENDBRANCH  18  19
ENDBRANCH  13  18
ENDBRANCH  12  13
ENDBRANCH  10  12
ENDBRANCH   1  10
BRANCH   4  22
HETATM   22  N3  UNL     1      12.226  11.566  15.989  1.00  0.00    -0.175 N 
ATOM     23  H3  UNL     1      11.272  11.266  16.189  1.00  0.00     0.186 HD
BRANCH  22  24
HETATM   24  C9  UNL     1      13.034  12.081  17.018  1.00  0.00     0.144 A 
HETATM   25  N4  UNL     1      14.239  12.701  16.902  1.00  0.00    -0.331 N 
HETATM   26  C10 UNL     1      14.685  13.042  18.124  1.00  0.00     0.106 A 
ATOM     27  H4  UNL     1      14.728  12.878  16.025  1.00  0.00     0.168 HD
HETATM   28 CL1  UNL     1      16.209  13.867  18.432  1.00  0.00    -0.064 Cl
HETATM   29  C11 UNL     1      13.764  12.642  19.045  1.00  0.00     0.070 A 
HETATM   30  C12 UNL     1      12.721  12.037  18.363  1.00  0.00     0.081 A 
HETATM   31 CL2  UNL     1      11.299  11.360  19.131  1.00  0.00    -0.080 Cl
ENDBRANCH  22  24
ENDBRANCH   4  22
TORSDOF 7
ENDMDL
MODEL 5
REMARK VINA RESULT: -8.285027117      1.747      2.920
REMARK  7 active torsions:
REMARK  status: ('A' for Active; 'I' for Inactive)
REMARK    1  A    between atoms: C2_2  and  C4_4 
REMARK    2  A    between atoms: C4_4  and  C5_5 
REMARK    3  A    between atoms: C5_5  and  C6_6 
REMARK    4  A    between atoms: C6_6  and  N1_7 
REMARK    5  A    between atoms: N1_7  and  C7_9 
REMARK    6  A    between atoms: C8_12  and  N3_13 
REMARK    7  A    between atoms: N3_13  and  C9_15 
ROOT
HETATM    1  C7  UNL     1      13.986  10.205  13.358  1.00  0.00     0.140 A 
HETATM    2  N2  UNL     1      13.439  10.601  14.525  1.00  0.00    -0.175 N 
ATOM      3  H2  UNL     1      13.611  10.048  15.365  1.00  0.00     0.186 HD
HETATM    4  C8  UNL     1      12.672  11.703  14.616  1.00  0.00     0.685 A 
HETATM    5  N5  UNL     1      12.462  12.414  13.492  1.00  0.00    -0.200 N 
ATOM      6  H5  UNL     1      11.883  13.253  13.544  1.00  0.00     0.183 HD
HETATM    7  C13 UNL     1      12.981  12.067  12.307  1.00  0.00     0.133 A 
HETATM    8  C14 UNL     1      13.762  10.944  12.214  1.00  0.00     0.094 A 
HETATM    9 CL3  UNL     1      14.448  10.484  10.656  1.00  0.00    -0.079 Cl
ENDROOT
BRANCH   1  10
HETATM   10  N1  UNL     1      14.718   9.162  13.251  1.00  0.00    -0.374 N 
ATOM     11  H1  UNL     1      15.158   8.974  12.350  1.00  0.00     0.161 HD
BRANCH  10  12
HETATM   12  C6  UNL     1      14.959   8.230  14.338  1.00  0.00     0.133 C 
BRANCH  12  13
HETATM   13  C5  UNL     1      15.308   6.906  13.765  1.00  0.00    -0.001 C 
HETATM   14  C15 UNL     1      14.507   5.775  14.412  1.00  0.00     0.039 C 
HETATM   15  C16 UNL     1      15.153   5.693  15.757  1.00  0.00     0.168 C 
HETATM   16  O1  UNL     1      16.383   6.294  15.698  1.00  0.00    -0.390 OA
HETATM   17  C17 UNL     1      16.685   6.540  14.366  1.00  0.00     0.178 C 
BRANCH  13  18
HETATM   18  C4  UNL     1      15.422   6.768  12.309  1.00  0.00     0.017 C 
BRANCH  18  19
HETATM   19  C2  UNL     1      16.356   5.787  11.726  1.00  0.00    -0.022 C 
HETATM   20  C1  UNL     1      15.831   4.441  11.352  1.00  0.00     0.009 C 
HETATM   21  C3  UNL     1      16.865   6.417  10.408  1.00  0.00     0.009 C 
ENDBRANCH  18  19
ENDBRANCH  13  18
ENDBRANCH  12  13
ENDBRANCH  10  12
ENDBRANCH   1  10
BRANCH   4  22
HETATM   22  N3  UNL     1      12.147  12.081  15.735  1.00  0.00    -0.175 N 
ATOM     23  H3  UNL     1      11.135  12.163  15.823  1.00  0.00     0.186 HD
BRANCH  22  24
HETATM   24  C9  UNL     1      12.976  12.378  16.832  1.00  0.00     0.144 A 
HETATM   25  N4  UNL     1      14.200  12.972  16.816  1.00  0.00    -0.331 N 
HETATM   26  C10 UNL     1      14.662  13.076  18.075  1.00  0.00     0.106 A 
ATOM     27  H4  UNL     1      14.691  13.288  15.979  1.00  0.00     0.168 HD
HETATM   28 CL1  UNL     1      16.214  13.785  18.508  1.00  0.00    -0.064 Cl
HETATM   29  C11 UNL     1      13.733  12.547  18.918  1.00  0.00     0.070 A 
HETATM   30  C12 UNL     1      12.668  12.105  18.151  1.00  0.00     0.081 A 
HETATM   31 CL2  UNL     1      11.229  11.346  18.800  1.00  0.00    -0.080 Cl
ENDBRANCH  22  24
ENDBRANCH   4  22
TORSDOF 7
ENDMDL
