MODEL 1
REMARK VINA RESULT: -7.040893480      0.000      0.000
REMARK  8 active torsions:
REMARK  status: ('A' for Active; 'I' for Inactive)
REMARK    1  A    between atoms: C2_2  and  S1_4 
REMARK    2  A    between atoms: S1_4  and  C4_5 
REMARK    3  A    between atoms: C6_7  and  C7_8 
REMARK    4  A    between atoms: C8_10  and  C9_11 
REMARK    5  A    between atoms: C9_11  and  O2_12 
REMARK    6  A    between atoms: C10_14  and  O3_15 
REMARK    7  A    between atoms: C11_17  and  O4_18 
REMARK    8  A    between atoms: C12_20  and  O5_21 
ROOT
HETATM    1  C7  UNL     1      -4.616   3.543  14.887  1.00  0.00     0.089 C 
HETATM    2  O1  UNL     1      -4.473   3.152  16.160  1.00  0.00    -0.342 OA
HETATM    3  C8  UNL     1      -5.119   2.016  16.536  1.00  0.00     0.183 C 
HETATM    4  C10 UNL     1      -4.681   0.880  15.623  1.00  0.00     0.181 C 
HETATM    5  C11 UNL     1      -4.682   1.169  14.178  1.00  0.00     0.184 C 
HETATM    6  C12 UNL     1      -4.686   2.630  13.763  1.00  0.00     0.207 C 
ENDROOT
BRANCH   1   7
HETATM    7  C6  UNL     1      -3.831   4.789  14.622  1.00  0.00     0.004 A 
HETATM    8  C5  UNL     1      -2.600   4.793  13.990  1.00  0.00     0.034 A 
HETATM    9  C4  UNL     1      -1.989   5.956  13.510  1.00  0.00     0.024 A 
HETATM   10  C15 UNL     1      -2.655   7.142  13.685  1.00  0.00     0.057 A 
HETATM   11  C14 UNL     1      -3.910   7.165  14.330  1.00  0.00    -0.028 A 
HETATM   12 CL1  UNL     1      -1.971   8.653  13.059  1.00  0.00    -0.082 Cl
HETATM   13  C13 UNL     1      -4.494   6.018  14.791  1.00  0.00    -0.037 A 
HETATM   14  C16 UNL     1      -4.752   8.343  14.671  1.00  0.00     0.041 C 
HETATM   15  C18 UNL     1      -5.748   6.360  15.503  1.00  0.00     0.040 C 
HETATM   16  C17 UNL     1      -6.073   7.755  15.019  1.00  0.00     0.009 C 
BRANCH   9  17
HETATM   17  S1  UNL     1      -0.466   5.928  12.650  1.00  0.00    -0.124 SA
BRANCH  17  18
HETATM   18  C2  UNL     1      -0.276   4.632  11.449  1.00  0.00     0.044 C 
HETATM   19  C1  UNL     1       1.155   4.359  11.029  1.00  0.00     0.021 C 
HETATM   20  C3  UNL     1      -1.073   4.851  10.186  1.00  0.00     0.021 C 
ENDBRANCH  17  18
ENDBRANCH   9  17
ENDBRANCH   1   7
BRANCH   6  21
HETATM   21  O5  UNL     1      -5.765   2.852  12.944  1.00  0.00    -0.386 OA
ATOM     22  H5  UNL     1      -6.519   2.313  13.157  1.00  0.00     0.210 HD
ENDBRANCH   6  21
BRANCH   3  23
HETATM   23  C9  UNL     1      -6.577   2.050  16.764  1.00  0.00     0.199 C 
BRANCH  23  24
HETATM   24  O2  UNL     1      -7.228   0.890  17.064  1.00  0.00    -0.398 OA
ATOM     25  H2  UNL     1      -8.172   0.853  16.969  1.00  0.00     0.209 HD
ENDBRANCH  23  24
ENDBRANCH   3  23
BRANCH   5  26
HETATM   26  O4  UNL     1      -3.542   0.576  13.623  1.00  0.00    -0.390 OA
ATOM     27  H4  UNL     1      -2.929   1.269  13.408  1.00  0.00     0.210 HD
ENDBRANCH   5  26
BRANCH   4  28
HETATM   28  O3  UNL     1      -3.392   0.494  16.061  1.00  0.00    -0.390 OA
ATOM     29  H3  UNL     1      -3.179  -0.305  15.592  1.00  0.00     0.210 HD
ENDBRANCH   4  28
TORSDOF 8
ENDMDL
MODEL 2
REMARK VINA RESULT: -6.567421823      2.284      3.471
REMARK  8 active torsions:
REMARK  status: ('A' for Active; 'I' for Inactive)
REMARK    1  A    between atoms: C2_2  and  S1_4 
REMARK    2  A    between atoms: S1_4  and  C4_5 
REMARK    3  A    between atoms: C6_7  and  C7_8 
REMARK    4  A    between atoms: C8_10  and  C9_11 
REMARK    5  A    between atoms: C9_11  and  O2_12 
REMARK    6  A    between atoms: C10_14  and  O3_15 
REMARK    7  A    between atoms: C11_17  and  O4_18 
REMARK    8  A    between atoms: C12_20  and  O5_21 
ROOT
HETATM    1  C7  UNL     1      -3.276   2.663  12.401  1.00  0.00     0.089 C 
HETATM    2  O1  UNL     1      -2.636   1.505  12.195  1.00  0.00    -0.342 OA
HETATM    3  C8  UNL     1      -3.389   0.373  12.193  1.00  0.00     0.183 C 
HETATM    4  C10 UNL     1      -4.487   0.518  11.150  1.00  0.00     0.181 C 
HETATM    5  C11 UNL     1      -5.237   1.786  11.166  1.00  0.00     0.184 C 
HETATM    6  C12 UNL     1      -4.597   2.960  11.885  1.00  0.00     0.207 C 
ENDROOT
BRANCH   1   7
HETATM    7  C6  UNL     1      -2.320   3.814  12.351  1.00  0.00     0.004 A 
HETATM    8  C5  UNL     1      -1.459   4.043  11.293  1.00  0.00     0.034 A 
HETATM    9  C4  UNL     1      -0.760   5.243  11.119  1.00  0.00     0.024 A 
HETATM   10  C15 UNL     1      -0.948   6.228  12.054  1.00  0.00     0.057 A 
HETATM   11  C14 UNL     1      -1.819   6.018  13.145  1.00  0.00    -0.028 A 
HETATM   12 CL1  UNL     1      -0.139   7.796  11.876  1.00  0.00    -0.082 Cl
HETATM   13  C13 UNL     1      -2.495   4.840  13.298  1.00  0.00    -0.037 A 
HETATM   14  C16 UNL     1      -2.103   6.926  14.288  1.00  0.00     0.041 C 
HETATM   15  C18 UNL     1      -3.249   4.871  14.573  1.00  0.00     0.040 C 
HETATM   16  C17 UNL     1      -3.315   6.341  14.921  1.00  0.00     0.009 C 
BRANCH   9  17
HETATM   17  S1  UNL     1       0.267   5.537   9.734  1.00  0.00    -0.124 SA
BRANCH  17  18
HETATM   18  C2  UNL     1       1.924   4.905   9.848  1.00  0.00     0.044 C 
HETATM   19  C1  UNL     1       2.177   3.637   9.056  1.00  0.00     0.021 C 
HETATM   20  C3  UNL     1       2.378   4.640  11.263  1.00  0.00     0.021 C 
ENDBRANCH  17  18
ENDBRANCH   9  17
ENDBRANCH   1   7
BRANCH   6  21
HETATM   21  O5  UNL     1      -5.468   3.418  12.842  1.00  0.00    -0.386 OA
ATOM     22  H5  UNL     1      -6.131   2.781  13.085  1.00  0.00     0.210 HD
ENDBRANCH   6  21
BRANCH   3  23
HETATM   23  C9  UNL     1      -3.873  -0.181  13.473  1.00  0.00     0.199 C 
BRANCH  23  24
HETATM   24  O2  UNL     1      -4.478   0.651  14.369  1.00  0.00    -0.398 OA
ATOM     25  H2  UNL     1      -5.192   0.317  14.899  1.00  0.00     0.209 HD
ENDBRANCH  23  24
ENDBRANCH   3  23
BRANCH   5  26
HETATM   26  O4  UNL     1      -5.453   2.172   9.837  1.00  0.00    -0.390 OA
ATOM     27  H4  UNL     1      -6.382   2.335   9.730  1.00  0.00     0.210 HD
ENDBRANCH   5  26
BRANCH   4  28
HETATM   28  O3  UNL     1      -3.869   0.311   9.893  1.00  0.00    -0.390 OA
ATOM     29  H3  UNL     1      -4.487  -0.188   9.371  1.00  0.00     0.210 HD
ENDBRANCH   4  28
TORSDOF 8
ENDMDL
MODEL 3
REMARK VINA RESULT: -6.286466122      2.262      3.518
REMARK  8 active torsions:
REMARK  status: ('A' for Active; 'I' for Inactive)
REMARK    1  A    between atoms: C2_2  and  S1_4 
REMARK    2  A    between atoms: S1_4  and  C4_5 
REMARK    3  A    between atoms: C6_7  and  C7_8 
REMARK    4  A    between atoms: C8_10  and  C9_11 
REMARK    5  A    between atoms: C9_11  and  O2_12 
REMARK    6  A    between atoms: C10_14  and  O3_15 
REMARK    7  A    between atoms: C11_17  and  O4_18 
REMARK    8  A    between atoms: C12_20  and  O5_21 
ROOT
HETATM    1  C7  UNL     1      -3.327   2.636  12.419  1.00  0.00     0.089 C 
HETATM    2  O1  UNL     1      -2.661   1.495  12.203  1.00  0.00    -0.342 OA
HETATM    3  C8  UNL     1      -3.391   0.347  12.181  1.00  0.00     0.183 C 
HETATM    4  C10 UNL     1      -4.483   0.484  11.130  1.00  0.00     0.181 C 
HETATM    5  C11 UNL     1      -5.259   1.736  11.156  1.00  0.00     0.184 C 
HETATM    6  C12 UNL     1      -4.650   2.913  11.896  1.00  0.00     0.207 C 
ENDROOT
BRANCH   1   7
HETATM    7  C6  UNL     1      -2.395   3.807  12.392  1.00  0.00     0.004 A 
HETATM    8  C5  UNL     1      -1.511   4.053  11.357  1.00  0.00     0.034 A 
HETATM    9  C4  UNL     1      -0.833   5.267  11.199  1.00  0.00     0.024 A 
HETATM   10  C15 UNL     1      -1.067   6.250  12.126  1.00  0.00     0.057 A 
HETATM   11  C14 UNL     1      -1.962   6.023  13.194  1.00  0.00    -0.028 A 
HETATM   12 CL1  UNL     1      -0.287   7.834  11.967  1.00  0.00    -0.082 Cl
HETATM   13  C13 UNL     1      -2.617   4.831  13.331  1.00  0.00    -0.037 A 
HETATM   14  C16 UNL     1      -2.297   6.927  14.327  1.00  0.00     0.041 C 
HETATM   15  C18 UNL     1      -3.406   4.849  14.586  1.00  0.00     0.040 C 
HETATM   16  C17 UNL     1      -3.513   6.317  14.929  1.00  0.00     0.009 C 
BRANCH   9  17
HETATM   17  S1  UNL     1       0.225   5.580   9.842  1.00  0.00    -0.124 SA
BRANCH  17  18
HETATM   18  C2  UNL     1      -0.576   6.018   8.318  1.00  0.00     0.044 C 
HETATM   19  C1  UNL     1      -1.931   6.679   8.478  1.00  0.00     0.021 C 
HETATM   20  C3  UNL     1      -0.760   4.856   7.371  1.00  0.00     0.021 C 
ENDBRANCH  17  18
ENDBRANCH   9  17
ENDBRANCH   1   7
BRANCH   6  21
HETATM   21  O5  UNL     1      -5.538   3.340  12.852  1.00  0.00    -0.386 OA
ATOM     22  H5  UNL     1      -6.079   2.642  13.204  1.00  0.00     0.210 HD
ENDBRANCH   6  21
BRANCH   3  23
HETATM   23  C9  UNL     1      -3.874  -0.233  13.449  1.00  0.00     0.199 C 
BRANCH  23  24
HETATM   24  O2  UNL     1      -4.477   0.580  14.363  1.00  0.00    -0.398 OA
ATOM     25  H2  UNL     1      -5.290   0.298  14.766  1.00  0.00     0.209 HD
ENDBRANCH  23  24
ENDBRANCH   3  23
BRANCH   5  26
HETATM   26  O4  UNL     1      -5.473   2.135   9.831  1.00  0.00    -0.390 OA
ATOM     27  H4  UNL     1      -6.303   1.770   9.549  1.00  0.00     0.210 HD
ENDBRANCH   5  26
BRANCH   4  28
HETATM   28  O3  UNL     1      -3.851   0.307   9.876  1.00  0.00    -0.390 OA
ATOM     29  H3  UNL     1      -4.541   0.336   9.223  1.00  0.00     0.210 HD
ENDBRANCH   4  28
TORSDOF 8
ENDMDL
MODEL 4
REMARK VINA RESULT: -6.278221081      2.799      3.909
REMARK  8 active torsions:
REMARK  status: ('A' for Active; 'I' for Inactive)
REMARK    1  A    between atoms: C2_2  and  S1_4 
REMARK    2  A    between atoms: S1_4  and  C4_5 
REMARK    3  A    between atoms: C6_7  and  C7_8 
REMARK    4  A    between atoms: C8_10  and  C9_11 
REMARK    5  A    between atoms: C9_11  and  O2_12 
REMARK    6  A    between atoms: C10_14  and  O3_15 
REMARK    7  A    between atoms: C11_17  and  O4_18 
REMARK    8  A    between atoms: C12_20  and  O5_21 
ROOT
HETATM    1  C7  UNL     1      -3.818   5.316  12.579  1.00  0.00     0.089 C 
HETATM    2  O1  UNL     1      -3.451   4.364  13.446  1.00  0.00    -0.342 OA
HETATM    3  C8  UNL     1      -3.603   3.073  13.048  1.00  0.00     0.183 C 
HETATM    4  C10 UNL     1      -2.840   2.870  11.747  1.00  0.00     0.181 C 
HETATM    5  C11 UNL     1      -3.048   3.890  10.704  1.00  0.00     0.184 C 
HETATM    6  C12 UNL     1      -3.622   5.224  11.145  1.00  0.00     0.207 C 
ENDROOT
BRANCH   1   7
HETATM    7  C6  UNL     1      -3.570   6.678  13.149  1.00  0.00     0.004 A 
HETATM    8  C5  UNL     1      -2.541   7.502  12.732  1.00  0.00     0.034 A 
HETATM    9  C4  UNL     1      -2.462   8.858  13.067  1.00  0.00     0.024 A 
HETATM   10  C15 UNL     1      -3.459   9.379  13.851  1.00  0.00     0.057 A 
HETATM   11  C14 UNL     1      -4.519   8.557  14.292  1.00  0.00    -0.028 A 
HETATM   12 CL1  UNL     1      -3.458  11.100  14.276  1.00  0.00    -0.082 Cl
HETATM   13  C13 UNL     1      -4.582   7.234  13.953  1.00  0.00    -0.037 A 
HETATM   14  C16 UNL     1      -5.649   8.911  15.193  1.00  0.00     0.041 C 
HETATM   15  C18 UNL     1      -5.740   6.610  14.635  1.00  0.00     0.040 C 
HETATM   16  C17 UNL     1      -6.605   7.783  15.033  1.00  0.00     0.009 C 
BRANCH   9  17
HETATM   17  S1  UNL     1      -1.190   9.899  12.468  1.00  0.00    -0.124 SA
BRANCH  17  18
HETATM   18  C2  UNL     1       0.252  10.036  13.497  1.00  0.00     0.044 C 
HETATM   19  C1  UNL     1       1.333   9.010  13.219  1.00  0.00     0.021 C 
HETATM   20  C3  UNL     1      -0.049   9.972  14.976  1.00  0.00     0.021 C 
ENDBRANCH  17  18
ENDBRANCH   9  17
ENDBRANCH   1   7
BRANCH   6  21
HETATM   21  O5  UNL     1      -4.760   5.475  10.420  1.00  0.00    -0.386 OA
ATOM     22  H5  UNL     1      -4.721   6.283   9.921  1.00  0.00     0.210 HD
ENDBRANCH   6  21
BRANCH   3  23
HETATM   23  C9  UNL     1      -4.950   2.469  13.032  1.00  0.00     0.199 C 
BRANCH  23  24
HETATM   24  O2  UNL     1      -5.512   2.135  11.835  1.00  0.00    -0.398 OA
ATOM     25  H2  UNL     1      -6.055   1.357  11.782  1.00  0.00     0.209 HD
ENDBRANCH  23  24
ENDBRANCH   3  23
BRANCH   5  26
HETATM   26  O4  UNL     1      -1.811   4.142  10.099  1.00  0.00    -0.390 OA
ATOM     27  H4  UNL     1      -1.645   3.444   9.477  1.00  0.00     0.210 HD
ENDBRANCH   5  26
BRANCH   4  28
HETATM   28  O3  UNL     1      -1.472   2.778  12.100  1.00  0.00    -0.390 OA
ATOM     29  H3  UNL     1      -1.056   3.561  11.758  1.00  0.00     0.210 HD
ENDBRANCH   4  28
TORSDOF 8
ENDMDL
MODEL 5
REMARK VINA RESULT: -6.271316033      1.104      1.635
REMARK  8 active torsions:
REMARK  status: ('A' for Active; 'I' for Inactive)
REMARK    1  A    between atoms: C2_2  and  S1_4 
REMARK    2  A    between atoms: S1_4  and  C4_5 
REMARK    3  A    between atoms: C6_7  and  C7_8 
REMARK    4  A    between atoms: C8_10  and  C9_11 
REMARK    5  A    between atoms: C9_11  and  O2_12 
REMARK    6  A    between atoms: C10_14  and  O3_15 
REMARK    7  A    between atoms: C11_17  and  O4_18 
REMARK    8  A    between atoms: C12_20  and  O5_21 
ROOT
HETATM    1  C7  UNL     1      -4.100   4.260  14.736  1.00  0.00     0.089 C 
HETATM    2  O1  UNL     1      -3.327   3.282  15.224  1.00  0.00    -0.342 OA
HETATM    3  C8  UNL     1      -3.919   2.078  15.446  1.00  0.00     0.183 C 
HETATM    4  C10 UNL     1      -4.553   1.599  14.148  1.00  0.00     0.181 C 
HETATM    5  C11 UNL     1      -5.366   2.587  13.418  1.00  0.00     0.184 C 
HETATM    6  C12 UNL     1      -5.153   4.050  13.762  1.00  0.00     0.207 C 
ENDROOT
BRANCH   1   7
HETATM    7  C6  UNL     1      -3.305   5.510  14.526  1.00  0.00     0.004 A 
HETATM    8  C5  UNL     1      -2.085   5.535  13.874  1.00  0.00     0.034 A 
HETATM    9  C4  UNL     1      -1.468   6.717  13.447  1.00  0.00     0.024 A 
HETATM   10  C15 UNL     1      -2.117   7.898  13.697  1.00  0.00     0.057 A 
HETATM   11  C14 UNL     1      -3.361   7.900  14.364  1.00  0.00    -0.028 A 
HETATM   12 CL1  UNL     1      -1.426   9.434  13.142  1.00  0.00    -0.082 Cl
HETATM   13  C13 UNL     1      -3.950   6.736  14.773  1.00  0.00    -0.037 A 
HETATM   14  C16 UNL     1      -4.183   9.067  14.784  1.00  0.00     0.041 C 
HETATM   15  C18 UNL     1      -5.188   7.052  15.524  1.00  0.00     0.040 C 
HETATM   16  C17 UNL     1      -5.505   8.474  15.122  1.00  0.00     0.009 C 
BRANCH   9  17
HETATM   17  S1  UNL     1       0.040   6.719  12.559  1.00  0.00    -0.124 SA
BRANCH  17  18
HETATM   18  C2  UNL     1       0.041   5.818  11.029  1.00  0.00     0.044 C 
HETATM   19  C1  UNL     1      -1.256   5.887  10.248  1.00  0.00     0.021 C 
HETATM   20  C3  UNL     1       0.387   4.356  11.184  1.00  0.00     0.021 C 
ENDBRANCH  17  18
ENDBRANCH   9  17
ENDBRANCH   1   7
BRANCH   6  21
HETATM   21  O5  UNL     1      -6.357   4.596  14.131  1.00  0.00    -0.386 OA
ATOM     22  H5  UNL     1      -6.938   4.762  13.397  1.00  0.00     0.210 HD
ENDBRANCH   6  21
BRANCH   3  23
HETATM   23  C9  UNL     1      -4.796   1.902  16.620  1.00  0.00     0.199 C 
BRANCH  23  24
HETATM   24  O2  UNL     1      -4.814   0.698  17.261  1.00  0.00    -0.398 OA
ATOM     25  H2  UNL     1      -5.344   0.599  18.043  1.00  0.00     0.209 HD
ENDBRANCH  23  24
ENDBRANCH   3  23
BRANCH   5  26
HETATM   26  O4  UNL     1      -5.103   2.432  12.051  1.00  0.00    -0.390 OA
ATOM     27  H4  UNL     1      -5.935   2.411  11.596  1.00  0.00     0.210 HD
ENDBRANCH   5  26
BRANCH   4  28
HETATM   28  O3  UNL     1      -3.493   1.120  13.342  1.00  0.00    -0.390 OA
ATOM     29  H3  UNL     1      -3.733   1.315  12.443  1.00  0.00     0.210 HD
ENDBRANCH   4  28
TORSDOF 8
ENDMDL
