MODEL 1
REMARK VINA RESULT: -6.831114333      0.000      0.000
REMARK  5 active torsions:
REMARK  status: ('A' for Active; 'I' for Inactive)
REMARK    1  A    between atoms: C2_2  and  N1_4 
REMARK    2  A    between atoms: C2_2  and  C11_19 
REMARK    3  A    between atoms: N1_4  and  C4_6 
REMARK    4  A    between atoms: C6_8  and  C7_9 
REMARK    5  A    between atoms: C7_9  and  C10_12 
ROOT
HETATM    1  C4  UNL     1       7.288 -28.434  18.598  1.00  0.00     0.089 A 
HETATM    2  C5  UNL     1       7.580 -28.451  17.258  1.00  0.00     0.065 A 
HETATM    3  C6  UNL     1       8.769 -28.996  16.919  1.00  0.00     0.035 A 
HETATM    4  N2  UNL     1       9.537 -29.459  17.905  1.00  0.00    -0.327 N 
ATOM      5  H2  UNL     1      10.456 -29.896  17.829  1.00  0.00     0.174 HD
HETATM    6  S1  UNL     1       8.653 -29.160  19.297  1.00  0.00     0.003 SA
ENDROOT
BRANCH   1   7
HETATM    7  N1  UNL     1       6.091 -27.900  19.213  1.00  0.00    -0.365 N 
ATOM      8  H1  UNL     1       6.113 -26.963  19.614  1.00  0.00     0.161 HD
BRANCH   7   9
HETATM    9  C2  UNL     1       4.885 -28.651  19.272  1.00  0.00     0.112 C 
HETATM   10  C1  UNL     1       5.097 -30.143  19.128  1.00  0.00     0.050 C 
HETATM   11  C3  UNL     1       4.248 -28.366  20.648  1.00  0.00     0.050 C 
BRANCH   9  12
HETATM   12  C11 UNL     1       3.975 -28.208  18.202  1.00  0.00     0.201 C 
HETATM   13  O1  UNL     1       2.988 -28.919  17.905  1.00  0.00    -0.646 OA
HETATM   14  O2  UNL     1       4.174 -27.031  17.513  1.00  0.00    -0.646 OA
ENDBRANCH   9  12
ENDBRANCH   7   9
ENDBRANCH   1   7
BRANCH   3  15
HETATM   15  C7  UNL     1       9.244 -29.092  15.476  1.00  0.00     0.093 C 
HETATM   16  C8  UNL     1       8.087 -29.508  14.586  1.00  0.00     0.031 C 
HETATM   17  C9  UNL     1      10.294 -30.165  15.351  1.00  0.00     0.031 C 
BRANCH  15  18
HETATM   18  C10 UNL     1       9.834 -27.789  15.020  1.00  0.00     0.400 C 
HETATM   19  F1  UNL     1      10.404 -27.874  13.772  1.00  0.00    -0.170 F 
HETATM   20  F2  UNL     1       8.864 -26.798  14.921  1.00  0.00    -0.170 F 
HETATM   21  F3  UNL     1      10.760 -27.311  15.916  1.00  0.00    -0.170 F 
ENDBRANCH  15  18
ENDBRANCH   3  15
TORSDOF 5
ENDMDL
MODEL 2
REMARK VINA RESULT: -6.781160485      0.966      1.339
REMARK  5 active torsions:
REMARK  status: ('A' for Active; 'I' for Inactive)
REMARK    1  A    between atoms: C2_2  and  N1_4 
REMARK    2  A    between atoms: C2_2  and  C11_19 
REMARK    3  A    between atoms: N1_4  and  C4_6 
REMARK    4  A    between atoms: C6_8  and  C7_9 
REMARK    5  A    between atoms: C7_9  and  C10_12 
ROOT
HETATM    1  C4  UNL     1       7.170 -29.600  18.430  1.00  0.00     0.089 A 
HETATM    2  C5  UNL     1       7.458 -29.545  17.091  1.00  0.00     0.065 A 
HETATM    3  C6  UNL     1       8.767 -29.445  16.771  1.00  0.00     0.035 A 
HETATM    4  N2  UNL     1       9.644 -29.409  17.774  1.00  0.00    -0.327 N 
ATOM      5  H2  UNL     1      10.660 -29.336  17.714  1.00  0.00     0.174 HD
HETATM    6  S1  UNL     1       8.701 -29.511  19.155  1.00  0.00     0.003 SA
ENDROOT
BRANCH   1   7
HETATM    7  N1  UNL     1       5.854 -29.698  19.026  1.00  0.00    -0.365 N 
ATOM      8  H1  UNL     1       5.452 -30.620  19.197  1.00  0.00     0.161 HD
BRANCH   7   9
HETATM    9  C2  UNL     1       5.107 -28.541  19.377  1.00  0.00     0.112 C 
HETATM   10  C1  UNL     1       5.269 -28.136  20.827  1.00  0.00     0.050 C 
HETATM   11  C3  UNL     1       5.611 -27.393  18.479  1.00  0.00     0.050 C 
BRANCH   9  12
HETATM   12  C11 UNL     1       3.676 -28.780  19.121  1.00  0.00     0.201 C 
HETATM   13  O1  UNL     1       3.315 -29.171  17.988  1.00  0.00    -0.646 OA
HETATM   14  O2  UNL     1       2.717 -28.586  20.092  1.00  0.00    -0.646 OA
ENDBRANCH   9  12
ENDBRANCH   7   9
ENDBRANCH   1   7
BRANCH   3  15
HETATM   15  C7  UNL     1       9.256 -29.375  15.331  1.00  0.00     0.093 C 
HETATM   16  C8  UNL     1       8.130 -29.767  14.391  1.00  0.00     0.031 C 
HETATM   17  C9  UNL     1      10.367 -30.369  15.115  1.00  0.00     0.031 C 
BRANCH  15  18
HETATM   18  C10 UNL     1       9.772 -28.002  15.010  1.00  0.00     0.400 C 
HETATM   19  F1  UNL     1      10.280 -27.912  13.735  1.00  0.00    -0.170 F 
HETATM   20  F2  UNL     1       8.762 -27.049  15.079  1.00  0.00    -0.170 F 
HETATM   21  F3  UNL     1      10.725 -27.595  15.913  1.00  0.00    -0.170 F 
ENDBRANCH  15  18
ENDBRANCH   3  15
TORSDOF 5
ENDMDL
MODEL 3
REMARK VINA RESULT: -6.638160205      0.960      1.125
REMARK  5 active torsions:
REMARK  status: ('A' for Active; 'I' for Inactive)
REMARK    1  A    between atoms: C2_2  and  N1_4 
REMARK    2  A    between atoms: C2_2  and  C11_19 
REMARK    3  A    between atoms: N1_4  and  C4_6 
REMARK    4  A    between atoms: C6_8  and  C7_9 
REMARK    5  A    between atoms: C7_9  and  C10_12 
ROOT
HETATM    1  C4  UNL     1       6.977 -29.584  18.387  1.00  0.00     0.089 A 
HETATM    2  C5  UNL     1       7.341 -29.539  17.066  1.00  0.00     0.065 A 
HETATM    3  C6  UNL     1       8.663 -29.396  16.823  1.00  0.00     0.035 A 
HETATM    4  N2  UNL     1       9.477 -29.312  17.875  1.00  0.00    -0.327 N 
ATOM      5  H2  UNL     1      10.491 -29.202  17.874  1.00  0.00     0.174 HD
HETATM    6  S1  UNL     1       8.457 -29.428  19.200  1.00  0.00     0.003 SA
ENDROOT
BRANCH   1   7
HETATM    7  N1  UNL     1       5.631 -29.721  18.906  1.00  0.00    -0.365 N 
ATOM      8  H1  UNL     1       5.186 -30.639  18.897  1.00  0.00     0.161 HD
BRANCH   7   9
HETATM    9  C2  UNL     1       4.916 -28.609  19.426  1.00  0.00     0.112 C 
HETATM   10  C1  UNL     1       3.449 -28.895  19.666  1.00  0.00     0.050 C 
HETATM   11  C3  UNL     1       5.579 -28.240  20.769  1.00  0.00     0.050 C 
BRANCH   9  12
HETATM   12  C11 UNL     1       5.020 -27.475  18.493  1.00  0.00     0.201 C 
HETATM   13  O1  UNL     1       4.263 -27.432  17.496  1.00  0.00    -0.646 OA
HETATM   14  O2  UNL     1       5.927 -26.453  18.680  1.00  0.00    -0.646 OA
ENDBRANCH   9  12
ENDBRANCH   7   9
ENDBRANCH   1   7
BRANCH   3  15
HETATM   15  C7  UNL     1       9.234 -29.329  15.413  1.00  0.00     0.093 C 
HETATM   16  C8  UNL     1       8.165 -29.727  14.411  1.00  0.00     0.031 C 
HETATM   17  C9  UNL     1      10.358 -30.321  15.265  1.00  0.00     0.031 C 
BRANCH  15  18
HETATM   18  C10 UNL     1       9.765 -27.956  15.117  1.00  0.00     0.400 C 
HETATM   19  F1  UNL     1      10.257 -27.843  13.838  1.00  0.00    -0.170 F 
HETATM   20  F2  UNL     1       8.769 -26.991  15.222  1.00  0.00    -0.170 F 
HETATM   21  F3  UNL     1      10.736 -27.583  16.017  1.00  0.00    -0.170 F 
ENDBRANCH  15  18
ENDBRANCH   3  15
TORSDOF 5
ENDMDL
MODEL 4
REMARK VINA RESULT: -6.492698594      1.590      1.882
REMARK  5 active torsions:
REMARK  status: ('A' for Active; 'I' for Inactive)
REMARK    1  A    between atoms: C2_2  and  N1_4 
REMARK    2  A    between atoms: C2_2  and  C11_19 
REMARK    3  A    between atoms: N1_4  and  C4_6 
REMARK    4  A    between atoms: C6_8  and  C7_9 
REMARK    5  A    between atoms: C7_9  and  C10_12 
ROOT
HETATM    1  C4  UNL     1       7.315 -29.585  18.479  1.00  0.00     0.089 A 
HETATM    2  C5  UNL     1       7.537 -29.529  17.128  1.00  0.00     0.065 A 
HETATM    3  C6  UNL     1       8.831 -29.450  16.745  1.00  0.00     0.035 A 
HETATM    4  N2  UNL     1       9.757 -29.434  17.704  1.00  0.00    -0.327 N 
ATOM      5  H2  UNL     1      10.769 -29.378  17.595  1.00  0.00     0.174 HD
HETATM    6  S1  UNL     1       8.880 -29.527  19.129  1.00  0.00     0.003 SA
ENDROOT
BRANCH   1   7
HETATM    7  N1  UNL     1       6.027 -29.663  19.138  1.00  0.00    -0.365 N 
ATOM      8  H1  UNL     1       5.694 -30.567  19.475  1.00  0.00     0.161 HD
BRANCH   7   9
HETATM    9  C2  UNL     1       5.216 -28.512  19.327  1.00  0.00     0.112 C 
HETATM   10  C1  UNL     1       5.577 -27.363  18.410  1.00  0.00     0.050 C 
HETATM   11  C3  UNL     1       3.761 -28.939  19.045  1.00  0.00     0.050 C 
BRANCH   9  12
HETATM   12  C11 UNL     1       5.336 -28.047  20.719  1.00  0.00     0.201 C 
HETATM   13  O1  UNL     1       6.473 -27.922  21.227  1.00  0.00    -0.646 OA
HETATM   14  O2  UNL     1       4.231 -27.743  21.487  1.00  0.00    -0.646 OA
ENDBRANCH   9  12
ENDBRANCH   7   9
ENDBRANCH   1   7
BRANCH   3  15
HETATM   15  C7  UNL     1       9.251 -29.380  15.283  1.00  0.00     0.093 C 
HETATM   16  C8  UNL     1       8.081 -29.773  14.399  1.00  0.00     0.031 C 
HETATM   17  C9  UNL     1      10.350 -30.375  15.015  1.00  0.00     0.031 C 
BRANCH  15  18
HETATM   18  C10 UNL     1       9.751 -28.008  14.937  1.00  0.00     0.400 C 
HETATM   19  F1  UNL     1      10.259 -27.936  13.661  1.00  0.00    -0.170 F 
HETATM   20  F2  UNL     1       8.729 -27.066  14.986  1.00  0.00    -0.170 F 
HETATM   21  F3  UNL     1      10.698 -27.572  15.833  1.00  0.00    -0.170 F 
ENDBRANCH  15  18
ENDBRANCH   3  15
TORSDOF 5
ENDMDL
MODEL 5
REMARK VINA RESULT: -6.360265090      1.312      1.810
REMARK  5 active torsions:
REMARK  status: ('A' for Active; 'I' for Inactive)
REMARK    1  A    between atoms: C2_2  and  N1_4 
REMARK    2  A    between atoms: C2_2  and  C11_19 
REMARK    3  A    between atoms: N1_4  and  C4_6 
REMARK    4  A    between atoms: C6_8  and  C7_9 
REMARK    5  A    between atoms: C7_9  and  C10_12 
ROOT
HETATM    1  C4  UNL     1       6.941 -28.382  18.965  1.00  0.00     0.089 A 
HETATM    2  C5  UNL     1       7.439 -28.065  17.728  1.00  0.00     0.065 A 
HETATM    3  C6  UNL     1       8.673 -28.541  17.448  1.00  0.00     0.035 A 
HETATM    4  N2  UNL     1       9.282 -29.263  18.388  1.00  0.00    -0.327 N 
ATOM      5  H2  UNL     1      10.206 -29.694  18.345  1.00  0.00     0.174 HD
HETATM    6  S1  UNL     1       8.187 -29.303  19.656  1.00  0.00     0.003 SA
ENDROOT
BRANCH   1   7
HETATM    7  N1  UNL     1       5.656 -27.987  19.505  1.00  0.00    -0.365 N 
ATOM      8  H1  UNL     1       5.591 -27.135  20.060  1.00  0.00     0.161 HD
BRANCH   7   9
HETATM    9  C2  UNL     1       4.484 -28.759  19.278  1.00  0.00     0.112 C 
HETATM   10  C1  UNL     1       4.766 -30.225  19.031  1.00  0.00     0.050 C 
HETATM   11  C3  UNL     1       3.610 -28.624  20.542  1.00  0.00     0.050 C 
BRANCH   9  12
HETATM   12  C11 UNL     1       3.759 -28.224  18.113  1.00  0.00     0.201 C 
HETATM   13  O1  UNL     1       2.778 -28.857  17.661  1.00  0.00    -0.646 OA
HETATM   14  O2  UNL     1       4.126 -27.045  17.500  1.00  0.00    -0.646 OA
ENDBRANCH   9  12
ENDBRANCH   7   9
ENDBRANCH   1   7
BRANCH   3  15
HETATM   15  C7  UNL     1       9.369 -28.281  16.120  1.00  0.00     0.093 C 
HETATM   16  C8  UNL     1      10.810 -27.871  16.372  1.00  0.00     0.031 C 
HETATM   17  C9  UNL     1       8.709 -27.128  15.409  1.00  0.00     0.031 C 
BRANCH  15  18
HETATM   18  C10 UNL     1       9.301 -29.491  15.235  1.00  0.00     0.400 C 
HETATM   19  F1  UNL     1       8.033 -30.018  15.155  1.00  0.00    -0.170 F 
HETATM   20  F2  UNL     1       9.664 -29.189  13.927  1.00  0.00    -0.170 F 
HETATM   21  F3  UNL     1      10.178 -30.468  15.644  1.00  0.00    -0.170 F 
ENDBRANCH  15  18
ENDBRANCH   3  15
TORSDOF 5
ENDMDL
