MODEL 1
REMARK VINA RESULT: -5.814202070      0.000      0.000
REMARK  8 active torsions:
REMARK  status: ('A' for Active; 'I' for Inactive)
REMARK    1  A    between atoms: C2_2  and  C3_5 
REMARK    2  A    between atoms: C3_5  and  C4_6 
REMARK    3  A    between atoms: C4_6  and  C5_7 
REMARK    4  A    between atoms: C5_7  and  N1_8 
REMARK    5  A    between atoms: N1_8  and  C6_10 
REMARK    6  A    between atoms: C6_10  and  S2_12 
REMARK    7  A    between atoms: S2_12  and  S3_13 
REMARK    8  A    between atoms: S3_13  and  C7_14 
ROOT
HETATM    1  N1  UNL     1       8.103 -30.098  19.644  1.00  0.00    -0.375 N 
ATOM      2  H1  UNL     1       8.295 -30.966  20.143  1.00  0.00     0.161 HD
ENDROOT
BRANCH   1   3
HETATM    3  C5  UNL     1       9.114 -29.495  18.799  1.00  0.00     0.121 C 
BRANCH   3   4
HETATM    4  C4  UNL     1       8.882 -29.838  17.344  1.00  0.00     0.023 C 
BRANCH   4   5
HETATM    5  C3  UNL     1       9.925 -29.310  16.432  1.00  0.00     0.043 C 
BRANCH   5   6
HETATM    6  C2  UNL     1       9.505 -29.477  15.008  1.00  0.00     0.109 C 
HETATM    7  C1  UNL     1       8.015 -29.663  14.936  1.00  0.00     0.050 C 
HETATM    8 CL1  UNL     1      10.309 -30.915  14.312  1.00  0.00    -0.102 Cl
HETATM    9 CL2  UNL     1       9.962 -28.043  14.042  1.00  0.00    -0.102 Cl
ENDBRANCH   5   6
ENDBRANCH   4   5
ENDBRANCH   3   4
ENDBRANCH   1   3
BRANCH   1  10
HETATM   10  C6  UNL     1       6.847 -29.465  19.764  1.00  0.00     0.145 C 
HETATM   11  S1  UNL     1       5.489 -30.163  19.153  1.00  0.00    -0.052 SA
BRANCH  10  12
HETATM   12  S2  UNL     1       6.707 -27.877  20.595  1.00  0.00    -0.019 SA
BRANCH  12  13
HETATM   13  S3  UNL     1       7.061 -26.321  19.193  1.00  0.00     0.008 SA
BRANCH  13  14
HETATM   14  C7  UNL     1       6.195 -26.734  17.713  1.00  0.00     0.303 C 
HETATM   15  N2  UNL     1       4.794 -26.829  17.704  1.00  0.00    -0.050 NA
HETATM   16  O1  UNL     1       6.843 -26.945  16.667  1.00  0.00    -0.263 OA
ENDBRANCH  13  14
ENDBRANCH  12  13
ENDBRANCH  10  12
ENDBRANCH   1  10
TORSDOF 8
ENDMDL
MODEL 2
REMARK VINA RESULT: -5.784606336      0.868      1.339
REMARK  8 active torsions:
REMARK  status: ('A' for Active; 'I' for Inactive)
REMARK    1  A    between atoms: C2_2  and  C3_5 
REMARK    2  A    between atoms: C3_5  and  C4_6 
REMARK    3  A    between atoms: C4_6  and  C5_7 
REMARK    4  A    between atoms: C5_7  and  N1_8 
REMARK    5  A    between atoms: N1_8  and  C6_10 
REMARK    6  A    between atoms: C6_10  and  S2_12 
REMARK    7  A    between atoms: S2_12  and  S3_13 
REMARK    8  A    between atoms: S3_13  and  C7_14 
ROOT
HETATM    1  N1  UNL     1       8.143 -29.850  20.011  1.00  0.00    -0.375 N 
ATOM      2  H1  UNL     1       8.686 -29.791  20.873  1.00  0.00     0.161 HD
ENDROOT
BRANCH   1   3
HETATM    3  C5  UNL     1       8.697 -30.489  18.835  1.00  0.00     0.121 C 
BRANCH   3   4
HETATM    4  C4  UNL     1       8.931 -29.482  17.729  1.00  0.00     0.023 C 
BRANCH   4   5
HETATM    5  C3  UNL     1       8.275 -29.840  16.448  1.00  0.00     0.043 C 
BRANCH   5   6
HETATM    6  C2  UNL     1       9.191 -29.568  15.301  1.00  0.00     0.109 C 
HETATM    7  C1  UNL     1       9.893 -28.255  15.510  1.00  0.00     0.050 C 
HETATM    8 CL1  UNL     1       8.244 -29.490  13.785  1.00  0.00    -0.102 Cl
HETATM    9 CL2  UNL     1      10.413 -30.865  15.145  1.00  0.00    -0.102 Cl
ENDBRANCH   5   6
ENDBRANCH   4   5
ENDBRANCH   3   4
ENDBRANCH   1   3
BRANCH   1  10
HETATM   10  C6  UNL     1       6.841 -29.309  19.947  1.00  0.00     0.145 C 
HETATM   11  S1  UNL     1       5.612 -30.151  19.250  1.00  0.00    -0.052 SA
BRANCH  10  12
HETATM   12  S2  UNL     1       6.498 -27.683  20.633  1.00  0.00    -0.019 SA
BRANCH  12  13
HETATM   13  S3  UNL     1       6.923 -26.204  19.168  1.00  0.00     0.008 SA
BRANCH  13  14
HETATM   14  C7  UNL     1       6.092 -26.672  17.686  1.00  0.00     0.303 C 
HETATM   15  N2  UNL     1       4.703 -26.877  17.676  1.00  0.00    -0.050 NA
HETATM   16  O1  UNL     1       6.754 -26.823  16.638  1.00  0.00    -0.263 OA
ENDBRANCH  13  14
ENDBRANCH  12  13
ENDBRANCH  10  12
ENDBRANCH   1  10
TORSDOF 8
ENDMDL
MODEL 3
REMARK VINA RESULT: -5.634546413      2.297      2.868
REMARK  8 active torsions:
REMARK  status: ('A' for Active; 'I' for Inactive)
REMARK    1  A    between atoms: C2_2  and  C3_5 
REMARK    2  A    between atoms: C3_5  and  C4_6 
REMARK    3  A    between atoms: C4_6  and  C5_7 
REMARK    4  A    between atoms: C5_7  and  N1_8 
REMARK    5  A    between atoms: N1_8  and  C6_10 
REMARK    6  A    between atoms: C6_10  and  S2_12 
REMARK    7  A    between atoms: S2_12  and  S3_13 
REMARK    8  A    between atoms: S3_13  and  C7_14 
ROOT
HETATM    1  N1  UNL     1       8.816 -28.771  18.453  1.00  0.00    -0.375 N 
ATOM      2  H1  UNL     1       9.715 -28.304  18.577  1.00  0.00     0.161 HD
ENDROOT
BRANCH   1   3
HETATM    3  C5  UNL     1       8.675 -29.856  17.503  1.00  0.00     0.121 C 
BRANCH   3   4
HETATM    4  C4  UNL     1       9.598 -29.665  16.320  1.00  0.00     0.023 C 
BRANCH   4   5
HETATM    5  C3  UNL     1      10.307 -28.362  16.320  1.00  0.00     0.043 C 
BRANCH   5   6
HETATM    6  C2  UNL     1       9.767 -27.477  15.245  1.00  0.00     0.109 C 
HETATM    7  C1  UNL     1       9.304 -28.311  14.083  1.00  0.00     0.050 C 
HETATM    8 CL1  UNL     1      11.051 -26.361  14.689  1.00  0.00    -0.102 Cl
HETATM    9 CL2  UNL     1       8.393 -26.508  15.854  1.00  0.00    -0.102 Cl
ENDBRANCH   5   6
ENDBRANCH   4   5
ENDBRANCH   3   4
ENDBRANCH   1   3
BRANCH   1  10
HETATM   10  C6  UNL     1       7.691 -28.369  19.206  1.00  0.00     0.145 C 
HETATM   11  S1  UNL     1       7.256 -26.786  19.291  1.00  0.00    -0.052 SA
BRANCH  10  12
HETATM   12  S2  UNL     1       6.707 -29.588  20.087  1.00  0.00    -0.019 SA
BRANCH  12  13
HETATM   13  S3  UNL     1       5.008 -30.093  18.915  1.00  0.00     0.008 SA
BRANCH  13  14
HETATM   14  C7  UNL     1       3.926 -28.702  18.924  1.00  0.00     0.303 C 
HETATM   15  N2  UNL     1       3.922 -27.789  17.856  1.00  0.00    -0.050 NA
HETATM   16  O1  UNL     1       3.159 -28.533  19.895  1.00  0.00    -0.263 OA
ENDBRANCH  13  14
ENDBRANCH  12  13
ENDBRANCH  10  12
ENDBRANCH   1  10
TORSDOF 8
ENDMDL
MODEL 4
REMARK VINA RESULT: -5.589400928      2.207      3.006
REMARK  8 active torsions:
REMARK  status: ('A' for Active; 'I' for Inactive)
REMARK    1  A    between atoms: C2_2  and  C3_5 
REMARK    2  A    between atoms: C3_5  and  C4_6 
REMARK    3  A    between atoms: C4_6  and  C5_7 
REMARK    4  A    between atoms: C5_7  and  N1_8 
REMARK    5  A    between atoms: N1_8  and  C6_10 
REMARK    6  A    between atoms: C6_10  and  S2_12 
REMARK    7  A    between atoms: S2_12  and  S3_13 
REMARK    8  A    between atoms: S3_13  and  C7_14 
ROOT
HETATM    1  N1  UNL     1       8.804 -28.767  18.437  1.00  0.00    -0.375 N 
ATOM      2  H1  UNL     1       9.710 -28.321  18.585  1.00  0.00     0.161 HD
ENDROOT
BRANCH   1   3
HETATM    3  C5  UNL     1       8.647 -29.799  17.433  1.00  0.00     0.121 C 
BRANCH   3   4
HETATM    4  C4  UNL     1       9.612 -29.593  16.286  1.00  0.00     0.023 C 
BRANCH   4   5
HETATM    5  C3  UNL     1      10.313 -28.286  16.323  1.00  0.00     0.043 C 
BRANCH   5   6
HETATM    6  C2  UNL     1       9.794 -27.386  15.251  1.00  0.00     0.109 C 
HETATM    7  C1  UNL     1      10.863 -26.413  14.840  1.00  0.00     0.050 C 
HETATM    8 CL1  UNL     1       8.380 -26.479  15.866  1.00  0.00    -0.102 Cl
HETATM    9 CL2  UNL     1       9.285 -28.334  13.821  1.00  0.00    -0.102 Cl
ENDBRANCH   5   6
ENDBRANCH   4   5
ENDBRANCH   3   4
ENDBRANCH   1   3
BRANCH   1  10
HETATM   10  C6  UNL     1       7.684 -28.386  19.207  1.00  0.00     0.145 C 
HETATM   11  S1  UNL     1       7.247 -26.805  19.335  1.00  0.00    -0.052 SA
BRANCH  10  12
HETATM   12  S2  UNL     1       6.709 -29.627  20.066  1.00  0.00    -0.019 SA
BRANCH  12  13
HETATM   13  S3  UNL     1       4.988 -30.087  18.908  1.00  0.00     0.008 SA
BRANCH  13  14
HETATM   14  C7  UNL     1       3.917 -28.688  18.973  1.00  0.00     0.303 C 
HETATM   15  N2  UNL     1       3.673 -27.917  17.824  1.00  0.00    -0.050 NA
HETATM   16  O1  UNL     1       3.374 -28.387  20.056  1.00  0.00    -0.263 OA
ENDBRANCH  13  14
ENDBRANCH  12  13
ENDBRANCH  10  12
ENDBRANCH   1  10
TORSDOF 8
ENDMDL
MODEL 5
REMARK VINA RESULT: -5.546349921      1.881      2.458
REMARK  8 active torsions:
REMARK  status: ('A' for Active; 'I' for Inactive)
REMARK    1  A    between atoms: C2_2  and  C3_5 
REMARK    2  A    between atoms: C3_5  and  C4_6 
REMARK    3  A    between atoms: C4_6  and  C5_7 
REMARK    4  A    between atoms: C5_7  and  N1_8 
REMARK    5  A    between atoms: N1_8  and  C6_10 
REMARK    6  A    between atoms: C6_10  and  S2_12 
REMARK    7  A    between atoms: S2_12  and  S3_13 
REMARK    8  A    between atoms: S3_13  and  C7_14 
ROOT
HETATM    1  N1  UNL     1       8.174 -28.121  18.075  1.00  0.00    -0.375 N 
ATOM      2  H1  UNL     1       8.149 -27.587  17.207  1.00  0.00     0.161 HD
ENDROOT
BRANCH   1   3
HETATM    3  C5  UNL     1       9.107 -29.218  18.240  1.00  0.00     0.121 C 
BRANCH   3   4
HETATM    4  C4  UNL     1       9.345 -29.930  16.926  1.00  0.00     0.023 C 
BRANCH   4   5
HETATM    5  C3  UNL     1       8.403 -29.531  15.852  1.00  0.00     0.043 C 
BRANCH   5   6
HETATM    6  C2  UNL     1       9.071 -29.610  14.519  1.00  0.00     0.109 C 
HETATM    7  C1  UNL     1       8.053 -29.916  13.456  1.00  0.00     0.050 C 
HETATM    8 CL1  UNL     1      10.301 -30.910  14.543  1.00  0.00    -0.102 Cl
HETATM    9 CL2  UNL     1       9.882 -28.065  14.124  1.00  0.00    -0.102 Cl
ENDBRANCH   5   6
ENDBRANCH   4   5
ENDBRANCH   3   4
ENDBRANCH   1   3
BRANCH   1  10
HETATM   10  C6  UNL     1       7.299 -27.804  19.136  1.00  0.00     0.145 C 
HETATM   11  S1  UNL     1       6.938 -26.239  19.492  1.00  0.00    -0.052 SA
BRANCH  10  12
HETATM   12  S2  UNL     1       6.556 -29.110  20.122  1.00  0.00    -0.019 SA
BRANCH  12  13
HETATM   13  S3  UNL     1       4.972 -30.002  19.022  1.00  0.00     0.008 SA
BRANCH  13  14
HETATM   14  C7  UNL     1       3.686 -28.804  18.880  1.00  0.00     0.303 C 
HETATM   15  N2  UNL     1       2.680 -28.714  19.856  1.00  0.00    -0.050 NA
HETATM   16  O1  UNL     1       3.676 -28.034  17.898  1.00  0.00    -0.263 OA
ENDBRANCH  13  14
ENDBRANCH  12  13
ENDBRANCH  10  12
ENDBRANCH   1  10
TORSDOF 8
ENDMDL
