MODEL 1
REMARK VINA RESULT: -7.283362586      0.000      0.000
REMARK  7 active torsions:
REMARK  status: ('A' for Active; 'I' for Inactive)
REMARK    1  A    between atoms: O1_2  and  C2_3 
REMARK    2  A    between atoms: C2_3  and  C3_5 
REMARK    3  A    between atoms: C5_7  and  O3_8 
REMARK    4  A    between atoms: C9_13  and  C10_14 
REMARK    5  A    between atoms: C10_14  and  C12_16 
REMARK    6  A    between atoms: C12_16  and  N1_17 
REMARK    7  A    between atoms: C19_24  and  O4_25 
ROOT
HETATM    1  C3  UNL     1     -32.584 -12.622 -23.774  1.00  0.00     0.074 C 
HETATM    2  C4  UNL     1     -33.242 -13.171 -22.495  1.00  0.00     0.029 C 
HETATM    3  C5  UNL     1     -31.566 -11.621 -23.292  1.00  0.00     0.137 C 
HETATM    4  C6  UNL     1     -31.812 -10.334 -24.053  1.00  0.00     0.042 C 
HETATM    5  C7  UNL     1     -32.792 -10.610 -25.152  1.00  0.00    -0.032 C 
HETATM    6  C8  UNL     1     -31.993 -11.048 -26.347  1.00  0.00     0.016 C 
HETATM    7  C9  UNL     1     -33.797  -9.562 -25.421  1.00  0.00     0.003 C 
HETATM    8  C20 UNL     1     -35.050 -10.047 -26.116  1.00  0.00    -0.013 C 
HETATM    9  C21 UNL     1     -34.884 -10.315 -27.583  1.00  0.00     0.010 C 
HETATM   10  C22 UNL     1     -35.609 -11.318 -25.520  1.00  0.00     0.005 C 
HETATM   11  C23 UNL     1     -34.528 -12.383 -25.375  1.00  0.00     0.007 C 
HETATM   12  C24 UNL     1     -33.535 -11.772 -24.478  1.00  0.00     0.014 C 
ENDROOT
BRANCH   7  13
HETATM   13  C10 UNL     1     -33.332  -8.307 -26.081  1.00  0.00     0.015 C 
HETATM   14  C11 UNL     1     -34.256  -7.126 -25.807  1.00  0.00     0.012 C 
BRANCH  13  15
HETATM   15  C12 UNL     1     -32.001  -7.778 -25.666  1.00  0.00     0.280 C 
BRANCH  15  16
HETATM   16  N1  UNL     1     -31.385  -7.175 -26.835  1.00  0.00     0.118 N 
HETATM   17  C13 UNL     1     -31.704  -7.930 -28.006  1.00  0.00     0.277 C 
HETATM   18  C14 UNL     1     -30.362  -8.392 -28.591  1.00  0.00     0.044 C 
HETATM   19  C15 UNL     1     -29.440  -7.338 -28.033  1.00  0.00     0.016 C 
HETATM   20  C16 UNL     1     -29.322  -6.104 -28.899  1.00  0.00     0.014 C 
HETATM   21  C18 UNL     1     -27.967  -7.590 -28.168  1.00  0.00     0.014 C 
HETATM   22  C19 UNL     1     -29.969  -7.142 -26.647  1.00  0.00     0.365 C 
HETATM   23  C17 UNL     1     -27.968  -6.651 -29.363  1.00  0.00     0.002 C 
BRANCH  22  24
HETATM   24  O4  UNL     1     -29.584  -8.210 -25.858  1.00  0.00    -0.367 OA
ATOM     25  H4  UNL     1     -29.148  -8.860 -26.395  1.00  0.00     0.212 HD
ENDBRANCH  22  24
ENDBRANCH  15  16
ENDBRANCH  13  15
ENDBRANCH   7  13
BRANCH   3  26
HETATM   26  O3  UNL     1     -30.283 -12.126 -23.437  1.00  0.00    -0.394 OA
ATOM     27  H3  UNL     1     -29.703 -11.463 -23.793  1.00  0.00     0.210 HD
ENDBRANCH   3  26
BRANCH   1  28
HETATM   28  C2  UNL     1     -32.015 -13.779 -24.439  1.00  0.00     0.269 C 
HETATM   29  O2  UNL     1     -32.576 -14.894 -24.422  1.00  0.00    -0.264 OA
BRANCH  28  30
HETATM   30  O1  UNL     1     -30.806 -13.744 -25.150  1.00  0.00    -0.326 OA
HETATM   31  C1  UNL     1     -30.068 -14.918 -25.415  1.00  0.00     0.213 C 
ENDBRANCH  28  30
ENDBRANCH   1  28
TORSDOF 7
ENDMDL
MODEL 2
REMARK VINA RESULT: -6.965636494      2.626      7.358
REMARK  7 active torsions:
REMARK  status: ('A' for Active; 'I' for Inactive)
REMARK    1  A    between atoms: O1_2  and  C2_3 
REMARK    2  A    between atoms: C2_3  and  C3_5 
REMARK    3  A    between atoms: C5_7  and  O3_8 
REMARK    4  A    between atoms: C9_13  and  C10_14 
REMARK    5  A    between atoms: C10_14  and  C12_16 
REMARK    6  A    between atoms: C12_16  and  N1_17 
REMARK    7  A    between atoms: C19_24  and  O4_25 
ROOT
HETATM    1  C3  UNL     1     -33.278  -7.116 -27.944  1.00  0.00     0.074 C 
HETATM    2  C4  UNL     1     -34.481  -6.197 -27.663  1.00  0.00     0.029 C 
HETATM    3  C5  UNL     1     -33.875  -8.474 -28.203  1.00  0.00     0.137 C 
HETATM    4  C6  UNL     1     -33.152  -9.457 -27.304  1.00  0.00     0.042 C 
HETATM    5  C7  UNL     1     -31.973  -8.764 -26.690  1.00  0.00    -0.032 C 
HETATM    6  C8  UNL     1     -30.823  -8.940 -27.641  1.00  0.00     0.016 C 
HETATM    7  C9  UNL     1     -31.676  -9.087 -25.280  1.00  0.00     0.003 C 
HETATM    8  C20 UNL     1     -30.871  -8.038 -24.545  1.00  0.00    -0.013 C 
HETATM    9  C21 UNL     1     -29.410  -8.021 -24.888  1.00  0.00     0.010 C 
HETATM   10  C22 UNL     1     -31.371  -6.631 -24.777  1.00  0.00     0.005 C 
HETATM   11  C23 UNL     1     -31.550  -6.346 -26.264  1.00  0.00     0.007 C 
HETATM   12  C24 UNL     1     -32.542  -7.338 -26.707  1.00  0.00     0.014 C 
ENDROOT
BRANCH   7  13
HETATM   13  C10 UNL     1     -31.105 -10.433 -24.982  1.00  0.00     0.015 C 
HETATM   14  C11 UNL     1     -30.834 -10.636 -23.496  1.00  0.00     0.012 C 
BRANCH  13  15
HETATM   15  C12 UNL     1     -31.948 -11.615 -25.321  1.00  0.00     0.280 C 
BRANCH  15  16
HETATM   16  N1  UNL     1     -32.354 -12.237 -24.073  1.00  0.00     0.118 N 
HETATM   17  C13 UNL     1     -32.198 -13.655 -24.154  1.00  0.00     0.277 C 
HETATM   18  C14 UNL     1     -33.594 -14.249 -23.917  1.00  0.00     0.044 C 
HETATM   19  C15 UNL     1     -34.239 -13.135 -23.131  1.00  0.00     0.016 C 
HETATM   20  C16 UNL     1     -34.014 -13.226 -21.638  1.00  0.00     0.014 C 
HETATM   21  C18 UNL     1     -35.723 -13.224 -22.927  1.00  0.00     0.014 C 
HETATM   22  C19 UNL     1     -33.722 -11.910 -23.817  1.00  0.00     0.365 C 
HETATM   23  C17 UNL     1     -35.447 -13.760 -21.532  1.00  0.00     0.002 C 
BRANCH  22  24
HETATM   24  O4  UNL     1     -34.388 -11.745 -25.017  1.00  0.00    -0.367 OA
ATOM     25  H4  UNL     1     -33.789 -11.393 -25.666  1.00  0.00     0.212 HD
ENDBRANCH  22  24
ENDBRANCH  15  16
ENDBRANCH  13  15
ENDBRANCH   7  13
BRANCH   3  26
HETATM   26  O3  UNL     1     -33.803  -8.787 -29.552  1.00  0.00    -0.394 OA
ATOM     27  H3  UNL     1     -34.392  -9.503 -29.759  1.00  0.00     0.210 HD
ENDBRANCH   3  26
BRANCH   1  28
HETATM   28  C2  UNL     1     -32.608  -6.529 -29.090  1.00  0.00     0.269 C 
HETATM   29  O2  UNL     1     -32.798  -5.345 -29.432  1.00  0.00    -0.264 OA
BRANCH  28  30
HETATM   30  O1  UNL     1     -31.702  -7.233 -29.898  1.00  0.00    -0.326 OA
HETATM   31  C1  UNL     1     -30.887  -6.575 -30.844  1.00  0.00     0.213 C 
ENDBRANCH  28  30
ENDBRANCH   1  28
TORSDOF 7
ENDMDL
MODEL 3
REMARK VINA RESULT: -6.935954749      1.070      1.297
REMARK  7 active torsions:
REMARK  status: ('A' for Active; 'I' for Inactive)
REMARK    1  A    between atoms: O1_2  and  C2_3 
REMARK    2  A    between atoms: C2_3  and  C3_5 
REMARK    3  A    between atoms: C5_7  and  O3_8 
REMARK    4  A    between atoms: C9_13  and  C10_14 
REMARK    5  A    between atoms: C10_14  and  C12_16 
REMARK    6  A    between atoms: C12_16  and  N1_17 
REMARK    7  A    between atoms: C19_24  and  O4_25 
ROOT
HETATM    1  C3  UNL     1     -32.537 -12.706 -23.756  1.00  0.00     0.074 C 
HETATM    2  C4  UNL     1     -33.179 -13.270 -22.475  1.00  0.00     0.029 C 
HETATM    3  C5  UNL     1     -31.467 -11.762 -23.274  1.00  0.00     0.137 C 
HETATM    4  C6  UNL     1     -31.683 -10.443 -23.988  1.00  0.00     0.042 C 
HETATM    5  C7  UNL     1     -32.705 -10.646 -25.066  1.00  0.00    -0.032 C 
HETATM    6  C8  UNL     1     -31.958 -11.076 -26.296  1.00  0.00     0.016 C 
HETATM    7  C9  UNL     1     -33.675  -9.551 -25.272  1.00  0.00     0.003 C 
HETATM    8  C20 UNL     1     -34.965  -9.966 -25.944  1.00  0.00    -0.013 C 
HETATM    9  C21 UNL     1     -34.851 -10.193 -27.423  1.00  0.00     0.010 C 
HETATM   10  C22 UNL     1     -35.557 -11.232 -25.371  1.00  0.00     0.005 C 
HETATM   11  C23 UNL     1     -34.515 -12.342 -25.291  1.00  0.00     0.007 C 
HETATM   12  C24 UNL     1     -33.474 -11.799 -24.405  1.00  0.00     0.014 C 
ENDROOT
BRANCH   7  13
HETATM   13  C10 UNL     1     -33.179  -8.295 -25.907  1.00  0.00     0.015 C 
HETATM   14  C11 UNL     1     -34.218  -7.180 -25.884  1.00  0.00     0.012 C 
BRANCH  13  15
HETATM   15  C12 UNL     1     -31.992  -7.644 -25.281  1.00  0.00     0.280 C 
BRANCH  15  16
HETATM   16  N1  UNL     1     -31.334  -6.855 -26.307  1.00  0.00     0.118 N 
HETATM   17  C13 UNL     1     -30.464  -7.681 -27.084  1.00  0.00     0.277 C 
HETATM   18  C14 UNL     1     -29.058  -7.086 -26.923  1.00  0.00     0.044 C 
HETATM   19  C15 UNL     1     -29.401  -5.657 -26.582  1.00  0.00     0.016 C 
HETATM   20  C16 UNL     1     -29.575  -4.762 -27.788  1.00  0.00     0.014 C 
HETATM   21  C18 UNL     1     -28.278  -4.794 -26.086  1.00  0.00     0.014 C 
HETATM   22  C19 UNL     1     -30.584  -5.812 -25.679  1.00  0.00     0.365 C 
HETATM   23  C17 UNL     1     -28.178  -4.210 -27.486  1.00  0.00     0.002 C 
BRANCH  22  24
HETATM   24  O4  UNL     1     -30.156  -6.238 -24.436  1.00  0.00    -0.367 OA
ATOM     25  H4  UNL     1     -30.230  -5.524 -23.814  1.00  0.00     0.212 HD
ENDBRANCH  22  24
ENDBRANCH  15  16
ENDBRANCH  13  15
ENDBRANCH   7  13
BRANCH   3  26
HETATM   26  O3  UNL     1     -30.209 -12.311 -23.473  1.00  0.00    -0.394 OA
ATOM     27  H3  UNL     1     -29.750 -12.398 -22.645  1.00  0.00     0.210 HD
ENDBRANCH   3  26
BRANCH   1  28
HETATM   28  C2  UNL     1     -32.034 -13.864 -24.473  1.00  0.00     0.269 C 
HETATM   29  O2  UNL     1     -32.661 -14.942 -24.511  1.00  0.00    -0.264 OA
BRANCH  28  30
HETATM   30  O1  UNL     1     -30.819 -13.868 -25.175  1.00  0.00    -0.326 OA
HETATM   31  C1  UNL     1     -30.139 -15.069 -25.471  1.00  0.00     0.213 C 
ENDBRANCH  28  30
ENDBRANCH   1  28
TORSDOF 7
ENDMDL
MODEL 4
REMARK VINA RESULT: -6.876912126      2.777      6.314
REMARK  7 active torsions:
REMARK  status: ('A' for Active; 'I' for Inactive)
REMARK    1  A    between atoms: O1_2  and  C2_3 
REMARK    2  A    between atoms: C2_3  and  C3_5 
REMARK    3  A    between atoms: C5_7  and  O3_8 
REMARK    4  A    between atoms: C9_13  and  C10_14 
REMARK    5  A    between atoms: C10_14  and  C12_16 
REMARK    6  A    between atoms: C12_16  and  N1_17 
REMARK    7  A    between atoms: C19_24  and  O4_25 
ROOT
HETATM    1  C3  UNL     1     -32.147  -7.791 -29.640  1.00  0.00     0.074 C 
HETATM    2  C4  UNL     1     -33.147  -8.296 -30.695  1.00  0.00     0.029 C 
HETATM    3  C5  UNL     1     -31.520  -9.035 -29.068  1.00  0.00     0.137 C 
HETATM    4  C6  UNL     1     -31.639  -8.942 -27.560  1.00  0.00     0.042 C 
HETATM    5  C7  UNL     1     -32.103  -7.561 -27.203  1.00  0.00    -0.032 C 
HETATM    6  C8  UNL     1     -30.871  -6.713 -27.059  1.00  0.00     0.016 C 
HETATM    7  C9  UNL     1     -33.070  -7.455 -26.093  1.00  0.00     0.003 C 
HETATM    8  C20 UNL     1     -33.905  -6.193 -26.097  1.00  0.00    -0.013 C 
HETATM    9  C21 UNL     1     -33.178  -4.966 -25.631  1.00  0.00     0.010 C 
HETATM   10  C22 UNL     1     -34.468  -5.854 -27.457  1.00  0.00     0.005 C 
HETATM   11  C23 UNL     1     -33.383  -5.884 -28.527  1.00  0.00     0.007 C 
HETATM   12  C24 UNL     1     -32.878  -7.265 -28.495  1.00  0.00     0.014 C 
ENDROOT
BRANCH   7  13
HETATM   13  C10 UNL     1     -32.568  -7.700 -24.709  1.00  0.00     0.015 C 
HETATM   14  C11 UNL     1     -33.549  -7.233 -23.640  1.00  0.00     0.012 C 
BRANCH  13  15
HETATM   15  C12 UNL     1     -32.318  -9.117 -24.321  1.00  0.00     0.280 C 
BRANCH  15  16
HETATM   16  N1  UNL     1     -31.193  -9.129 -23.402  1.00  0.00     0.118 N 
HETATM   17  C13 UNL     1     -30.233  -8.141 -23.784  1.00  0.00     0.277 C 
HETATM   18  C14 UNL     1     -28.927  -8.902 -24.052  1.00  0.00     0.044 C 
HETATM   19  C15 UNL     1     -29.143 -10.129 -23.203  1.00  0.00     0.016 C 
HETATM   20  C16 UNL     1     -28.686  -9.974 -21.770  1.00  0.00     0.014 C 
HETATM   21  C18 UNL     1     -28.181 -11.265 -23.400  1.00  0.00     0.014 C 
HETATM   22  C19 UNL     1     -30.593 -10.426 -23.421  1.00  0.00     0.365 C 
HETATM   23  C17 UNL     1     -27.450 -10.793 -22.154  1.00  0.00     0.002 C 
BRANCH  22  24
HETATM   24  O4  UNL     1     -30.760 -10.992 -24.671  1.00  0.00    -0.367 OA
ATOM     25  H4  UNL     1     -30.484 -10.374 -25.337  1.00  0.00     0.212 HD
ENDBRANCH  22  24
ENDBRANCH  15  16
ENDBRANCH  13  15
ENDBRANCH   7  13
BRANCH   3  26
HETATM   26  O3  UNL     1     -30.217  -9.175 -29.522  1.00  0.00    -0.394 OA
ATOM     27  H3  UNL     1     -30.209  -9.518 -30.409  1.00  0.00     0.210 HD
ENDBRANCH   3  26
BRANCH   1  28
HETATM   28  C2  UNL     1     -31.224  -6.936 -30.364  1.00  0.00     0.269 C 
HETATM   29  O2  UNL     1     -31.473  -6.520 -31.514  1.00  0.00    -0.264 OA
BRANCH  28  30
HETATM   30  O1  UNL     1     -29.994  -6.509 -29.842  1.00  0.00    -0.326 OA
HETATM   31  C1  UNL     1     -28.911  -6.170 -30.680  1.00  0.00     0.213 C 
ENDBRANCH  28  30
ENDBRANCH   1  28
TORSDOF 7
ENDMDL
MODEL 5
REMARK VINA RESULT: -6.849561030      2.206      6.490
REMARK  7 active torsions:
REMARK  status: ('A' for Active; 'I' for Inactive)
REMARK    1  A    between atoms: O1_2  and  C2_3 
REMARK    2  A    between atoms: C2_3  and  C3_5 
REMARK    3  A    between atoms: C5_7  and  O3_8 
REMARK    4  A    between atoms: C9_13  and  C10_14 
REMARK    5  A    between atoms: C10_14  and  C12_16 
REMARK    6  A    between atoms: C12_16  and  N1_17 
REMARK    7  A    between atoms: C19_24  and  O4_25 
ROOT
HETATM    1  C3  UNL     1     -32.706  -8.426 -28.313  1.00  0.00     0.074 C 
HETATM    2  C4  UNL     1     -32.296  -8.773 -29.756  1.00  0.00     0.029 C 
HETATM    3  C5  UNL     1     -31.421  -8.446 -27.526  1.00  0.00     0.137 C 
HETATM    4  C6  UNL     1     -31.649  -9.339 -26.323  1.00  0.00     0.042 C 
HETATM    5  C7  UNL     1     -33.111  -9.660 -26.238  1.00  0.00    -0.032 C 
HETATM    6  C8  UNL     1     -33.749  -8.570 -25.425  1.00  0.00     0.016 C 
HETATM    7  C9  UNL     1     -33.463 -11.035 -25.829  1.00  0.00     0.003 C 
HETATM    8  C20 UNL     1     -34.843 -11.489 -26.252  1.00  0.00    -0.013 C 
HETATM    9  C21 UNL     1     -35.963 -10.918 -25.433  1.00  0.00     0.010 C 
HETATM   10  C22 UNL     1     -35.166 -11.158 -27.690  1.00  0.00     0.005 C 
HETATM   11  C23 UNL     1     -34.873  -9.694 -27.999  1.00  0.00     0.007 C 
HETATM   12  C24 UNL     1     -33.432  -9.549 -27.735  1.00  0.00     0.014 C 
ENDROOT
BRANCH   7  13
HETATM   13  C10 UNL     1     -33.244 -11.411 -24.401  1.00  0.00     0.015 C 
HETATM   14  C11 UNL     1     -34.219 -12.481 -23.924  1.00  0.00     0.012 C 
BRANCH  13  15
HETATM   15  C12 UNL     1     -31.920 -12.001 -24.052  1.00  0.00     0.280 C 
BRANCH  15  16
HETATM   16  N1  UNL     1     -31.700 -13.134 -24.933  1.00  0.00     0.118 N 
HETATM   17  C13 UNL     1     -32.423 -14.274 -24.462  1.00  0.00     0.277 C 
HETATM   18  C14 UNL     1     -31.373 -15.362 -24.196  1.00  0.00     0.044 C 
HETATM   19  C15 UNL     1     -30.270 -14.913 -25.122  1.00  0.00     0.016 C 
HETATM   20  C16 UNL     1     -30.389 -15.458 -26.528  1.00  0.00     0.014 C 
HETATM   21  C18 UNL     1     -28.938 -15.585 -24.960  1.00  0.00     0.014 C 
HETATM   22  C19 UNL     1     -30.301 -13.425 -24.970  1.00  0.00     0.365 C 
HETATM   23  C17 UNL     1     -29.292 -16.459 -26.152  1.00  0.00     0.002 C 
BRANCH  22  24
HETATM   24  O4  UNL     1     -29.726 -13.079 -23.761  1.00  0.00    -0.367 OA
ATOM     25  H4  UNL     1     -29.139 -13.771 -23.480  1.00  0.00     0.212 HD
ENDBRANCH  22  24
ENDBRANCH  15  16
ENDBRANCH  13  15
ENDBRANCH   7  13
BRANCH   3  26
HETATM   26  O3  UNL     1     -31.030  -7.155 -27.204  1.00  0.00    -0.394 OA
ATOM     27  H3  UNL     1     -31.290  -6.940 -26.315  1.00  0.00     0.210 HD
ENDBRANCH   3  26
BRANCH   1  28
HETATM   28  C2  UNL     1     -33.335  -7.121 -28.397  1.00  0.00     0.269 C 
HETATM   29  O2  UNL     1     -33.586  -6.578 -29.492  1.00  0.00    -0.264 OA
BRANCH  28  30
HETATM   30  O1  UNL     1     -33.712  -6.372 -27.272  1.00  0.00    -0.326 OA
HETATM   31  C1  UNL     1     -34.923  -5.649 -27.235  1.00  0.00     0.213 C 
ENDBRANCH  28  30
ENDBRANCH   1  28
TORSDOF 7
ENDMDL
