MODEL 1
REMARK VINA RESULT: -7.167086738      0.000      0.000
REMARK  7 active torsions:
REMARK  status: ('A' for Active; 'I' for Inactive)
REMARK    1  A    between atoms: C2_2  and  C4_4 
REMARK    2  A    between atoms: C4_4  and  C5_5 
REMARK    3  A    between atoms: C13_14  and  O2_15 
REMARK    4  A    between atoms: O2_15  and  C14_16 
REMARK    5  A    between atoms: C16_19  and  O4_20 
REMARK    6  A    between atoms: C17_22  and  O5_23 
REMARK    7  A    between atoms: C21_28  and  C22_29 
ROOT
HETATM    1  C5  UNL     1     -32.238  -4.928 -27.879  1.00  0.00     0.198 C 
HETATM    2  O1  UNL     1     -31.255  -5.113 -26.844  1.00  0.00    -0.358 OA
HETATM    3  C6  UNL     1     -30.360  -6.265 -27.023  1.00  0.00     0.091 C 
HETATM    4  C7  UNL     1     -29.483  -6.215 -25.753  1.00  0.00     0.044 C 
HETATM    5  C8  UNL     1     -29.688  -7.729 -25.689  1.00  0.00     0.012 C 
HETATM    6  C9  UNL     1     -30.999  -7.340 -26.337  1.00  0.00     0.036 C 
HETATM    7  C10 UNL     1     -31.887  -8.366 -26.854  1.00  0.00    -0.001 C 
HETATM    8  C11 UNL     1     -31.324  -9.511 -27.584  1.00  0.00     0.019 C 
HETATM    9  C12 UNL     1     -32.632  -9.039 -25.672  1.00  0.00     0.048 C 
HETATM   10  C13 UNL     1     -33.772  -9.745 -26.363  1.00  0.00     0.164 C 
HETATM   11  C16 UNL     1     -34.132  -8.814 -27.475  1.00  0.00     0.182 C 
HETATM   12  C17 UNL     1     -33.101  -7.703 -27.453  1.00  0.00     0.094 C 
HETATM   13  C18 UNL     1     -32.948  -7.161 -28.803  1.00  0.00     0.049 C 
HETATM   14  C19 UNL     1     -32.167  -5.902 -28.958  1.00  0.00     0.033 C 
HETATM   15  C20 UNL     1     -30.783  -6.256 -29.389  1.00  0.00     0.045 C 
HETATM   16  C21 UNL     1     -29.741  -6.029 -28.257  1.00  0.00    -0.043 C 
ENDROOT
BRANCH   1  17
HETATM   17  C4  UNL     1     -32.988  -3.951 -27.674  1.00  0.00    -0.118 C 
BRANCH  17  18
HETATM   18  C2  UNL     1     -33.826  -2.861 -27.446  1.00  0.00    -0.028 C 
HETATM   19  C1  UNL     1     -34.803  -3.021 -26.519  1.00  0.00     0.027 C 
HETATM   20  C3  UNL     1     -33.796  -1.539 -28.077  1.00  0.00     0.056 C 
ENDBRANCH  17  18
ENDBRANCH   1  17
BRANCH  16  21
HETATM   21  C22 UNL     1     -28.487  -6.425 -28.868  1.00  0.00    -0.082 C 
HETATM   22  C23 UNL     1     -27.909  -5.731 -30.039  1.00  0.00     0.043 C 
HETATM   23  C24 UNL     1     -28.274  -7.919 -29.069  1.00  0.00     0.043 C 
ENDBRANCH  16  21
BRANCH  12  24
HETATM   24  O5  UNL     1     -33.598  -6.782 -26.522  1.00  0.00    -0.386 OA
ATOM     25  H5  UNL     1     -34.524  -6.954 -26.400  1.00  0.00     0.210 HD
ENDBRANCH  12  24
BRANCH  11  26
HETATM   26  O4  UNL     1     -34.236  -9.394 -28.722  1.00  0.00    -0.390 OA
ATOM     27  H4  UNL     1     -34.567 -10.285 -28.731  1.00  0.00     0.210 HD
ENDBRANCH  11  26
BRANCH  10  28
HETATM   28  O2  UNL     1     -34.808  -9.885 -25.397  1.00  0.00    -0.314 OA
BRANCH  28  29
HETATM   29  C14 UNL     1     -35.408 -11.101 -25.257  1.00  0.00     0.255 C 
HETATM   30  C15 UNL     1     -35.772 -11.740 -23.970  1.00  0.00     0.126 C 
HETATM   31  O3  UNL     1     -35.683 -11.751 -26.298  1.00  0.00    -0.266 OA
ENDBRANCH  28  29
ENDBRANCH  10  28
TORSDOF 7
ENDMDL
MODEL 2
REMARK VINA RESULT: -7.054535819      2.558      6.893
REMARK  7 active torsions:
REMARK  status: ('A' for Active; 'I' for Inactive)
REMARK    1  A    between atoms: C2_2  and  C4_4 
REMARK    2  A    between atoms: C4_4  and  C5_5 
REMARK    3  A    between atoms: C13_14  and  O2_15 
REMARK    4  A    between atoms: O2_15  and  C14_16 
REMARK    5  A    between atoms: C16_19  and  O4_20 
REMARK    6  A    between atoms: C17_22  and  O5_23 
REMARK    7  A    between atoms: C21_28  and  C22_29 
ROOT
HETATM    1  C5  UNL     1     -31.203  -9.929 -24.407  1.00  0.00     0.198 C 
HETATM    2  O1  UNL     1     -32.167  -8.932 -24.023  1.00  0.00    -0.358 OA
HETATM    3  C6  UNL     1     -33.369  -8.860 -24.864  1.00  0.00     0.091 C 
HETATM    4  C7  UNL     1     -34.157  -7.690 -24.235  1.00  0.00     0.044 C 
HETATM    5  C8  UNL     1     -34.411  -7.237 -25.672  1.00  0.00     0.012 C 
HETATM    6  C9  UNL     1     -33.063  -7.895 -25.867  1.00  0.00     0.036 C 
HETATM    7  C10 UNL     1     -32.536  -8.091 -27.206  1.00  0.00    -0.001 C 
HETATM    8  C11 UNL     1     -33.435  -8.536 -28.281  1.00  0.00     0.019 C 
HETATM    9  C12 UNL     1     -31.995  -6.741 -27.744  1.00  0.00     0.048 C 
HETATM   10  C13 UNL     1     -31.137  -7.173 -28.908  1.00  0.00     0.164 C 
HETATM   11  C16 UNL     1     -30.546  -8.463 -28.442  1.00  0.00     0.182 C 
HETATM   12  C17 UNL     1     -31.197  -8.774 -27.108  1.00  0.00     0.094 C 
HETATM   13  C18 UNL     1     -31.218 -10.223 -26.908  1.00  0.00     0.049 C 
HETATM   14  C19 UNL     1     -31.591 -10.730 -25.558  1.00  0.00     0.033 C 
HETATM   15  C20 UNL     1     -33.029 -11.128 -25.585  1.00  0.00     0.045 C 
HETATM   16  C21 UNL     1     -33.923 -10.144 -24.779  1.00  0.00    -0.043 C 
ENDROOT
BRANCH   1  17
HETATM   17  C4  UNL     1     -30.189  -9.938 -23.677  1.00  0.00    -0.118 C 
BRANCH  17  18
HETATM   18  C2  UNL     1     -29.058  -9.948 -22.863  1.00  0.00    -0.028 C 
HETATM   19  C1  UNL     1     -29.198  -9.445 -21.612  1.00  0.00     0.027 C 
HETATM   20  C3  UNL     1     -27.713 -10.439 -23.175  1.00  0.00     0.056 C 
ENDBRANCH  17  18
ENDBRANCH   1  17
BRANCH  16  21
HETATM   21  C22 UNL     1     -35.255 -10.699 -24.928  1.00  0.00    -0.082 C 
HETATM   22  C23 UNL     1     -35.845 -11.645 -23.956  1.00  0.00     0.043 C 
HETATM   23  C24 UNL     1     -35.637 -11.176 -26.323  1.00  0.00     0.043 C 
ENDBRANCH  16  21
BRANCH  12  24
HETATM   24  O5  UNL     1     -30.422  -8.081 -26.169  1.00  0.00    -0.386 OA
ATOM     25  H5  UNL     1     -29.821  -8.698 -25.768  1.00  0.00     0.210 HD
ENDBRANCH  12  24
BRANCH  11  26
HETATM   26  O4  UNL     1     -30.654  -9.517 -29.324  1.00  0.00    -0.390 OA
ATOM     27  H4  UNL     1     -31.535  -9.844 -29.463  1.00  0.00     0.210 HD
ENDBRANCH  11  26
BRANCH  10  28
HETATM   28  O2  UNL     1     -30.163  -6.151 -29.097  1.00  0.00    -0.314 OA
BRANCH  28  29
HETATM   29  C14 UNL     1     -29.033  -6.451 -29.797  1.00  0.00     0.255 C 
HETATM   30  C15 UNL     1     -27.697  -6.710 -29.209  1.00  0.00     0.126 C 
HETATM   31  O3  UNL     1     -29.111  -6.519 -31.050  1.00  0.00    -0.266 OA
ENDBRANCH  28  29
ENDBRANCH  10  28
TORSDOF 7
ENDMDL
MODEL 3
REMARK VINA RESULT: -7.025442177      2.379      4.352
REMARK  7 active torsions:
REMARK  status: ('A' for Active; 'I' for Inactive)
REMARK    1  A    between atoms: C2_2  and  C4_4 
REMARK    2  A    between atoms: C4_4  and  C5_5 
REMARK    3  A    between atoms: C13_14  and  O2_15 
REMARK    4  A    between atoms: O2_15  and  C14_16 
REMARK    5  A    between atoms: C16_19  and  O4_20 
REMARK    6  A    between atoms: C17_22  and  O5_23 
REMARK    7  A    between atoms: C21_28  and  C22_29 
ROOT
HETATM    1  C5  UNL     1     -31.999  -7.052 -24.504  1.00  0.00     0.198 C 
HETATM    2  O1  UNL     1     -31.088  -7.388 -25.565  1.00  0.00    -0.358 OA
HETATM    3  C6  UNL     1     -31.715  -7.745 -26.846  1.00  0.00     0.091 C 
HETATM    4  C7  UNL     1     -30.501  -8.093 -27.735  1.00  0.00     0.044 C 
HETATM    5  C8  UNL     1     -31.331  -9.286 -28.205  1.00  0.00     0.012 C 
HETATM    6  C9  UNL     1     -31.875  -9.160 -26.799  1.00  0.00     0.036 C 
HETATM    7  C10 UNL     1     -33.026  -9.946 -26.391  1.00  0.00    -0.001 C 
HETATM    8  C11 UNL     1     -34.156 -10.111 -27.317  1.00  0.00     0.019 C 
HETATM    9  C12 UNL     1     -32.579 -11.406 -26.124  1.00  0.00     0.048 C 
HETATM   10  C13 UNL     1     -33.738 -11.965 -25.337  1.00  0.00     0.164 C 
HETATM   11  C16 UNL     1     -34.183 -10.805 -24.507  1.00  0.00     0.182 C 
HETATM   12  C17 UNL     1     -33.359  -9.615 -24.959  1.00  0.00     0.094 C 
HETATM   13  C18 UNL     1     -34.122  -8.387 -24.734  1.00  0.00     0.049 C 
HETATM   14  C19 UNL     1     -33.404  -7.090 -24.881  1.00  0.00     0.033 C 
HETATM   15  C20 UNL     1     -33.702  -6.538 -26.235  1.00  0.00     0.045 C 
HETATM   16  C21 UNL     1     -32.471  -6.614 -27.182  1.00  0.00    -0.043 C 
ENDROOT
BRANCH   1  17
HETATM   17  C4  UNL     1     -31.423  -6.777 -23.430  1.00  0.00    -0.118 C 
BRANCH  17  18
HETATM   18  C2  UNL     1     -30.779  -6.471 -22.232  1.00  0.00    -0.028 C 
HETATM   19  C1  UNL     1     -29.752  -7.277 -21.864  1.00  0.00     0.027 C 
HETATM   20  C3  UNL     1     -31.060  -5.377 -21.299  1.00  0.00     0.056 C 
ENDBRANCH  17  18
ENDBRANCH   1  17
BRANCH  16  21
HETATM   21  C22 UNL     1     -32.961  -6.038 -28.419  1.00  0.00    -0.082 C 
HETATM   22  C23 UNL     1     -33.550  -6.850 -29.506  1.00  0.00     0.043 C 
HETATM   23  C24 UNL     1     -32.083  -4.974 -29.064  1.00  0.00     0.043 C 
ENDBRANCH  16  21
BRANCH  12  24
HETATM   24  O5  UNL     1     -32.180  -9.699 -24.207  1.00  0.00    -0.386 OA
ATOM     25  H5  UNL     1     -31.490  -9.258 -24.688  1.00  0.00     0.210 HD
ENDBRANCH  12  24
BRANCH  11  26
HETATM   26  O4  UNL     1     -35.535 -10.537 -24.542  1.00  0.00    -0.390 OA
ATOM     27  H4  UNL     1     -35.877 -10.062 -23.793  1.00  0.00     0.210 HD
ENDBRANCH  11  26
BRANCH  10  28
HETATM   28  O2  UNL     1     -33.220 -13.039 -24.558  1.00  0.00    -0.314 OA
BRANCH  28  29
HETATM   29  C14 UNL     1     -33.094 -12.864 -23.212  1.00  0.00     0.255 C 
HETATM   30  C15 UNL     1     -34.088 -13.276 -22.192  1.00  0.00     0.126 C 
HETATM   31  O3  UNL     1     -32.052 -12.307 -22.780  1.00  0.00    -0.266 OA
ENDBRANCH  28  29
ENDBRANCH  10  28
TORSDOF 7
ENDMDL
MODEL 4
REMARK VINA RESULT: -7.000967882      2.292      4.853
REMARK  7 active torsions:
REMARK  status: ('A' for Active; 'I' for Inactive)
REMARK    1  A    between atoms: C2_2  and  C4_4 
REMARK    2  A    between atoms: C4_4  and  C5_5 
REMARK    3  A    between atoms: C13_14  and  O2_15 
REMARK    4  A    between atoms: O2_15  and  C14_16 
REMARK    5  A    between atoms: C16_19  and  O4_20 
REMARK    6  A    between atoms: C17_22  and  O5_23 
REMARK    7  A    between atoms: C21_28  and  C22_29 
ROOT
HETATM    1  C5  UNL     1     -30.324  -6.952 -27.214  1.00  0.00     0.198 C 
HETATM    2  O1  UNL     1     -31.649  -6.691 -27.713  1.00  0.00    -0.358 OA
HETATM    3  C6  UNL     1     -32.637  -6.294 -26.702  1.00  0.00     0.091 C 
HETATM    4  C7  UNL     1     -33.932  -6.142 -27.531  1.00  0.00     0.044 C 
HETATM    5  C8  UNL     1     -34.619  -6.880 -26.382  1.00  0.00     0.012 C 
HETATM    6  C9  UNL     1     -33.247  -7.512 -26.281  1.00  0.00     0.036 C 
HETATM    7  C10 UNL     1     -32.921  -8.366 -25.153  1.00  0.00    -0.001 C 
HETATM    8  C11 UNL     1     -33.362  -7.984 -23.804  1.00  0.00     0.019 C 
HETATM    9  C12 UNL     1     -33.583  -9.753 -25.355  1.00  0.00     0.048 C 
HETATM   10  C13 UNL     1     -32.838 -10.619 -24.369  1.00  0.00     0.164 C 
HETATM   11  C16 UNL     1     -31.448 -10.070 -24.409  1.00  0.00     0.182 C 
HETATM   12  C17 UNL     1     -31.499  -8.843 -25.299  1.00  0.00     0.094 C 
HETATM   13  C18 UNL     1     -30.452  -7.907 -24.888  1.00  0.00     0.049 C 
HETATM   14  C19 UNL     1     -30.170  -6.749 -25.781  1.00  0.00     0.033 C 
HETATM   15  C20 UNL     1     -30.878  -5.553 -25.241  1.00  0.00     0.045 C 
HETATM   16  C21 UNL     1     -32.090  -5.141 -26.124  1.00  0.00    -0.043 C 
ENDROOT
BRANCH   1  17
HETATM   17  C4  UNL     1     -29.525  -7.306 -28.106  1.00  0.00    -0.118 C 
BRANCH  17  18
HETATM   18  C2  UNL     1     -28.633  -7.703 -29.101  1.00  0.00    -0.028 C 
HETATM   19  C1  UNL     1     -27.627  -6.844 -29.401  1.00  0.00     0.027 C 
HETATM   20  C3  UNL     1     -28.627  -8.944 -29.881  1.00  0.00     0.056 C 
ENDBRANCH  17  18
ENDBRANCH   1  17
BRANCH  16  21
HETATM   21  C22 UNL     1     -32.629  -3.982 -25.438  1.00  0.00    -0.082 C 
HETATM   22  C23 UNL     1     -32.704  -2.643 -26.061  1.00  0.00     0.043 C 
HETATM   23  C24 UNL     1     -32.198  -3.792 -23.990  1.00  0.00     0.043 C 
ENDBRANCH  16  21
BRANCH  12  24
HETATM   24  O5  UNL     1     -31.338  -9.343 -26.597  1.00  0.00    -0.386 OA
ATOM     25  H5  UNL     1     -30.467  -9.718 -26.663  1.00  0.00     0.210 HD
ENDBRANCH  12  24
BRANCH  11  26
HETATM   26  O4  UNL     1     -30.886  -9.793 -23.181  1.00  0.00    -0.390 OA
ATOM     27  H4  UNL     1     -29.972 -10.035 -23.087  1.00  0.00     0.210 HD
ENDBRANCH  11  26
BRANCH  10  28
HETATM   28  O2  UNL     1     -32.922 -11.954 -24.855  1.00  0.00    -0.314 OA
BRANCH  28  29
HETATM   29  C14 UNL     1     -32.859 -12.978 -23.958  1.00  0.00     0.255 C 
HETATM   30  C15 UNL     1     -32.683 -14.411 -24.295  1.00  0.00     0.126 C 
HETATM   31  O3  UNL     1     -32.959 -12.703 -22.735  1.00  0.00    -0.266 OA
ENDBRANCH  28  29
ENDBRANCH  10  28
TORSDOF 7
ENDMDL
MODEL 5
REMARK VINA RESULT: -6.960273083      2.471      6.689
REMARK  7 active torsions:
REMARK  status: ('A' for Active; 'I' for Inactive)
REMARK    1  A    between atoms: C2_2  and  C4_4 
REMARK    2  A    between atoms: C4_4  and  C5_5 
REMARK    3  A    between atoms: C13_14  and  O2_15 
REMARK    4  A    between atoms: O2_15  and  C14_16 
REMARK    5  A    between atoms: C16_19  and  O4_20 
REMARK    6  A    between atoms: C17_22  and  O5_23 
REMARK    7  A    between atoms: C21_28  and  C22_29 
ROOT
HETATM    1  C5  UNL     1     -31.461  -9.265 -25.162  1.00  0.00     0.198 C 
HETATM    2  O1  UNL     1     -32.538  -8.328 -24.979  1.00  0.00    -0.358 OA
HETATM    3  C6  UNL     1     -33.609  -8.394 -25.982  1.00  0.00     0.091 C 
HETATM    4  C7  UNL     1     -34.558  -7.258 -25.543  1.00  0.00     0.044 C 
HETATM    5  C8  UNL     1     -34.636  -6.902 -27.027  1.00  0.00     0.012 C 
HETATM    6  C9  UNL     1     -33.230  -7.462 -26.992  1.00  0.00     0.036 C 
HETATM    7  C10 UNL     1     -32.505  -7.686 -28.229  1.00  0.00    -0.001 C 
HETATM    8  C11 UNL     1     -33.208  -8.256 -29.388  1.00  0.00     0.019 C 
HETATM    9  C12 UNL     1     -31.988  -6.328 -28.770  1.00  0.00     0.048 C 
HETATM   10  C13 UNL     1     -30.944  -6.752 -29.775  1.00  0.00     0.164 C 
HETATM   11  C16 UNL     1     -30.337  -7.966 -29.150  1.00  0.00     0.182 C 
HETATM   12  C17 UNL     1     -31.149  -8.257 -27.903  1.00  0.00     0.094 C 
HETATM   13  C18 UNL     1     -31.097  -9.691 -27.618  1.00  0.00     0.049 C 
HETATM   14  C19 UNL     1     -31.624 -10.154 -26.303  1.00  0.00     0.033 C 
HETATM   15  C20 UNL     1     -33.012 -10.663 -26.505  1.00  0.00     0.045 C 
HETATM   16  C21 UNL     1     -34.079  -9.711 -25.894  1.00  0.00    -0.043 C 
ENDROOT
BRANCH   1  17
HETATM   17  C4  UNL     1     -30.564  -9.158 -24.300  1.00  0.00    -0.118 C 
BRANCH  17  18
HETATM   18  C2  UNL     1     -29.564  -9.037 -23.336  1.00  0.00    -0.028 C 
HETATM   19  C1  UNL     1     -29.702  -8.038 -22.430  1.00  0.00     0.027 C 
HETATM   20  C3  UNL     1     -28.362  -9.857 -23.161  1.00  0.00     0.056 C 
ENDBRANCH  17  18
ENDBRANCH   1  17
BRANCH  16  21
HETATM   21  C22 UNL     1     -35.333 -10.376 -26.191  1.00  0.00    -0.082 C 
HETATM   22  C23 UNL     1     -35.882 -11.467 -25.358  1.00  0.00     0.043 C 
HETATM   23  C24 UNL     1     -35.573 -10.746 -27.649  1.00  0.00     0.043 C 
ENDBRANCH  16  21
BRANCH  12  24
HETATM   24  O5  UNL     1     -30.567  -7.457 -26.911  1.00  0.00    -0.386 OA
ATOM     25  H5  UNL     1     -30.564  -7.949 -26.099  1.00  0.00     0.210 HD
ENDBRANCH  12  24
BRANCH  11  26
HETATM   26  O4  UNL     1     -30.244  -9.070 -29.972  1.00  0.00    -0.390 OA
ATOM     27  H4  UNL     1     -30.706  -9.843 -29.670  1.00  0.00     0.210 HD
ENDBRANCH  11  26
BRANCH  10  28
HETATM   28  O2  UNL     1     -30.027  -5.669 -29.890  1.00  0.00    -0.314 OA
BRANCH  28  29
HETATM   29  C14 UNL     1     -28.856  -5.876 -30.557  1.00  0.00     0.255 C 
HETATM   30  C15 UNL     1     -27.501  -5.808 -29.961  1.00  0.00     0.126 C 
HETATM   31  O3  UNL     1     -28.912  -6.148 -31.783  1.00  0.00    -0.266 OA
ENDBRANCH  28  29
ENDBRANCH  10  28
TORSDOF 7
ENDMDL
