MODEL 1
REMARK VINA RESULT: -7.320536602      0.000      0.000
REMARK  6 active torsions:
REMARK  status: ('A' for Active; 'I' for Inactive)
REMARK    1  A    between atoms: C2_2  and  O2_4 
REMARK    2  A    between atoms: O2_4  and  C3_5 
REMARK    3  A    between atoms: C3_5  and  C6_8 
REMARK    4  A    between atoms: C7_9  and  C8_10 
REMARK    5  A    between atoms: C10_12  and  O3_13 
REMARK    6  A    between atoms: C15_19  and  O4_20 
ROOT
HETATM    1  C8  UNL     1     -32.149  -8.481 -26.803  1.00  0.00     0.034 C 
HETATM    2  C9  UNL     1     -31.250  -8.443 -28.025  1.00  0.00     0.025 C 
HETATM    3  C10 UNL     1     -33.444  -9.085 -27.195  1.00  0.00     0.164 C 
HETATM    4  C11 UNL     1     -33.940 -10.147 -26.356  1.00  0.00    -0.019 C 
HETATM    5  C12 UNL     1     -34.293 -11.372 -26.653  1.00  0.00    -0.013 C 
HETATM    6  C13 UNL     1     -34.749 -12.115 -25.425  1.00  0.00     0.020 C 
HETATM    7  C14 UNL     1     -35.384 -10.881 -24.751  1.00  0.00     0.052 C 
HETATM    8  C15 UNL     1     -34.078 -10.105 -24.862  1.00  0.00     0.090 C 
HETATM    9  C16 UNL     1     -32.944 -11.074 -24.558  1.00  0.00     0.061 C 
HETATM   10  C17 UNL     1     -31.978 -10.406 -23.748  1.00  0.00     0.281 C 
HETATM   11  N1  UNL     1     -31.725  -9.124 -24.397  1.00  0.00     0.094 N 
HETATM   12  C18 UNL     1     -30.780  -8.449 -23.531  1.00  0.00     0.273 C 
HETATM   13  C19 UNL     1     -29.487  -8.618 -24.342  1.00  0.00     0.032 C 
HETATM   14  C20 UNL     1     -30.036  -8.228 -25.698  1.00  0.00     0.038 C 
HETATM   15  C21 UNL     1     -31.340  -9.074 -25.715  1.00  0.00     0.237 C 
HETATM   16  C22 UNL     1     -33.666 -12.313 -24.374  1.00  0.00    -0.032 C 
HETATM   17  C23 UNL     1     -32.924 -13.572 -24.765  1.00  0.00     0.016 C 
HETATM   18  C24 UNL     1     -34.245 -12.551 -23.010  1.00  0.00     0.016 C 
ENDROOT
BRANCH   1  19
HETATM   19  C7  UNL     1     -32.418  -7.053 -26.495  1.00  0.00    -0.013 C 
HETATM   20  C6  UNL     1     -31.983  -6.070 -27.271  1.00  0.00     0.007 C 
BRANCH  20  21
HETATM   21  C3  UNL     1     -32.248  -4.657 -26.967  1.00  0.00     0.081 C 
HETATM   22  C4  UNL     1     -31.013  -4.061 -26.326  1.00  0.00     0.051 C 
HETATM   23  C5  UNL     1     -32.462  -3.934 -28.279  1.00  0.00     0.051 C 
BRANCH  21  24
HETATM   24  O2  UNL     1     -33.323  -4.484 -26.081  1.00  0.00    -0.307 OA
BRANCH  24  25
HETATM   25  C2  UNL     1     -34.610  -4.181 -26.541  1.00  0.00     0.255 C 
HETATM   26  C1  UNL     1     -35.126  -2.804 -26.442  1.00  0.00     0.126 C 
HETATM   27  O1  UNL     1     -35.271  -5.124 -27.024  1.00  0.00    -0.266 OA
ENDBRANCH  24  25
ENDBRANCH  21  24
ENDBRANCH  20  21
ENDBRANCH   1  19
BRANCH   3  28
HETATM   28  O3  UNL     1     -34.453  -8.122 -27.240  1.00  0.00    -0.390 OA
ATOM     29  H3  UNL     1     -35.311  -8.521 -27.154  1.00  0.00     0.210 HD
ENDBRANCH   3  28
BRANCH   8  30
HETATM   30  O4  UNL     1     -34.093  -8.922 -24.268  1.00  0.00    -0.385 OA
ATOM     31  H4  UNL     1     -33.273  -8.573 -23.940  1.00  0.00     0.211 HD
ENDBRANCH   8  30
TORSDOF 6
ENDMDL
MODEL 2
REMARK VINA RESULT: -7.148225634      1.778      6.772
REMARK  6 active torsions:
REMARK  status: ('A' for Active; 'I' for Inactive)
REMARK    1  A    between atoms: C2_2  and  O2_4 
REMARK    2  A    between atoms: O2_4  and  C3_5 
REMARK    3  A    between atoms: C3_5  and  C6_8 
REMARK    4  A    between atoms: C7_9  and  C8_10 
REMARK    5  A    between atoms: C10_12  and  O3_13 
REMARK    6  A    between atoms: C15_19  and  O4_20 
ROOT
HETATM    1  C8  UNL     1     -32.411  -8.396 -25.445  1.00  0.00     0.034 C 
HETATM    2  C9  UNL     1     -31.302  -9.102 -24.687  1.00  0.00     0.025 C 
HETATM    3  C10 UNL     1     -32.997  -7.362 -24.560  1.00  0.00     0.164 C 
HETATM    4  C11 UNL     1     -33.137  -6.040 -25.117  1.00  0.00    -0.019 C 
HETATM    5  C12 UNL     1     -32.694  -4.885 -24.690  1.00  0.00    -0.013 C 
HETATM    6  C13 UNL     1     -33.097  -3.774 -25.624  1.00  0.00     0.020 C 
HETATM    7  C14 UNL     1     -34.455  -4.402 -26.000  1.00  0.00     0.052 C 
HETATM    8  C15 UNL     1     -33.776  -5.696 -26.431  1.00  0.00     0.090 C 
HETATM    9  C16 UNL     1     -32.491  -5.318 -27.153  1.00  0.00     0.061 C 
HETATM   10  C17 UNL     1     -32.341  -6.168 -28.290  1.00  0.00     0.281 C 
HETATM   11  N1  UNL     1     -32.569  -7.527 -27.812  1.00  0.00     0.094 N 
HETATM   12  C18 UNL     1     -32.458  -8.360 -28.991  1.00  0.00     0.273 C 
HETATM   13  C19 UNL     1     -31.072  -8.982 -28.766  1.00  0.00     0.032 C 
HETATM   14  C20 UNL     1     -31.242  -9.353 -27.308  1.00  0.00     0.038 C 
HETATM   15  C21 UNL     1     -31.841  -8.027 -26.759  1.00  0.00     0.237 C 
HETATM   16  C22 UNL     1     -32.497  -3.879 -27.018  1.00  0.00    -0.032 C 
HETATM   17  C23 UNL     1     -31.137  -3.220 -26.944  1.00  0.00     0.016 C 
HETATM   18  C24 UNL     1     -33.299  -3.118 -28.033  1.00  0.00     0.016 C 
ENDROOT
BRANCH   1  19
HETATM   19  C7  UNL     1     -33.452  -9.437 -25.635  1.00  0.00    -0.013 C 
HETATM   20  C6  UNL     1     -33.432 -10.586 -24.972  1.00  0.00     0.007 C 
BRANCH  20  21
HETATM   21  C3  UNL     1     -34.462 -11.617 -25.161  1.00  0.00     0.081 C 
HETATM   22  C4  UNL     1     -35.673 -11.248 -24.334  1.00  0.00     0.051 C 
HETATM   23  C5  UNL     1     -34.887 -11.585 -26.613  1.00  0.00     0.051 C 
BRANCH  21  24
HETATM   24  O2  UNL     1     -34.032 -12.892 -24.759  1.00  0.00    -0.307 OA
BRANCH  24  25
HETATM   25  C2  UNL     1     -32.923 -13.062 -23.923  1.00  0.00     0.255 C 
HETATM   26  C1  UNL     1     -31.630 -13.493 -24.486  1.00  0.00     0.126 C 
HETATM   27  O1  UNL     1     -33.095 -12.833 -22.708  1.00  0.00    -0.266 OA
ENDBRANCH  24  25
ENDBRANCH  21  24
ENDBRANCH  20  21
ENDBRANCH   1  19
BRANCH   3  28
HETATM   28  O3  UNL     1     -34.269  -7.737 -24.125  1.00  0.00    -0.390 OA
ATOM     29  H3  UNL     1     -34.312  -7.761 -23.176  1.00  0.00     0.210 HD
ENDBRANCH   3  28
BRANCH   8  30
HETATM   30  O4  UNL     1     -34.590  -6.582 -26.982  1.00  0.00    -0.385 OA
ATOM     31  H4  UNL     1     -35.490  -6.613 -26.681  1.00  0.00     0.211 HD
ENDBRANCH   8  30
TORSDOF 6
ENDMDL
MODEL 3
REMARK VINA RESULT: -7.142048987      0.919      1.313
REMARK  6 active torsions:
REMARK  status: ('A' for Active; 'I' for Inactive)
REMARK    1  A    between atoms: C2_2  and  O2_4 
REMARK    2  A    between atoms: O2_4  and  C3_5 
REMARK    3  A    between atoms: C3_5  and  C6_8 
REMARK    4  A    between atoms: C7_9  and  C8_10 
REMARK    5  A    between atoms: C10_12  and  O3_13 
REMARK    6  A    between atoms: C15_19  and  O4_20 
ROOT
HETATM    1  C8  UNL     1     -32.508  -8.491 -26.904  1.00  0.00     0.034 C 
HETATM    2  C9  UNL     1     -31.708  -8.382 -28.189  1.00  0.00     0.025 C 
HETATM    3  C10 UNL     1     -33.753  -9.242 -27.192  1.00  0.00     0.164 C 
HETATM    4  C11 UNL     1     -34.067 -10.333 -26.303  1.00  0.00    -0.019 C 
HETATM    5  C12 UNL     1     -34.302 -11.596 -26.556  1.00  0.00    -0.013 C 
HETATM    6  C13 UNL     1     -34.584 -12.355 -25.286  1.00  0.00     0.020 C 
HETATM    7  C14 UNL     1     -35.303 -11.183 -24.586  1.00  0.00     0.052 C 
HETATM    8  C15 UNL     1     -34.102 -10.272 -24.804  1.00  0.00     0.090 C 
HETATM    9  C16 UNL     1     -32.850 -11.103 -24.568  1.00  0.00     0.061 C 
HETATM   10  C17 UNL     1     -31.909 -10.314 -23.841  1.00  0.00     0.281 C 
HETATM   11  N1  UNL     1     -31.846  -9.027 -24.526  1.00  0.00     0.094 N 
HETATM   12  C18 UNL     1     -30.923  -8.233 -23.742  1.00  0.00     0.273 C 
HETATM   13  C19 UNL     1     -29.680  -8.278 -24.641  1.00  0.00     0.032 C 
HETATM   14  C20 UNL     1     -30.363  -7.982 -25.960  1.00  0.00     0.038 C 
HETATM   15  C21 UNL     1     -31.564  -8.966 -25.869  1.00  0.00     0.237 C 
HETATM   16  C22 UNL     1     -33.415 -12.409 -24.314  1.00  0.00    -0.032 C 
HETATM   17  C23 UNL     1     -32.566 -13.587 -24.739  1.00  0.00     0.016 C 
HETATM   18  C24 UNL     1     -33.866 -12.678 -22.908  1.00  0.00     0.016 C 
ENDROOT
BRANCH   1  19
HETATM   19  C7  UNL     1     -32.911  -7.094 -26.599  1.00  0.00    -0.013 C 
HETATM   20  C6  UNL     1     -32.465  -6.062 -27.301  1.00  0.00     0.007 C 
BRANCH  20  21
HETATM   21  C3  UNL     1     -32.862  -4.679 -26.998  1.00  0.00     0.081 C 
HETATM   22  C4  UNL     1     -32.639  -3.832 -28.232  1.00  0.00     0.051 C 
HETATM   23  C5  UNL     1     -34.349  -4.677 -26.719  1.00  0.00     0.051 C 
BRANCH  21  24
HETATM   24  O2  UNL     1     -32.121  -4.119 -25.946  1.00  0.00    -0.307 OA
BRANCH  24  25
HETATM   25  C2  UNL     1     -32.664  -3.972 -24.664  1.00  0.00     0.255 C 
HETATM   26  C1  UNL     1     -33.265  -2.688 -24.258  1.00  0.00     0.126 C 
HETATM   27  O1  UNL     1     -32.609  -4.966 -23.912  1.00  0.00    -0.266 OA
ENDBRANCH  24  25
ENDBRANCH  21  24
ENDBRANCH  20  21
ENDBRANCH   1  19
BRANCH   3  28
HETATM   28  O3  UNL     1     -34.862  -8.397 -27.177  1.00  0.00    -0.390 OA
ATOM     29  H3  UNL     1     -35.655  -8.869 -27.405  1.00  0.00     0.210 HD
ENDBRANCH   3  28
BRANCH   8  30
HETATM   30  O4  UNL     1     -34.207  -9.084 -24.228  1.00  0.00    -0.385 OA
ATOM     31  H4  UNL     1     -34.130  -9.035 -23.283  1.00  0.00     0.211 HD
ENDBRANCH   8  30
TORSDOF 6
ENDMDL
MODEL 4
REMARK VINA RESULT: -7.108125324      2.190      6.392
REMARK  6 active torsions:
REMARK  status: ('A' for Active; 'I' for Inactive)
REMARK    1  A    between atoms: C2_2  and  O2_4 
REMARK    2  A    between atoms: O2_4  and  C3_5 
REMARK    3  A    between atoms: C3_5  and  C6_8 
REMARK    4  A    between atoms: C7_9  and  C8_10 
REMARK    5  A    between atoms: C10_12  and  O3_13 
REMARK    6  A    between atoms: C15_19  and  O4_20 
ROOT
HETATM    1  C8  UNL     1     -33.250  -8.066 -26.135  1.00  0.00     0.034 C 
HETATM    2  C9  UNL     1     -34.345  -7.295 -25.418  1.00  0.00     0.025 C 
HETATM    3  C10 UNL     1     -33.391  -7.829 -27.591  1.00  0.00     0.164 C 
HETATM    4  C11 UNL     1     -32.197  -7.438 -28.298  1.00  0.00    -0.019 C 
HETATM    5  C12 UNL     1     -31.958  -6.397 -29.054  1.00  0.00    -0.013 C 
HETATM    6  C13 UNL     1     -30.546  -6.423 -29.576  1.00  0.00     0.020 C 
HETATM    7  C14 UNL     1     -30.479  -7.959 -29.704  1.00  0.00     0.052 C 
HETATM    8  C15 UNL     1     -30.867  -8.131 -28.241  1.00  0.00     0.090 C 
HETATM    9  C16 UNL     1     -30.144  -7.052 -27.447  1.00  0.00     0.061 C 
HETATM   10  C17 UNL     1     -29.664  -7.626 -26.232  1.00  0.00     0.281 C 
HETATM   11  N1  UNL     1     -30.787  -8.362 -25.661  1.00  0.00     0.094 N 
HETATM   12  C18 UNL     1     -30.260  -8.970 -24.457  1.00  0.00     0.273 C 
HETATM   13  C19 UNL     1     -30.881  -8.060 -23.388  1.00  0.00     0.032 C 
HETATM   14  C20 UNL     1     -32.291  -8.021 -23.937  1.00  0.00     0.038 C 
HETATM   15  C21 UNL     1     -31.989  -7.736 -25.436  1.00  0.00     0.237 C 
HETATM   16  C22 UNL     1     -29.476  -6.320 -28.499  1.00  0.00    -0.032 C 
HETATM   17  C23 UNL     1     -29.273  -4.843 -28.245  1.00  0.00     0.016 C 
HETATM   18  C24 UNL     1     -28.159  -6.871 -28.961  1.00  0.00     0.016 C 
ENDROOT
BRANCH   1  19
HETATM   19  C7  UNL     1     -33.586  -9.493 -25.898  1.00  0.00    -0.013 C 
HETATM   20  C6  UNL     1     -34.476  -9.868 -24.990  1.00  0.00     0.007 C 
BRANCH  20  21
HETATM   21  C3  UNL     1     -34.808 -11.280 -24.754  1.00  0.00     0.081 C 
HETATM   22  C4  UNL     1     -36.309 -11.409 -24.624  1.00  0.00     0.051 C 
HETATM   23  C5  UNL     1     -34.398 -12.062 -25.984  1.00  0.00     0.051 C 
BRANCH  21  24
HETATM   24  O2  UNL     1     -34.223 -11.786 -23.582  1.00  0.00    -0.307 OA
BRANCH  24  25
HETATM   25  C2  UNL     1     -32.992 -12.452 -23.605  1.00  0.00     0.255 C 
HETATM   26  C1  UNL     1     -32.940 -13.903 -23.858  1.00  0.00     0.126 C 
HETATM   27  O1  UNL     1     -31.974 -11.758 -23.402  1.00  0.00    -0.266 OA
ENDBRANCH  24  25
ENDBRANCH  21  24
ENDBRANCH  20  21
ENDBRANCH   1  19
BRANCH   3  28
HETATM   28  O3  UNL     1     -33.871  -8.967 -28.239  1.00  0.00    -0.390 OA
ATOM     29  H3  UNL     1     -33.281  -9.702 -28.122  1.00  0.00     0.210 HD
ENDBRANCH   3  28
BRANCH   8  30
HETATM   30  O4  UNL     1     -30.831  -9.383 -27.811  1.00  0.00    -0.385 OA
ATOM     31  H4  UNL     1     -30.084  -9.919 -28.050  1.00  0.00     0.211 HD
ENDBRANCH   8  30
TORSDOF 6
ENDMDL
MODEL 5
REMARK VINA RESULT: -7.014823587      2.191      6.411
REMARK  6 active torsions:
REMARK  status: ('A' for Active; 'I' for Inactive)
REMARK    1  A    between atoms: C2_2  and  O2_4 
REMARK    2  A    between atoms: O2_4  and  C3_5 
REMARK    3  A    between atoms: C3_5  and  C6_8 
REMARK    4  A    between atoms: C7_9  and  C8_10 
REMARK    5  A    between atoms: C10_12  and  O3_13 
REMARK    6  A    between atoms: C15_19  and  O4_20 
ROOT
HETATM    1  C8  UNL     1     -33.307  -8.088 -26.164  1.00  0.00     0.034 C 
HETATM    2  C9  UNL     1     -34.373  -7.273 -25.454  1.00  0.00     0.025 C 
HETATM    3  C10 UNL     1     -33.377  -7.786 -27.612  1.00  0.00     0.164 C 
HETATM    4  C11 UNL     1     -32.134  -7.450 -28.262  1.00  0.00    -0.019 C 
HETATM    5  C12 UNL     1     -31.798  -6.399 -28.965  1.00  0.00    -0.013 C 
HETATM    6  C13 UNL     1     -30.373  -6.501 -29.439  1.00  0.00     0.020 C 
HETATM    7  C14 UNL     1     -30.404  -8.032 -29.628  1.00  0.00     0.052 C 
HETATM    8  C15 UNL     1     -30.857  -8.235 -28.188  1.00  0.00     0.090 C 
HETATM    9  C16 UNL     1     -30.094  -7.239 -27.325  1.00  0.00     0.061 C 
HETATM   10  C17 UNL     1     -29.698  -7.892 -26.119  1.00  0.00     0.281 C 
HETATM   11  N1  UNL     1     -30.889  -8.571 -25.618  1.00  0.00     0.094 N 
HETATM   12  C18 UNL     1     -30.448  -9.260 -24.423  1.00  0.00     0.273 C 
HETATM   13  C19 UNL     1     -31.046  -8.352 -23.339  1.00  0.00     0.032 C 
HETATM   14  C20 UNL     1     -32.429  -8.195 -23.934  1.00  0.00     0.038 C 
HETATM   15  C21 UNL     1     -32.054  -7.873 -25.409  1.00  0.00     0.237 C 
HETATM   16  C22 UNL     1     -29.339  -6.514 -28.322  1.00  0.00    -0.032 C 
HETATM   17  C23 UNL     1     -29.047  -5.065 -28.001  1.00  0.00     0.016 C 
HETATM   18  C24 UNL     1     -28.046  -7.135 -28.761  1.00  0.00     0.016 C 
ENDROOT
BRANCH   1  19
HETATM   19  C7  UNL     1     -33.746  -9.497 -25.998  1.00  0.00    -0.013 C 
HETATM   20  C6  UNL     1     -34.605  -9.863 -25.056  1.00  0.00     0.007 C 
BRANCH  20  21
HETATM   21  C3  UNL     1     -35.038 -11.258 -24.891  1.00  0.00     0.081 C 
HETATM   22  C4  UNL     1     -36.246 -11.496 -25.770  1.00  0.00     0.051 C 
HETATM   23  C5  UNL     1     -33.930 -12.150 -25.405  1.00  0.00     0.051 C 
BRANCH  21  24
HETATM   24  O2  UNL     1     -35.397 -11.561 -23.568  1.00  0.00    -0.307 OA
BRANCH  24  25
HETATM   25  C2  UNL     1     -35.244 -12.850 -23.044  1.00  0.00     0.255 C 
HETATM   26  C1  UNL     1     -33.988 -13.232 -22.371  1.00  0.00     0.126 C 
HETATM   27  O1  UNL     1     -36.209 -13.631 -23.179  1.00  0.00    -0.266 OA
ENDBRANCH  24  25
ENDBRANCH  21  24
ENDBRANCH  20  21
ENDBRANCH   1  19
BRANCH   3  28
HETATM   28  O3  UNL     1     -33.909  -8.862 -28.324  1.00  0.00    -0.390 OA
ATOM     29  H3  UNL     1     -33.998  -8.651 -29.246  1.00  0.00     0.210 HD
ENDBRANCH   3  28
BRANCH   8  30
HETATM   30  O4  UNL     1     -30.921  -9.502 -27.809  1.00  0.00    -0.385 OA
ATOM     31  H4  UNL     1     -31.748  -9.958 -27.905  1.00  0.00     0.211 HD
ENDBRANCH   8  30
TORSDOF 6
ENDMDL
