MODEL 1
REMARK VINA RESULT: -8.440649951      0.000      0.000
REMARK  6 active torsions:
REMARK  status: ('A' for Active; 'I' for Inactive)
REMARK    1  A    between atoms: O1_2  and  C2_3 
REMARK       I    between atoms: C2_3  and  N1_5 
REMARK    2  A    between atoms: N1_5  and  C3_7 
REMARK    3  A    between atoms: C6_10  and  C7_11 
REMARK    4  A    between atoms: C7_11  and  N2_12 
REMARK    5  A    between atoms: C10_15  and  O3_16 
REMARK    6  A    between atoms: C13_20  and  C14_21 
ROOT
HETATM    1  N2  UNL     1       5.575  17.916 -46.712  1.00  0.00     0.096 N 
HETATM    2  C8  UNL     1       4.525  18.913 -46.821  1.00  0.00     0.276 C 
HETATM    3  C9  UNL     1       3.973  19.019 -45.388  1.00  0.00     0.070 C 
HETATM    4  C10 UNL     1       4.392  17.734 -44.730  1.00  0.00     0.090 C 
HETATM    5  C11 UNL     1       3.222  16.919 -44.214  1.00  0.00     0.040 C 
HETATM    6  C12 UNL     1       3.318  15.480 -44.547  1.00  0.00     0.008 C 
HETATM    7  C13 UNL     1       4.702  14.909 -44.645  1.00  0.00    -0.009 C 
HETATM    8  C17 UNL     1       5.646  15.738 -45.497  1.00  0.00     0.044 C 
HETATM    9  C18 UNL     1       4.936  16.953 -45.903  1.00  0.00     0.257 C 
ENDROOT
BRANCH   1  10
HETATM   10  C7  UNL     1       6.758  18.521 -46.226  1.00  0.00     0.277 C 
BRANCH  10  11
HETATM   11  C6  UNL     1       7.862  18.461 -47.257  1.00  0.00     0.014 C 
HETATM   12  C5  UNL     1       7.608  19.358 -48.442  1.00  0.00     0.008 C 
HETATM   13  C4  UNL     1       8.453  18.889 -49.589  1.00  0.00     0.026 C 
HETATM   14  C3  UNL     1       9.699  18.142 -49.169  1.00  0.00     0.086 C 
HETATM   15  C20 UNL     1       9.371  16.900 -48.375  1.00  0.00     0.026 C 
HETATM   16  C19 UNL     1       7.980  17.044 -47.835  1.00  0.00     0.008 C 
BRANCH  14  17
HETATM   17  N1  UNL     1      10.350  17.709 -50.380  1.00  0.00    -0.332 N 
HETATM   18  C2  UNL     1      11.503  18.375 -50.871  1.00  0.00     0.360 C 
HETATM   19  O2  UNL     1      11.968  19.358 -50.245  1.00  0.00    -0.239 OA
ATOM     20  H1  UNL     1       9.976  16.910 -50.893  1.00  0.00     0.165 HD
BRANCH  18  21
HETATM   21  O1  UNL     1      12.141  17.974 -52.032  1.00  0.00    -0.309 OA
HETATM   22  C1  UNL     1      12.876  16.785 -52.032  1.00  0.00     0.215 C 
ENDBRANCH  18  21
ENDBRANCH  14  17
ENDBRANCH  10  11
ENDBRANCH   1  10
BRANCH   4  23
HETATM   23  O3  UNL     1       5.256  17.905 -43.687  1.00  0.00    -0.388 OA
ATOM     24  H3  UNL     1       4.988  17.463 -42.890  1.00  0.00     0.210 HD
ENDBRANCH   4  23
BRANCH   7  25
HETATM   25  C14 UNL     1       4.525  13.499 -45.194  1.00  0.00    -0.019 C 
HETATM   26  C15 UNL     1       5.293  13.256 -46.453  1.00  0.00     0.010 C 
HETATM   27  C16 UNL     1       3.076  13.106 -45.299  1.00  0.00     0.010 C 
ENDBRANCH   7  25
TORSDOF 6
ENDMDL
MODEL 2
REMARK VINA RESULT: -8.322959271      1.195      1.220
REMARK  6 active torsions:
REMARK  status: ('A' for Active; 'I' for Inactive)
REMARK    1  A    between atoms: O1_2  and  C2_3 
REMARK       I    between atoms: C2_3  and  N1_5 
REMARK    2  A    between atoms: N1_5  and  C3_7 
REMARK    3  A    between atoms: C6_10  and  C7_11 
REMARK    4  A    between atoms: C7_11  and  N2_12 
REMARK    5  A    between atoms: C10_15  and  O3_16 
REMARK    6  A    between atoms: C13_20  and  C14_21 
ROOT
HETATM    1  N2  UNL     1       5.988  17.750 -46.861  1.00  0.00     0.096 N 
HETATM    2  C8  UNL     1       5.018  18.823 -46.981  1.00  0.00     0.276 C 
HETATM    3  C9  UNL     1       4.473  18.984 -45.550  1.00  0.00     0.070 C 
HETATM    4  C10 UNL     1       4.791  17.676 -44.880  1.00  0.00     0.090 C 
HETATM    5  C11 UNL     1       3.561  16.958 -44.360  1.00  0.00     0.040 C 
HETATM    6  C12 UNL     1       3.547  15.513 -44.680  1.00  0.00     0.008 C 
HETATM    7  C13 UNL     1       4.883  14.837 -44.770  1.00  0.00    -0.009 C 
HETATM    8  C17 UNL     1       5.890  15.584 -45.626  1.00  0.00     0.044 C 
HETATM    9  C18 UNL     1       5.275  16.846 -46.045  1.00  0.00     0.257 C 
ENDROOT
BRANCH   1  10
HETATM   10  C7  UNL     1       7.213  18.267 -46.377  1.00  0.00     0.277 C 
BRANCH  10  11
HETATM   11  C6  UNL     1       8.374  17.789 -47.218  1.00  0.00     0.014 C 
HETATM   12  C5  UNL     1       9.385  18.873 -47.494  1.00  0.00     0.008 C 
HETATM   13  C4  UNL     1      10.203  18.475 -48.686  1.00  0.00     0.026 C 
HETATM   14  C3  UNL     1      10.276  16.981 -48.911  1.00  0.00     0.086 C 
HETATM   15  C20 UNL     1       8.910  16.377 -49.138  1.00  0.00     0.026 C 
HETATM   16  C19 UNL     1       7.884  17.327 -48.597  1.00  0.00     0.008 C 
BRANCH  14  17
HETATM   17  N1  UNL     1      11.033  16.780 -50.121  1.00  0.00    -0.332 N 
HETATM   18  C2  UNL     1      12.421  16.485 -50.077  1.00  0.00     0.360 C 
HETATM   19  O2  UNL     1      13.004  16.397 -48.970  1.00  0.00    -0.239 OA
ATOM     20  H1  UNL     1      10.563  16.851 -51.023  1.00  0.00     0.165 HD
BRANCH  18  21
HETATM   21  O1  UNL     1      13.164  16.290 -51.228  1.00  0.00    -0.309 OA
HETATM   22  C1  UNL     1      12.933  17.109 -52.337  1.00  0.00     0.215 C 
ENDBRANCH  18  21
ENDBRANCH  14  17
ENDBRANCH  10  11
ENDBRANCH   1  10
BRANCH   4  23
HETATM   23  O3  UNL     1       5.664  17.790 -43.836  1.00  0.00    -0.388 OA
ATOM     24  H3  UNL     1       5.383  18.404 -43.167  1.00  0.00     0.210 HD
ENDBRANCH   4  23
BRANCH   7  25
HETATM   25  C14 UNL     1       4.600  13.440 -45.307  1.00  0.00    -0.019 C 
HETATM   26  C15 UNL     1       5.280  13.160 -46.608  1.00  0.00     0.010 C 
HETATM   27  C16 UNL     1       3.128  13.126 -45.328  1.00  0.00     0.010 C 
ENDBRANCH   7  25
TORSDOF 6
ENDMDL
MODEL 3
REMARK VINA RESULT: -8.286357485      1.466      2.004
REMARK  6 active torsions:
REMARK  status: ('A' for Active; 'I' for Inactive)
REMARK    1  A    between atoms: O1_2  and  C2_3 
REMARK       I    between atoms: C2_3  and  N1_5 
REMARK    2  A    between atoms: N1_5  and  C3_7 
REMARK    3  A    between atoms: C6_10  and  C7_11 
REMARK    4  A    between atoms: C7_11  and  N2_12 
REMARK    5  A    between atoms: C10_15  and  O3_16 
REMARK    6  A    between atoms: C13_20  and  C14_21 
ROOT
HETATM    1  N2  UNL     1       4.645  17.896 -45.276  1.00  0.00     0.096 N 
HETATM    2  C8  UNL     1       3.536  18.762 -44.919  1.00  0.00     0.276 C 
HETATM    3  C9  UNL     1       3.182  18.328 -43.484  1.00  0.00     0.070 C 
HETATM    4  C10 UNL     1       3.759  16.946 -43.359  1.00  0.00     0.090 C 
HETATM    5  C11 UNL     1       2.718  15.894 -43.029  1.00  0.00     0.040 C 
HETATM    6  C12 UNL     1       2.846  14.665 -43.844  1.00  0.00     0.008 C 
HETATM    7  C13 UNL     1       4.233  14.300 -44.286  1.00  0.00    -0.009 C 
HETATM    8  C17 UNL     1       5.003  15.455 -44.899  1.00  0.00     0.044 C 
HETATM    9  C18 UNL     1       4.177  16.660 -44.782  1.00  0.00     0.257 C 
ENDROOT
BRANCH   1  10
HETATM   10  C7  UNL     1       5.848  18.417 -44.746  1.00  0.00     0.277 C 
BRANCH  10  11
HETATM   11  C6  UNL     1       6.800  18.815 -45.850  1.00  0.00     0.014 C 
HETATM   12  C5  UNL     1       6.566  18.055 -47.131  1.00  0.00     0.008 C 
HETATM   13  C4  UNL     1       7.803  18.139 -47.974  1.00  0.00     0.026 C 
HETATM   14  C3  UNL     1       8.654  19.358 -47.696  1.00  0.00     0.086 C 
HETATM   15  C20 UNL     1       9.137  19.393 -46.265  1.00  0.00     0.026 C 
HETATM   16  C19 UNL     1       8.249  18.503 -45.450  1.00  0.00     0.008 C 
BRANCH  14  17
HETATM   17  N1  UNL     1       9.822  19.247 -48.533  1.00  0.00    -0.332 N 
HETATM   18  C2  UNL     1       9.889  19.906 -49.789  1.00  0.00     0.360 C 
HETATM   19  O2  UNL     1       8.919  20.596 -50.182  1.00  0.00    -0.239 OA
ATOM     20  H1  UNL     1      10.614  18.687 -48.217  1.00  0.00     0.165 HD
BRANCH  18  21
HETATM   21  O1  UNL     1      11.002  19.810 -50.606  1.00  0.00    -0.309 OA
HETATM   22  C1  UNL     1      11.627  18.571 -50.767  1.00  0.00     0.215 C 
ENDBRANCH  18  21
ENDBRANCH  14  17
ENDBRANCH  10  11
ENDBRANCH   1  10
BRANCH   4  23
HETATM   23  O3  UNL     1       4.747  16.844 -42.424  1.00  0.00    -0.388 OA
ATOM     24  H3  UNL     1       4.427  16.682 -41.544  1.00  0.00     0.210 HD
ENDBRANCH   4  23
BRANCH   7  25
HETATM   25  C14 UNL     1       4.060  13.144 -45.262  1.00  0.00    -0.019 C 
HETATM   26  C15 UNL     1       4.852  13.311 -46.519  1.00  0.00     0.010 C 
HETATM   27  C16 UNL     1       2.611  12.822 -45.514  1.00  0.00     0.010 C 
ENDBRANCH   7  25
TORSDOF 6
ENDMDL
MODEL 4
REMARK VINA RESULT: -8.260405312      0.841      1.282
REMARK  6 active torsions:
REMARK  status: ('A' for Active; 'I' for Inactive)
REMARK    1  A    between atoms: O1_2  and  C2_3 
REMARK       I    between atoms: C2_3  and  N1_5 
REMARK    2  A    between atoms: N1_5  and  C3_7 
REMARK    3  A    between atoms: C6_10  and  C7_11 
REMARK    4  A    between atoms: C7_11  and  N2_12 
REMARK    5  A    between atoms: C10_15  and  O3_16 
REMARK    6  A    between atoms: C13_20  and  C14_21 
ROOT
HETATM    1  N2  UNL     1       5.107  18.138 -46.467  1.00  0.00     0.096 N 
HETATM    2  C8  UNL     1       3.983  19.053 -46.378  1.00  0.00     0.276 C 
HETATM    3  C9  UNL     1       3.594  19.008 -44.889  1.00  0.00     0.070 C 
HETATM    4  C10 UNL     1       4.176  17.715 -44.389  1.00  0.00     0.090 C 
HETATM    5  C11 UNL     1       3.133  16.774 -43.818  1.00  0.00     0.040 C 
HETATM    6  C12 UNL     1       3.292  15.376 -44.277  1.00  0.00     0.008 C 
HETATM    7  C13 UNL     1       4.693  14.926 -44.572  1.00  0.00    -0.009 C 
HETATM    8  C17 UNL     1       5.472  15.889 -45.450  1.00  0.00     0.044 C 
HETATM    9  C18 UNL     1       4.635  17.070 -45.675  1.00  0.00     0.257 C 
ENDROOT
BRANCH   1  10
HETATM   10  C7  UNL     1       6.292  18.798 -46.064  1.00  0.00     0.277 C 
BRANCH  10  11
HETATM   11  C6  UNL     1       7.374  18.657 -47.109  1.00  0.00     0.014 C 
HETATM   12  C5  UNL     1       8.764  18.782 -46.537  1.00  0.00     0.008 C 
HETATM   13  C4  UNL     1       9.713  19.115 -47.649  1.00  0.00     0.026 C 
HETATM   14  C3  UNL     1       9.249  18.656 -49.013  1.00  0.00     0.086 C 
HETATM   15  C20 UNL     1       7.932  19.286 -49.402  1.00  0.00     0.026 C 
HETATM   16  C19 UNL     1       7.261  19.775 -48.155  1.00  0.00     0.008 C 
BRANCH  14  17
HETATM   17  N1  UNL     1      10.232  19.112 -49.962  1.00  0.00    -0.332 N 
HETATM   18  C2  UNL     1      11.129  18.204 -50.583  1.00  0.00     0.360 C 
HETATM   19  O2  UNL     1      11.069  16.982 -50.305  1.00  0.00    -0.239 OA
ATOM     20  H1  UNL     1      10.285  20.105 -50.191  1.00  0.00     0.165 HD
BRANCH  18  21
HETATM   21  O1  UNL     1      12.081  18.624 -51.495  1.00  0.00    -0.309 OA
HETATM   22  C1  UNL     1      12.817  17.670 -52.203  1.00  0.00     0.215 C 
ENDBRANCH  18  21
ENDBRANCH  14  17
ENDBRANCH  10  11
ENDBRANCH   1  10
BRANCH   4  23
HETATM   23  O3  UNL     1       5.139  17.878 -43.436  1.00  0.00    -0.388 OA
ATOM     24  H3  UNL     1       5.174  18.755 -43.071  1.00  0.00     0.210 HD
ENDBRANCH   4  23
BRANCH   7  25
HETATM   25  C14 UNL     1       4.555  13.551 -45.213  1.00  0.00    -0.019 C 
HETATM   26  C15 UNL     1       5.320  13.416 -46.489  1.00  0.00     0.010 C 
HETATM   27  C16 UNL     1       3.117  13.122 -45.336  1.00  0.00     0.010 C 
ENDBRANCH   7  25
TORSDOF 6
ENDMDL
MODEL 5
REMARK VINA RESULT: -8.020163083      0.969      1.312
REMARK  6 active torsions:
REMARK  status: ('A' for Active; 'I' for Inactive)
REMARK    1  A    between atoms: O1_2  and  C2_3 
REMARK       I    between atoms: C2_3  and  N1_5 
REMARK    2  A    between atoms: N1_5  and  C3_7 
REMARK    3  A    between atoms: C6_10  and  C7_11 
REMARK    4  A    between atoms: C7_11  and  N2_12 
REMARK    5  A    between atoms: C10_15  and  O3_16 
REMARK    6  A    between atoms: C13_20  and  C14_21 
ROOT
HETATM    1  N2  UNL     1       5.566  17.969 -46.895  1.00  0.00     0.096 N 
HETATM    2  C8  UNL     1       4.637  19.067 -47.091  1.00  0.00     0.276 C 
HETATM    3  C9  UNL     1       4.255  19.482 -45.657  1.00  0.00     0.070 C 
HETATM    4  C10 UNL     1       4.584  18.277 -44.820  1.00  0.00     0.090 C 
HETATM    5  C11 UNL     1       3.386  17.725 -44.074  1.00  0.00     0.040 C 
HETATM    6  C12 UNL     1       3.273  16.251 -44.154  1.00  0.00     0.008 C 
HETATM    7  C13 UNL     1       4.560  15.489 -44.264  1.00  0.00    -0.009 C 
HETATM    8  C17 UNL     1       5.502  16.031 -45.324  1.00  0.00     0.044 C 
HETATM    9  C18 UNL     1       4.904  17.248 -45.878  1.00  0.00     0.257 C 
ENDROOT
BRANCH   1  10
HETATM   10  C7  UNL     1       6.857  18.479 -46.622  1.00  0.00     0.277 C 
BRANCH  10  11
HETATM   11  C6  UNL     1       7.860  17.989 -47.642  1.00  0.00     0.014 C 
HETATM   12  C5  UNL     1       7.841  16.491 -47.812  1.00  0.00     0.008 C 
HETATM   13  C4  UNL     1       9.136  16.062 -48.433  1.00  0.00     0.026 C 
HETATM   14  C3  UNL     1       9.810  17.136 -49.256  1.00  0.00     0.086 C 
HETATM   15  C20 UNL     1      10.143  18.355 -48.428  1.00  0.00     0.026 C 
HETATM   16  C19 UNL     1       9.289  18.331 -47.197  1.00  0.00     0.008 C 
BRANCH  14  17
HETATM   17  N1  UNL     1      11.059  16.585 -49.717  1.00  0.00    -0.332 N 
HETATM   18  C2  UNL     1      11.788  17.199 -50.769  1.00  0.00     0.360 C 
HETATM   19  O2  UNL     1      11.343  18.240 -51.310  1.00  0.00    -0.239 OA
ATOM     20  H1  UNL     1      11.425  15.738 -49.280  1.00  0.00     0.165 HD
BRANCH  18  21
HETATM   21  O1  UNL     1      12.988  16.683 -51.225  1.00  0.00    -0.309 OA
HETATM   22  C1  UNL     1      13.238  16.646 -52.600  1.00  0.00     0.215 C 
ENDBRANCH  18  21
ENDBRANCH  14  17
ENDBRANCH  10  11
ENDBRANCH   1  10
BRANCH   4  23
HETATM   23  O3  UNL     1       5.567  18.499 -43.899  1.00  0.00    -0.388 OA
ATOM     24  H3  UNL     1       6.428  18.625 -44.280  1.00  0.00     0.210 HD
ENDBRANCH   4  23
BRANCH   7  25
HETATM   25  C14 UNL     1       4.159  14.046 -44.539  1.00  0.00    -0.019 C 
HETATM   26  C15 UNL     1       4.784  13.486 -45.776  1.00  0.00     0.010 C 
HETATM   27  C16 UNL     1       2.668  13.850 -44.488  1.00  0.00     0.010 C 
ENDBRANCH   7  25
TORSDOF 6
ENDMDL
