MODEL 1
REMARK VINA RESULT: -8.971316812      0.000      0.000
REMARK  3 active torsions:
REMARK  status: ('A' for Active; 'I' for Inactive)
REMARK    1  A    between atoms: C2_2  and  N1_3 
REMARK    2  A    between atoms: C2_2  and  C3_7 
REMARK    3  A    between atoms: C19_24  and  C20_25 
ROOT
HETATM    1  C3  UNL     1       6.078  15.216 -46.366  1.00  0.00    -0.046 C 
HETATM    2  C4  UNL     1       7.620  15.153 -46.366  1.00  0.00     0.037 C 
HETATM    3  C5  UNL     1       8.071  16.331 -47.194  1.00  0.00     0.011 C 
HETATM    4  C6  UNL     1       7.100  17.481 -47.136  1.00  0.00     0.007 C 
HETATM    5  C7  UNL     1       7.864  18.723 -47.547  1.00  0.00    -0.043 C 
HETATM    6  C8  UNL     1       6.956  19.701 -48.303  1.00  0.00     0.015 C 
HETATM    7  C9  UNL     1       8.936  18.333 -48.580  1.00  0.00     0.015 C 
HETATM    8  C10 UNL     1       8.562  19.416 -46.428  1.00  0.00     0.009 C 
HETATM    9  C11 UNL     1       8.634  18.632 -45.161  1.00  0.00     0.002 C 
HETATM   10  C12 UNL     1       7.407  17.893 -44.753  1.00  0.00     0.015 C 
HETATM   11  C13 UNL     1       6.420  17.578 -45.815  1.00  0.00    -0.005 C 
HETATM   12  C14 UNL     1       5.417  18.739 -45.801  1.00  0.00     0.093 C 
HETATM   13  C15 UNL     1       4.459  18.604 -44.682  1.00  0.00     0.137 C 
HETATM   14  O1  UNL     1       3.972  19.652 -44.230  1.00  0.00    -0.297 OA
HETATM   15  C16 UNL     1       4.006  17.368 -44.028  1.00  0.00     0.030 C 
HETATM   16  C17 UNL     1       2.739  16.955 -44.678  1.00  0.00     0.024 C 
HETATM   17  C18 UNL     1       3.743  17.607 -42.561  1.00  0.00     0.024 C 
HETATM   18  C19 UNL     1       5.162  16.351 -44.196  1.00  0.00     0.132 C 
HETATM   19  C21 UNL     1       5.551  16.325 -45.586  1.00  0.00    -0.051 C 
ENDROOT
BRANCH   1  20
HETATM   20  C2  UNL     1       5.500  13.867 -46.391  1.00  0.00     0.208 C 
HETATM   21  C1  UNL     1       5.791  12.999 -47.556  1.00  0.00     0.044 C 
BRANCH  20  22
HETATM   22  N1  UNL     1       6.149  13.129 -45.263  1.00  0.00    -0.072 N 
ATOM     23  H13 UNL     1       5.501  12.702 -44.601  1.00  0.00     0.275 HD
ATOM     24  H12 UNL     1       6.609  12.258 -45.529  1.00  0.00     0.275 HD
ATOM     25  H11 UNL     1       6.767  13.834 -44.861  1.00  0.00     0.275 HD
ENDBRANCH  20  22
ENDBRANCH   1  20
BRANCH  18  26
HETATM   26  C20 UNL     1       4.904  15.192 -43.377  1.00  0.00     0.182 C 
HETATM   27  O2  UNL     1       5.762  14.776 -42.552  1.00  0.00    -0.647 OA
HETATM   28  O3  UNL     1       3.737  14.438 -43.400  1.00  0.00    -0.647 OA
ENDBRANCH  18  26
TORSDOF 3
ENDMDL
MODEL 2
REMARK VINA RESULT: -8.568492433      1.843      2.677
REMARK  3 active torsions:
REMARK  status: ('A' for Active; 'I' for Inactive)
REMARK    1  A    between atoms: C2_2  and  N1_3 
REMARK    2  A    between atoms: C2_2  and  C3_7 
REMARK    3  A    between atoms: C19_24  and  C20_25 
ROOT
HETATM    1  C3  UNL     1       5.849  16.655 -46.001  1.00  0.00    -0.046 C 
HETATM    2  C4  UNL     1       7.273  16.198 -45.621  1.00  0.00     0.037 C 
HETATM    3  C5  UNL     1       8.119  16.463 -46.842  1.00  0.00     0.011 C 
HETATM    4  C6  UNL     1       7.605  17.621 -47.658  1.00  0.00     0.007 C 
HETATM    5  C7  UNL     1       8.760  18.103 -48.513  1.00  0.00    -0.043 C 
HETATM    6  C8  UNL     1       8.261  18.622 -49.867  1.00  0.00     0.015 C 
HETATM    7  C9  UNL     1       9.649  16.901 -48.878  1.00  0.00     0.015 C 
HETATM    8  C10 UNL     1       9.634  19.114 -47.855  1.00  0.00     0.009 C 
HETATM    9  C11 UNL     1       9.406  19.270 -46.389  1.00  0.00     0.002 C 
HETATM   10  C12 UNL     1       7.992  19.288 -45.922  1.00  0.00     0.015 C 
HETATM   11  C13 UNL     1       6.977  18.672 -46.812  1.00  0.00    -0.005 C 
HETATM   12  C14 UNL     1       6.438  19.819 -47.676  1.00  0.00     0.093 C 
HETATM   13  C15 UNL     1       5.473  20.648 -46.922  1.00  0.00     0.137 C 
HETATM   14  O1  UNL     1       5.369  21.838 -47.259  1.00  0.00    -0.297 OA
HETATM   15  C16 UNL     1       4.607  20.234 -45.808  1.00  0.00     0.030 C 
HETATM   16  C17 UNL     1       3.288  19.868 -46.376  1.00  0.00     0.024 C 
HETATM   17  C18 UNL     1       4.416  21.369 -44.831  1.00  0.00     0.024 C 
HETATM   18  C19 UNL     1       5.342  19.061 -45.113  1.00  0.00     0.132 C 
HETATM   19  C21 UNL     1       5.724  18.099 -46.119  1.00  0.00    -0.051 C 
ENDROOT
BRANCH   1  20
HETATM   20  C2  UNL     1       4.840  15.779 -45.392  1.00  0.00     0.208 C 
HETATM   21  C1  UNL     1       4.822  14.350 -45.781  1.00  0.00     0.044 C 
BRANCH  20  22
HETATM   22  N1  UNL     1       5.184  15.718 -43.936  1.00  0.00    -0.072 N 
ATOM     23  H13 UNL     1       4.484  16.120 -43.314  1.00  0.00     0.275 HD
ATOM     24  H12 UNL     1       5.156  14.783 -43.528  1.00  0.00     0.275 HD
ATOM     25  H11 UNL     1       6.096  16.173 -43.903  1.00  0.00     0.275 HD
ENDBRANCH  20  22
ENDBRANCH   1  20
BRANCH  18  26
HETATM   26  C20 UNL     1       4.684  18.753 -43.867  1.00  0.00     0.182 C 
HETATM   27  O2  UNL     1       5.293  18.857 -42.768  1.00  0.00    -0.647 OA
HETATM   28  O3  UNL     1       3.367  18.329 -43.740  1.00  0.00    -0.647 OA
ENDBRANCH  18  26
TORSDOF 3
ENDMDL
MODEL 3
REMARK VINA RESULT: -8.365300224      2.630      5.836
REMARK  3 active torsions:
REMARK  status: ('A' for Active; 'I' for Inactive)
REMARK    1  A    between atoms: C2_2  and  N1_3 
REMARK    2  A    between atoms: C2_2  and  C3_7 
REMARK    3  A    between atoms: C19_24  and  C20_25 
ROOT
HETATM    1  C3  UNL     1       3.949  18.531 -44.595  1.00  0.00    -0.046 C 
HETATM    2  C4  UNL     1       3.633  18.159 -43.130  1.00  0.00     0.037 C 
HETATM    3  C5  UNL     1       3.056  16.767 -43.184  1.00  0.00     0.011 C 
HETATM    4  C6  UNL     1       3.590  15.967 -44.344  1.00  0.00     0.007 C 
HETATM    5  C7  UNL     1       3.363  14.506 -44.012  1.00  0.00    -0.043 C 
HETATM    6  C8  UNL     1       3.068  13.695 -45.281  1.00  0.00     0.015 C 
HETATM    7  C9  UNL     1       2.077  14.375 -43.178  1.00  0.00     0.015 C 
HETATM    8  C10 UNL     1       4.462  13.874 -43.231  1.00  0.00     0.009 C 
HETATM    9  C11 UNL     1       5.453  14.835 -42.664  1.00  0.00     0.002 C 
HETATM   10  C12 UNL     1       5.893  15.952 -43.546  1.00  0.00     0.015 C 
HETATM   11  C13 UNL     1       4.998  16.319 -44.671  1.00  0.00    -0.005 C 
HETATM   12  C14 UNL     1       5.498  15.510 -45.875  1.00  0.00     0.093 C 
HETATM   13  C15 UNL     1       6.712  16.120 -46.461  1.00  0.00     0.137 C 
HETATM   14  O1  UNL     1       7.499  15.357 -47.044  1.00  0.00    -0.297 OA
HETATM   15  C16 UNL     1       7.110  17.535 -46.441  1.00  0.00     0.030 C 
HETATM   16  C17 UNL     1       6.636  18.153 -47.702  1.00  0.00     0.024 C 
HETATM   17  C18 UNL     1       8.611  17.666 -46.370  1.00  0.00     0.024 C 
HETATM   18  C19 UNL     1       6.469  18.136 -45.165  1.00  0.00     0.132 C 
HETATM   19  C21 UNL     1       5.070  17.785 -45.145  1.00  0.00    -0.051 C 
ENDROOT
BRANCH   1  20
HETATM   20  C2  UNL     1       3.698  19.957 -44.837  1.00  0.00     0.208 C 
HETATM   21  C1  UNL     1       3.582  20.423 -46.238  1.00  0.00     0.044 C 
BRANCH  20  22
HETATM   22  N1  UNL     1       2.331  20.225 -44.288  1.00  0.00    -0.072 N 
ATOM     23  H13 UNL     1       2.242  21.098 -43.769  1.00  0.00     0.275 HD
ATOM     24  H12 UNL     1       1.625  20.453 -44.989  1.00  0.00     0.275 HD
ATOM     25  H11 UNL     1       2.140  19.384 -43.745  1.00  0.00     0.275 HD
ENDBRANCH  20  22
ENDBRANCH   1  20
BRANCH  18  26
HETATM   26  C20 UNL     1       7.005  19.456 -44.935  1.00  0.00     0.182 C 
HETATM   27  O2  UNL     1       7.537  19.759 -43.834  1.00  0.00    -0.647 OA
HETATM   28  O3  UNL     1       6.997  20.495 -45.858  1.00  0.00    -0.647 OA
ENDBRANCH  18  26
TORSDOF 3
ENDMDL
MODEL 4
REMARK VINA RESULT: -8.160993800      2.472      5.440
REMARK  3 active torsions:
REMARK  status: ('A' for Active; 'I' for Inactive)
REMARK    1  A    between atoms: C2_2  and  N1_3 
REMARK    2  A    between atoms: C2_2  and  C3_7 
REMARK    3  A    between atoms: C19_24  and  C20_25 
ROOT
HETATM    1  C3  UNL     1       3.780  17.882 -45.126  1.00  0.00    -0.046 C 
HETATM    2  C4  UNL     1       3.327  17.035 -43.918  1.00  0.00     0.037 C 
HETATM    3  C5  UNL     1       3.316  15.608 -44.409  1.00  0.00     0.011 C 
HETATM    4  C6  UNL     1       4.328  15.366 -45.499  1.00  0.00     0.007 C 
HETATM    5  C7  UNL     1       4.581  13.873 -45.540  1.00  0.00    -0.043 C 
HETATM    6  C8  UNL     1       4.866  13.404 -46.973  1.00  0.00     0.015 C 
HETATM    7  C9  UNL     1       3.287  13.134 -45.156  1.00  0.00     0.015 C 
HETATM    8  C10 UNL     1       5.648  13.403 -44.613  1.00  0.00     0.009 C 
HETATM    9  C11 UNL     1       6.086  14.414 -43.607  1.00  0.00     0.002 C 
HETATM   10  C12 UNL     1       6.264  15.813 -44.087  1.00  0.00     0.015 C 
HETATM   11  C13 UNL     1       5.549  16.200 -45.328  1.00  0.00    -0.005 C 
HETATM   12  C14 UNL     1       6.543  15.951 -46.470  1.00  0.00     0.093 C 
HETATM   13  C15 UNL     1       7.548  17.034 -46.549  1.00  0.00     0.137 C 
HETATM   14  O1  UNL     1       8.658  16.738 -47.017  1.00  0.00    -0.297 OA
HETATM   15  C16 UNL     1       7.394  18.438 -46.137  1.00  0.00     0.030 C 
HETATM   16  C17 UNL     1       6.999  19.216 -47.335  1.00  0.00     0.024 C 
HETATM   17  C18 UNL     1       8.699  18.984 -45.611  1.00  0.00     0.024 C 
HETATM   18  C19 UNL     1       6.333  18.434 -45.009  1.00  0.00     0.132 C 
HETATM   19  C21 UNL     1       5.182  17.691 -45.464  1.00  0.00    -0.051 C 
ENDROOT
BRANCH   1  20
HETATM   20  C2  UNL     1       3.087  19.176 -45.146  1.00  0.00     0.208 C 
HETATM   21  C1  UNL     1       3.279  20.095 -44.001  1.00  0.00     0.044 C 
BRANCH  20  22
HETATM   22  N1  UNL     1       3.690  19.939 -46.284  1.00  0.00    -0.072 N 
ATOM     23  H13 UNL     1       4.448  19.459 -46.768  1.00  0.00     0.275 HD
ATOM     24  H12 UNL     1       3.090  20.031 -47.104  1.00  0.00     0.275 HD
ATOM     25  H11 UNL     1       3.954  20.821 -45.845  1.00  0.00     0.275 HD
ENDBRANCH  20  22
ENDBRANCH   1  20
BRANCH  18  26
HETATM   26  C20 UNL     1       6.297  19.732 -44.380  1.00  0.00     0.182 C 
HETATM   27  O2  UNL     1       6.427  19.853 -43.133  1.00  0.00    -0.647 OA
HETATM   28  O3  UNL     1       6.123  20.940 -45.046  1.00  0.00    -0.647 OA
ENDBRANCH  18  26
TORSDOF 3
ENDMDL
MODEL 5
REMARK VINA RESULT: -8.025043674      2.293      3.514
REMARK  3 active torsions:
REMARK  status: ('A' for Active; 'I' for Inactive)
REMARK    1  A    between atoms: C2_2  and  N1_3 
REMARK    2  A    between atoms: C2_2  and  C3_7 
REMARK    3  A    between atoms: C19_24  and  C20_25 
ROOT
HETATM    1  C3  UNL     1       6.191  17.528 -45.402  1.00  0.00    -0.046 C 
HETATM    2  C4  UNL     1       7.582  16.866 -45.315  1.00  0.00     0.037 C 
HETATM    3  C5  UNL     1       8.124  16.884 -46.722  1.00  0.00     0.011 C 
HETATM    4  C6  UNL     1       7.598  18.043 -47.528  1.00  0.00     0.007 C 
HETATM    5  C7  UNL     1       8.560  18.250 -48.681  1.00  0.00    -0.043 C 
HETATM    6  C8  UNL     1       7.818  18.736 -49.933  1.00  0.00     0.015 C 
HETATM    7  C9  UNL     1       9.143  16.888 -49.098  1.00  0.00     0.015 C 
HETATM    8  C10 UNL     1       9.708  19.146 -48.372  1.00  0.00     0.009 C 
HETATM    9  C11 UNL     1       9.881  19.457 -46.923  1.00  0.00     0.002 C 
HETATM   10  C12 UNL     1       8.647  19.753 -46.143  1.00  0.00     0.015 C 
HETATM   11  C13 UNL     1       7.363  19.250 -46.690  1.00  0.00    -0.005 C 
HETATM   12  C14 UNL     1       6.798  20.399 -47.536  1.00  0.00     0.093 C 
HETATM   13  C15 UNL     1       6.184  21.439 -46.681  1.00  0.00     0.137 C 
HETATM   14  O1  UNL     1       6.175  22.598 -47.124  1.00  0.00    -0.297 OA
HETATM   15  C16 UNL     1       5.574  21.271 -45.353  1.00  0.00     0.030 C 
HETATM   16  C17 UNL     1       4.116  21.091 -45.549  1.00  0.00     0.024 C 
HETATM   17  C18 UNL     1       5.802  22.496 -44.503  1.00  0.00     0.024 C 
HETATM   18  C19 UNL     1       6.280  20.049 -44.715  1.00  0.00     0.132 C 
HETATM   19  C21 UNL     1       6.253  18.958 -45.660  1.00  0.00    -0.051 C 
ENDROOT
BRANCH   1  20
HETATM   20  C2  UNL     1       5.250  16.889 -44.473  1.00  0.00     0.208 C 
HETATM   21  C1  UNL     1       3.806  16.926 -44.799  1.00  0.00     0.044 C 
BRANCH  20  22
HETATM   22  N1  UNL     1       5.560  15.426 -44.528  1.00  0.00    -0.072 N 
ATOM     23  H13 UNL     1       4.744  14.817 -44.585  1.00  0.00     0.275 HD
ATOM     24  H12 UNL     1       5.982  15.110 -45.401  1.00  0.00     0.275 HD
ATOM     25  H11 UNL     1       6.138  15.289 -43.699  1.00  0.00     0.275 HD
ENDBRANCH  20  22
ENDBRANCH   1  20
BRANCH  18  26
HETATM   26  C20 UNL     1       5.918  19.959 -43.321  1.00  0.00     0.182 C 
HETATM   27  O2  UNL     1       6.780  20.112 -42.415  1.00  0.00    -0.647 OA
HETATM   28  O3  UNL     1       4.638  19.707 -42.841  1.00  0.00    -0.647 OA
ENDBRANCH  18  26
TORSDOF 3
ENDMDL
