MODEL 1
REMARK VINA RESULT: -8.183869212      0.000      0.000
REMARK  5 active torsions:
REMARK  status: ('A' for Active; 'I' for Inactive)
REMARK    1  A    between atoms: C6_7  and  C8_9 
REMARK    2  A    between atoms: C15_16  and  O2_17 
REMARK    3  A    between atoms: C17_20  and  O3_21 
REMARK    4  A    between atoms: C18_23  and  C19_24 
REMARK    5  A    between atoms: C20_25  and  C21_26 
ROOT
HETATM    1  C1  UNL     1       4.971  12.942 -46.708  1.00  0.00     0.015 C 
HETATM    2  C2  UNL     1       4.793  13.073 -45.224  1.00  0.00     0.020 C 
HETATM    3  C3  UNL     1       6.080  13.567 -44.559  1.00  0.00     0.087 C 
HETATM    4  C4  UNL     1       5.849  14.720 -43.658  1.00  0.00     0.135 C 
HETATM    5  O1  UNL     1       6.468  14.740 -42.581  1.00  0.00    -0.297 OA
HETATM    6  C5  UNL     1       4.957  15.866 -43.890  1.00  0.00     0.103 C 
HETATM    7  C6  UNL     1       5.377  16.879 -44.895  1.00  0.00    -0.021 C 
HETATM    8  C7  UNL     1       6.874  16.915 -45.055  1.00  0.00     0.016 C 
HETATM    9  C16 UNL     1       4.638  16.013 -45.932  1.00  0.00     0.054 C 
HETATM   10  C17 UNL     1       3.882  15.387 -44.863  1.00  0.00     0.093 C 
HETATM   11  C18 UNL     1       3.684  13.907 -44.737  1.00  0.00    -0.041 C 
ENDROOT
BRANCH   7  12
HETATM   12  C8  UNL     1       4.794  18.244 -44.781  1.00  0.00     0.024 C 
HETATM   13  C9  UNL     1       5.386  18.966 -43.580  1.00  0.00     0.016 C 
HETATM   14  C10 UNL     1       4.875  20.360 -43.445  1.00  0.00    -0.047 C 
HETATM   15  C11 UNL     1       3.530  20.426 -42.738  1.00  0.00     0.015 C 
HETATM   16  C12 UNL     1       5.855  21.113 -42.536  1.00  0.00     0.015 C 
HETATM   17  C13 UNL     1       4.757  21.110 -44.729  1.00  0.00     0.011 C 
HETATM   18  C14 UNL     1       5.564  20.402 -45.787  1.00  0.00     0.033 C 
HETATM   19  C15 UNL     1       4.914  19.048 -46.051  1.00  0.00     0.123 C 
BRANCH  19  20
HETATM   20  O2  UNL     1       5.631  18.441 -47.052  1.00  0.00    -0.395 OA
ATOM     21  H2  UNL     1       5.113  18.153 -47.795  1.00  0.00     0.210 HD
ENDBRANCH  19  20
ENDBRANCH   7  12
BRANCH  10  22
HETATM   22  O3  UNL     1       2.639  16.008 -44.619  1.00  0.00    -0.384 OA
ATOM     23  H3  UNL     1       2.141  16.129 -45.419  1.00  0.00     0.211 HD
ENDBRANCH  10  22
BRANCH  11  24
HETATM   24  C19 UNL     1       2.313  13.537 -45.049  1.00  0.00     0.009 C 
HETATM   25  C20 UNL     1       1.805  12.364 -45.289  1.00  0.00     0.042 C 
BRANCH  25  26
HETATM   26  C21 UNL     1       0.372  12.170 -45.594  1.00  0.00     0.258 C 
HETATM   27  O4  UNL     1      -0.518  12.449 -44.762  1.00  0.00    -0.302 OA
ENDBRANCH  25  26
ENDBRANCH  11  24
TORSDOF 5
ENDMDL
MODEL 2
REMARK VINA RESULT: -7.804942809      3.482      7.266
REMARK  5 active torsions:
REMARK  status: ('A' for Active; 'I' for Inactive)
REMARK    1  A    between atoms: C6_7  and  C8_9 
REMARK    2  A    between atoms: C15_16  and  O2_17 
REMARK    3  A    between atoms: C17_20  and  O3_21 
REMARK    4  A    between atoms: C18_23  and  C19_24 
REMARK    5  A    between atoms: C20_25  and  C21_26 
ROOT
HETATM    1  C1  UNL     1       8.375  20.583 -48.570  1.00  0.00     0.015 C 
HETATM    2  C2  UNL     1       9.212  19.838 -47.575  1.00  0.00     0.020 C 
HETATM    3  C3  UNL     1       8.783  20.167 -46.142  1.00  0.00     0.087 C 
HETATM    4  C4  UNL     1       8.556  18.953 -45.323  1.00  0.00     0.135 C 
HETATM    5  O1  UNL     1       8.952  18.972 -44.146  1.00  0.00    -0.297 OA
HETATM    6  C5  UNL     1       7.904  17.704 -45.746  1.00  0.00     0.103 C 
HETATM    7  C6  UNL     1       6.429  17.720 -45.931  1.00  0.00    -0.021 C 
HETATM    8  C7  UNL     1       5.774  18.782 -45.087  1.00  0.00     0.016 C 
HETATM    9  C16 UNL     1       6.714  18.137 -47.386  1.00  0.00     0.054 C 
HETATM   10  C17 UNL     1       8.066  17.623 -47.262  1.00  0.00     0.093 C 
HETATM   11  C18 UNL     1       9.287  18.375 -47.699  1.00  0.00    -0.041 C 
ENDROOT
BRANCH   7  12
HETATM   12  C8  UNL     1       5.711  16.419 -45.848  1.00  0.00     0.024 C 
HETATM   13  C9  UNL     1       6.441  15.479 -44.899  1.00  0.00     0.016 C 
HETATM   14  C10 UNL     1       5.737  14.175 -44.737  1.00  0.00    -0.047 C 
HETATM   15  C11 UNL     1       6.060  13.192 -45.853  1.00  0.00     0.015 C 
HETATM   16  C12 UNL     1       6.275  13.529 -43.454  1.00  0.00     0.015 C 
HETATM   17  C13 UNL     1       4.253  14.273 -44.626  1.00  0.00     0.011 C 
HETATM   18  C14 UNL     1       3.879  15.698 -44.302  1.00  0.00     0.033 C 
HETATM   19  C15 UNL     1       4.251  16.568 -45.498  1.00  0.00     0.123 C 
BRANCH  19  20
HETATM   20  O2  UNL     1       3.856  17.849 -45.206  1.00  0.00    -0.395 OA
ATOM     21  H2  UNL     1       3.178  18.197 -45.775  1.00  0.00     0.210 HD
ENDBRANCH  19  20
ENDBRANCH   7  12
BRANCH  10  22
HETATM   22  O3  UNL     1       8.201  16.291 -47.706  1.00  0.00    -0.384 OA
ATOM     23  H3  UNL     1       8.209  15.676 -46.982  1.00  0.00     0.211 HD
ENDBRANCH  10  22
BRANCH  11  24
HETATM   24  C19 UNL     1       9.862  17.782 -48.895  1.00  0.00     0.009 C 
HETATM   25  C20 UNL     1      11.031  17.969 -49.434  1.00  0.00     0.042 C 
BRANCH  25  26
HETATM   26  C21 UNL     1      11.454  17.275 -50.668  1.00  0.00     0.258 C 
HETATM   27  O4  UNL     1      11.859  17.904 -51.668  1.00  0.00    -0.302 OA
ENDBRANCH  25  26
ENDBRANCH  11  24
TORSDOF 5
ENDMDL
MODEL 3
REMARK VINA RESULT: -7.799622616      2.785      4.784
REMARK  5 active torsions:
REMARK  status: ('A' for Active; 'I' for Inactive)
REMARK    1  A    between atoms: C6_7  and  C8_9 
REMARK    2  A    between atoms: C15_16  and  O2_17 
REMARK    3  A    between atoms: C17_20  and  O3_21 
REMARK    4  A    between atoms: C18_23  and  C19_24 
REMARK    5  A    between atoms: C20_25  and  C21_26 
ROOT
HETATM    1  C1  UNL     1       4.081  17.260 -42.405  1.00  0.00     0.015 C 
HETATM    2  C2  UNL     1       3.391  17.558 -43.702  1.00  0.00     0.020 C 
HETATM    3  C3  UNL     1       3.456  19.053 -44.027  1.00  0.00     0.087 C 
HETATM    4  C4  UNL     1       3.940  19.315 -45.403  1.00  0.00     0.135 C 
HETATM    5  O1  UNL     1       3.379  20.219 -46.046  1.00  0.00    -0.297 OA
HETATM    6  C5  UNL     1       5.025  18.621 -46.113  1.00  0.00     0.103 C 
HETATM    7  C6  UNL     1       6.422  18.902 -45.688  1.00  0.00    -0.021 C 
HETATM    8  C7  UNL     1       6.548  20.263 -45.057  1.00  0.00     0.016 C 
HETATM    9  C16 UNL     1       6.248  17.742 -44.689  1.00  0.00     0.054 C 
HETATM   10  C17 UNL     1       5.140  17.236 -45.478  1.00  0.00     0.093 C 
HETATM   11  C18 UNL     1       3.824  16.817 -44.896  1.00  0.00    -0.041 C 
ENDROOT
BRANCH   7  12
HETATM   12  C8  UNL     1       7.507  18.639 -46.672  1.00  0.00     0.024 C 
HETATM   13  C9  UNL     1       7.378  19.588 -47.856  1.00  0.00     0.016 C 
HETATM   14  C10 UNL     1       8.471  19.405 -48.853  1.00  0.00    -0.047 C 
HETATM   15  C11 UNL     1       8.195  18.265 -49.822  1.00  0.00     0.015 C 
HETATM   16  C12 UNL     1       8.513  20.674 -49.714  1.00  0.00     0.015 C 
HETATM   17  C13 UNL     1       9.826  19.191 -48.266  1.00  0.00     0.011 C 
HETATM   18  C14 UNL     1       9.805  19.617 -46.820  1.00  0.00     0.033 C 
HETATM   19  C15 UNL     1       8.885  18.669 -46.060  1.00  0.00     0.123 C 
BRANCH  19  20
HETATM   20  O2  UNL     1       8.920  19.039 -44.739  1.00  0.00    -0.395 OA
ATOM     21  H2  UNL     1       9.364  18.426 -44.165  1.00  0.00     0.210 HD
ENDBRANCH  19  20
ENDBRANCH   7  12
BRANCH  10  22
HETATM   22  O3  UNL     1       5.523  16.257 -46.418  1.00  0.00    -0.384 OA
ATOM     23  H3  UNL     1       6.146  16.598 -47.050  1.00  0.00     0.211 HD
ENDBRANCH  10  22
BRANCH  11  24
HETATM   24  C19 UNL     1       3.672  15.371 -44.940  1.00  0.00     0.009 C 
HETATM   25  C20 UNL     1       2.673  14.630 -44.562  1.00  0.00     0.042 C 
BRANCH  25  26
HETATM   26  C21 UNL     1       2.691  13.157 -44.681  1.00  0.00     0.258 C 
HETATM   27  O4  UNL     1       1.824  12.542 -45.337  1.00  0.00    -0.302 OA
ENDBRANCH  25  26
ENDBRANCH  11  24
TORSDOF 5
ENDMDL
MODEL 4
REMARK VINA RESULT: -7.514877623      2.741      4.318
REMARK  5 active torsions:
REMARK  status: ('A' for Active; 'I' for Inactive)
REMARK    1  A    between atoms: C6_7  and  C8_9 
REMARK    2  A    between atoms: C15_16  and  O2_17 
REMARK    3  A    between atoms: C17_20  and  O3_21 
REMARK    4  A    between atoms: C18_23  and  C19_24 
REMARK    5  A    between atoms: C20_25  and  C21_26 
ROOT
HETATM    1  C1  UNL     1       5.494  14.643 -42.616  1.00  0.00     0.015 C 
HETATM    2  C2  UNL     1       4.552  15.652 -43.202  1.00  0.00     0.020 C 
HETATM    3  C3  UNL     1       5.052  17.078 -42.953  1.00  0.00     0.087 C 
HETATM    4  C4  UNL     1       5.074  17.897 -44.188  1.00  0.00     0.135 C 
HETATM    5  O1  UNL     1       4.704  19.079 -44.099  1.00  0.00    -0.297 OA
HETATM    6  C5  UNL     1       5.490  17.469 -45.532  1.00  0.00     0.103 C 
HETATM    7  C6  UNL     1       6.943  17.264 -45.775  1.00  0.00    -0.021 C 
HETATM    8  C7  UNL     1       7.785  18.096 -44.844  1.00  0.00     0.016 C 
HETATM    9  C16 UNL     1       6.716  15.811 -45.315  1.00  0.00     0.054 C 
HETATM   10  C17 UNL     1       5.297  15.955 -45.583  1.00  0.00     0.093 C 
HETATM   11  C18 UNL     1       4.220  15.533 -44.629  1.00  0.00    -0.041 C 
ENDROOT
BRANCH   7  12
HETATM   12  C8  UNL     1       7.423  17.341 -47.182  1.00  0.00     0.024 C 
HETATM   13  C9  UNL     1       8.283  18.582 -47.373  1.00  0.00     0.016 C 
HETATM   14  C10 UNL     1       8.835  18.684 -48.754  1.00  0.00    -0.047 C 
HETATM   15  C11 UNL     1       7.848  19.298 -49.735  1.00  0.00     0.015 C 
HETATM   16  C12 UNL     1      10.017  19.660 -48.695  1.00  0.00     0.015 C 
HETATM   17  C13 UNL     1       9.318  17.397 -49.333  1.00  0.00     0.011 C 
HETATM   18  C14 UNL     1       9.494  16.395 -48.220  1.00  0.00     0.033 C 
HETATM   19  C15 UNL     1       8.119  16.084 -47.641  1.00  0.00     0.123 C 
BRANCH  19  20
HETATM   20  O2  UNL     1       8.293  15.133 -46.667  1.00  0.00    -0.395 OA
ATOM     21  H2  UNL     1       7.515  14.935 -46.159  1.00  0.00     0.210 HD
ENDBRANCH  19  20
ENDBRANCH   7  12
BRANCH  10  22
HETATM   22  O3  UNL     1       4.924  15.517 -46.871  1.00  0.00    -0.384 OA
ATOM     23  H3  UNL     1       5.659  15.519 -47.472  1.00  0.00     0.211 HD
ENDBRANCH  10  22
BRANCH  11  24
HETATM   24  C19 UNL     1       3.533  14.346 -45.113  1.00  0.00     0.009 C 
HETATM   25  C20 UNL     1       2.499  13.728 -44.622  1.00  0.00     0.042 C 
BRANCH  25  26
HETATM   26  C21 UNL     1       1.928  12.520 -45.251  1.00  0.00     0.258 C 
HETATM   27  O4  UNL     1       0.713  12.440 -45.531  1.00  0.00    -0.302 OA
ENDBRANCH  25  26
ENDBRANCH  11  24
TORSDOF 5
ENDMDL
MODEL 5
REMARK VINA RESULT: -7.272059404      2.321      7.085
REMARK  5 active torsions:
REMARK  status: ('A' for Active; 'I' for Inactive)
REMARK    1  A    between atoms: C6_7  and  C8_9 
REMARK    2  A    between atoms: C15_16  and  O2_17 
REMARK    3  A    between atoms: C17_20  and  O3_21 
REMARK    4  A    between atoms: C18_23  and  C19_24 
REMARK    5  A    between atoms: C20_25  and  C21_26 
ROOT
HETATM    1  C1  UNL     1       5.555  22.391 -46.259  1.00  0.00     0.015 C 
HETATM    2  C2  UNL     1       6.724  21.740 -45.583  1.00  0.00     0.020 C 
HETATM    3  C3  UNL     1       6.447  21.528 -44.093  1.00  0.00     0.087 C 
HETATM    4  C4  UNL     1       6.729  20.141 -43.653  1.00  0.00     0.135 C 
HETATM    5  O1  UNL     1       7.282  19.989 -42.551  1.00  0.00    -0.297 OA
HETATM    6  C5  UNL     1       6.428  18.899 -44.380  1.00  0.00     0.103 C 
HETATM    7  C6  UNL     1       5.007  18.467 -44.456  1.00  0.00    -0.021 C 
HETATM    8  C7  UNL     1       4.204  18.995 -43.297  1.00  0.00     0.016 C 
HETATM    9  C16 UNL     1       4.920  19.314 -45.740  1.00  0.00     0.054 C 
HETATM   10  C17 UNL     1       6.365  19.268 -45.861  1.00  0.00     0.093 C 
HETATM   11  C18 UNL     1       7.217  20.471 -46.137  1.00  0.00    -0.041 C 
ENDROOT
BRANCH   7  12
HETATM   12  C8  UNL     1       4.738  17.026 -44.711  1.00  0.00     0.024 C 
HETATM   13  C9  UNL     1       5.640  16.164 -43.839  1.00  0.00     0.016 C 
HETATM   14  C10 UNL     1       5.379  14.707 -44.017  1.00  0.00    -0.047 C 
HETATM   15  C11 UNL     1       6.100  14.125 -45.223  1.00  0.00     0.015 C 
HETATM   16  C12 UNL     1       5.974  13.991 -42.797  1.00  0.00     0.015 C 
HETATM   17  C13 UNL     1       3.938  14.337 -44.120  1.00  0.00     0.011 C 
HETATM   18  C14 UNL     1       3.099  15.484 -43.616  1.00  0.00     0.033 C 
HETATM   19  C15 UNL     1       3.282  16.659 -44.570  1.00  0.00     0.123 C 
BRANCH  19  20
HETATM   20  O2  UNL     1       2.473  17.674 -44.125  1.00  0.00    -0.395 OA
ATOM     21  H2  UNL     1       2.649  18.524 -44.512  1.00  0.00     0.210 HD
ENDBRANCH  19  20
ENDBRANCH   7  12
BRANCH  10  22
HETATM   22  O3  UNL     1       6.825  18.219 -46.684  1.00  0.00    -0.384 OA
ATOM     23  H3  UNL     1       6.109  17.691 -47.016  1.00  0.00     0.211 HD
ENDBRANCH  10  22
BRANCH  11  24
HETATM   24  C19 UNL     1       7.749  20.432 -47.489  1.00  0.00     0.009 C 
HETATM   25  C20 UNL     1       8.785  21.036 -47.991  1.00  0.00     0.042 C 
BRANCH  25  26
HETATM   26  C21 UNL     1       9.184  20.882 -49.405  1.00  0.00     0.258 C 
HETATM   27  O4  UNL     1       8.335  20.770 -50.316  1.00  0.00    -0.302 OA
ENDBRANCH  25  26
ENDBRANCH  11  24
TORSDOF 5
ENDMDL
