MODEL 1
REMARK VINA RESULT: -9.451215815      0.000      0.000
REMARK  7 active torsions:
REMARK  status: ('A' for Active; 'I' for Inactive)
REMARK    1  A    between atoms: C2_2  and  N1_4 
REMARK       I    between atoms: N1_4  and  C4_6 
REMARK    2  A    between atoms: C4_6  and  C5_8 
REMARK    3  A    between atoms: C5_8  and  N2_9 
REMARK    4  A    between atoms: N2_9  and  C6_11 
REMARK    5  A    between atoms: C11_16  and  C12_17 
REMARK    6  A    between atoms: C15_22  and  O4_23 
REMARK    7  A    between atoms: O4_23  and  C16_24 
ROOT
HETATM    1  C6  UNL     1       4.805 -16.087  45.530  1.00  0.00     0.022 C 
HETATM    2  C7  UNL     1       4.851 -14.729  44.872  1.00  0.00     0.036 C 
HETATM    3  C8  UNL     1       5.774 -14.689  43.675  1.00  0.00     0.015 C 
HETATM    4  C9  UNL     1       5.317 -15.736  42.718  1.00  0.00    -0.009 C 
HETATM    5  C10 UNL     1       3.929 -15.507  42.197  1.00  0.00     0.025 C 
HETATM    6  C11 UNL     1       3.014 -15.553  43.417  1.00  0.00     0.052 C 
HETATM    7  C13 UNL     1       3.440 -14.458  44.336  1.00  0.00     0.031 C 
HETATM    8  C14 UNL     1       3.134 -16.918  43.999  1.00  0.00     0.065 C 
HETATM    9  C15 UNL     1       4.551 -17.204  44.554  1.00  0.00     0.103 C 
HETATM   10  C23 UNL     1       5.445 -17.107  43.336  1.00  0.00     0.049 C 
ENDROOT
BRANCH   9  11
HETATM   11  O4  UNL     1       4.455 -18.423  45.085  1.00  0.00    -0.350 OA
BRANCH  11  12
HETATM   12  C16 UNL     1       4.867 -19.566  44.538  1.00  0.00     0.217 C 
HETATM   13  C17 UNL     1       3.718 -20.530  44.373  1.00  0.00     0.055 C 
HETATM   14  C18 UNL     1       3.556 -21.506  45.486  1.00  0.00     0.028 C 
HETATM   15  C19 UNL     1       4.654 -22.468  45.680  1.00  0.00     0.050 A 
HETATM   16  C20 UNL     1       5.605 -21.993  46.719  1.00  0.00     0.043 C 
HETATM   17  C22 UNL     1       5.040 -23.474  44.643  1.00  0.00     0.132 A 
HETATM   18  S1  UNL     1       4.195 -24.192  45.907  1.00  0.00     0.026 S 
HETATM   19  C21 UNL     1       5.687 -20.485  46.639  1.00  0.00     0.118 C 
HETATM   20  N3  UNL     1       5.958 -20.128  45.301  1.00  0.00    -0.397 N 
ATOM     21  H3  UNL     1       6.882 -20.261  44.891  1.00  0.00     0.155 HD
HETATM   22  O5  UNL     1       4.913 -25.060  47.128  1.00  0.00    -0.257 OA
ENDBRANCH  11  12
ENDBRANCH   9  11
BRANCH   1  23
HETATM   23  N2  UNL     1       5.784 -16.320  46.528  1.00  0.00    -0.385 N 
ATOM     24  H2  UNL     1       5.542 -16.584  47.483  1.00  0.00     0.159 HD
BRANCH  23  25
HETATM   25  C5  UNL     1       7.154 -16.156  46.086  1.00  0.00     0.222 C 
BRANCH  25  26
HETATM   26  C4  UNL     1       7.918 -17.421  46.181  1.00  0.00     0.235 C 
HETATM   27  N1  UNL     1       8.341 -17.909  47.434  1.00  0.00    -0.356 N 
ATOM     28  H1  UNL     1       8.110 -17.367  48.266  1.00  0.00     0.162 HD
HETATM   29  O1  UNL     1       8.179 -18.047  45.133  1.00  0.00    -0.272 OA
BRANCH  27  30
HETATM   30  C2  UNL     1       9.088 -19.139  47.605  1.00  0.00     0.076 C 
HETATM   31  C1  UNL     1       8.637 -19.866  48.878  1.00  0.00     0.032 C 
HETATM   32  C3  UNL     1      10.541 -18.783  47.818  1.00  0.00     0.032 C 
ENDBRANCH  27  30
ENDBRANCH  25  26
ENDBRANCH  23  25
ENDBRANCH   1  23
BRANCH   6  33
HETATM   33  C12 UNL     1       1.601 -15.357  43.024  1.00  0.00     0.182 C 
HETATM   34  O2  UNL     1       1.115 -16.022  42.076  1.00  0.00    -0.647 OA
HETATM   35  O3  UNL     1       0.763 -14.454  43.663  1.00  0.00    -0.647 OA
ENDBRANCH   6  33
TORSDOF 7
ENDMDL
MODEL 2
REMARK VINA RESULT: -9.277117239      0.915      1.046
REMARK  7 active torsions:
REMARK  status: ('A' for Active; 'I' for Inactive)
REMARK    1  A    between atoms: C2_2  and  N1_4 
REMARK       I    between atoms: N1_4  and  C4_6 
REMARK    2  A    between atoms: C4_6  and  C5_8 
REMARK    3  A    between atoms: C5_8  and  N2_9 
REMARK    4  A    between atoms: N2_9  and  C6_11 
REMARK    5  A    between atoms: C11_16  and  C12_17 
REMARK    6  A    between atoms: C15_22  and  O4_23 
REMARK    7  A    between atoms: O4_23  and  C16_24 
ROOT
HETATM    1  C6  UNL     1       4.577 -15.877  45.671  1.00  0.00     0.022 C 
HETATM    2  C7  UNL     1       4.559 -14.531  44.987  1.00  0.00     0.036 C 
HETATM    3  C8  UNL     1       5.619 -14.403  43.916  1.00  0.00     0.015 C 
HETATM    4  C9  UNL     1       5.406 -15.507  42.938  1.00  0.00    -0.009 C 
HETATM    5  C10 UNL     1       4.080 -15.440  42.239  1.00  0.00     0.025 C 
HETATM    6  C11 UNL     1       3.026 -15.573  43.333  1.00  0.00     0.052 C 
HETATM    7  C13 UNL     1       3.208 -14.425  44.269  1.00  0.00     0.031 C 
HETATM    8  C14 UNL     1       3.219 -16.909  43.962  1.00  0.00     0.065 C 
HETATM    9  C15 UNL     1       4.575 -17.027  44.700  1.00  0.00     0.103 C 
HETATM   10  C23 UNL     1       5.603 -16.846  43.604  1.00  0.00     0.049 C 
ENDROOT
BRANCH   9  11
HETATM   11  O4  UNL     1       4.544 -18.243  45.248  1.00  0.00    -0.350 OA
BRANCH  11  12
HETATM   12  C16 UNL     1       4.900 -19.387  44.667  1.00  0.00     0.217 C 
HETATM   13  C17 UNL     1       3.722 -20.322  44.547  1.00  0.00     0.055 C 
HETATM   14  C18 UNL     1       3.591 -21.308  45.655  1.00  0.00     0.028 C 
HETATM   15  C19 UNL     1       4.673 -22.299  45.784  1.00  0.00     0.050 A 
HETATM   16  C20 UNL     1       5.685 -21.860  46.779  1.00  0.00     0.043 C 
HETATM   17  C22 UNL     1       4.983 -23.300  44.717  1.00  0.00     0.132 A 
HETATM   18  S1  UNL     1       4.184 -24.014  46.012  1.00  0.00     0.026 S 
HETATM   19  C21 UNL     1       5.800 -20.353  46.713  1.00  0.00     0.118 C 
HETATM   20  N3  UNL     1       6.014 -19.986  45.368  1.00  0.00    -0.397 N 
ATOM     21  H3  UNL     1       6.913 -20.136  44.911  1.00  0.00     0.155 HD
HETATM   22  O5  UNL     1       4.940 -24.915  47.186  1.00  0.00    -0.257 OA
ENDBRANCH  11  12
ENDBRANCH   9  11
BRANCH   1  23
HETATM   23  N2  UNL     1       5.438 -15.986  46.790  1.00  0.00    -0.385 N 
ATOM     24  H2  UNL     1       5.239 -16.604  47.578  1.00  0.00     0.159 HD
BRANCH  23  25
HETATM   25  C5  UNL     1       6.622 -15.154  46.730  1.00  0.00     0.222 C 
BRANCH  25  26
HETATM   26  C4  UNL     1       7.833 -15.888  47.165  1.00  0.00     0.235 C 
HETATM   27  N1  UNL     1       7.959 -17.271  46.921  1.00  0.00    -0.356 N 
ATOM     28  H1  UNL     1       7.195 -17.748  46.442  1.00  0.00     0.162 HD
HETATM   29  O1  UNL     1       8.740 -15.260  47.749  1.00  0.00    -0.272 OA
BRANCH  27  30
HETATM   30  C2  UNL     1       9.114 -18.053  47.313  1.00  0.00     0.076 C 
HETATM   31  C1  UNL     1       9.296 -19.249  46.370  1.00  0.00     0.032 C 
HETATM   32  C3  UNL     1       8.846 -18.635  48.681  1.00  0.00     0.032 C 
ENDBRANCH  27  30
ENDBRANCH  25  26
ENDBRANCH  23  25
ENDBRANCH   1  23
BRANCH   6  33
HETATM   33  C12 UNL     1       1.663 -15.541  42.759  1.00  0.00     0.182 C 
HETATM   34  O2  UNL     1       1.388 -16.243  41.754  1.00  0.00    -0.647 OA
HETATM   35  O3  UNL     1       0.646 -14.757  43.285  1.00  0.00    -0.647 OA
ENDBRANCH   6  33
TORSDOF 7
ENDMDL
MODEL 3
REMARK VINA RESULT: -9.142655097      1.105      1.515
REMARK  7 active torsions:
REMARK  status: ('A' for Active; 'I' for Inactive)
REMARK    1  A    between atoms: C2_2  and  N1_4 
REMARK       I    between atoms: N1_4  and  C4_6 
REMARK    2  A    between atoms: C4_6  and  C5_8 
REMARK    3  A    between atoms: C5_8  and  N2_9 
REMARK    4  A    between atoms: N2_9  and  C6_11 
REMARK    5  A    between atoms: C11_16  and  C12_17 
REMARK    6  A    between atoms: C15_22  and  O4_23 
REMARK    7  A    between atoms: O4_23  and  C16_24 
ROOT
HETATM    1  C6  UNL     1       5.119 -15.956  45.623  1.00  0.00     0.022 C 
HETATM    2  C7  UNL     1       5.023 -14.603  44.959  1.00  0.00     0.036 C 
HETATM    3  C8  UNL     1       5.897 -14.489  43.730  1.00  0.00     0.015 C 
HETATM    4  C9  UNL     1       5.501 -15.578  42.794  1.00  0.00    -0.009 C 
HETATM    5  C10 UNL     1       4.081 -15.474  42.320  1.00  0.00     0.025 C 
HETATM    6  C11 UNL     1       3.216 -15.593  43.572  1.00  0.00     0.052 C 
HETATM    7  C13 UNL     1       3.576 -14.459  44.472  1.00  0.00     0.031 C 
HETATM    8  C14 UNL     1       3.476 -16.939  44.153  1.00  0.00     0.065 C 
HETATM    9  C15 UNL     1       4.930 -17.096  44.659  1.00  0.00     0.103 C 
HETATM   10  C23 UNL     1       5.770 -16.929  43.411  1.00  0.00     0.049 C 
ENDROOT
BRANCH   9  11
HETATM   11  O4  UNL     1       4.960 -18.316  45.198  1.00  0.00    -0.350 OA
BRANCH  11  12
HETATM   12  C16 UNL     1       4.074 -19.293  45.006  1.00  0.00     0.217 C 
HETATM   13  C17 UNL     1       3.819 -20.049  46.286  1.00  0.00     0.055 C 
HETATM   14  C18 UNL     1       4.642 -21.277  46.462  1.00  0.00     0.028 C 
HETATM   15  C19 UNL     1       4.416 -22.362  45.491  1.00  0.00     0.050 A 
HETATM   16  C20 UNL     1       5.400 -22.299  44.379  1.00  0.00     0.043 C 
HETATM   17  C22 UNL     1       3.104 -23.067  45.358  1.00  0.00     0.132 A 
HETATM   18  S1  UNL     1       4.234 -24.024  46.154  1.00  0.00     0.026 S 
HETATM   19  C21 UNL     1       5.716 -20.847  44.101  1.00  0.00     0.118 C 
HETATM   20  N3  UNL     1       4.498 -20.156  43.927  1.00  0.00    -0.397 N 
ATOM     21  H3  UNL     1       3.942 -20.261  43.078  1.00  0.00     0.155 HD
HETATM   22  O5  UNL     1       5.066 -25.270  45.435  1.00  0.00    -0.257 OA
ENDBRANCH  11  12
ENDBRANCH   9  11
BRANCH   1  23
HETATM   23  N2  UNL     1       6.148 -16.096  46.586  1.00  0.00    -0.385 N 
ATOM     24  H2  UNL     1       5.987 -15.963  47.585  1.00  0.00     0.159 HD
BRANCH  23  25
HETATM   25  C5  UNL     1       7.446 -16.443  46.044  1.00  0.00     0.222 C 
BRANCH  25  26
HETATM   26  C4  UNL     1       8.115 -17.492  46.847  1.00  0.00     0.235 C 
HETATM   27  N1  UNL     1       7.588 -18.798  46.902  1.00  0.00    -0.356 N 
ATOM     28  H1  UNL     1       6.735 -18.997  46.379  1.00  0.00     0.162 HD
HETATM   29  O1  UNL     1       9.155 -17.198  47.472  1.00  0.00    -0.272 OA
BRANCH  27  30
HETATM   30  C2  UNL     1       8.190 -19.875  47.662  1.00  0.00     0.076 C 
HETATM   31  C1  UNL     1       8.321 -21.134  46.795  1.00  0.00     0.032 C 
HETATM   32  C3  UNL     1       7.251 -20.238  48.789  1.00  0.00     0.032 C 
ENDBRANCH  27  30
ENDBRANCH  25  26
ENDBRANCH  23  25
ENDBRANCH   1  23
BRANCH   6  33
HETATM   33  C12 UNL     1       1.779 -15.524  43.228  1.00  0.00     0.182 C 
HETATM   34  O2  UNL     1       1.041 -14.671  43.782  1.00  0.00    -0.647 OA
HETATM   35  O3  UNL     1       1.187 -16.372  42.303  1.00  0.00    -0.647 OA
ENDBRANCH   6  33
TORSDOF 7
ENDMDL
MODEL 4
REMARK VINA RESULT: -8.488824063      3.103      3.953
REMARK  7 active torsions:
REMARK  status: ('A' for Active; 'I' for Inactive)
REMARK    1  A    between atoms: C2_2  and  N1_4 
REMARK       I    between atoms: N1_4  and  C4_6 
REMARK    2  A    between atoms: C4_6  and  C5_8 
REMARK    3  A    between atoms: C5_8  and  N2_9 
REMARK    4  A    between atoms: N2_9  and  C6_11 
REMARK    5  A    between atoms: C11_16  and  C12_17 
REMARK    6  A    between atoms: C15_22  and  O4_23 
REMARK    7  A    between atoms: O4_23  and  C16_24 
ROOT
HETATM    1  C6  UNL     1       3.856 -18.764  44.476  1.00  0.00     0.022 C 
HETATM    2  C7  UNL     1       4.719 -17.599  44.898  1.00  0.00     0.036 C 
HETATM    3  C8  UNL     1       5.799 -17.274  43.890  1.00  0.00     0.015 C 
HETATM    4  C9  UNL     1       5.131 -17.006  42.586  1.00  0.00    -0.009 C 
HETATM    5  C10 UNL     1       4.206 -15.825  42.617  1.00  0.00     0.025 C 
HETATM    6  C11 UNL     1       3.125 -16.171  43.635  1.00  0.00     0.052 C 
HETATM    7  C13 UNL     1       3.799 -16.373  44.951  1.00  0.00     0.031 C 
HETATM    8  C14 UNL     1       2.416 -17.377  43.123  1.00  0.00     0.065 C 
HETATM    9  C15 UNL     1       3.330 -18.626  43.073  1.00  0.00     0.103 C 
HETATM   10  C23 UNL     1       4.418 -18.242  42.094  1.00  0.00     0.049 C 
ENDROOT
BRANCH   9  11
HETATM   11  O4  UNL     1       2.523 -19.605  42.662  1.00  0.00    -0.350 OA
BRANCH  11  12
HETATM   12  C16 UNL     1       2.683 -20.368  41.581  1.00  0.00     0.217 C 
HETATM   13  C17 UNL     1       1.358 -20.647  40.916  1.00  0.00     0.055 C 
HETATM   14  C18 UNL     1       0.714 -21.928  41.319  1.00  0.00     0.028 C 
HETATM   15  C19 UNL     1       1.430 -23.164  40.960  1.00  0.00     0.050 A 
HETATM   16  C20 UNL     1       2.264 -23.647  42.091  1.00  0.00     0.043 C 
HETATM   17  C22 UNL     1       1.697 -23.560  39.543  1.00  0.00     0.132 A 
HETATM   18  S1  UNL     1       0.459 -24.480  40.211  1.00  0.00     0.026 S 
HETATM   19  C21 UNL     1       2.791 -22.447  42.845  1.00  0.00     0.118 C 
HETATM   20  N3  UNL     1       3.401 -21.577  41.916  1.00  0.00    -0.397 N 
ATOM     21  H3  UNL     1       4.308 -21.791  41.501  1.00  0.00     0.155 HD
HETATM   22  O5  UNL     1       0.652 -26.034  40.765  1.00  0.00    -0.257 OA
ENDBRANCH  11  12
ENDBRANCH   9  11
BRANCH   1  23
HETATM   23  N2  UNL     1       4.322 -20.045  44.861  1.00  0.00    -0.385 N 
ATOM     24  H2  UNL     1       4.819 -20.664  44.220  1.00  0.00     0.159 HD
BRANCH  23  25
HETATM   25  C5  UNL     1       4.039 -20.407  46.235  1.00  0.00     0.222 C 
BRANCH  25  26
HETATM   26  C4  UNL     1       5.223 -20.994  46.904  1.00  0.00     0.235 C 
HETATM   27  N1  UNL     1       6.347 -20.197  47.201  1.00  0.00    -0.356 N 
ATOM     28  H1  UNL     1       6.321 -19.211  46.941  1.00  0.00     0.162 HD
HETATM   29  O1  UNL     1       5.206 -22.207  47.200  1.00  0.00    -0.272 OA
BRANCH  27  30
HETATM   30  C2  UNL     1       7.537 -20.701  47.857  1.00  0.00     0.076 C 
HETATM   31  C1  UNL     1       7.445 -20.484  49.373  1.00  0.00     0.032 C 
HETATM   32  C3  UNL     1       8.716 -19.882  47.387  1.00  0.00     0.032 C 
ENDBRANCH  27  30
ENDBRANCH  25  26
ENDBRANCH  23  25
ENDBRANCH   1  23
BRANCH   6  33
HETATM   33  C12 UNL     1       2.132 -15.080  43.742  1.00  0.00     0.182 C 
HETATM   34  O2  UNL     1       2.332 -14.123  44.530  1.00  0.00    -0.647 OA
HETATM   35  O3  UNL     1       0.960 -15.057  42.998  1.00  0.00    -0.647 OA
ENDBRANCH   6  33
TORSDOF 7
ENDMDL
MODEL 5
REMARK VINA RESULT: -8.410847269      1.787      2.378
REMARK  7 active torsions:
REMARK  status: ('A' for Active; 'I' for Inactive)
REMARK    1  A    between atoms: C2_2  and  N1_4 
REMARK       I    between atoms: N1_4  and  C4_6 
REMARK    2  A    between atoms: C4_6  and  C5_8 
REMARK    3  A    between atoms: C5_8  and  N2_9 
REMARK    4  A    between atoms: N2_9  and  C6_11 
REMARK    5  A    between atoms: C11_16  and  C12_17 
REMARK    6  A    between atoms: C15_22  and  O4_23 
REMARK    7  A    between atoms: O4_23  and  C16_24 
ROOT
HETATM    1  C6  UNL     1       4.449 -16.577  45.297  1.00  0.00     0.022 C 
HETATM    2  C7  UNL     1       4.494 -15.101  44.984  1.00  0.00     0.036 C 
HETATM    3  C8  UNL     1       5.543 -14.751  43.954  1.00  0.00     0.015 C 
HETATM    4  C9  UNL     1       5.257 -15.552  42.730  1.00  0.00    -0.009 C 
HETATM    5  C10 UNL     1       3.927 -15.243  42.109  1.00  0.00     0.025 C 
HETATM    6  C11 UNL     1       2.883 -15.603  43.161  1.00  0.00     0.052 C 
HETATM    7  C13 UNL     1       3.140 -14.748  44.356  1.00  0.00     0.031 C 
HETATM    8  C14 UNL     1       3.013 -17.065  43.419  1.00  0.00     0.065 C 
HETATM    9  C15 UNL     1       4.371 -17.435  44.063  1.00  0.00     0.103 C 
HETATM   10  C23 UNL     1       5.391 -17.027  43.023  1.00  0.00     0.049 C 
ENDROOT
BRANCH   9  11
HETATM   11  O4  UNL     1       4.283 -18.748  44.279  1.00  0.00    -0.350 OA
BRANCH  11  12
HETATM   12  C16 UNL     1       3.367 -19.578  43.783  1.00  0.00     0.217 C 
HETATM   13  C17 UNL     1       3.092 -20.713  44.738  1.00  0.00     0.055 C 
HETATM   14  C18 UNL     1       3.876 -21.952  44.479  1.00  0.00     0.028 C 
HETATM   15  C19 UNL     1       3.613 -22.640  43.203  1.00  0.00     0.050 A 
HETATM   16  C20 UNL     1       4.595 -22.235  42.164  1.00  0.00     0.043 C 
HETATM   17  C22 UNL     1       2.279 -23.222  42.859  1.00  0.00     0.132 A 
HETATM   18  S1  UNL     1       3.381 -24.423  43.272  1.00  0.00     0.026 S 
HETATM   19  C21 UNL     1       4.956 -20.783  42.386  1.00  0.00     0.118 C 
HETATM   20  N3  UNL     1       3.760 -20.040  42.470  1.00  0.00    -0.397 N 
ATOM     21  H3  UNL     1       3.198 -19.837  41.644  1.00  0.00     0.155 HD
HETATM   22  O5  UNL     1       4.170 -25.377  42.165  1.00  0.00    -0.257 OA
ENDBRANCH  11  12
ENDBRANCH   9  11
BRANCH   1  23
HETATM   23  N2  UNL     1       5.319 -17.014  46.326  1.00  0.00    -0.385 N 
ATOM     24  H2  UNL     1       4.987 -17.259  47.259  1.00  0.00     0.159 HD
BRANCH  23  25
HETATM   25  C5  UNL     1       6.717 -17.086  45.951  1.00  0.00     0.222 C 
BRANCH  25  26
HETATM   26  C4  UNL     1       7.328 -18.373  46.353  1.00  0.00     0.235 C 
HETATM   27  N1  UNL     1       6.898 -19.584  45.772  1.00  0.00    -0.356 N 
ATOM     28  H1  UNL     1       6.156 -19.547  45.074  1.00  0.00     0.162 HD
HETATM   29  O1  UNL     1       8.233 -18.366  47.215  1.00  0.00    -0.272 OA
BRANCH  27  30
HETATM   30  C2  UNL     1       7.453 -20.878  46.113  1.00  0.00     0.076 C 
HETATM   31  C1  UNL     1       7.481 -21.789  44.879  1.00  0.00     0.032 C 
HETATM   32  C3  UNL     1       6.525 -21.542  47.103  1.00  0.00     0.032 C 
ENDBRANCH  27  30
ENDBRANCH  25  26
ENDBRANCH  23  25
ENDBRANCH   1  23
BRANCH   6  33
HETATM   33  C12 UNL     1       1.516 -15.358  42.653  1.00  0.00     0.182 C 
HETATM   34  O2  UNL     1       1.139 -15.892  41.579  1.00  0.00    -0.647 OA
HETATM   35  O3  UNL     1       0.603 -14.549  43.315  1.00  0.00    -0.647 OA
ENDBRANCH   6  33
TORSDOF 7
ENDMDL
