MODEL 1
REMARK VINA RESULT: -7.617528422      0.000      0.000
REMARK  8 active torsions:
REMARK  status: ('A' for Active; 'I' for Inactive)
REMARK    1  A    between atoms: C2_2  and  N2_4 
REMARK    2  A    between atoms: N2_4  and  C3_5 
REMARK    3  A    between atoms: C3_5  and  C4_6 
REMARK    4  A    between atoms: C10_15  and  C11_16 
REMARK       I    between atoms: N3_19  and  C12_20 
REMARK    5  A    between atoms: C12_20  and  C13_22 
REMARK    6  A    between atoms: C13_22  and  C15_24 
REMARK    7  A    between atoms: C13_22  and  C19_32 
REMARK    8  A    between atoms: C15_24  and  C16_25 
ROOT
HETATM    1  C3  UNL     1       4.706 -21.013  44.287  1.00  0.00     0.219 C 
HETATM    2  C5  UNL     1       4.635 -20.111  45.429  1.00  0.00     0.159 A 
HETATM    3  C6  UNL     1       5.056 -20.774  46.720  1.00  0.00     0.108 A 
HETATM    4  S1  UNL     1       5.569 -22.411  46.197  1.00  0.00    -0.146 SA
HETATM    5  C7  UNL     1       4.362 -22.460  44.805  1.00  0.00     0.051 C 
HETATM    6  C8  UNL     1       4.703 -23.483  43.796  1.00  0.00     0.031 C 
HETATM    7  C9  UNL     1       2.974 -22.462  45.287  1.00  0.00     0.031 C 
HETATM    8  C10 UNL     1       5.990 -19.706  46.969  1.00  0.00     0.204 A 
HETATM    9  N3  UNL     1       5.481 -19.013  45.740  1.00  0.00    -0.325 N 
HETATM   10  C12 UNL     1       5.807 -17.696  45.387  1.00  0.00     0.230 C 
HETATM   11  O5  UNL     1       6.797 -17.140  45.992  1.00  0.00    -0.272 OA
ENDROOT
BRANCH   8  12
HETATM   12  C11 UNL     1       7.406 -19.845  47.134  1.00  0.00     0.198 C 
HETATM   13  O3  UNL     1       7.851 -19.787  48.346  1.00  0.00    -0.646 OA
HETATM   14  O4  UNL     1       8.394 -20.031  46.195  1.00  0.00    -0.646 OA
ENDBRANCH   8  12
BRANCH  10  15
HETATM   15  C13 UNL     1       5.165 -16.787  44.388  1.00  0.00     0.045 C 
HETATM   16  C14 UNL     1       5.384 -17.397  43.009  1.00  0.00     0.026 C 
BRANCH  15  17
HETATM   17  C15 UNL     1       3.682 -16.779  44.704  1.00  0.00     0.077 C 
BRANCH  17  18
HETATM   18  C16 UNL     1       2.748 -16.339  43.686  1.00  0.00     0.026 A 
HETATM   19  C17 UNL     1       2.255 -15.063  43.477  1.00  0.00     0.114 A 
HETATM   20  N4  UNL     1       1.414 -15.093  42.444  1.00  0.00    -0.360 N 
HETATM   21  C18 UNL     1       1.367 -16.356  41.997  1.00  0.00     0.180 A 
ATOM     22  H4  UNL     1       0.899 -14.300  42.062  1.00  0.00     0.166 HD
HETATM   23  N5  UNL     1       2.172 -17.099  42.749  1.00  0.00    -0.355 N 
ATOM     24  H5  UNL     1       2.327 -18.100  42.629  1.00  0.00     0.166 HD
ENDBRANCH  17  18
ENDBRANCH  15  17
BRANCH  15  25
HETATM   25  C19 UNL     1       5.837 -15.463  44.457  1.00  0.00    -0.005 C 
HETATM   26  C20 UNL     1       5.199 -14.501  45.438  1.00  0.00     0.011 C 
HETATM   27  C21 UNL     1       6.101 -14.761  43.174  1.00  0.00     0.011 C 
ENDBRANCH  15  25
ENDBRANCH  10  15
BRANCH   1  28
HETATM   28  N2  UNL     1       3.717 -20.732  43.365  1.00  0.00    -0.411 NA
BRANCH  28  29
HETATM   29  C2  UNL     1       2.899 -20.493  42.575  1.00  0.00     0.157 C 
HETATM   30  C1  UNL     1       1.497 -21.076  42.588  1.00  0.00     0.101 C 
HETATM   31  N1  UNL     1       3.084 -19.595  41.439  1.00  0.00    -0.073 NA
ENDBRANCH  28  29
ENDBRANCH   1  28
BRANCH   1  32
HETATM   32  C4  UNL     1       6.047 -21.224  43.635  1.00  0.00     0.220 C 
HETATM   33  O1  UNL     1       6.233 -20.826  42.454  1.00  0.00    -0.645 OA
HETATM   34  O2  UNL     1       7.126 -21.838  44.223  1.00  0.00    -0.645 OA
ENDBRANCH   1  32
TORSDOF 8
ENDMDL
MODEL 2
REMARK VINA RESULT: -7.468349557      2.619      5.072
REMARK  8 active torsions:
REMARK  status: ('A' for Active; 'I' for Inactive)
REMARK    1  A    between atoms: C2_2  and  N2_4 
REMARK    2  A    between atoms: N2_4  and  C3_5 
REMARK    3  A    between atoms: C3_5  and  C4_6 
REMARK    4  A    between atoms: C10_15  and  C11_16 
REMARK       I    between atoms: N3_19  and  C12_20 
REMARK    5  A    between atoms: C12_20  and  C13_22 
REMARK    6  A    between atoms: C13_22  and  C15_24 
REMARK    7  A    between atoms: C13_22  and  C19_32 
REMARK    8  A    between atoms: C15_24  and  C16_25 
ROOT
HETATM    1  C3  UNL     1       5.336 -21.111  45.058  1.00  0.00     0.219 C 
HETATM    2  C5  UNL     1       5.527 -20.285  43.873  1.00  0.00     0.159 A 
HETATM    3  C6  UNL     1       5.144 -21.001  42.599  1.00  0.00     0.108 A 
HETATM    4  S1  UNL     1       4.506 -22.573  43.183  1.00  0.00    -0.146 SA
HETATM    5  C7  UNL     1       5.625 -22.603  44.646  1.00  0.00     0.051 C 
HETATM    6  C8  UNL     1       5.166 -23.543  45.690  1.00  0.00     0.031 C 
HETATM    7  C9  UNL     1       7.037 -22.711  44.252  1.00  0.00     0.031 C 
HETATM    8  C10 UNL     1       4.290 -19.901  42.232  1.00  0.00     0.204 A 
HETATM    9  N3  UNL     1       4.766 -19.163  43.448  1.00  0.00    -0.325 N 
HETATM   10  C12 UNL     1       4.498 -17.811  43.705  1.00  0.00     0.230 C 
HETATM   11  O5  UNL     1       3.579 -17.240  43.008  1.00  0.00    -0.272 OA
ENDROOT
BRANCH   8  12
HETATM   12  C11 UNL     1       2.881 -19.971  41.988  1.00  0.00     0.198 C 
HETATM   13  O3  UNL     1       2.497 -19.750  40.773  1.00  0.00    -0.646 OA
HETATM   14  O4  UNL     1       1.844 -20.239  42.851  1.00  0.00    -0.646 OA
ENDBRANCH   8  12
BRANCH  10  15
HETATM   15  C13 UNL     1       5.132 -16.880  44.688  1.00  0.00     0.045 C 
HETATM   16  C14 UNL     1       4.555 -17.204  46.061  1.00  0.00     0.026 C 
BRANCH  15  17
HETATM   17  C15 UNL     1       6.616 -17.191  44.680  1.00  0.00     0.077 C 
BRANCH  17  18
HETATM   18  C16 UNL     1       7.407 -16.880  45.855  1.00  0.00     0.026 A 
HETATM   19  C17 UNL     1       7.364 -15.735  46.631  1.00  0.00     0.114 A 
HETATM   20  N4  UNL     1       8.262 -15.848  47.609  1.00  0.00    -0.360 N 
HETATM   21  C18 UNL     1       8.866 -17.036  47.469  1.00  0.00     0.180 A 
ATOM     22  H4  UNL     1       8.454 -15.156  48.334  1.00  0.00     0.166 HD
HETATM   23  N5  UNL     1       8.347 -17.651  46.412  1.00  0.00    -0.355 N 
ATOM     24  H5  UNL     1       8.624 -18.573  46.076  1.00  0.00     0.166 HD
ENDBRANCH  17  18
ENDBRANCH  15  17
BRANCH  15  25
HETATM   25  C19 UNL     1       4.773 -15.486  44.316  1.00  0.00    -0.005 C 
HETATM   26  C20 UNL     1       5.858 -14.756  43.552  1.00  0.00     0.011 C 
HETATM   27  C21 UNL     1       4.242 -14.606  45.387  1.00  0.00     0.011 C 
ENDBRANCH  15  25
ENDBRANCH  10  15
BRANCH   1  28
HETATM   28  N2  UNL     1       6.284 -20.830  46.023  1.00  0.00    -0.411 NA
BRANCH  28  29
HETATM   29  C2  UNL     1       7.080 -20.612  46.841  1.00  0.00     0.157 C 
HETATM   30  C1  UNL     1       6.758 -20.361  48.304  1.00  0.00     0.101 C 
HETATM   31  N1  UNL     1       8.518 -20.543  46.600  1.00  0.00    -0.073 NA
ENDBRANCH  28  29
ENDBRANCH   1  28
BRANCH   1  32
HETATM   32  C4  UNL     1       3.949 -21.208  45.637  1.00  0.00     0.220 C 
HETATM   33  O1  UNL     1       3.640 -20.498  46.631  1.00  0.00    -0.645 OA
HETATM   34  O2  UNL     1       2.953 -22.033  45.174  1.00  0.00    -0.645 OA
ENDBRANCH   1  32
TORSDOF 8
ENDMDL
MODEL 3
REMARK VINA RESULT: -7.198654229      2.590      4.845
REMARK  8 active torsions:
REMARK  status: ('A' for Active; 'I' for Inactive)
REMARK    1  A    between atoms: C2_2  and  N2_4 
REMARK    2  A    between atoms: N2_4  and  C3_5 
REMARK    3  A    between atoms: C3_5  and  C4_6 
REMARK    4  A    between atoms: C10_15  and  C11_16 
REMARK       I    between atoms: N3_19  and  C12_20 
REMARK    5  A    between atoms: C12_20  and  C13_22 
REMARK    6  A    between atoms: C13_22  and  C15_24 
REMARK    7  A    between atoms: C13_22  and  C19_32 
REMARK    8  A    between atoms: C15_24  and  C16_25 
ROOT
HETATM    1  C3  UNL     1       5.343 -20.119  44.733  1.00  0.00     0.219 C 
HETATM    2  C5  UNL     1       5.112 -19.499  43.435  1.00  0.00     0.159 A 
HETATM    3  C6  UNL     1       4.588 -20.479  42.410  1.00  0.00     0.108 A 
HETATM    4  S1  UNL     1       4.392 -21.995  43.349  1.00  0.00    -0.146 SA
HETATM    5  C7  UNL     1       5.797 -21.604  44.475  1.00  0.00     0.051 C 
HETATM    6  C8  UNL     1       5.760 -22.397  45.721  1.00  0.00     0.031 C 
HETATM    7  C9  UNL     1       7.080 -21.580  43.759  1.00  0.00     0.031 C 
HETATM    8  C10 UNL     1       3.490 -19.594  42.119  1.00  0.00     0.204 A 
HETATM    9  N3  UNL     1       4.085 -18.591  43.061  1.00  0.00    -0.325 N 
HETATM   10  C12 UNL     1       3.642 -17.266  43.185  1.00  0.00     0.230 C 
HETATM   11  O5  UNL     1       2.503 -16.965  42.668  1.00  0.00    -0.272 OA
ENDROOT
BRANCH   8  12
HETATM   12  C11 UNL     1       2.098 -19.906  42.248  1.00  0.00     0.198 C 
HETATM   13  O3  UNL     1       1.379 -19.772  41.182  1.00  0.00    -0.646 OA
HETATM   14  O4  UNL     1       1.383 -20.331  43.343  1.00  0.00    -0.646 OA
ENDBRANCH   8  12
BRANCH  10  15
HETATM   15  C13 UNL     1       4.302 -16.094  43.837  1.00  0.00     0.045 C 
HETATM   16  C14 UNL     1       3.322 -14.928  43.779  1.00  0.00     0.026 C 
BRANCH  15  17
HETATM   17  C15 UNL     1       4.535 -16.482  45.284  1.00  0.00     0.077 C 
BRANCH  17  18
HETATM   18  C16 UNL     1       5.394 -15.652  46.106  1.00  0.00     0.026 A 
HETATM   19  C17 UNL     1       5.096 -14.433  46.689  1.00  0.00     0.114 A 
HETATM   20  N4  UNL     1       6.169 -14.003  47.353  1.00  0.00    -0.360 N 
HETATM   21  C18 UNL     1       7.133 -14.922  47.203  1.00  0.00     0.180 A 
ATOM     22  H4  UNL     1       6.243 -13.132  47.879  1.00  0.00     0.166 HD
HETATM   23  N5  UNL     1       6.660 -15.911  46.453  1.00  0.00    -0.355 N 
ATOM     24  H5  UNL     1       7.184 -16.742  46.182  1.00  0.00     0.166 HD
ENDBRANCH  17  18
ENDBRANCH  15  17
BRANCH  15  25
HETATM   25  C19 UNL     1       5.525 -15.753  43.066  1.00  0.00    -0.005 C 
HETATM   26  C20 UNL     1       6.071 -14.370  43.360  1.00  0.00     0.011 C 
HETATM   27  C21 UNL     1       5.494 -15.972  41.598  1.00  0.00     0.011 C 
ENDBRANCH  15  25
ENDBRANCH  10  15
BRANCH   1  28
HETATM   28  N2  UNL     1       6.417 -19.537  45.380  1.00  0.00    -0.411 NA
BRANCH  28  29
HETATM   29  C2  UNL     1       7.326 -19.039  45.905  1.00  0.00     0.157 C 
HETATM   30  C1  UNL     1       7.716 -19.280  47.353  1.00  0.00     0.101 C 
HETATM   31  N1  UNL     1       8.240 -18.099  45.263  1.00  0.00    -0.073 NA
ENDBRANCH  28  29
ENDBRANCH   1  28
BRANCH   1  32
HETATM   32  C4  UNL     1       4.163 -20.305  45.649  1.00  0.00     0.220 C 
HETATM   33  O1  UNL     1       4.070 -19.606  46.693  1.00  0.00    -0.645 OA
HETATM   34  O2  UNL     1       3.142 -21.203  45.453  1.00  0.00    -0.645 OA
ENDBRANCH   1  32
TORSDOF 8
ENDMDL
MODEL 4
REMARK VINA RESULT: -7.028261568      3.050      5.417
REMARK  8 active torsions:
REMARK  status: ('A' for Active; 'I' for Inactive)
REMARK    1  A    between atoms: C2_2  and  N2_4 
REMARK    2  A    between atoms: N2_4  and  C3_5 
REMARK    3  A    between atoms: C3_5  and  C4_6 
REMARK    4  A    between atoms: C10_15  and  C11_16 
REMARK       I    between atoms: N3_19  and  C12_20 
REMARK    5  A    between atoms: C12_20  and  C13_22 
REMARK    6  A    between atoms: C13_22  and  C15_24 
REMARK    7  A    between atoms: C13_22  and  C19_32 
REMARK    8  A    between atoms: C15_24  and  C16_25 
ROOT
HETATM    1  C3  UNL     1       3.954 -21.267  43.430  1.00  0.00     0.219 C 
HETATM    2  C5  UNL     1       4.612 -20.146  42.771  1.00  0.00     0.159 A 
HETATM    3  C6  UNL     1       3.811 -19.604  41.610  1.00  0.00     0.108 A 
HETATM    4  S1  UNL     1       2.305 -20.577  41.656  1.00  0.00    -0.146 SA
HETATM    5  C7  UNL     1       3.160 -22.064  42.328  1.00  0.00     0.051 C 
HETATM    6  C8  UNL     1       2.223 -23.028  42.939  1.00  0.00     0.031 C 
HETATM    7  C9  UNL     1       4.127 -22.617  41.369  1.00  0.00     0.031 C 
HETATM    8  C10 UNL     1       3.900 -18.277  42.164  1.00  0.00     0.204 A 
HETATM    9  N3  UNL     1       4.783 -18.819  43.248  1.00  0.00    -0.325 N 
HETATM   10  C12 UNL     1       5.494 -18.022  44.157  1.00  0.00     0.230 C 
HETATM   11  O5  UNL     1       5.171 -16.780  44.245  1.00  0.00    -0.272 OA
ENDROOT
BRANCH   8  12
HETATM   12  C11 UNL     1       2.797 -17.444  42.538  1.00  0.00     0.198 C 
HETATM   13  O3  UNL     1       2.569 -16.420  41.781  1.00  0.00    -0.646 OA
HETATM   14  O4  UNL     1       1.922 -17.551  43.594  1.00  0.00    -0.646 OA
ENDBRANCH   8  12
BRANCH  10  15
HETATM   15  C13 UNL     1       6.617 -18.387  45.075  1.00  0.00     0.045 C 
HETATM   16  C14 UNL     1       7.444 -19.461  44.378  1.00  0.00     0.026 C 
BRANCH  15  17
HETATM   17  C15 UNL     1       7.457 -17.137  45.244  1.00  0.00     0.077 C 
BRANCH  17  18
HETATM   18  C16 UNL     1       8.103 -16.890  46.519  1.00  0.00     0.026 A 
HETATM   19  C17 UNL     1       8.003 -15.767  47.321  1.00  0.00     0.114 A 
HETATM   20  N4  UNL     1       8.765 -15.943  48.400  1.00  0.00    -0.360 N 
HETATM   21  C18 UNL     1       9.341 -17.149  48.296  1.00  0.00     0.180 A 
ATOM     22  H4  UNL     1       8.889 -15.281  49.166  1.00  0.00     0.166 HD
HETATM   23  N5  UNL     1       8.938 -17.713  47.163  1.00  0.00    -0.355 N 
ATOM     24  H5  UNL     1       9.223 -18.635  46.834  1.00  0.00     0.166 HD
ENDBRANCH  17  18
ENDBRANCH  15  17
BRANCH  15  25
HETATM   25  C19 UNL     1       6.040 -18.940  46.328  1.00  0.00    -0.005 C 
HETATM   26  C20 UNL     1       6.440 -20.374  46.608  1.00  0.00     0.011 C 
HETATM   27  C21 UNL     1       4.578 -18.782  46.538  1.00  0.00     0.011 C 
ENDBRANCH  15  25
ENDBRANCH  10  15
BRANCH   1  28
HETATM   28  N2  UNL     1       4.876 -22.174  43.915  1.00  0.00    -0.411 NA
BRANCH  28  29
HETATM   29  C2  UNL     1       5.666 -22.932  44.307  1.00  0.00     0.157 C 
HETATM   30  C1  UNL     1       5.425 -23.908  45.445  1.00  0.00     0.101 C 
HETATM   31  N1  UNL     1       7.017 -23.069  43.773  1.00  0.00    -0.073 NA
ENDBRANCH  28  29
ENDBRANCH   1  28
BRANCH   1  32
HETATM   32  C4  UNL     1       2.875 -20.962  44.436  1.00  0.00     0.220 C 
HETATM   33  O1  UNL     1       2.970 -21.419  45.606  1.00  0.00    -0.645 OA
HETATM   34  O2  UNL     1       1.751 -20.213  44.189  1.00  0.00    -0.645 OA
ENDBRANCH   1  32
TORSDOF 8
ENDMDL
MODEL 5
REMARK VINA RESULT: -6.785094628      3.075      5.459
REMARK  8 active torsions:
REMARK  status: ('A' for Active; 'I' for Inactive)
REMARK    1  A    between atoms: C2_2  and  N2_4 
REMARK    2  A    between atoms: N2_4  and  C3_5 
REMARK    3  A    between atoms: C3_5  and  C4_6 
REMARK    4  A    between atoms: C10_15  and  C11_16 
REMARK       I    between atoms: N3_19  and  C12_20 
REMARK    5  A    between atoms: C12_20  and  C13_22 
REMARK    6  A    between atoms: C13_22  and  C15_24 
REMARK    7  A    between atoms: C13_22  and  C19_32 
REMARK    8  A    between atoms: C15_24  and  C16_25 
ROOT
HETATM    1  C3  UNL     1       6.632 -22.681  45.722  1.00  0.00     0.219 C 
HETATM    2  C5  UNL     1       6.810 -22.029  44.431  1.00  0.00     0.159 A 
HETATM    3  C6  UNL     1       6.797 -23.008  43.280  1.00  0.00     0.108 A 
HETATM    4  S1  UNL     1       6.448 -24.577  44.075  1.00  0.00    -0.146 SA
HETATM    5  C7  UNL     1       7.309 -24.100  45.633  1.00  0.00     0.051 C 
HETATM    6  C8  UNL     1       6.920 -24.948  46.777  1.00  0.00     0.031 C 
HETATM    7  C9  UNL     1       8.752 -23.913  45.424  1.00  0.00     0.031 C 
HETATM    8  C10 UNL     1       5.783 -22.225  42.621  1.00  0.00     0.204 A 
HETATM    9  N3  UNL     1       5.890 -21.212  43.721  1.00  0.00    -0.325 N 
HETATM   10  C12 UNL     1       5.288 -19.946  43.688  1.00  0.00     0.230 C 
HETATM   11  O5  UNL     1       4.381 -19.737  42.799  1.00  0.00    -0.272 OA
ENDROOT
BRANCH   8  12
HETATM   12  C11 UNL     1       4.480 -22.681  42.241  1.00  0.00     0.198 C 
HETATM   13  O3  UNL     1       4.352 -23.105  41.026  1.00  0.00    -0.646 OA
HETATM   14  O4  UNL     1       3.314 -22.742  42.968  1.00  0.00    -0.646 OA
ENDBRANCH   8  12
BRANCH  10  15
HETATM   15  C13 UNL     1       5.538 -18.744  44.542  1.00  0.00     0.045 C 
HETATM   16  C14 UNL     1       5.134 -19.105  45.966  1.00  0.00     0.026 C 
BRANCH  15  17
HETATM   17  C15 UNL     1       7.032 -18.487  44.494  1.00  0.00     0.077 C 
BRANCH  17  18
HETATM   18  C16 UNL     1       7.665 -17.810  45.609  1.00  0.00     0.026 A 
HETATM   19  C17 UNL     1       7.543 -16.482  45.980  1.00  0.00     0.114 A 
HETATM   20  N4  UNL     1       8.300 -16.267  47.056  1.00  0.00    -0.360 N 
HETATM   21  C18 UNL     1       8.894 -17.427  47.371  1.00  0.00     0.180 A 
ATOM     22  H4  UNL     1       8.408 -15.381  47.549  1.00  0.00     0.166 HD
HETATM   23  N5  UNL     1       8.507 -18.350  46.497  1.00  0.00    -0.355 N 
ATOM     24  H5  UNL     1       8.808 -19.324  46.503  1.00  0.00     0.166 HD
ENDBRANCH  17  18
ENDBRANCH  15  17
BRANCH  15  25
HETATM   25  C19 UNL     1       4.686 -17.631  44.050  1.00  0.00    -0.005 C 
HETATM   26  C20 UNL     1       5.362 -16.747  43.023  1.00  0.00     0.011 C 
HETATM   27  C21 UNL     1       4.011 -16.784  45.066  1.00  0.00     0.011 C 
ENDBRANCH  15  25
ENDBRANCH  10  15
BRANCH   1  28
HETATM   28  N2  UNL     1       7.334 -22.025  46.715  1.00  0.00    -0.411 NA
BRANCH  28  29
HETATM   29  C2  UNL     1       7.915 -21.456  47.544  1.00  0.00     0.157 C 
HETATM   30  C1  UNL     1       7.278 -20.885  48.799  1.00  0.00     0.101 C 
HETATM   31  N1  UNL     1       9.351 -21.193  47.518  1.00  0.00    -0.073 NA
ENDBRANCH  28  29
ENDBRANCH   1  28
BRANCH   1  32
HETATM   32  C4  UNL     1       5.231 -23.027  46.153  1.00  0.00     0.220 C 
HETATM   33  O1  UNL     1       4.722 -22.438  47.143  1.00  0.00    -0.645 OA
HETATM   34  O2  UNL     1       4.427 -23.965  45.552  1.00  0.00    -0.645 OA
ENDBRANCH   1  32
TORSDOF 8
ENDMDL
