MODEL 1
REMARK VINA RESULT: -8.060754480      0.000      0.000
REMARK  9 active torsions:
REMARK  status: ('A' for Active; 'I' for Inactive)
REMARK    1  A    between atoms: C2_2  and  O1_4 
REMARK    2  A    between atoms: O1_4  and  C4_5 
REMARK       I    between atoms: C4_5  and  N1_7 
REMARK    3  A    between atoms: C7_10  and  N2_11 
REMARK       I    between atoms: N2_11  and  C8_12 
REMARK    4  A    between atoms: C8_12  and  C9_14 
REMARK    5  A    between atoms: C9_14  and  C10_15 
REMARK    6  A    between atoms: C9_14  and  N6_25 
REMARK    7  A    between atoms: C10_15  and  C11_16 
REMARK    8  A    between atoms: C11_16  and  C12_17 
REMARK    9  A    between atoms: C12_17  and  N3_18 
REMARK       I    between atoms: N3_18  and  C13_20 
ROOT
HETATM    1  C9  UNL     1       7.275 -16.472  45.635  1.00  0.00     0.190 C 
ENDROOT
BRANCH   1   2
HETATM    2  C8  UNL     1       7.389 -17.917  45.172  1.00  0.00     0.309 C 
HETATM    3  N2  UNL     1       6.282 -18.689  44.747  1.00  0.00    -0.408 NA
HETATM    4  O3  UNL     1       8.549 -18.357  45.211  1.00  0.00    -0.255 OA
BRANCH   3   5
HETATM    5  C7  UNL     1       5.262 -19.415  44.350  1.00  0.00     0.170 C 
HETATM    6  C6  UNL     1       3.982 -19.358  45.209  1.00  0.00     0.059 C 
HETATM    7  C5  UNL     1       2.850 -19.728  44.268  1.00  0.00     0.131 C 
HETATM    8  N1  UNL     1       3.372 -20.872  43.506  1.00  0.00    -0.328 N 
HETATM    9  C4  UNL     1       2.830 -21.116  42.225  1.00  0.00     0.363 C 
HETATM   10  C23 UNL     1       4.405 -21.707  44.070  1.00  0.00     0.131 C 
HETATM   11  O2  UNL     1       1.906 -20.413  41.759  1.00  0.00    -0.238 OA
HETATM   12  C22 UNL     1       5.655 -20.909  44.245  1.00  0.00     0.059 C 
BRANCH   9  13
HETATM   13  O1  UNL     1       3.285 -22.149  41.400  1.00  0.00    -0.299 OA
BRANCH  13  14
HETATM   14  C2  UNL     1       2.449 -23.247  41.064  1.00  0.00     0.125 C 
HETATM   15  C1  UNL     1       3.161 -24.210  40.145  1.00  0.00     0.040 C 
HETATM   16  C3  UNL     1       1.913 -23.973  42.245  1.00  0.00     0.040 C 
ENDBRANCH  13  14
ENDBRANCH   9  13
ENDBRANCH   3   5
ENDBRANCH   1   2
BRANCH   1  17
HETATM   17  C10 UNL     1       7.541 -16.488  47.074  1.00  0.00     0.038 C 
BRANCH  17  18
HETATM   18  C11 UNL     1       8.745 -15.762  47.591  1.00  0.00     0.022 C 
BRANCH  18  19
HETATM   19  C12 UNL     1       9.610 -16.815  48.255  1.00  0.00     0.122 C 
BRANCH  19  20
HETATM   20  N3  UNL     1       8.939 -18.045  48.483  1.00  0.00    -0.365 N 
HETATM   21  C13 UNL     1       9.692 -19.239  48.416  1.00  0.00     0.181 C 
HETATM   22  N4  UNL     1      10.040 -19.777  47.293  1.00  0.00    -0.374 N 
HETATM   23  N5  UNL     1      10.078 -19.891  49.607  1.00  0.00    -0.064 NA
ATOM     24  H42 UNL     1       9.761 -19.306  46.432  1.00  0.00     0.158 HD
ATOM     25  H41 UNL     1      10.584 -20.639  47.244  1.00  0.00     0.158 HD
ATOM     26  H3  UNL     1       7.941 -18.066  48.691  1.00  0.00     0.162 HD
ENDBRANCH  19  20
ENDBRANCH  18  19
ENDBRANCH  17  18
ENDBRANCH   1  17
BRANCH   1  27
HETATM   27  N6  UNL     1       6.185 -15.807  45.088  1.00  0.00    -0.376 N 
HETATM   28  C14 UNL     1       6.383 -15.274  43.782  1.00  0.00     0.142 C 
HETATM   29  C15 UNL     1       5.310 -15.657  42.841  1.00  0.00     0.137 C 
HETATM   30  N7  UNL     1       4.117 -16.161  43.408  1.00  0.00    -0.402 N 
HETATM   31  C16 UNL     1       3.076 -16.383  42.478  1.00  0.00     0.117 C 
HETATM   32  C20 UNL     1       3.732 -15.760  44.689  1.00  0.00     0.117 C 
HETATM   33  C17 UNL     1       1.809 -15.659  42.703  1.00  0.00     0.019 C 
HETATM   34  C18 UNL     1       1.791 -14.622  43.755  1.00  0.00     0.004 C 
HETATM   35  C19 UNL     1       3.008 -14.441  44.579  1.00  0.00     0.030 C 
HETATM   36  C21 UNL     1       4.922 -15.732  45.631  1.00  0.00     0.084 C 
ENDBRANCH   1  27
TORSDOF 9
ENDMDL
MODEL 2
REMARK VINA RESULT: -8.012844347      1.621      2.163
REMARK  9 active torsions:
REMARK  status: ('A' for Active; 'I' for Inactive)
REMARK    1  A    between atoms: C2_2  and  O1_4 
REMARK    2  A    between atoms: O1_4  and  C4_5 
REMARK       I    between atoms: C4_5  and  N1_7 
REMARK    3  A    between atoms: C7_10  and  N2_11 
REMARK       I    between atoms: N2_11  and  C8_12 
REMARK    4  A    between atoms: C8_12  and  C9_14 
REMARK    5  A    between atoms: C9_14  and  C10_15 
REMARK    6  A    between atoms: C9_14  and  N6_25 
REMARK    7  A    between atoms: C10_15  and  C11_16 
REMARK    8  A    between atoms: C11_16  and  C12_17 
REMARK    9  A    between atoms: C12_17  and  N3_18 
REMARK       I    between atoms: N3_18  and  C13_20 
ROOT
HETATM    1  C9  UNL     1       7.302 -17.239  45.456  1.00  0.00     0.190 C 
ENDROOT
BRANCH   1   2
HETATM    2  C8  UNL     1       7.343 -18.539  44.667  1.00  0.00     0.309 C 
HETATM    3  N2  UNL     1       6.184 -19.220  44.227  1.00  0.00    -0.408 NA
HETATM    4  O3  UNL     1       8.495 -18.948  44.451  1.00  0.00    -0.255 OA
BRANCH   3   5
HETATM    5  C7  UNL     1       5.115 -19.862  43.814  1.00  0.00     0.170 C 
HETATM    6  C6  UNL     1       4.559 -19.482  42.426  1.00  0.00     0.059 C 
HETATM    7  C5  UNL     1       3.798 -20.705  41.950  1.00  0.00     0.131 C 
HETATM    8  N1  UNL     1       3.042 -21.144  43.133  1.00  0.00    -0.328 N 
HETATM    9  C4  UNL     1       2.669 -22.504  43.212  1.00  0.00     0.363 C 
HETATM   10  C23 UNL     1       2.700 -20.198  44.167  1.00  0.00     0.131 C 
HETATM   11  O2  UNL     1       2.932 -23.312  42.294  1.00  0.00    -0.238 OA
HETATM   12  C22 UNL     1       3.948 -19.694  44.817  1.00  0.00     0.059 C 
BRANCH   9  13
HETATM   13  O1  UNL     1       1.989 -23.034  44.312  1.00  0.00    -0.299 OA
BRANCH  13  14
HETATM   14  C2  UNL     1       2.658 -23.826  45.283  1.00  0.00     0.125 C 
HETATM   15  C1  UNL     1       2.715 -25.274  44.858  1.00  0.00     0.040 C 
HETATM   16  C3  UNL     1       4.023 -23.338  45.613  1.00  0.00     0.040 C 
ENDBRANCH  13  14
ENDBRANCH   9  13
ENDBRANCH   3   5
ENDBRANCH   1   2
BRANCH   1  17
HETATM   17  C10 UNL     1       7.477 -17.614  46.860  1.00  0.00     0.038 C 
BRANCH  17  18
HETATM   18  C11 UNL     1       8.862 -17.637  47.431  1.00  0.00     0.022 C 
BRANCH  18  19
HETATM   19  C12 UNL     1       9.019 -18.997  48.084  1.00  0.00     0.122 C 
BRANCH  19  20
HETATM   20  N3  UNL     1       8.001 -19.298  49.026  1.00  0.00    -0.365 N 
HETATM   21  C13 UNL     1       7.400 -20.576  48.974  1.00  0.00     0.181 C 
HETATM   22  N4  UNL     1       6.509 -20.889  48.092  1.00  0.00    -0.374 N 
HETATM   23  N5  UNL     1       7.767 -21.559  49.920  1.00  0.00    -0.064 NA
ATOM     24  H42 UNL     1       6.245 -20.178  47.410  1.00  0.00     0.158 HD
ATOM     25  H41 UNL     1       6.075 -21.812  48.055  1.00  0.00     0.158 HD
ATOM     26  H3  UNL     1       7.711 -18.610  49.721  1.00  0.00     0.162 HD
ENDBRANCH  19  20
ENDBRANCH  18  19
ENDBRANCH  17  18
ENDBRANCH   1  17
BRANCH   1  27
HETATM   27  N6  UNL     1       6.296 -16.377  45.038  1.00  0.00    -0.376 N 
HETATM   28  C14 UNL     1       6.524 -15.726  43.792  1.00  0.00     0.142 C 
HETATM   29  C15 UNL     1       5.380 -15.852  42.865  1.00  0.00     0.137 C 
HETATM   30  N7  UNL     1       4.147 -16.256  43.428  1.00  0.00    -0.402 N 
HETATM   31  C16 UNL     1       3.057 -16.230  42.529  1.00  0.00     0.117 C 
HETATM   32  C20 UNL     1       3.861 -15.960  44.762  1.00  0.00     0.117 C 
HETATM   33  C17 UNL     1       1.908 -15.376  42.892  1.00  0.00     0.019 C 
HETATM   34  C18 UNL     1       2.065 -14.475  44.052  1.00  0.00     0.004 C 
HETATM   35  C19 UNL     1       3.321 -14.553  44.832  1.00  0.00     0.030 C 
HETATM   36  C21 UNL     1       5.073 -16.198  45.645  1.00  0.00     0.084 C 
ENDBRANCH   1  27
TORSDOF 9
ENDMDL
MODEL 3
REMARK VINA RESULT: -8.010122990      2.507      8.312
REMARK  9 active torsions:
REMARK  status: ('A' for Active; 'I' for Inactive)
REMARK    1  A    between atoms: C2_2  and  O1_4 
REMARK    2  A    between atoms: O1_4  and  C4_5 
REMARK       I    between atoms: C4_5  and  N1_7 
REMARK    3  A    between atoms: C7_10  and  N2_11 
REMARK       I    between atoms: N2_11  and  C8_12 
REMARK    4  A    between atoms: C8_12  and  C9_14 
REMARK    5  A    between atoms: C9_14  and  C10_15 
REMARK    6  A    between atoms: C9_14  and  N6_25 
REMARK    7  A    between atoms: C10_15  and  C11_16 
REMARK    8  A    between atoms: C11_16  and  C12_17 
REMARK    9  A    between atoms: C12_17  and  N3_18 
REMARK       I    between atoms: N3_18  and  C13_20 
ROOT
HETATM    1  C9  UNL     1       2.892 -19.693  41.810  1.00  0.00     0.190 C 
ENDROOT
BRANCH   1   2
HETATM    2  C8  UNL     1       2.327 -18.327  42.169  1.00  0.00     0.309 C 
HETATM    3  N2  UNL     1       3.054 -17.345  42.881  1.00  0.00    -0.408 NA
HETATM    4  O3  UNL     1       1.159 -18.161  41.781  1.00  0.00    -0.255 OA
BRANCH   3   5
HETATM    5  C7  UNL     1       3.720 -16.425  43.541  1.00  0.00     0.170 C 
HETATM    6  C6  UNL     1       3.074 -15.028  43.644  1.00  0.00     0.059 C 
HETATM    7  C5  UNL     1       3.669 -14.402  44.892  1.00  0.00     0.131 C 
HETATM    8  N1  UNL     1       5.101 -14.728  44.813  1.00  0.00    -0.328 N 
HETATM    9  C4  UNL     1       5.835 -14.778  46.019  1.00  0.00     0.363 C 
HETATM   10  C23 UNL     1       5.717 -14.983  43.533  1.00  0.00     0.131 C 
HETATM   11  O2  UNL     1       5.305 -14.516  47.121  1.00  0.00    -0.238 OA
HETATM   12  C22 UNL     1       5.127 -16.216  42.930  1.00  0.00     0.059 C 
BRANCH   9  13
HETATM   13  O1  UNL     1       7.189 -15.121  46.061  1.00  0.00    -0.299 OA
BRANCH  13  14
HETATM   14  C2  UNL     1       7.631 -16.303  46.713  1.00  0.00     0.125 C 
HETATM   15  C1  UNL     1       8.260 -17.263  45.732  1.00  0.00     0.040 C 
HETATM   16  C3  UNL     1       8.562 -16.049  47.844  1.00  0.00     0.040 C 
ENDBRANCH  13  14
ENDBRANCH   9  13
ENDBRANCH   3   5
ENDBRANCH   1   2
BRANCH   1  17
HETATM   17  C10 UNL     1       1.828 -20.393  41.090  1.00  0.00     0.038 C 
BRANCH  17  18
HETATM   18  C11 UNL     1       1.943 -21.875  40.898  1.00  0.00     0.022 C 
BRANCH  18  19
HETATM   19  C12 UNL     1       0.554 -22.433  41.143  1.00  0.00     0.122 C 
BRANCH  19  20
HETATM   20  N3  UNL     1       0.232 -22.580  42.517  1.00  0.00    -0.365 N 
HETATM   21  C13 UNL     1      -0.531 -23.704  42.908  1.00  0.00     0.181 C 
HETATM   22  N4  UNL     1      -1.809 -23.771  42.726  1.00  0.00    -0.374 N 
HETATM   23  N5  UNL     1       0.105 -24.799  43.531  1.00  0.00    -0.064 NA
ATOM     24  H42 UNL     1      -2.268 -22.980  42.275  1.00  0.00     0.158 HD
ATOM     25  H41 UNL     1      -2.361 -24.582  43.008  1.00  0.00     0.158 HD
ATOM     26  H3  UNL     1       0.544 -21.894  43.204  1.00  0.00     0.162 HD
ENDBRANCH  19  20
ENDBRANCH  18  19
ENDBRANCH  17  18
ENDBRANCH   1  17
BRANCH   1  27
HETATM   27  N6  UNL     1       3.597 -20.283  42.852  1.00  0.00    -0.376 N 
HETATM   28  C14 UNL     1       5.011 -20.329  42.688  1.00  0.00     0.142 C 
HETATM   29  C15 UNL     1       5.738 -19.807  43.865  1.00  0.00     0.137 C 
HETATM   30  N7  UNL     1       5.000 -19.683  45.064  1.00  0.00    -0.402 N 
HETATM   31  C16 UNL     1       5.771 -19.311  46.189  1.00  0.00     0.117 C 
HETATM   32  C20 UNL     1       3.916 -20.528  45.305  1.00  0.00     0.117 C 
HETATM   33  C17 UNL     1       5.763 -20.232  47.342  1.00  0.00     0.019 C 
HETATM   34  C18 UNL     1       5.117 -21.549  47.162  1.00  0.00     0.004 C 
HETATM   35  C19 UNL     1       4.438 -21.823  45.875  1.00  0.00     0.030 C 
HETATM   36  C21 UNL     1       3.073 -20.703  44.055  1.00  0.00     0.084 C 
ENDBRANCH   1  27
TORSDOF 9
ENDMDL
MODEL 4
REMARK VINA RESULT: -7.972656769      1.306      1.433
REMARK  9 active torsions:
REMARK  status: ('A' for Active; 'I' for Inactive)
REMARK    1  A    between atoms: C2_2  and  O1_4 
REMARK    2  A    between atoms: O1_4  and  C4_5 
REMARK       I    between atoms: C4_5  and  N1_7 
REMARK    3  A    between atoms: C7_10  and  N2_11 
REMARK       I    between atoms: N2_11  and  C8_12 
REMARK    4  A    between atoms: C8_12  and  C9_14 
REMARK    5  A    between atoms: C9_14  and  C10_15 
REMARK    6  A    between atoms: C9_14  and  N6_25 
REMARK    7  A    between atoms: C10_15  and  C11_16 
REMARK    8  A    between atoms: C11_16  and  C12_17 
REMARK    9  A    between atoms: C12_17  and  N3_18 
REMARK       I    between atoms: N3_18  and  C13_20 
ROOT
HETATM    1  C9  UNL     1       7.450 -17.235  45.617  1.00  0.00     0.190 C 
ENDROOT
BRANCH   1   2
HETATM    2  C8  UNL     1       7.417 -18.617  44.984  1.00  0.00     0.309 C 
HETATM    3  N2  UNL     1       6.234 -19.378  44.835  1.00  0.00    -0.408 NA
HETATM    4  O3  UNL     1       8.533 -19.017  44.616  1.00  0.00    -0.255 OA
BRANCH   3   5
HETATM    5  C7  UNL     1       5.142 -20.094  44.691  1.00  0.00     0.170 C 
HETATM    6  C6  UNL     1       3.977 -19.801  45.658  1.00  0.00     0.059 C 
HETATM    7  C5  UNL     1       2.726 -20.257  44.929  1.00  0.00     0.131 C 
HETATM    8  N1  UNL     1       3.102 -21.550  44.338  1.00  0.00    -0.328 N 
HETATM    9  C4  UNL     1       2.401 -21.981  43.191  1.00  0.00     0.363 C 
HETATM   10  C23 UNL     1       4.155 -22.339  44.931  1.00  0.00     0.131 C 
HETATM   11  O2  UNL     1       1.461 -21.313  42.706  1.00  0.00    -0.238 OA
HETATM   12  C22 UNL     1       5.452 -21.606  44.820  1.00  0.00     0.059 C 
BRANCH   9  13
HETATM   13  O1  UNL     1       2.707 -23.171  42.526  1.00  0.00    -0.299 OA
BRANCH  13  14
HETATM   14  C2  UNL     1       3.352 -23.165  41.260  1.00  0.00     0.125 C 
HETATM   15  C1  UNL     1       4.824 -22.862  41.401  1.00  0.00     0.040 C 
HETATM   16  C3  UNL     1       3.162 -24.420  40.487  1.00  0.00     0.040 C 
ENDBRANCH  13  14
ENDBRANCH   9  13
ENDBRANCH   3   5
ENDBRANCH   1   2
BRANCH   1  17
HETATM   17  C10 UNL     1       7.685 -17.451  47.045  1.00  0.00     0.038 C 
BRANCH  17  18
HETATM   18  C11 UNL     1       9.097 -17.576  47.531  1.00  0.00     0.022 C 
BRANCH  18  19
HETATM   19  C12 UNL     1       9.189 -18.938  48.191  1.00  0.00     0.122 C 
BRANCH  19  20
HETATM   20  N3  UNL     1       8.102 -19.228  49.055  1.00  0.00    -0.365 N 
HETATM   21  C13 UNL     1       7.475 -20.490  48.941  1.00  0.00     0.181 C 
HETATM   22  N4  UNL     1       6.639 -20.766  47.994  1.00  0.00    -0.374 N 
HETATM   23  N5  UNL     1       7.751 -21.497  49.892  1.00  0.00    -0.064 NA
ATOM     24  H42 UNL     1       6.440 -20.038  47.308  1.00  0.00     0.158 HD
ATOM     25  H41 UNL     1       6.187 -21.677  47.911  1.00  0.00     0.158 HD
ATOM     26  H3  UNL     1       7.781 -18.544  49.741  1.00  0.00     0.162 HD
ENDBRANCH  19  20
ENDBRANCH  18  19
ENDBRANCH  17  18
ENDBRANCH   1  17
BRANCH   1  27
HETATM   27  N6  UNL     1       6.448 -16.395  45.149  1.00  0.00    -0.376 N 
HETATM   28  C14 UNL     1       6.633 -15.894  43.828  1.00  0.00     0.142 C 
HETATM   29  C15 UNL     1       5.444 -16.089  42.972  1.00  0.00     0.137 C 
HETATM   30  N7  UNL     1       4.230 -16.390  43.630  1.00  0.00    -0.402 N 
HETATM   31  C16 UNL     1       3.099 -16.432  42.782  1.00  0.00     0.117 C 
HETATM   32  C20 UNL     1       4.013 -15.938  44.933  1.00  0.00     0.117 C 
HETATM   33  C17 UNL     1       1.991 -15.509  43.096  1.00  0.00     0.019 C 
HETATM   34  C18 UNL     1       2.224 -14.489  44.139  1.00  0.00     0.004 C 
HETATM   35  C19 UNL     1       3.512 -14.517  44.868  1.00  0.00     0.030 C 
HETATM   36  C21 UNL     1       5.258 -16.113  45.784  1.00  0.00     0.084 C 
ENDBRANCH   1  27
TORSDOF 9
ENDMDL
MODEL 5
REMARK VINA RESULT: -7.966104300      1.217      1.296
REMARK  9 active torsions:
REMARK  status: ('A' for Active; 'I' for Inactive)
REMARK    1  A    between atoms: C2_2  and  O1_4 
REMARK    2  A    between atoms: O1_4  and  C4_5 
REMARK       I    between atoms: C4_5  and  N1_7 
REMARK    3  A    between atoms: C7_10  and  N2_11 
REMARK       I    between atoms: N2_11  and  C8_12 
REMARK    4  A    between atoms: C8_12  and  C9_14 
REMARK    5  A    between atoms: C9_14  and  C10_15 
REMARK    6  A    between atoms: C9_14  and  N6_25 
REMARK    7  A    between atoms: C10_15  and  C11_16 
REMARK    8  A    between atoms: C11_16  and  C12_17 
REMARK    9  A    between atoms: C12_17  and  N3_18 
REMARK       I    between atoms: N3_18  and  C13_20 
ROOT
HETATM    1  C9  UNL     1       7.303 -17.314  45.440  1.00  0.00     0.190 C 
ENDROOT
BRANCH   1   2
HETATM    2  C8  UNL     1       7.262 -18.649  44.711  1.00  0.00     0.309 C 
HETATM    3  N2  UNL     1       6.061 -19.287  44.320  1.00  0.00    -0.408 NA
HETATM    4  O3  UNL     1       8.388 -19.129  44.499  1.00  0.00    -0.255 OA
BRANCH   3   5
HETATM    5  C7  UNL     1       4.954 -19.889  43.953  1.00  0.00     0.170 C 
HETATM    6  C6  UNL     1       3.710 -19.678  44.841  1.00  0.00     0.059 C 
HETATM    7  C5  UNL     1       2.521 -19.915  43.930  1.00  0.00     0.131 C 
HETATM    8  N1  UNL     1       2.885 -21.116  43.164  1.00  0.00    -0.328 N 
HETATM    9  C4  UNL     1       2.287 -21.300  41.898  1.00  0.00     0.363 C 
HETATM   10  C23 UNL     1       3.826 -22.066  43.709  1.00  0.00     0.131 C 
HETATM   11  O2  UNL     1       1.442 -20.495  41.448  1.00  0.00    -0.238 OA
HETATM   12  C22 UNL     1       5.165 -21.420  43.849  1.00  0.00     0.059 C 
BRANCH   9  13
HETATM   13  O1  UNL     1       2.596 -22.383  41.070  1.00  0.00    -0.299 OA
BRANCH  13  14
HETATM   14  C2  UNL     1       1.577 -23.199  40.511  1.00  0.00     0.125 C 
HETATM   15  C1  UNL     1       2.100 -23.995  39.339  1.00  0.00     0.040 C 
HETATM   16  C3  UNL     1       0.932 -24.107  41.496  1.00  0.00     0.040 C 
ENDBRANCH  13  14
ENDBRANCH   9  13
ENDBRANCH   3   5
ENDBRANCH   1   2
BRANCH   1  17
HETATM   17  C10 UNL     1       7.532 -17.632  46.850  1.00  0.00     0.038 C 
BRANCH  17  18
HETATM   18  C11 UNL     1       8.940 -17.671  47.359  1.00  0.00     0.022 C 
BRANCH  18  19
HETATM   19  C12 UNL     1       9.084 -18.998  48.078  1.00  0.00     0.122 C 
BRANCH  19  20
HETATM   20  N3  UNL     1       8.031 -19.271  48.989  1.00  0.00    -0.365 N 
HETATM   21  C13 UNL     1       7.420 -20.545  48.941  1.00  0.00     0.181 C 
HETATM   22  N4  UNL     1       6.556 -20.866  48.034  1.00  0.00    -0.374 N 
HETATM   23  N5  UNL     1       7.743 -21.513  49.917  1.00  0.00    -0.064 NA
ATOM     24  H42 UNL     1       6.324 -20.166  47.329  1.00  0.00     0.158 HD
ATOM     25  H41 UNL     1       6.115 -21.785  47.999  1.00  0.00     0.158 HD
ATOM     26  H3  UNL     1       7.724 -18.568  49.660  1.00  0.00     0.162 HD
ENDBRANCH  19  20
ENDBRANCH  18  19
ENDBRANCH  17  18
ENDBRANCH   1  17
BRANCH   1  27
HETATM   27  N6  UNL     1       6.309 -16.436  45.027  1.00  0.00    -0.376 N 
HETATM   28  C14 UNL     1       6.539 -15.790  43.779  1.00  0.00     0.142 C 
HETATM   29  C15 UNL     1       5.386 -15.899  42.860  1.00  0.00     0.137 C 
HETATM   30  N7  UNL     1       4.151 -16.281  43.432  1.00  0.00    -0.402 N 
HETATM   31  C16 UNL     1       3.055 -16.238  42.541  1.00  0.00     0.117 C 
HETATM   32  C20 UNL     1       3.880 -15.979  44.767  1.00  0.00     0.117 C 
HETATM   33  C17 UNL     1       1.924 -15.365  42.910  1.00  0.00     0.019 C 
HETATM   34  C18 UNL     1       2.104 -14.465  44.069  1.00  0.00     0.004 C 
HETATM   35  C19 UNL     1       3.363 -14.563  44.840  1.00  0.00     0.030 C 
HETATM   36  C21 UNL     1       5.093 -16.237  45.642  1.00  0.00     0.084 C 
ENDBRANCH   1  27
TORSDOF 9
ENDMDL
