MODEL 1
REMARK VINA RESULT: -9.953543292      0.000      0.000
REMARK  8 active torsions:
REMARK  status: ('A' for Active; 'I' for Inactive)
REMARK    1  A    between atoms: C5_6  and  O2_7 
REMARK    2  A    between atoms: C5_6  and  O3_9 
REMARK    3  A    between atoms: O3_9  and  C6_10 
REMARK    4  A    between atoms: C6_10  and  C7_11 
REMARK    5  A    between atoms: C11_19  and  N2_20 
REMARK       I    between atoms: N2_20  and  C12_22 
REMARK    6  A    between atoms: C12_22  and  C13_24 
REMARK    7  A    between atoms: C13_24  and  C14_25 
REMARK    8  A    between atoms: C14_25  and  C15_26 
ROOT
HETATM    1  O1  UNL     1      12.362 -17.612  49.191  1.00  0.00    -0.273 OA
HETATM    2  C1  UNL     1      11.197 -17.897  48.806  1.00  0.00     0.221 C 
HETATM    3  C2  UNL     1      11.014 -19.333  48.652  1.00  0.00     0.103 C 
HETATM    4  C3  UNL     1      10.276 -19.829  47.477  1.00  0.00     0.014 C 
HETATM    5  C4  UNL     1       9.428 -18.870  46.726  1.00  0.00     0.071 C 
HETATM    6  C5  UNL     1       8.162 -18.449  47.451  1.00  0.00     0.187 C 
HETATM    7  C11 UNL     1       8.074 -16.994  47.672  1.00  0.00     0.185 C 
HETATM    8  C25 UNL     1       9.411 -16.275  47.728  1.00  0.00     0.094 C 
HETATM    9  N3  UNL     1      10.375 -16.754  48.625  1.00  0.00    -0.339 N 
ATOM     10  H3  UNL     1      10.535 -16.079  49.372  1.00  0.00     0.167 HD
ENDROOT
BRANCH   7  11
HETATM   11  N2  UNL     1       7.340 -16.297  46.649  1.00  0.00    -0.347 N 
HETATM   12  C12 UNL     1       6.871 -14.967  46.823  1.00  0.00     0.218 C 
HETATM   13  O5  UNL     1       7.081 -14.339  47.888  1.00  0.00    -0.274 OA
ATOM     14  H2  UNL     1       7.150 -16.774  45.768  1.00  0.00     0.163 HD
BRANCH  12  15
HETATM   15  C13 UNL     1       6.120 -14.289  45.738  1.00  0.00     0.103 C 
BRANCH  15  16
HETATM   16  C14 UNL     1       4.640 -14.589  45.862  1.00  0.00     0.018 C 
BRANCH  16  17
HETATM   17  C15 UNL     1       4.099 -15.275  44.649  1.00  0.00    -0.039 C 
HETATM   18  C16 UNL     1       4.997 -15.063  43.445  1.00  0.00     0.014 C 
HETATM   19  C17 UNL     1       4.491 -15.873  42.284  1.00  0.00    -0.013 C 
HETATM   20  C18 UNL     1       3.090 -15.409  41.896  1.00  0.00     0.009 C 
HETATM   21  C22 UNL     1       4.415 -17.344  42.568  1.00  0.00     0.009 C 
HETATM   22  C19 UNL     1       2.202 -15.562  43.104  1.00  0.00    -0.013 C 
HETATM   23  C20 UNL     1       2.135 -17.049  43.416  1.00  0.00     0.009 C 
HETATM   24  C24 UNL     1       2.720 -14.765  44.281  1.00  0.00     0.014 C 
HETATM   25  C21 UNL     1       3.513 -17.532  43.776  1.00  0.00    -0.013 C 
HETATM   26  C23 UNL     1       4.062 -16.765  44.941  1.00  0.00     0.014 C 
ENDBRANCH  16  17
ENDBRANCH  15  16
ENDBRANCH  12  15
ENDBRANCH   7  11
BRANCH   6  27
HETATM   27  O2  UNL     1       8.362 -18.960  48.799  1.00  0.00    -0.363 OA
ATOM     28  H2  UNL     1       7.782 -18.423  49.325  1.00  0.00     0.213 HD
ENDBRANCH   6  27
BRANCH   6  29
HETATM   29  O3  UNL     1       7.066 -19.101  47.083  1.00  0.00    -0.350 OA
BRANCH  29  30
HETATM   30  C6  UNL     1       6.588 -20.248  47.473  1.00  0.00     0.205 C 
BRANCH  30  31
HETATM   31  C7  UNL     1       6.511 -21.173  46.226  1.00  0.00     0.170 C 
HETATM   32  C8  UNL     1       5.528 -22.284  46.481  1.00  0.00     0.266 C 
HETATM   33  N1  UNL     1       4.219 -21.681  46.714  1.00  0.00    -0.071 N 
HETATM   34  C9  UNL     1       3.842 -20.782  45.648  1.00  0.00     0.258 C 
ATOM     35  H12 UNL     1       3.505 -22.392  46.868  1.00  0.00     0.277 HD
ATOM     36  H11 UNL     1       4.182 -21.216  47.621  1.00  0.00     0.277 HD
HETATM   37  C10 UNL     1       4.930 -20.743  44.621  1.00  0.00     0.196 C 
HETATM   38  O4  UNL     1       6.155 -20.396  45.131  1.00  0.00    -0.380 OA
ENDBRANCH  30  31
ENDBRANCH  29  30
ENDBRANCH   6  29
TORSDOF 8
ENDMDL
MODEL 2
REMARK VINA RESULT: -9.866125589      1.027      1.333
REMARK  8 active torsions:
REMARK  status: ('A' for Active; 'I' for Inactive)
REMARK    1  A    between atoms: C5_6  and  O2_7 
REMARK    2  A    between atoms: C5_6  and  O3_9 
REMARK    3  A    between atoms: O3_9  and  C6_10 
REMARK    4  A    between atoms: C6_10  and  C7_11 
REMARK    5  A    between atoms: C11_19  and  N2_20 
REMARK       I    between atoms: N2_20  and  C12_22 
REMARK    6  A    between atoms: C12_22  and  C13_24 
REMARK    7  A    between atoms: C13_24  and  C14_25 
REMARK    8  A    between atoms: C14_25  and  C15_26 
ROOT
HETATM    1  O1  UNL     1      12.567 -17.732  49.507  1.00  0.00    -0.273 OA
HETATM    2  C1  UNL     1      11.416 -18.022  49.084  1.00  0.00     0.221 C 
HETATM    3  C2  UNL     1      11.231 -19.460  48.957  1.00  0.00     0.103 C 
HETATM    4  C3  UNL     1      10.536 -19.981  47.767  1.00  0.00     0.014 C 
HETATM    5  C4  UNL     1       9.722 -19.036  46.962  1.00  0.00     0.071 C 
HETATM    6  C5  UNL     1       8.431 -18.593  47.628  1.00  0.00     0.187 C 
HETATM    7  C11 UNL     1       8.342 -17.133  47.812  1.00  0.00     0.185 C 
HETATM    8  C25 UNL     1       9.680 -16.418  47.902  1.00  0.00     0.094 C 
HETATM    9  N3  UNL     1      10.607 -16.880  48.845  1.00  0.00    -0.339 N 
ATOM     10  H3  UNL     1      10.741 -16.188  49.582  1.00  0.00     0.167 HD
ENDROOT
BRANCH   7  11
HETATM   11  N2  UNL     1       7.651 -16.458  46.746  1.00  0.00    -0.347 N 
HETATM   12  C12 UNL     1       7.052 -15.181  46.918  1.00  0.00     0.218 C 
HETATM   13  O5  UNL     1       7.102 -14.583  48.020  1.00  0.00    -0.274 OA
ATOM     14  H2  UNL     1       7.589 -16.911  45.835  1.00  0.00     0.163 HD
BRANCH  12  15
HETATM   15  C13 UNL     1       6.351 -14.523  45.788  1.00  0.00     0.103 C 
BRANCH  15  16
HETATM   16  C14 UNL     1       4.854 -14.719  45.917  1.00  0.00     0.018 C 
BRANCH  16  17
HETATM   17  C15 UNL     1       4.259 -15.344  44.698  1.00  0.00    -0.039 C 
HETATM   18  C16 UNL     1       5.151 -15.155  43.485  1.00  0.00     0.014 C 
HETATM   19  C17 UNL     1       4.584 -15.908  42.314  1.00  0.00    -0.013 C 
HETATM   20  C18 UNL     1       3.207 -15.357  41.958  1.00  0.00     0.009 C 
HETATM   21  C22 UNL     1       4.429 -17.379  42.566  1.00  0.00     0.009 C 
HETATM   22  C19 UNL     1       2.328 -15.488  43.175  1.00  0.00    -0.013 C 
HETATM   23  C20 UNL     1       2.181 -16.976  43.455  1.00  0.00     0.009 C 
HETATM   24  C24 UNL     1       2.906 -14.749  44.361  1.00  0.00     0.014 C 
HETATM   25  C21 UNL     1       3.535 -17.545  43.783  1.00  0.00    -0.013 C 
HETATM   26  C23 UNL     1       4.142 -16.836  44.957  1.00  0.00     0.014 C 
ENDBRANCH  16  17
ENDBRANCH  15  16
ENDBRANCH  12  15
ENDBRANCH   7  11
BRANCH   6  27
HETATM   27  O2  UNL     1       8.578 -19.074  48.994  1.00  0.00    -0.363 OA
ATOM     28  H2  UNL     1       7.734 -18.881  49.386  1.00  0.00     0.213 HD
ENDBRANCH   6  27
BRANCH   6  29
HETATM   29  O3  UNL     1       7.347 -19.250  47.234  1.00  0.00    -0.350 OA
BRANCH  29  30
HETATM   30  C6  UNL     1       6.748 -20.287  47.746  1.00  0.00     0.205 C 
BRANCH  30  31
HETATM   31  C7  UNL     1       5.891 -20.935  46.623  1.00  0.00     0.170 C 
HETATM   32  C8  UNL     1       6.638 -20.876  45.319  1.00  0.00     0.266 C 
HETATM   33  N1  UNL     1       7.876 -21.633  45.475  1.00  0.00    -0.071 N 
HETATM   34  C9  UNL     1       7.634 -22.970  45.965  1.00  0.00     0.258 C 
ATOM     35  H12 UNL     1       8.414 -21.647  44.609  1.00  0.00     0.277 HD
ATOM     36  H11 UNL     1       8.541 -21.136  46.068  1.00  0.00     0.277 HD
HETATM   37  C10 UNL     1       6.165 -23.167  46.167  1.00  0.00     0.196 C 
HETATM   38  O4  UNL     1       5.595 -22.239  47.003  1.00  0.00    -0.380 OA
ENDBRANCH  30  31
ENDBRANCH  29  30
ENDBRANCH   6  29
TORSDOF 8
ENDMDL
MODEL 3
REMARK VINA RESULT: -9.863609196      0.179      1.288
REMARK  8 active torsions:
REMARK  status: ('A' for Active; 'I' for Inactive)
REMARK    1  A    between atoms: C5_6  and  O2_7 
REMARK    2  A    between atoms: C5_6  and  O3_9 
REMARK    3  A    between atoms: O3_9  and  C6_10 
REMARK    4  A    between atoms: C6_10  and  C7_11 
REMARK    5  A    between atoms: C11_19  and  N2_20 
REMARK       I    between atoms: N2_20  and  C12_22 
REMARK    6  A    between atoms: C12_22  and  C13_24 
REMARK    7  A    between atoms: C13_24  and  C14_25 
REMARK    8  A    between atoms: C14_25  and  C15_26 
ROOT
HETATM    1  O1  UNL     1      12.314 -17.732  49.596  1.00  0.00    -0.273 OA
HETATM    2  C1  UNL     1      11.175 -17.997  49.129  1.00  0.00     0.221 C 
HETATM    3  C2  UNL     1      10.967 -19.431  48.988  1.00  0.00     0.103 C 
HETATM    4  C3  UNL     1      10.307 -19.932  47.769  1.00  0.00     0.014 C 
HETATM    5  C4  UNL     1       9.543 -18.968  46.939  1.00  0.00     0.071 C 
HETATM    6  C5  UNL     1       8.237 -18.503  47.559  1.00  0.00     0.187 C 
HETATM    7  C11 UNL     1       8.169 -17.042  47.746  1.00  0.00     0.185 C 
HETATM    8  C25 UNL     1       9.516 -16.354  47.891  1.00  0.00     0.094 C 
HETATM    9  N3  UNL     1      10.398 -16.839  48.866  1.00  0.00    -0.339 N 
ATOM     10  H3  UNL     1      10.518 -16.153  49.611  1.00  0.00     0.167 HD
ENDROOT
BRANCH   7  11
HETATM   11  N2  UNL     1       7.532 -16.348  46.659  1.00  0.00    -0.347 N 
HETATM   12  C12 UNL     1       6.962 -15.056  46.812  1.00  0.00     0.218 C 
HETATM   13  O5  UNL     1       6.991 -14.460  47.916  1.00  0.00    -0.274 OA
ATOM     14  H2  UNL     1       7.488 -16.800  45.746  1.00  0.00     0.163 HD
BRANCH  12  15
HETATM   15  C13 UNL     1       6.317 -14.380  45.660  1.00  0.00     0.103 C 
BRANCH  15  16
HETATM   16  C14 UNL     1       4.809 -14.474  45.777  1.00  0.00     0.018 C 
BRANCH  16  17
HETATM   17  C15 UNL     1       4.205 -15.268  44.665  1.00  0.00    -0.039 C 
HETATM   18  C16 UNL     1       2.811 -14.775  44.324  1.00  0.00     0.014 C 
HETATM   19  C17 UNL     1       2.293 -15.509  43.119  1.00  0.00    -0.013 C 
HETATM   20  C18 UNL     1       2.187 -17.000  43.423  1.00  0.00     0.009 C 
HETATM   21  C22 UNL     1       3.161 -15.357  41.906  1.00  0.00     0.009 C 
HETATM   22  C19 UNL     1       3.556 -17.489  43.819  1.00  0.00    -0.013 C 
HETATM   23  C20 UNL     1       4.454 -17.320  42.602  1.00  0.00     0.009 C 
HETATM   24  C24 UNL     1       4.091 -16.738  45.018  1.00  0.00     0.014 C 
HETATM   25  C21 UNL     1       4.550 -15.855  42.270  1.00  0.00    -0.013 C 
HETATM   26  C23 UNL     1       5.077 -15.075  43.436  1.00  0.00     0.014 C 
ENDBRANCH  16  17
ENDBRANCH  15  16
ENDBRANCH  12  15
ENDBRANCH   7  11
BRANCH   6  27
HETATM   27  O2  UNL     1       8.322 -18.992  48.927  1.00  0.00    -0.363 OA
ATOM     28  H2  UNL     1       9.235 -18.856  49.151  1.00  0.00     0.213 HD
ENDBRANCH   6  27
BRANCH   6  29
HETATM   29  O3  UNL     1       7.155 -19.136  47.121  1.00  0.00    -0.350 OA
BRANCH  29  30
HETATM   30  C6  UNL     1       6.646 -20.285  47.462  1.00  0.00     0.205 C 
BRANCH  30  31
HETATM   31  C7  UNL     1       6.534 -21.150  46.175  1.00  0.00     0.170 C 
HETATM   32  C8  UNL     1       5.576 -22.286  46.412  1.00  0.00     0.266 C 
HETATM   33  N1  UNL     1       4.270 -21.714  46.722  1.00  0.00    -0.071 N 
HETATM   34  C9  UNL     1       3.841 -20.771  45.716  1.00  0.00     0.258 C 
ATOM     35  H12 UNL     1       3.571 -22.443  46.867  1.00  0.00     0.277 HD
ATOM     36  H11 UNL     1       4.260 -21.295  47.651  1.00  0.00     0.277 HD
HETATM   37  C10 UNL     1       4.889 -20.666  44.653  1.00  0.00     0.196 C 
HETATM   38  O4  UNL     1       6.128 -20.326  45.133  1.00  0.00    -0.380 OA
ENDBRANCH  30  31
ENDBRANCH  29  30
ENDBRANCH   6  29
TORSDOF 8
ENDMDL
MODEL 4
REMARK VINA RESULT: -9.861843280      0.113      1.294
REMARK  8 active torsions:
REMARK  status: ('A' for Active; 'I' for Inactive)
REMARK    1  A    between atoms: C5_6  and  O2_7 
REMARK    2  A    between atoms: C5_6  and  O3_9 
REMARK    3  A    between atoms: O3_9  and  C6_10 
REMARK    4  A    between atoms: C6_10  and  C7_11 
REMARK    5  A    between atoms: C11_19  and  N2_20 
REMARK       I    between atoms: N2_20  and  C12_22 
REMARK    6  A    between atoms: C12_22  and  C13_24 
REMARK    7  A    between atoms: C13_24  and  C14_25 
REMARK    8  A    between atoms: C14_25  and  C15_26 
ROOT
HETATM    1  O1  UNL     1      12.431 -17.498  49.178  1.00  0.00    -0.273 OA
HETATM    2  C1  UNL     1      11.262 -17.794  48.813  1.00  0.00     0.221 C 
HETATM    3  C2  UNL     1      11.083 -19.233  48.683  1.00  0.00     0.103 C 
HETATM    4  C3  UNL     1      10.332 -19.749  47.525  1.00  0.00     0.014 C 
HETATM    5  C4  UNL     1       9.471 -18.805  46.771  1.00  0.00     0.071 C 
HETATM    6  C5  UNL     1       8.212 -18.379  47.505  1.00  0.00     0.187 C 
HETATM    7  C11 UNL     1       8.120 -16.922  47.706  1.00  0.00     0.185 C 
HETATM    8  C25 UNL     1       9.454 -16.196  47.735  1.00  0.00     0.094 C 
HETATM    9  N3  UNL     1      10.433 -16.658  48.625  1.00  0.00    -0.339 N 
ATOM     10  H3  UNL     1      10.599 -15.970  49.361  1.00  0.00     0.167 HD
ENDROOT
BRANCH   7  11
HETATM   11  N2  UNL     1       7.370 -16.243  46.683  1.00  0.00    -0.347 N 
HETATM   12  C12 UNL     1       6.880 -14.920  46.851  1.00  0.00     0.218 C 
HETATM   13  O5  UNL     1       7.084 -14.282  47.911  1.00  0.00    -0.274 OA
ATOM     14  H2  UNL     1       7.183 -16.729  45.806  1.00  0.00     0.163 HD
BRANCH  12  15
HETATM   15  C13 UNL     1       6.112 -14.261  45.766  1.00  0.00     0.103 C 
BRANCH  15  16
HETATM   16  C14 UNL     1       4.648 -14.641  45.858  1.00  0.00     0.018 C 
BRANCH  16  17
HETATM   17  C15 UNL     1       4.178 -15.375  44.645  1.00  0.00    -0.039 C 
HETATM   18  C16 UNL     1       4.061 -16.865  44.908  1.00  0.00     0.014 C 
HETATM   19  C17 UNL     1       3.462 -17.547  43.710  1.00  0.00    -0.013 C 
HETATM   20  C18 UNL     1       4.372 -17.367  42.498  1.00  0.00     0.009 C 
HETATM   21  C22 UNL     1       2.107 -17.022  43.337  1.00  0.00     0.009 C 
HETATM   22  C19 UNL     1       4.540 -15.889  42.263  1.00  0.00    -0.013 C 
HETATM   23  C20 UNL     1       3.168 -15.339  41.905  1.00  0.00     0.009 C 
HETATM   24  C24 UNL     1       5.123 -15.195  43.474  1.00  0.00     0.014 C 
HETATM   25  C21 UNL     1       2.247 -15.531  43.079  1.00  0.00    -0.013 C 
HETATM   26  C23 UNL     1       2.792 -14.857  44.302  1.00  0.00     0.014 C 
ENDBRANCH  16  17
ENDBRANCH  15  16
ENDBRANCH  12  15
ENDBRANCH   7  11
BRANCH   6  27
HETATM   27  O2  UNL     1       8.432 -18.870  48.858  1.00  0.00    -0.363 OA
ATOM     28  H2  UNL     1       7.562 -18.855  49.240  1.00  0.00     0.213 HD
ENDBRANCH   6  27
BRANCH   6  29
HETATM   29  O3  UNL     1       7.115 -19.042  47.162  1.00  0.00    -0.350 OA
BRANCH  29  30
HETATM   30  C6  UNL     1       6.686 -20.220  47.516  1.00  0.00     0.205 C 
BRANCH  30  31
HETATM   31  C7  UNL     1       6.583 -21.088  46.231  1.00  0.00     0.170 C 
HETATM   32  C8  UNL     1       5.675 -22.260  46.485  1.00  0.00     0.266 C 
HETATM   33  N1  UNL     1       4.353 -21.741  46.822  1.00  0.00    -0.071 N 
HETATM   34  C9  UNL     1       3.867 -20.815  45.826  1.00  0.00     0.258 C 
ATOM     35  H12 UNL     1       3.687 -22.497  46.981  1.00  0.00     0.277 HD
ATOM     36  H11 UNL     1       4.346 -21.323  47.752  1.00  0.00     0.277 HD
HETATM   37  C10 UNL     1       4.889 -20.668  44.742  1.00  0.00     0.196 C 
HETATM   38  O4  UNL     1       6.123 -20.279  45.198  1.00  0.00    -0.380 OA
ENDBRANCH  30  31
ENDBRANCH  29  30
ENDBRANCH   6  29
TORSDOF 8
ENDMDL
MODEL 5
REMARK VINA RESULT: -9.845782920      1.026      1.839
REMARK  8 active torsions:
REMARK  status: ('A' for Active; 'I' for Inactive)
REMARK    1  A    between atoms: C5_6  and  O2_7 
REMARK    2  A    between atoms: C5_6  and  O3_9 
REMARK    3  A    between atoms: O3_9  and  C6_10 
REMARK    4  A    between atoms: C6_10  and  C7_11 
REMARK    5  A    between atoms: C11_19  and  N2_20 
REMARK       I    between atoms: N2_20  and  C12_22 
REMARK    6  A    between atoms: C12_22  and  C13_24 
REMARK    7  A    between atoms: C13_24  and  C14_25 
REMARK    8  A    between atoms: C14_25  and  C15_26 
ROOT
HETATM    1  O1  UNL     1      12.516 -17.735  49.619  1.00  0.00    -0.273 OA
HETATM    2  C1  UNL     1      11.373 -18.019  49.174  1.00  0.00     0.221 C 
HETATM    3  C2  UNL     1      11.177 -19.458  49.062  1.00  0.00     0.103 C 
HETATM    4  C3  UNL     1      10.504 -19.987  47.863  1.00  0.00     0.014 C 
HETATM    5  C4  UNL     1       9.719 -19.047  47.026  1.00  0.00     0.071 C 
HETATM    6  C5  UNL     1       8.417 -18.582  47.656  1.00  0.00     0.187 C 
HETATM    7  C11 UNL     1       8.339 -17.118  47.817  1.00  0.00     0.185 C 
HETATM    8  C25 UNL     1       9.681 -16.415  47.929  1.00  0.00     0.094 C 
HETATM    9  N3  UNL     1      10.581 -16.873  48.900  1.00  0.00    -0.339 N 
ATOM     10  H3  UNL     1      10.706 -16.172  49.631  1.00  0.00     0.167 HD
ENDROOT
BRANCH   7  11
HETATM   11  N2  UNL     1       7.680 -16.451  46.727  1.00  0.00    -0.347 N 
HETATM   12  C12 UNL     1       7.059 -15.182  46.876  1.00  0.00     0.218 C 
HETATM   13  O5  UNL     1       7.060 -14.584  47.979  1.00  0.00    -0.274 OA
ATOM     14  H2  UNL     1       7.657 -16.905  45.814  1.00  0.00     0.163 HD
BRANCH  12  15
HETATM   15  C13 UNL     1       6.392 -14.532  45.721  1.00  0.00     0.103 C 
BRANCH  15  16
HETATM   16  C14 UNL     1       4.887 -14.632  45.863  1.00  0.00     0.018 C 
BRANCH  16  17
HETATM   17  C15 UNL     1       4.261 -15.373  44.727  1.00  0.00    -0.039 C 
HETATM   18  C16 UNL     1       2.879 -14.833  44.406  1.00  0.00     0.014 C 
HETATM   19  C17 UNL     1       2.339 -15.513  43.179  1.00  0.00    -0.013 C 
HETATM   20  C18 UNL     1       2.196 -17.010  43.434  1.00  0.00     0.009 C 
HETATM   21  C22 UNL     1       3.209 -15.343  41.969  1.00  0.00     0.009 C 
HETATM   22  C19 UNL     1       3.553 -17.547  43.809  1.00  0.00    -0.013 C 
HETATM   23  C20 UNL     1       4.452 -17.360  42.596  1.00  0.00     0.009 C 
HETATM   24  C24 UNL     1       4.109 -16.850  45.031  1.00  0.00     0.014 C 
HETATM   25  C21 UNL     1       4.585 -15.889  42.312  1.00  0.00    -0.013 C 
HETATM   26  C23 UNL     1       5.134 -15.162  43.502  1.00  0.00     0.014 C 
ENDBRANCH  16  17
ENDBRANCH  15  16
ENDBRANCH  12  15
ENDBRANCH   7  11
BRANCH   6  27
HETATM   27  O2  UNL     1       8.527 -19.044  49.032  1.00  0.00    -0.363 OA
ATOM     28  H2  UNL     1       8.756 -19.961  48.937  1.00  0.00     0.213 HD
ENDBRANCH   6  27
BRANCH   6  29
HETATM   29  O3  UNL     1       7.336 -19.233  47.246  1.00  0.00    -0.350 OA
BRANCH  29  30
HETATM   30  C6  UNL     1       6.733 -20.276  47.740  1.00  0.00     0.205 C 
BRANCH  30  31
HETATM   31  C7  UNL     1       5.877 -20.905  46.606  1.00  0.00     0.170 C 
HETATM   32  C8  UNL     1       6.631 -20.835  45.306  1.00  0.00     0.266 C 
HETATM   33  N1  UNL     1       7.864 -21.600  45.459  1.00  0.00    -0.071 N 
HETATM   34  C9  UNL     1       7.612 -22.942  45.931  1.00  0.00     0.258 C 
ATOM     35  H12 UNL     1       8.405 -21.607  44.595  1.00  0.00     0.277 HD
ATOM     36  H11 UNL     1       8.528 -21.114  46.061  1.00  0.00     0.277 HD
HETATM   37  C10 UNL     1       6.140 -23.133  46.124  1.00  0.00     0.196 C 
HETATM   38  O4  UNL     1       5.572 -22.212  46.968  1.00  0.00    -0.380 OA
ENDBRANCH  30  31
ENDBRANCH  29  30
ENDBRANCH   6  29
TORSDOF 8
ENDMDL
