MODEL 1
REMARK VINA RESULT: -8.094435432      0.000      0.000
REMARK  8 active torsions:
REMARK  status: ('A' for Active; 'I' for Inactive)
REMARK    1  A    between atoms: C2_2  and  O1_3 
REMARK    2  A    between atoms: O1_3  and  C3_4 
REMARK    3  A    between atoms: C3_4  and  C4_6 
REMARK    4  A    between atoms: C4_6  and  C5_7 
REMARK    5  A    between atoms: C5_7  and  N1_8 
REMARK       I    between atoms: N1_8  and  C6_10 
REMARK    6  A    between atoms: C6_10  and  O4_12 
REMARK    7  A    between atoms: O4_12  and  C7_13 
REMARK    8  A    between atoms: C17_24  and  N2_25 
REMARK       I    between atoms: N2_25  and  C18_27 
ROOT
HETATM    1  C7  UNL     1       2.928 -27.326 -12.270  1.00  0.00     0.103 C 
HETATM    2  C8  UNL     1       2.782 -28.244 -13.437  1.00  0.00     0.073 C 
HETATM    3  C9  UNL     1       1.680 -27.985 -14.390  1.00  0.00     0.124 C 
HETATM    4  C10 UNL     1       1.476 -26.547 -14.617  1.00  0.00     0.037 C 
HETATM    5  C11 UNL     1       1.541 -25.691 -13.396  1.00  0.00    -0.001 C 
HETATM    6  C12 UNL     1       0.426 -25.842 -12.448  1.00  0.00     0.012 C 
HETATM    7  C13 UNL     1       0.455 -27.098 -11.632  1.00  0.00     0.017 C 
HETATM    8  C14 UNL     1      -0.546 -28.058 -12.200  1.00  0.00     0.011 C 
HETATM    9  C15 UNL     1      -1.967 -27.578 -11.854  1.00  0.00     0.012 C 
HETATM   10  C16 UNL     1      -0.541 -28.206 -13.687  1.00  0.00     0.172 C 
HETATM   11  O5  UNL     1       0.612 -28.758 -14.083  1.00  0.00    -0.385 OA
HETATM   12  C17 UNL     1       1.762 -27.619 -11.262  1.00  0.00     0.128 C 
HETATM   13  C19 UNL     1       2.843 -25.912 -12.631  1.00  0.00    -0.010 C 
HETATM   14  C20 UNL     1       3.891 -25.335 -13.531  1.00  0.00     0.018 C 
HETATM   15  C21 UNL     1       2.842 -24.966 -11.438  1.00  0.00     0.018 C 
ENDROOT
BRANCH   1  16
HETATM   16  O4  UNL     1       3.993 -27.606 -11.452  1.00  0.00    -0.290 OA
BRANCH  16  17
HETATM   17  C6  UNL     1       5.268 -27.938 -11.605  1.00  0.00     0.361 C 
HETATM   18  N1  UNL     1       6.318 -27.008 -11.365  1.00  0.00    -0.336 N 
ATOM     19  H1  UNL     1       6.090 -26.059 -11.067  1.00  0.00     0.164 HD
HETATM   20  O3  UNL     1       5.472 -29.089 -11.964  1.00  0.00    -0.238 OA
BRANCH  18  21
HETATM   21  C5  UNL     1       7.705 -27.387 -11.537  1.00  0.00     0.134 C 
BRANCH  21  22
HETATM   22  C4  UNL     1       8.555 -26.165 -11.788  1.00  0.00     0.131 C 
BRANCH  22  23
HETATM   23  C3  UNL     1       7.957 -25.336 -12.869  1.00  0.00     0.260 C 
HETATM   24  O2  UNL     1       8.254 -24.118 -12.985  1.00  0.00    -0.265 OA
BRANCH  23  25
HETATM   25  O1  UNL     1       7.064 -25.860 -13.778  1.00  0.00    -0.322 OA
BRANCH  25  26
HETATM   26  C2  UNL     1       7.415 -26.329 -15.055  1.00  0.00     0.174 C 
HETATM   27  C1  UNL     1       7.764 -27.792 -15.041  1.00  0.00     0.034 C 
ENDBRANCH  25  26
ENDBRANCH  23  25
ENDBRANCH  22  23
ENDBRANCH  21  22
ENDBRANCH  18  21
ENDBRANCH  16  17
ENDBRANCH   1  16
BRANCH  12  28
HETATM   28  N2  UNL     1       1.787 -28.993 -10.859  1.00  0.00    -0.327 N 
HETATM   29  C18 UNL     1       1.830 -29.385  -9.520  1.00  0.00     0.283 C 
HETATM   30  O6  UNL     1       1.851 -28.549  -8.586  1.00  0.00    -0.630 OA
HETATM   31  O7  UNL     1       1.854 -30.719  -9.166  1.00  0.00    -0.630 OA
ATOM     32  H2  UNL     1       1.772 -29.715 -11.580  1.00  0.00     0.166 HD
ENDBRANCH  12  28
TORSDOF 8
ENDMDL
MODEL 2
REMARK VINA RESULT: -7.962392753      0.863      1.519
REMARK  8 active torsions:
REMARK  status: ('A' for Active; 'I' for Inactive)
REMARK    1  A    between atoms: C2_2  and  O1_3 
REMARK    2  A    between atoms: O1_3  and  C3_4 
REMARK    3  A    between atoms: C3_4  and  C4_6 
REMARK    4  A    between atoms: C4_6  and  C5_7 
REMARK    5  A    between atoms: C5_7  and  N1_8 
REMARK       I    between atoms: N1_8  and  C6_10 
REMARK    6  A    between atoms: C6_10  and  O4_12 
REMARK    7  A    between atoms: O4_12  and  C7_13 
REMARK    8  A    between atoms: C17_24  and  N2_25 
REMARK       I    between atoms: N2_25  and  C18_27 
ROOT
HETATM    1  C7  UNL     1       2.633 -27.239 -12.700  1.00  0.00     0.103 C 
HETATM    2  C8  UNL     1       2.390 -28.160 -13.848  1.00  0.00     0.073 C 
HETATM    3  C9  UNL     1       1.190 -27.926 -14.683  1.00  0.00     0.124 C 
HETATM    4  C10 UNL     1       0.930 -26.493 -14.883  1.00  0.00     0.037 C 
HETATM    5  C11 UNL     1       1.099 -25.637 -13.672  1.00  0.00    -0.001 C 
HETATM    6  C12 UNL     1       0.092 -25.816 -12.615  1.00  0.00     0.012 C 
HETATM    7  C13 UNL     1       0.234 -27.072 -11.811  1.00  0.00     0.017 C 
HETATM    8  C14 UNL     1      -0.797 -28.055 -12.276  1.00  0.00     0.011 C 
HETATM    9  C15 UNL     1      -2.186 -27.609 -11.784  1.00  0.00     0.012 C 
HETATM   10  C16 UNL     1      -0.942 -28.202 -13.756  1.00  0.00     0.172 C 
HETATM   11  O5  UNL     1       0.178 -28.725 -14.270  1.00  0.00    -0.385 OA
HETATM   12  C17 UNL     1       1.584 -27.561 -11.578  1.00  0.00     0.128 C 
HETATM   13  C19 UNL     1       2.477 -25.827 -13.046  1.00  0.00    -0.010 C 
HETATM   14  C20 UNL     1       3.414 -25.225 -14.047  1.00  0.00     0.018 C 
HETATM   15  C21 UNL     1       2.576 -24.883 -11.855  1.00  0.00     0.018 C 
ENDROOT
BRANCH   1  16
HETATM   16  O4  UNL     1       3.783 -27.494 -11.996  1.00  0.00    -0.290 OA
BRANCH  16  17
HETATM   17  C6  UNL     1       4.948 -28.082 -12.230  1.00  0.00     0.361 C 
HETATM   18  N1  UNL     1       6.048 -27.372 -12.788  1.00  0.00    -0.336 N 
ATOM     19  H1  UNL     1       5.942 -26.384 -13.017  1.00  0.00     0.164 HD
HETATM   20  O3  UNL     1       5.008 -29.268 -11.933  1.00  0.00    -0.238 OA
BRANCH  18  21
HETATM   21  C5  UNL     1       7.313 -28.030 -13.037  1.00  0.00     0.134 C 
BRANCH  21  22
HETATM   22  C4  UNL     1       7.743 -27.816 -14.468  1.00  0.00     0.131 C 
BRANCH  22  23
HETATM   23  C3  UNL     1       7.098 -26.595 -15.022  1.00  0.00     0.260 C 
HETATM   24  O2  UNL     1       5.998 -26.666 -15.627  1.00  0.00    -0.265 OA
BRANCH  23  25
HETATM   25  O1  UNL     1       7.673 -25.349 -14.896  1.00  0.00    -0.322 OA
BRANCH  25  26
HETATM   26  C2  UNL     1       7.410 -24.456 -13.843  1.00  0.00     0.174 C 
HETATM   27  C1  UNL     1       8.430 -24.568 -12.743  1.00  0.00     0.034 C 
ENDBRANCH  25  26
ENDBRANCH  23  25
ENDBRANCH  22  23
ENDBRANCH  21  22
ENDBRANCH  18  21
ENDBRANCH  16  17
ENDBRANCH   1  16
BRANCH  12  28
HETATM   28  N2  UNL     1       1.683 -28.935 -11.185  1.00  0.00    -0.327 N 
HETATM   29  C18 UNL     1       1.791 -29.329  -9.850  1.00  0.00     0.283 C 
HETATM   30  O6  UNL     1       1.810 -28.497  -8.912  1.00  0.00    -0.630 OA
HETATM   31  O7  UNL     1       1.885 -30.662  -9.504  1.00  0.00    -0.630 OA
ATOM     32  H2  UNL     1       1.673 -29.653 -11.909  1.00  0.00     0.166 HD
ENDBRANCH  12  28
TORSDOF 8
ENDMDL
MODEL 3
REMARK VINA RESULT: -7.947840032      1.121      1.712
REMARK  8 active torsions:
REMARK  status: ('A' for Active; 'I' for Inactive)
REMARK    1  A    between atoms: C2_2  and  O1_3 
REMARK    2  A    between atoms: O1_3  and  C3_4 
REMARK    3  A    between atoms: C3_4  and  C4_6 
REMARK    4  A    between atoms: C4_6  and  C5_7 
REMARK    5  A    between atoms: C5_7  and  N1_8 
REMARK       I    between atoms: N1_8  and  C6_10 
REMARK    6  A    between atoms: C6_10  and  O4_12 
REMARK    7  A    between atoms: O4_12  and  C7_13 
REMARK    8  A    between atoms: C17_24  and  N2_25 
REMARK       I    between atoms: N2_25  and  C18_27 
ROOT
HETATM    1  C7  UNL     1       2.236 -27.104 -13.180  1.00  0.00     0.103 C 
HETATM    2  C8  UNL     1       1.899 -28.136 -14.204  1.00  0.00     0.073 C 
HETATM    3  C9  UNL     1       0.577 -28.052 -14.863  1.00  0.00     0.124 C 
HETATM    4  C10 UNL     1       0.182 -26.662 -15.131  1.00  0.00     0.037 C 
HETATM    5  C11 UNL     1       0.460 -25.694 -14.030  1.00  0.00    -0.001 C 
HETATM    6  C12 UNL     1      -0.366 -25.843 -12.822  1.00  0.00     0.012 C 
HETATM    7  C13 UNL     1      -0.014 -27.012 -11.954  1.00  0.00     0.017 C 
HETATM    8  C14 UNL     1      -1.024 -28.095 -12.181  1.00  0.00     0.011 C 
HETATM    9  C15 UNL     1      -2.356 -27.698 -11.520  1.00  0.00     0.012 C 
HETATM   10  C16 UNL     1      -1.371 -28.380 -13.606  1.00  0.00     0.172 C 
HETATM   11  O5  UNL     1      -0.302 -28.874 -14.242  1.00  0.00    -0.385 OA
HETATM   12  C17 UNL     1       1.389 -27.393 -11.891  1.00  0.00     0.128 C 
HETATM   13  C19 UNL     1       1.926 -25.741 -13.606  1.00  0.00    -0.010 C 
HETATM   14  C20 UNL     1       2.659 -25.170 -14.780  1.00  0.00     0.018 C 
HETATM   15  C21 UNL     1       2.125 -24.692 -12.520  1.00  0.00     0.018 C 
ENDROOT
BRANCH   1  16
HETATM   16  O4  UNL     1       3.492 -27.224 -12.641  1.00  0.00    -0.290 OA
BRANCH  16  17
HETATM   17  C6  UNL     1       4.713 -27.492 -13.085  1.00  0.00     0.361 C 
HETATM   18  N1  UNL     1       5.371 -26.649 -14.025  1.00  0.00    -0.336 N 
ATOM     19  H1  UNL     1       4.895 -25.815 -14.370  1.00  0.00     0.164 HD
HETATM   20  O3  UNL     1       5.227 -28.505 -12.631  1.00  0.00    -0.238 OA
BRANCH  18  21
HETATM   21  C5  UNL     1       6.703 -26.956 -14.498  1.00  0.00     0.134 C 
BRANCH  21  22
HETATM   22  C4  UNL     1       7.502 -25.688 -14.678  1.00  0.00     0.131 C 
BRANCH  22  23
HETATM   23  C3  UNL     1       7.845 -25.104 -13.353  1.00  0.00     0.260 C 
HETATM   24  O2  UNL     1       8.295 -23.933 -13.262  1.00  0.00    -0.265 OA
BRANCH  23  25
HETATM   25  O1  UNL     1       7.686 -25.814 -12.183  1.00  0.00    -0.322 OA
BRANCH  25  26
HETATM   26  C2  UNL     1       8.702 -26.562 -11.563  1.00  0.00     0.174 C 
HETATM   27  C1  UNL     1       8.159 -27.779 -10.866  1.00  0.00     0.034 C 
ENDBRANCH  25  26
ENDBRANCH  23  25
ENDBRANCH  22  23
ENDBRANCH  21  22
ENDBRANCH  18  21
ENDBRANCH  16  17
ENDBRANCH   1  16
BRANCH  12  28
HETATM   28  N2  UNL     1       1.648 -28.718 -11.413  1.00  0.00    -0.327 N 
HETATM   29  C18 UNL     1       1.778 -29.016 -10.055  1.00  0.00     0.283 C 
HETATM   30  O6  UNL     1       1.677 -28.133  -9.170  1.00  0.00    -0.630 OA
HETATM   31  O7  UNL     1       2.028 -30.304  -9.627  1.00  0.00    -0.630 OA
ATOM     32  H2  UNL     1       1.740 -29.474 -12.091  1.00  0.00     0.166 HD
ENDBRANCH  12  28
TORSDOF 8
ENDMDL
MODEL 4
REMARK VINA RESULT: -7.934592329      2.147      4.476
REMARK  8 active torsions:
REMARK  status: ('A' for Active; 'I' for Inactive)
REMARK    1  A    between atoms: C2_2  and  O1_3 
REMARK    2  A    between atoms: O1_3  and  C3_4 
REMARK    3  A    between atoms: C3_4  and  C4_6 
REMARK    4  A    between atoms: C4_6  and  C5_7 
REMARK    5  A    between atoms: C5_7  and  N1_8 
REMARK       I    between atoms: N1_8  and  C6_10 
REMARK    6  A    between atoms: C6_10  and  O4_12 
REMARK    7  A    between atoms: O4_12  and  C7_13 
REMARK    8  A    between atoms: C17_24  and  N2_25 
REMARK       I    between atoms: N2_25  and  C18_27 
ROOT
HETATM    1  C7  UNL     1       2.067 -28.486 -11.192  1.00  0.00     0.103 C 
HETATM    2  C8  UNL     1       2.314 -27.958  -9.818  1.00  0.00     0.073 C 
HETATM    3  C9  UNL     1       2.757 -28.914  -8.778  1.00  0.00     0.124 C 
HETATM    4  C10 UNL     1       3.696 -29.911  -9.311  1.00  0.00     0.037 C 
HETATM    5  C11 UNL     1       3.344 -30.471 -10.649  1.00  0.00    -0.001 C 
HETATM    6  C12 UNL     1       2.168 -31.353 -10.685  1.00  0.00     0.012 C 
HETATM    7  C13 UNL     1       0.848 -30.654 -10.572  1.00  0.00     0.017 C 
HETATM    8  C14 UNL     1       0.329 -30.838  -9.179  1.00  0.00     0.011 C 
HETATM    9  C15 UNL     1      -0.151 -32.290  -9.000  1.00  0.00     0.012 C 
HETATM   10  C16 UNL     1       1.316 -30.621  -8.078  1.00  0.00     0.172 C 
HETATM   11  O5  UNL     1       1.693 -29.337  -8.055  1.00  0.00    -0.385 OA
HETATM   12  C17 UNL     1       0.745 -29.330 -11.166  1.00  0.00     0.128 C 
HETATM   13  C19 UNL     1       3.132 -29.362 -11.676  1.00  0.00    -0.010 C 
HETATM   14  C20 UNL     1       4.501 -28.788 -11.875  1.00  0.00     0.018 C 
HETATM   15  C21 UNL     1       2.829 -30.025 -13.013  1.00  0.00     0.018 C 
ENDROOT
BRANCH   1  16
HETATM   16  O4  UNL     1       1.696 -27.535 -12.109  1.00  0.00    -0.290 OA
BRANCH  16  17
HETATM   17  C6  UNL     1       2.252 -26.477 -12.684  1.00  0.00     0.361 C 
HETATM   18  N1  UNL     1       2.809 -26.541 -13.992  1.00  0.00    -0.336 N 
ATOM     19  H1  UNL     1       2.783 -27.421 -14.506  1.00  0.00     0.164 HD
HETATM   20  O3  UNL     1       2.251 -25.454 -12.014  1.00  0.00    -0.238 OA
BRANCH  18  21
HETATM   21  C5  UNL     1       3.412 -25.376 -14.604  1.00  0.00     0.134 C 
BRANCH  21  22
HETATM   22  C4  UNL     1       4.838 -25.672 -15.003  1.00  0.00     0.131 C 
BRANCH  22  23
HETATM   23  C3  UNL     1       5.777 -25.171 -13.963  1.00  0.00     0.260 C 
HETATM   24  O2  UNL     1       5.346 -24.603 -12.926  1.00  0.00    -0.265 OA
BRANCH  23  25
HETATM   25  O1  UNL     1       7.142 -25.308 -14.090  1.00  0.00    -0.322 OA
BRANCH  25  26
HETATM   26  C2  UNL     1       8.078 -24.825 -13.160  1.00  0.00     0.174 C 
HETATM   27  C1  UNL     1       8.499 -25.889 -12.182  1.00  0.00     0.034 C 
ENDBRANCH  25  26
ENDBRANCH  23  25
ENDBRANCH  22  23
ENDBRANCH  21  22
ENDBRANCH  18  21
ENDBRANCH  16  17
ENDBRANCH   1  16
BRANCH  12  28
HETATM   28  N2  UNL     1      -0.348 -28.529 -10.703  1.00  0.00    -0.327 N 
HETATM   29  C18 UNL     1      -1.535 -28.387 -11.423  1.00  0.00     0.283 C 
HETATM   30  O6  UNL     1      -1.714 -28.956 -12.526  1.00  0.00    -0.630 OA
HETATM   31  O7  UNL     1      -2.570 -27.607 -10.948  1.00  0.00    -0.630 OA
ATOM     32  H2  UNL     1      -0.255 -28.043  -9.811  1.00  0.00     0.166 HD
ENDBRANCH  12  28
TORSDOF 8
ENDMDL
MODEL 5
REMARK VINA RESULT: -7.892983697      1.047      1.206
REMARK  8 active torsions:
REMARK  status: ('A' for Active; 'I' for Inactive)
REMARK    1  A    between atoms: C2_2  and  O1_3 
REMARK    2  A    between atoms: O1_3  and  C3_4 
REMARK    3  A    between atoms: C3_4  and  C4_6 
REMARK    4  A    between atoms: C4_6  and  C5_7 
REMARK    5  A    between atoms: C5_7  and  N1_8 
REMARK       I    between atoms: N1_8  and  C6_10 
REMARK    6  A    between atoms: C6_10  and  O4_12 
REMARK    7  A    between atoms: O4_12  and  C7_13 
REMARK    8  A    between atoms: C17_24  and  N2_25 
REMARK       I    between atoms: N2_25  and  C18_27 
ROOT
HETATM    1  C7  UNL     1       2.299 -27.336 -12.665  1.00  0.00     0.103 C 
HETATM    2  C8  UNL     1       2.142 -28.285 -13.806  1.00  0.00     0.073 C 
HETATM    3  C9  UNL     1       1.019 -28.062 -14.743  1.00  0.00     0.124 C 
HETATM    4  C10 UNL     1       0.794 -26.633 -15.002  1.00  0.00     0.037 C 
HETATM    5  C11 UNL     1       0.871 -25.746 -13.804  1.00  0.00    -0.001 C 
HETATM    6  C12 UNL     1      -0.222 -25.886 -12.831  1.00  0.00     0.012 C 
HETATM    7  C13 UNL     1      -0.163 -27.121 -11.985  1.00  0.00     0.017 C 
HETATM    8  C14 UNL     1      -1.164 -28.106 -12.509  1.00  0.00     0.011 C 
HETATM    9  C15 UNL     1      -2.583 -27.634 -12.146  1.00  0.00     0.012 C 
HETATM   10  C16 UNL     1      -1.186 -28.291 -13.991  1.00  0.00     0.172 C 
HETATM   11  O5  UNL     1      -0.034 -28.840 -14.396  1.00  0.00    -0.385 OA
HETATM   12  C17 UNL     1       1.157 -27.618 -11.627  1.00  0.00     0.128 C 
HETATM   13  C19 UNL     1       2.191 -25.933 -13.059  1.00  0.00    -0.010 C 
HETATM   14  C20 UNL     1       3.215 -25.367 -13.994  1.00  0.00     0.018 C 
HETATM   15  C21 UNL     1       2.201 -24.958 -11.890  1.00  0.00     0.018 C 
ENDROOT
BRANCH   1  16
HETATM   16  O4  UNL     1       3.383 -27.584 -11.861  1.00  0.00    -0.290 OA
BRANCH  16  17
HETATM   17  C6  UNL     1       4.544 -28.217 -11.971  1.00  0.00     0.361 C 
HETATM   18  N1  UNL     1       5.732 -27.541 -12.369  1.00  0.00    -0.336 N 
ATOM     19  H1  UNL     1       5.695 -26.542 -12.576  1.00  0.00     0.164 HD
HETATM   20  O3  UNL     1       4.518 -29.411 -11.709  1.00  0.00    -0.238 OA
BRANCH  18  21
HETATM   21  C5  UNL     1       6.990 -28.247 -12.484  1.00  0.00     0.134 C 
BRANCH  21  22
HETATM   22  C4  UNL     1       7.990 -27.415 -13.250  1.00  0.00     0.131 C 
BRANCH  22  23
HETATM   23  C3  UNL     1       7.916 -25.993 -12.817  1.00  0.00     0.260 C 
HETATM   24  O2  UNL     1       8.751 -25.524 -12.001  1.00  0.00    -0.265 OA
BRANCH  23  25
HETATM   25  O1  UNL     1       6.940 -25.141 -13.286  1.00  0.00    -0.322 OA
BRANCH  25  26
HETATM   26  C2  UNL     1       6.766 -24.802 -14.638  1.00  0.00     0.174 C 
HETATM   27  C1  UNL     1       7.705 -23.709 -15.070  1.00  0.00     0.034 C 
ENDBRANCH  25  26
ENDBRANCH  23  25
ENDBRANCH  22  23
ENDBRANCH  21  22
ENDBRANCH  18  21
ENDBRANCH  16  17
ENDBRANCH   1  16
BRANCH  12  28
HETATM   28  N2  UNL     1       1.206 -28.981 -11.191  1.00  0.00    -0.327 N 
HETATM   29  C18 UNL     1       1.473 -29.339  -9.869  1.00  0.00     0.283 C 
HETATM   30  O6  UNL     1       1.689 -28.481  -8.980  1.00  0.00    -0.630 OA
HETATM   31  O7  UNL     1       1.514 -30.663  -9.481  1.00  0.00    -0.630 OA
ATOM     32  H2  UNL     1       1.038 -29.719 -11.874  1.00  0.00     0.166 HD
ENDBRANCH  12  28
TORSDOF 8
ENDMDL
