MODEL 1
REMARK VINA RESULT: -9.407189361      0.000      0.000
REMARK  9 active torsions:
REMARK  status: ('A' for Active; 'I' for Inactive)
REMARK    1  A    between atoms: C2_2  and  C3_4 
REMARK    2  A    between atoms: C4_5  and  O1_6 
REMARK    3  A    between atoms: C6_9  and  O2_10 
REMARK    4  A    between atoms: O2_10  and  C7_11 
REMARK    5  A    between atoms: C15_20  and  C16_21 
REMARK    6  A    between atoms: C17_22  and  C18_23 
REMARK    7  A    between atoms: C18_23  and  O4_24 
REMARK    8  A    between atoms: O4_24  and  C19_25 
REMARK    9  A    between atoms: C19_25  and  C20_27 
ROOT
HETATM    1  C7  UNL     1       3.844 -26.787 -13.355  1.00  0.00     0.280 C 
HETATM    2  O3  UNL     1       4.702 -26.899 -14.443  1.00  0.00    -0.331 OA
HETATM    3  C8  UNL     1       5.696 -25.959 -14.732  1.00  0.00     0.145 C 
HETATM    4  C9  UNL     1       6.434 -25.645 -13.651  1.00  0.00    -0.029 C 
HETATM    5  C10 UNL     1       7.551 -24.670 -13.701  1.00  0.00     0.041 C 
HETATM    6  C11 UNL     1       8.540 -24.948 -12.587  1.00  0.00     0.008 C 
HETATM    7  C12 UNL     1       8.442 -26.364 -12.070  1.00  0.00     0.028 C 
HETATM    8  C13 UNL     1       7.075 -26.704 -11.605  1.00  0.00    -0.018 C 
HETATM    9  C14 UNL     1       6.072 -26.328 -12.425  1.00  0.00    -0.041 C 
HETATM   10  C15 UNL     1       4.666 -26.577 -12.111  1.00  0.00     0.097 C 
ENDROOT
BRANCH   1  11
HETATM   11  O2  UNL     1       2.844 -25.938 -13.381  1.00  0.00    -0.330 OA
BRANCH  11  12
HETATM   12  C6  UNL     1       2.135 -25.497 -14.389  1.00  0.00     0.265 C 
HETATM   13  C5  UNL     1       1.201 -26.393 -15.129  1.00  0.00     0.093 C 
HETATM   14  C4  UNL     1      -0.180 -26.428 -14.500  1.00  0.00     0.136 C 
HETATM   15  C3  UNL     1      -0.799 -25.063 -14.712  1.00  0.00     0.104 C 
HETATM   16  C21 UNL     1       0.365 -24.091 -14.891  1.00  0.00     0.133 C 
HETATM   17  O8  UNL     1       1.385 -24.384 -13.989  1.00  0.00    -0.355 OA
HETATM   18  C22 UNL     1      -0.195 -22.726 -14.463  1.00  0.00     0.040 C 
BRANCH  14  19
HETATM   19  O1  UNL     1      -0.110 -26.607 -13.117  1.00  0.00    -0.395 OA
ATOM     20  H1  UNL     1      -0.273 -27.531 -12.965  1.00  0.00     0.210 HD
ENDBRANCH  14  19
BRANCH  15  21
HETATM   21  C2  UNL     1      -1.694 -25.088 -15.890  1.00  0.00     0.093 C 
HETATM   22  C1  UNL     1      -2.943 -25.489 -15.800  1.00  0.00     0.052 C 
HETATM   23  F1  UNL     1      -1.227 -24.687 -17.097  1.00  0.00    -0.211 F 
ENDBRANCH  15  21
ENDBRANCH  11  12
ENDBRANCH   1  11
BRANCH  10  24
HETATM   24  C16 UNL     1       4.498 -27.705 -11.146  1.00  0.00    -0.014 C 
HETATM   25  C17 UNL     1       4.048 -28.865 -11.619  1.00  0.00    -0.004 C 
BRANCH  25  26
HETATM   26  C18 UNL     1       3.857 -30.032 -10.711  1.00  0.00     0.206 C 
BRANCH  26  27
HETATM   27  O4  UNL     1       4.328 -29.804  -9.428  1.00  0.00    -0.309 OA
BRANCH  27  28
HETATM   28  C19 UNL     1       3.558 -29.937  -8.296  1.00  0.00     0.360 C 
HETATM   29  O5  UNL     1       4.062 -30.471  -7.281  1.00  0.00    -0.252 OA
BRANCH  28  30
HETATM   30  C20 UNL     1       2.169 -29.468  -8.254  1.00  0.00     0.277 C 
HETATM   31  O6  UNL     1       1.304 -30.091  -7.585  1.00  0.00    -0.640 OA
HETATM   32  O7  UNL     1       1.774 -28.340  -8.941  1.00  0.00    -0.640 OA
ENDBRANCH  28  30
ENDBRANCH  27  28
ENDBRANCH  26  27
ENDBRANCH  25  26
ENDBRANCH  10  24
TORSDOF 9
ENDMDL
MODEL 2
REMARK VINA RESULT: -9.312847224      1.202      1.948
REMARK  9 active torsions:
REMARK  status: ('A' for Active; 'I' for Inactive)
REMARK    1  A    between atoms: C2_2  and  C3_4 
REMARK    2  A    between atoms: C4_5  and  O1_6 
REMARK    3  A    between atoms: C6_9  and  O2_10 
REMARK    4  A    between atoms: O2_10  and  C7_11 
REMARK    5  A    between atoms: C15_20  and  C16_21 
REMARK    6  A    between atoms: C17_22  and  C18_23 
REMARK    7  A    between atoms: C18_23  and  O4_24 
REMARK    8  A    between atoms: O4_24  and  C19_25 
REMARK    9  A    between atoms: C19_25  and  C20_27 
ROOT
HETATM    1  C7  UNL     1       3.771 -27.001 -12.562  1.00  0.00     0.280 C 
HETATM    2  O3  UNL     1       4.453 -26.895 -13.769  1.00  0.00    -0.331 OA
HETATM    3  C8  UNL     1       5.459 -25.952 -13.998  1.00  0.00     0.145 C 
HETATM    4  C9  UNL     1       6.365 -25.917 -13.005  1.00  0.00    -0.029 C 
HETATM    5  C10 UNL     1       7.529 -24.998 -13.016  1.00  0.00     0.041 C 
HETATM    6  C11 UNL     1       8.647 -25.556 -12.158  1.00  0.00     0.008 C 
HETATM    7  C12 UNL     1       8.525 -27.047 -11.953  1.00  0.00     0.028 C 
HETATM    8  C13 UNL     1       7.219 -27.433 -11.364  1.00  0.00    -0.018 C 
HETATM    9  C14 UNL     1       6.137 -26.846 -11.916  1.00  0.00    -0.041 C 
HETATM   10  C15 UNL     1       4.778 -27.108 -11.447  1.00  0.00     0.097 C 
ENDROOT
BRANCH   1  11
HETATM   11  O2  UNL     1       2.840 -26.132 -12.246  1.00  0.00    -0.330 OA
BRANCH  11  12
HETATM   12  C6  UNL     1       1.565 -26.114 -12.538  1.00  0.00     0.265 C 
HETATM   13  C5  UNL     1       0.928 -24.910 -13.145  1.00  0.00     0.093 C 
HETATM   14  C4  UNL     1       1.015 -24.917 -14.660  1.00  0.00     0.136 C 
HETATM   15  C3  UNL     1       0.128 -26.040 -15.152  1.00  0.00     0.104 C 
HETATM   16  C21 UNL     1       0.018 -27.032 -13.996  1.00  0.00     0.133 C 
HETATM   17  O8  UNL     1       1.255 -27.193 -13.375  1.00  0.00    -0.355 OA
HETATM   18  C22 UNL     1      -0.294 -28.380 -14.665  1.00  0.00     0.040 C 
BRANCH  14  19
HETATM   19  O1  UNL     1       2.305 -25.226 -15.099  1.00  0.00    -0.395 OA
ATOM     20  H1  UNL     1       2.477 -24.647 -15.832  1.00  0.00     0.210 HD
ENDBRANCH  14  19
BRANCH  15  21
HETATM   21  C2  UNL     1      -1.191 -25.506 -15.557  1.00  0.00     0.093 C 
HETATM   22  C1  UNL     1      -1.334 -24.764 -16.634  1.00  0.00     0.052 C 
HETATM   23  F1  UNL     1      -2.287 -25.782 -14.811  1.00  0.00    -0.211 F 
ENDBRANCH  15  21
ENDBRANCH  11  12
ENDBRANCH   1  11
BRANCH  10  24
HETATM   24  C16 UNL     1       4.671 -28.417 -10.736  1.00  0.00    -0.014 C 
HETATM   25  C17 UNL     1       3.685 -29.237 -11.090  1.00  0.00    -0.004 C 
BRANCH  25  26
HETATM   26  C18 UNL     1       3.520 -30.560 -10.422  1.00  0.00     0.206 C 
BRANCH  26  27
HETATM   27  O4  UNL     1       4.227 -30.659  -9.234  1.00  0.00    -0.309 OA
BRANCH  27  28
HETATM   28  C19 UNL     1       3.646 -30.571  -7.991  1.00  0.00     0.360 C 
HETATM   29  O5  UNL     1       4.361 -30.266  -7.009  1.00  0.00    -0.252 OA
BRANCH  28  30
HETATM   30  C20 UNL     1       2.215 -30.825  -7.793  1.00  0.00     0.277 C 
HETATM   31  O6  UNL     1       1.408 -29.868  -7.666  1.00  0.00    -0.640 OA
HETATM   32  O7  UNL     1       1.716 -32.110  -7.739  1.00  0.00    -0.640 OA
ENDBRANCH  28  30
ENDBRANCH  27  28
ENDBRANCH  26  27
ENDBRANCH  25  26
ENDBRANCH  10  24
TORSDOF 9
ENDMDL
MODEL 3
REMARK VINA RESULT: -9.203785947      2.250      2.923
REMARK  9 active torsions:
REMARK  status: ('A' for Active; 'I' for Inactive)
REMARK    1  A    between atoms: C2_2  and  C3_4 
REMARK    2  A    between atoms: C4_5  and  O1_6 
REMARK    3  A    between atoms: C6_9  and  O2_10 
REMARK    4  A    between atoms: O2_10  and  C7_11 
REMARK    5  A    between atoms: C15_20  and  C16_21 
REMARK    6  A    between atoms: C17_22  and  C18_23 
REMARK    7  A    between atoms: C18_23  and  O4_24 
REMARK    8  A    between atoms: O4_24  and  C19_25 
REMARK    9  A    between atoms: C19_25  and  C20_27 
ROOT
HETATM    1  C7  UNL     1       3.597 -27.098 -12.502  1.00  0.00     0.280 C 
HETATM    2  O3  UNL     1       4.203 -27.012 -13.750  1.00  0.00    -0.331 OA
HETATM    3  C8  UNL     1       5.144 -26.031 -14.077  1.00  0.00     0.145 C 
HETATM    4  C9  UNL     1       6.102 -25.907 -13.141  1.00  0.00    -0.029 C 
HETATM    5  C10 UNL     1       7.214 -24.933 -13.259  1.00  0.00     0.041 C 
HETATM    6  C11 UNL     1       8.406 -25.397 -12.446  1.00  0.00     0.008 C 
HETATM    7  C12 UNL     1       8.374 -26.882 -12.172  1.00  0.00     0.028 C 
HETATM    8  C13 UNL     1       7.125 -27.305 -11.492  1.00  0.00    -0.018 C 
HETATM    9  C14 UNL     1       5.985 -26.797 -12.003  1.00  0.00    -0.041 C 
HETATM   10  C15 UNL     1       4.669 -27.105 -11.445  1.00  0.00     0.097 C 
ENDROOT
BRANCH   1  11
HETATM   11  O2  UNL     1       2.642 -26.263 -12.168  1.00  0.00    -0.330 OA
BRANCH  11  12
HETATM   12  C6  UNL     1       1.530 -26.468 -11.510  1.00  0.00     0.265 C 
HETATM   13  C5  UNL     1       0.267 -25.772 -11.889  1.00  0.00     0.093 C 
HETATM   14  C4  UNL     1      -0.514 -26.536 -12.943  1.00  0.00     0.136 C 
HETATM   15  C3  UNL     1      -1.022 -27.803 -12.290  1.00  0.00     0.104 C 
HETATM   16  C21 UNL     1      -0.082 -28.084 -11.119  1.00  0.00     0.133 C 
HETATM   17  O8  UNL     1       1.239 -27.838 -11.486  1.00  0.00    -0.355 OA
HETATM   18  C22 UNL     1      -0.180 -29.600 -10.893  1.00  0.00     0.040 C 
BRANCH  14  19
HETATM   19  O1  UNL     1       0.309 -26.948 -13.994  1.00  0.00    -0.395 OA
ATOM     20  H1  UNL     1      -0.191 -26.805 -14.788  1.00  0.00     0.210 HD
ENDBRANCH  14  19
BRANCH  15  21
HETATM   21  C2  UNL     1      -2.424 -27.624 -11.851  1.00  0.00     0.093 C 
HETATM   22  C1  UNL     1      -3.426 -27.696 -12.700  1.00  0.00     0.052 C 
HETATM   23  F1  UNL     1      -2.694 -27.380 -10.547  1.00  0.00    -0.211 F 
ENDBRANCH  15  21
ENDBRANCH  11  12
ENDBRANCH   1  11
BRANCH  10  24
HETATM   24  C16 UNL     1       4.671 -28.385 -10.675  1.00  0.00    -0.014 C 
HETATM   25  C17 UNL     1       3.867 -29.361 -11.090  1.00  0.00    -0.004 C 
BRANCH  25  26
HETATM   26  C18 UNL     1       3.819 -30.664 -10.369  1.00  0.00     0.206 C 
BRANCH  26  27
HETATM   27  O4  UNL     1       4.452 -30.626  -9.137  1.00  0.00    -0.309 OA
BRANCH  27  28
HETATM   28  C19 UNL     1       3.786 -30.508  -7.939  1.00  0.00     0.360 C 
HETATM   29  O5  UNL     1       4.426 -30.153  -6.923  1.00  0.00    -0.252 OA
BRANCH  28  30
HETATM   30  C20 UNL     1       2.349 -30.785  -7.830  1.00  0.00     0.277 C 
HETATM   31  O6  UNL     1       1.523 -29.843  -7.724  1.00  0.00    -0.640 OA
HETATM   32  O7  UNL     1       1.868 -32.078  -7.839  1.00  0.00    -0.640 OA
ENDBRANCH  28  30
ENDBRANCH  27  28
ENDBRANCH  26  27
ENDBRANCH  25  26
ENDBRANCH  10  24
TORSDOF 9
ENDMDL
MODEL 4
REMARK VINA RESULT: -9.186306359      0.874      1.455
REMARK  9 active torsions:
REMARK  status: ('A' for Active; 'I' for Inactive)
REMARK    1  A    between atoms: C2_2  and  C3_4 
REMARK    2  A    between atoms: C4_5  and  O1_6 
REMARK    3  A    between atoms: C6_9  and  O2_10 
REMARK    4  A    between atoms: O2_10  and  C7_11 
REMARK    5  A    between atoms: C15_20  and  C16_21 
REMARK    6  A    between atoms: C17_22  and  C18_23 
REMARK    7  A    between atoms: C18_23  and  O4_24 
REMARK    8  A    between atoms: O4_24  and  C19_25 
REMARK    9  A    between atoms: C19_25  and  C20_27 
ROOT
HETATM    1  C7  UNL     1       3.645 -26.300 -13.331  1.00  0.00     0.280 C 
HETATM    2  O3  UNL     1       4.530 -26.751 -14.303  1.00  0.00    -0.331 OA
HETATM    3  C8  UNL     1       5.759 -26.136 -14.563  1.00  0.00     0.145 C 
HETATM    4  C9  UNL     1       6.462 -25.900 -13.440  1.00  0.00    -0.029 C 
HETATM    5  C10 UNL     1       7.797 -25.257 -13.452  1.00  0.00     0.041 C 
HETATM    6  C11 UNL     1       8.581 -25.650 -12.216  1.00  0.00     0.008 C 
HETATM    7  C12 UNL     1       8.068 -26.925 -11.590  1.00  0.00     0.028 C 
HETATM    8  C13 UNL     1       6.625 -26.848 -11.250  1.00  0.00    -0.018 C 
HETATM    9  C14 UNL     1       5.830 -26.324 -12.205  1.00  0.00    -0.041 C 
HETATM   10  C15 UNL     1       4.388 -26.167 -12.027  1.00  0.00     0.097 C 
ENDROOT
BRANCH   1  11
HETATM   11  O2  UNL     1       2.913 -25.232 -13.542  1.00  0.00    -0.330 OA
BRANCH  11  12
HETATM   12  C6  UNL     1       2.136 -24.923 -14.549  1.00  0.00     0.265 C 
HETATM   13  C5  UNL     1       1.239 -25.938 -15.172  1.00  0.00     0.093 C 
HETATM   14  C4  UNL     1      -0.111 -26.011 -14.482  1.00  0.00     0.136 C 
HETATM   15  C3  UNL     1      -0.831 -24.713 -14.774  1.00  0.00     0.104 C 
HETATM   16  C21 UNL     1       0.255 -23.684 -15.083  1.00  0.00     0.133 C 
HETATM   17  O8  UNL     1       1.327 -23.833 -14.207  1.00  0.00    -0.355 OA
HETATM   18  C22 UNL     1      -0.381 -22.328 -14.742  1.00  0.00     0.040 C 
BRANCH  14  19
HETATM   19  O1  UNL     1       0.025 -26.070 -13.092  1.00  0.00    -0.395 OA
ATOM     20  H1  UNL     1       0.443 -26.903 -12.906  1.00  0.00     0.210 HD
ENDBRANCH  14  19
BRANCH  15  21
HETATM   21  C2  UNL     1      -1.768 -24.894 -15.906  1.00  0.00     0.093 C 
HETATM   22  C1  UNL     1      -2.995 -25.330 -15.722  1.00  0.00     0.052 C 
HETATM   23  F1  UNL     1      -1.363 -24.606 -17.166  1.00  0.00    -0.211 F 
ENDBRANCH  15  21
ENDBRANCH  11  12
ENDBRANCH   1  11
BRANCH  10  24
HETATM   24  C16 UNL     1       3.846 -27.096 -10.991  1.00  0.00    -0.014 C 
HETATM   25  C17 UNL     1       2.541 -27.044 -10.731  1.00  0.00    -0.004 C 
BRANCH  25  26
HETATM   26  C18 UNL     1       1.934 -27.944  -9.709  1.00  0.00     0.206 C 
BRANCH  26  27
HETATM   27  O4  UNL     1       2.703 -29.067  -9.449  1.00  0.00    -0.309 OA
BRANCH  27  28
HETATM   28  C19 UNL     1       2.572 -29.837  -8.317  1.00  0.00     0.360 C 
HETATM   29  O5  UNL     1       1.483 -29.823  -7.699  1.00  0.00    -0.252 OA
BRANCH  28  30
HETATM   30  C20 UNL     1       3.674 -30.669  -7.824  1.00  0.00     0.277 C 
HETATM   31  O6  UNL     1       4.487 -30.217  -6.977  1.00  0.00    -0.640 OA
HETATM   32  O7  UNL     1       3.851 -31.962  -8.272  1.00  0.00    -0.640 OA
ENDBRANCH  28  30
ENDBRANCH  27  28
ENDBRANCH  26  27
ENDBRANCH  25  26
ENDBRANCH  10  24
TORSDOF 9
ENDMDL
MODEL 5
REMARK VINA RESULT: -9.181810872      1.824      2.148
REMARK  9 active torsions:
REMARK  status: ('A' for Active; 'I' for Inactive)
REMARK    1  A    between atoms: C2_2  and  C3_4 
REMARK    2  A    between atoms: C4_5  and  O1_6 
REMARK    3  A    between atoms: C6_9  and  O2_10 
REMARK    4  A    between atoms: O2_10  and  C7_11 
REMARK    5  A    between atoms: C15_20  and  C16_21 
REMARK    6  A    between atoms: C17_22  and  C18_23 
REMARK    7  A    between atoms: C18_23  and  O4_24 
REMARK    8  A    between atoms: O4_24  and  C19_25 
REMARK    9  A    between atoms: C19_25  and  C20_27 
ROOT
HETATM    1  C7  UNL     1       4.260 -27.489 -13.035  1.00  0.00     0.280 C 
HETATM    2  O3  UNL     1       5.085 -27.550 -14.152  1.00  0.00    -0.331 OA
HETATM    3  C8  UNL     1       5.826 -26.460 -14.617  1.00  0.00     0.145 C 
HETATM    4  C9  UNL     1       6.506 -25.845 -13.632  1.00  0.00    -0.029 C 
HETATM    5  C10 UNL     1       7.366 -24.662 -13.872  1.00  0.00     0.041 C 
HETATM    6  C11 UNL     1       8.429 -24.558 -12.796  1.00  0.00     0.008 C 
HETATM    7  C12 UNL     1       8.677 -25.876 -12.103  1.00  0.00     0.028 C 
HETATM    8  C13 UNL     1       7.440 -26.448 -11.514  1.00  0.00    -0.018 C 
HETATM    9  C14 UNL     1       6.352 -26.421 -12.310  1.00  0.00    -0.041 C 
HETATM   10  C15 UNL     1       5.052 -26.933 -11.880  1.00  0.00     0.097 C 
ENDROOT
BRANCH   1  11
HETATM   11  O2  UNL     1       3.091 -26.896 -13.104  1.00  0.00    -0.330 OA
BRANCH  11  12
HETATM   12  C6  UNL     1       1.917 -27.376 -13.427  1.00  0.00     0.265 C 
HETATM   13  C5  UNL     1       1.143 -28.229 -12.481  1.00  0.00     0.093 C 
HETATM   14  C4  UNL     1       0.269 -27.408 -11.551  1.00  0.00     0.136 C 
HETATM   15  C3  UNL     1      -0.820 -26.786 -12.397  1.00  0.00     0.104 C 
HETATM   16  C21 UNL     1      -0.270 -26.724 -13.821  1.00  0.00     0.133 C 
HETATM   17  O8  UNL     1       1.066 -26.330 -13.807  1.00  0.00    -0.355 OA
HETATM   18  C22 UNL     1      -1.039 -25.574 -14.489  1.00  0.00     0.040 C 
BRANCH  14  19
HETATM   19  O1  UNL     1       0.976 -26.341 -10.991  1.00  0.00    -0.395 OA
ATOM     20  H1  UNL     1       1.879 -26.630 -10.929  1.00  0.00     0.210 HD
ENDBRANCH  14  19
BRANCH  15  21
HETATM   21  C2  UNL     1      -2.056 -27.595 -12.311  1.00  0.00     0.093 C 
HETATM   22  C1  UNL     1      -2.753 -27.673 -11.198  1.00  0.00     0.052 C 
HETATM   23  F1  UNL     1      -2.492 -28.276 -13.398  1.00  0.00    -0.211 F 
ENDBRANCH  15  21
ENDBRANCH  11  12
ENDBRANCH   1  11
BRANCH  10  24
HETATM   24  C16 UNL     1       5.179 -27.929 -10.775  1.00  0.00    -0.014 C 
HETATM   25  C17 UNL     1       5.121 -29.221 -11.092  1.00  0.00    -0.004 C 
BRANCH  25  26
HETATM   26  C18 UNL     1       5.241 -30.268 -10.037  1.00  0.00     0.206 C 
BRANCH  26  27
HETATM   27  O4  UNL     1       4.018 -30.651  -9.511  1.00  0.00    -0.309 OA
BRANCH  27  28
HETATM   28  C19 UNL     1       3.527 -30.196  -8.309  1.00  0.00     0.360 C 
HETATM   29  O5  UNL     1       4.226 -30.331  -7.280  1.00  0.00    -0.252 OA
BRANCH  28  30
HETATM   30  C20 UNL     1       2.209 -29.558  -8.212  1.00  0.00     0.277 C 
HETATM   31  O6  UNL     1       1.295 -30.081  -7.524  1.00  0.00    -0.640 OA
HETATM   32  O7  UNL     1       1.936 -28.375  -8.867  1.00  0.00    -0.640 OA
ENDBRANCH  28  30
ENDBRANCH  27  28
ENDBRANCH  26  27
ENDBRANCH  25  26
ENDBRANCH  10  24
TORSDOF 9
ENDMDL
