MODEL 1
REMARK VINA RESULT: -8.729453822      0.000      0.000
REMARK  9 active torsions:
REMARK  status: ('A' for Active; 'I' for Inactive)
REMARK    1  A    between atoms: S1_3  and  C2_4 
REMARK    2  A    between atoms: C2_4  and  C3_5 
REMARK    3  A    between atoms: C3_5  and  O1_6 
REMARK    4  A    between atoms: C3_5  and  C4_8 
REMARK    5  A    between atoms: C4_8  and  N2_9 
REMARK    6  A    between atoms: C7_12  and  O2_13 
REMARK    7  A    between atoms: O2_13  and  C8_14 
REMARK       I    between atoms: C8_14  and  N3_16 
REMARK    8  A    between atoms: N3_16  and  C9_18 
REMARK    9  A    between atoms: C17_26  and  O4_27 
ROOT
HETATM    1  N1  UNL     1       6.659 -30.094 -10.036  1.00  0.00    -0.184 NA
HETATM    2  C1  UNL     1       5.665 -30.562  -9.662  1.00  0.00     0.133 C 
HETATM    3  S1  UNL     1       4.156 -31.298  -9.086  1.00  0.00    -0.048 SA
ENDROOT
BRANCH   3   4
HETATM    4  C2  UNL     1       3.492 -30.253  -7.787  1.00  0.00     0.123 C 
BRANCH   4   5
HETATM    5  C3  UNL     1       2.189 -29.605  -8.150  1.00  0.00     0.156 C 
BRANCH   5   6
HETATM    6  O1  UNL     1       1.177 -30.186  -7.411  1.00  0.00    -0.393 OA
ATOM      7  H1  UNL     1       0.364 -30.122  -7.898  1.00  0.00     0.210 HD
ENDBRANCH   5   6
BRANCH   5   8
HETATM    8  C4  UNL     1       1.895 -29.717  -9.613  1.00  0.00     0.304 C 
BRANCH   8   9
HETATM    9  N2  UNL     1       1.074 -28.653 -10.117  1.00  0.00     0.091 N 
HETATM   10  C5  UNL     1       1.828 -27.647 -10.839  1.00  0.00     0.275 C 
HETATM   11  C6  UNL     1       0.951 -27.013 -11.929  1.00  0.00     0.063 C 
HETATM   12  C7  UNL     1       0.657 -28.043 -13.009  1.00  0.00     0.137 C 
HETATM   13  C20 UNL     1       0.614 -29.392 -12.350  1.00  0.00     0.063 C 
HETATM   14  C21 UNL     1       0.023 -29.205 -10.968  1.00  0.00     0.275 C 
BRANCH  12  15
HETATM   15  O2  UNL     1       1.553 -27.947 -14.071  1.00  0.00    -0.299 OA
BRANCH  15  16
HETATM   16  C8  UNL     1       2.557 -27.042 -14.250  1.00  0.00     0.361 C 
HETATM   17  O3  UNL     1       2.234 -25.992 -14.897  1.00  0.00    -0.238 OA
HETATM   18  N3  UNL     1       3.876 -27.186 -13.787  1.00  0.00    -0.332 N 
ATOM     19  H3  UNL     1       4.115 -28.032 -13.271  1.00  0.00     0.165 HD
BRANCH  18  20
HETATM   20  C9  UNL     1       4.920 -26.198 -14.000  1.00  0.00     0.091 C 
HETATM   21  C10 UNL     1       5.821 -26.668 -15.061  1.00  0.00     0.030 C 
HETATM   22  C11 UNL     1       7.286 -26.576 -14.836  1.00  0.00    -0.009 C 
HETATM   23  C12 UNL     1       7.790 -25.179 -14.623  1.00  0.00     0.009 C 
HETATM   24  C19 UNL     1       7.735 -27.559 -13.806  1.00  0.00     0.042 C 
HETATM   25  C13 UNL     1       7.774 -24.767 -13.174  1.00  0.00    -0.011 C 
HETATM   26  C14 UNL     1       6.360 -24.562 -12.747  1.00  0.00     0.011 C 
HETATM   27  C18 UNL     1       8.430 -25.780 -12.286  1.00  0.00     0.042 C 
HETATM   28  C15 UNL     1       5.545 -25.831 -12.682  1.00  0.00     0.012 C 
HETATM   29  C16 UNL     1       6.247 -26.959 -11.991  1.00  0.00     0.044 C 
HETATM   30  C17 UNL     1       7.695 -27.080 -12.395  1.00  0.00     0.059 C 
BRANCH  30  31
HETATM   31  O4  UNL     1       8.316 -28.010 -11.583  1.00  0.00    -0.390 OA
ATOM     32  H4  UNL     1       8.185 -28.878 -11.947  1.00  0.00     0.210 HD
ENDBRANCH  30  31
ENDBRANCH  18  20
ENDBRANCH  15  16
ENDBRANCH  12  15
ENDBRANCH   8   9
ENDBRANCH   5   8
ENDBRANCH   4   5
ENDBRANCH   3   4
TORSDOF 9
ENDMDL
MODEL 2
REMARK VINA RESULT: -8.353444634      1.542      2.031
REMARK  9 active torsions:
REMARK  status: ('A' for Active; 'I' for Inactive)
REMARK    1  A    between atoms: S1_3  and  C2_4 
REMARK    2  A    between atoms: C2_4  and  C3_5 
REMARK    3  A    between atoms: C3_5  and  O1_6 
REMARK    4  A    between atoms: C3_5  and  C4_8 
REMARK    5  A    between atoms: C4_8  and  N2_9 
REMARK    6  A    between atoms: C7_12  and  O2_13 
REMARK    7  A    between atoms: O2_13  and  C8_14 
REMARK       I    between atoms: C8_14  and  N3_16 
REMARK    8  A    between atoms: N3_16  and  C9_18 
REMARK    9  A    between atoms: C17_26  and  O4_27 
ROOT
HETATM    1  N1  UNL     1       6.721 -30.186 -10.032  1.00  0.00    -0.184 NA
HETATM    2  C1  UNL     1       5.632 -30.013 -10.394  1.00  0.00     0.133 C 
HETATM    3  S1  UNL     1       3.962 -29.772 -10.944  1.00  0.00    -0.048 SA
ENDROOT
BRANCH   3   4
HETATM    4  C2  UNL     1       3.291 -28.355 -10.070  1.00  0.00     0.123 C 
BRANCH   4   5
HETATM    5  C3  UNL     1       1.858 -28.527  -9.665  1.00  0.00     0.156 C 
BRANCH   5   6
HETATM    6  O1  UNL     1       1.811 -29.003  -8.370  1.00  0.00    -0.393 OA
ATOM      7  H1  UNL     1       2.493 -29.655  -8.255  1.00  0.00     0.210 HD
ENDBRANCH   5   6
BRANCH   5   8
HETATM    8  C4  UNL     1       1.122 -29.450 -10.585  1.00  0.00     0.304 C 
BRANCH   8   9
HETATM    9  N2  UNL     1       0.108 -28.799 -11.364  1.00  0.00     0.091 N 
HETATM   10  C5  UNL     1       0.032 -27.372 -11.118  1.00  0.00     0.275 C 
HETATM   11  C6  UNL     1      -0.445 -26.644 -12.384  1.00  0.00     0.063 C 
HETATM   12  C7  UNL     1       0.626 -26.738 -13.460  1.00  0.00     0.137 C 
HETATM   13  C20 UNL     1       1.350 -28.040 -13.267  1.00  0.00     0.063 C 
HETATM   14  C21 UNL     1       0.337 -29.056 -12.783  1.00  0.00     0.275 C 
BRANCH  12  15
HETATM   15  O2  UNL     1       1.450 -25.615 -13.466  1.00  0.00    -0.299 OA
BRANCH  15  16
HETATM   16  C8  UNL     1       2.661 -25.452 -12.859  1.00  0.00     0.361 C 
HETATM   17  O3  UNL     1       2.614 -25.058 -11.648  1.00  0.00    -0.238 OA
HETATM   18  N3  UNL     1       3.911 -25.680 -13.460  1.00  0.00    -0.332 N 
ATOM     19  H3  UNL     1       3.928 -25.995 -14.430  1.00  0.00     0.165 HD
BRANCH  18  20
HETATM   20  C9  UNL     1       5.181 -25.493 -12.780  1.00  0.00     0.091 C 
HETATM   21  C10 UNL     1       6.016 -24.571 -13.562  1.00  0.00     0.030 C 
HETATM   22  C11 UNL     1       7.436 -24.935 -13.803  1.00  0.00    -0.009 C 
HETATM   23  C12 UNL     1       8.254 -25.082 -12.553  1.00  0.00     0.009 C 
HETATM   24  C19 UNL     1       7.545 -26.083 -14.751  1.00  0.00     0.042 C 
HETATM   25  C13 UNL     1       8.228 -26.483 -12.000  1.00  0.00    -0.011 C 
HETATM   26  C14 UNL     1       6.881 -26.745 -11.416  1.00  0.00     0.011 C 
HETATM   27  C18 UNL     1       8.540 -27.513 -13.041  1.00  0.00     0.042 C 
HETATM   28  C15 UNL     1       5.773 -26.833 -12.438  1.00  0.00     0.012 C 
HETATM   29  C16 UNL     1       6.116 -27.682 -13.623  1.00  0.00     0.044 C 
HETATM   30  C17 UNL     1       7.515 -27.438 -14.131  1.00  0.00     0.059 C 
BRANCH  30  31
HETATM   31  O4  UNL     1       7.819 -28.384 -15.092  1.00  0.00    -0.390 OA
ATOM     32  H4  UNL     1       8.547 -28.071 -15.616  1.00  0.00     0.210 HD
ENDBRANCH  30  31
ENDBRANCH  18  20
ENDBRANCH  15  16
ENDBRANCH  12  15
ENDBRANCH   8   9
ENDBRANCH   5   8
ENDBRANCH   4   5
ENDBRANCH   3   4
TORSDOF 9
ENDMDL
MODEL 3
REMARK VINA RESULT: -8.337448326      1.076      1.076
REMARK  9 active torsions:
REMARK  status: ('A' for Active; 'I' for Inactive)
REMARK    1  A    between atoms: S1_3  and  C2_4 
REMARK    2  A    between atoms: C2_4  and  C3_5 
REMARK    3  A    between atoms: C3_5  and  O1_6 
REMARK    4  A    between atoms: C3_5  and  C4_8 
REMARK    5  A    between atoms: C4_8  and  N2_9 
REMARK    6  A    between atoms: C7_12  and  O2_13 
REMARK    7  A    between atoms: O2_13  and  C8_14 
REMARK       I    between atoms: C8_14  and  N3_16 
REMARK    8  A    between atoms: N3_16  and  C9_18 
REMARK    9  A    between atoms: C17_26  and  O4_27 
ROOT
HETATM    1  N1  UNL     1       3.746 -34.011  -9.097  1.00  0.00    -0.184 NA
HETATM    2  C1  UNL     1       3.975 -32.873  -9.131  1.00  0.00     0.133 C 
HETATM    3  S1  UNL     1       4.318 -31.133  -9.208  1.00  0.00    -0.048 SA
ENDROOT
BRANCH   3   4
HETATM    4  C2  UNL     1       3.522 -30.351  -7.801  1.00  0.00     0.123 C 
BRANCH   4   5
HETATM    5  C3  UNL     1       2.257 -29.630  -8.157  1.00  0.00     0.156 C 
BRANCH   5   6
HETATM    6  O1  UNL     1       1.211 -30.178  -7.442  1.00  0.00    -0.393 OA
ATOM      7  H1  UNL     1       0.836 -30.894  -7.942  1.00  0.00     0.210 HD
ENDBRANCH   5   6
BRANCH   5   8
HETATM    8  C4  UNL     1       1.970 -29.689  -9.625  1.00  0.00     0.304 C 
BRANCH   8   9
HETATM    9  N2  UNL     1       1.140 -28.616 -10.093  1.00  0.00     0.091 N 
HETATM   10  C5  UNL     1       1.873 -27.617 -10.845  1.00  0.00     0.275 C 
HETATM   11  C6  UNL     1       0.957 -26.973 -11.896  1.00  0.00     0.063 C 
HETATM   12  C7  UNL     1       0.605 -27.998 -12.964  1.00  0.00     0.137 C 
HETATM   13  C20 UNL     1       0.575 -29.347 -12.304  1.00  0.00     0.063 C 
HETATM   14  C21 UNL     1       0.047 -29.155 -10.897  1.00  0.00     0.275 C 
BRANCH  12  15
HETATM   15  O2  UNL     1       1.455 -27.911 -14.062  1.00  0.00    -0.299 OA
BRANCH  15  16
HETATM   16  C8  UNL     1       2.466 -27.022 -14.281  1.00  0.00     0.361 C 
HETATM   17  O3  UNL     1       2.166 -26.029 -15.023  1.00  0.00    -0.238 OA
HETATM   18  N3  UNL     1       3.768 -27.125 -13.763  1.00  0.00    -0.332 N 
ATOM     19  H3  UNL     1       3.988 -27.926 -13.171  1.00  0.00     0.165 HD
BRANCH  18  20
HETATM   20  C9  UNL     1       4.819 -26.156 -14.020  1.00  0.00     0.091 C 
HETATM   21  C10 UNL     1       5.703 -26.671 -15.075  1.00  0.00     0.030 C 
HETATM   22  C11 UNL     1       7.172 -26.588 -14.870  1.00  0.00    -0.009 C 
HETATM   23  C12 UNL     1       7.693 -25.189 -14.710  1.00  0.00     0.009 C 
HETATM   24  C19 UNL     1       7.623 -27.540 -13.813  1.00  0.00     0.042 C 
HETATM   25  C13 UNL     1       7.698 -24.730 -13.275  1.00  0.00    -0.011 C 
HETATM   26  C14 UNL     1       6.291 -24.494 -12.840  1.00  0.00     0.011 C 
HETATM   27  C18 UNL     1       8.354 -25.719 -12.361  1.00  0.00     0.042 C 
HETATM   28  C15 UNL     1       5.464 -25.752 -12.723  1.00  0.00     0.012 C 
HETATM   29  C16 UNL     1       6.162 -26.864 -12.002  1.00  0.00     0.044 C 
HETATM   30  C17 UNL     1       7.604 -27.014 -12.418  1.00  0.00     0.059 C 
BRANCH  30  31
HETATM   31  O4  UNL     1       8.224 -27.923 -11.582  1.00  0.00    -0.390 OA
ATOM     32  H4  UNL     1       8.369 -28.733 -12.056  1.00  0.00     0.210 HD
ENDBRANCH  30  31
ENDBRANCH  18  20
ENDBRANCH  15  16
ENDBRANCH  12  15
ENDBRANCH   8   9
ENDBRANCH   5   8
ENDBRANCH   4   5
ENDBRANCH   3   4
TORSDOF 9
ENDMDL
MODEL 4
REMARK VINA RESULT: -8.290090717      1.959      2.776
REMARK  9 active torsions:
REMARK  status: ('A' for Active; 'I' for Inactive)
REMARK    1  A    between atoms: S1_3  and  C2_4 
REMARK    2  A    between atoms: C2_4  and  C3_5 
REMARK    3  A    between atoms: C3_5  and  O1_6 
REMARK    4  A    between atoms: C3_5  and  C4_8 
REMARK    5  A    between atoms: C4_8  and  N2_9 
REMARK    6  A    between atoms: C7_12  and  O2_13 
REMARK    7  A    between atoms: O2_13  and  C8_14 
REMARK       I    between atoms: C8_14  and  N3_16 
REMARK    8  A    between atoms: N3_16  and  C9_18 
REMARK    9  A    between atoms: C17_26  and  O4_27 
ROOT
HETATM    1  N1  UNL     1       2.107 -29.412  -7.800  1.00  0.00    -0.184 NA
HETATM    2  C1  UNL     1       2.964 -29.714  -8.522  1.00  0.00     0.133 C 
HETATM    3  S1  UNL     1       4.275 -30.197  -9.617  1.00  0.00    -0.048 SA
ENDROOT
BRANCH   3   4
HETATM    4  C2  UNL     1       3.794 -29.747 -11.287  1.00  0.00     0.123 C 
BRANCH   4   5
HETATM    5  C3  UNL     1       2.346 -30.001 -11.580  1.00  0.00     0.156 C 
BRANCH   5   6
HETATM    6  O1  UNL     1       2.024 -31.282 -11.177  1.00  0.00    -0.393 OA
ATOM      7  H1  UNL     1       1.452 -31.675 -11.826  1.00  0.00     0.210 HD
ENDBRANCH   5   6
BRANCH   5   8
HETATM    8  C4  UNL     1       2.026 -29.817 -13.031  1.00  0.00     0.304 C 
BRANCH   8   9
HETATM    9  N2  UNL     1       0.855 -29.020 -13.264  1.00  0.00     0.091 N 
HETATM   10  C5  UNL     1       0.738 -27.901 -12.351  1.00  0.00     0.275 C 
HETATM   11  C6  UNL     1       0.007 -26.736 -13.036  1.00  0.00     0.063 C 
HETATM   12  C7  UNL     1       0.879 -26.168 -14.145  1.00  0.00     0.137 C 
HETATM   13  C20 UNL     1       1.702 -27.296 -14.698  1.00  0.00     0.063 C 
HETATM   14  C21 UNL     1       0.851 -28.548 -14.646  1.00  0.00     0.275 C 
BRANCH  12  15
HETATM   15  O2  UNL     1       1.621 -25.074 -13.707  1.00  0.00    -0.299 OA
BRANCH  15  16
HETATM   16  C8  UNL     1       2.805 -25.071 -13.031  1.00  0.00     0.361 C 
HETATM   17  O3  UNL     1       2.717 -24.853 -11.778  1.00  0.00    -0.238 OA
HETATM   18  N3  UNL     1       4.071 -25.284 -13.604  1.00  0.00    -0.332 N 
ATOM     19  H3  UNL     1       4.121 -25.457 -14.608  1.00  0.00     0.165 HD
BRANCH  18  20
HETATM   20  C9  UNL     1       5.312 -25.273 -12.849  1.00  0.00     0.091 C 
HETATM   21  C10 UNL     1       6.289 -24.420 -13.540  1.00  0.00     0.030 C 
HETATM   22  C11 UNL     1       7.672 -24.933 -13.722  1.00  0.00    -0.009 C 
HETATM   23  C12 UNL     1       8.394 -25.225 -12.440  1.00  0.00     0.009 C 
HETATM   24  C19 UNL     1       7.706 -26.044 -14.718  1.00  0.00     0.042 C 
HETATM   25  C13 UNL     1       8.179 -26.636 -11.958  1.00  0.00    -0.011 C 
HETATM   26  C14 UNL     1       6.780 -26.768 -11.460  1.00  0.00     0.011 C 
HETATM   27  C18 UNL     1       8.435 -27.650 -13.030  1.00  0.00     0.042 C 
HETATM   28  C15 UNL     1       5.730 -26.684 -12.543  1.00  0.00     0.012 C 
HETATM   29  C16 UNL     1       6.045 -27.516 -13.748  1.00  0.00     0.044 C 
HETATM   30  C17 UNL     1       7.490 -27.412 -14.168  1.00  0.00     0.059 C 
BRANCH  30  31
HETATM   31  O4  UNL     1       7.742 -28.344 -15.157  1.00  0.00    -0.390 OA
ATOM     32  H4  UNL     1       8.467 -28.895 -14.888  1.00  0.00     0.210 HD
ENDBRANCH  30  31
ENDBRANCH  18  20
ENDBRANCH  15  16
ENDBRANCH  12  15
ENDBRANCH   8   9
ENDBRANCH   5   8
ENDBRANCH   4   5
ENDBRANCH   3   4
TORSDOF 9
ENDMDL
MODEL 5
REMARK VINA RESULT: -8.149515073      2.464      6.694
REMARK  9 active torsions:
REMARK  status: ('A' for Active; 'I' for Inactive)
REMARK    1  A    between atoms: S1_3  and  C2_4 
REMARK    2  A    between atoms: C2_4  and  C3_5 
REMARK    3  A    between atoms: C3_5  and  O1_6 
REMARK    4  A    between atoms: C3_5  and  C4_8 
REMARK    5  A    between atoms: C4_8  and  N2_9 
REMARK    6  A    between atoms: C7_12  and  O2_13 
REMARK    7  A    between atoms: O2_13  and  C8_14 
REMARK       I    between atoms: C8_14  and  N3_16 
REMARK    8  A    between atoms: N3_16  and  C9_18 
REMARK    9  A    between atoms: C17_26  and  O4_27 
ROOT
HETATM    1  N1  UNL     1       6.895 -27.986 -11.127  1.00  0.00    -0.184 NA
HETATM    2  C1  UNL     1       7.231 -27.194 -11.906  1.00  0.00     0.133 C 
HETATM    3  S1  UNL     1       7.768 -25.987 -13.092  1.00  0.00    -0.048 SA
ENDROOT
BRANCH   3   4
HETATM    4  C2  UNL     1       6.991 -26.373 -14.664  1.00  0.00     0.123 C 
BRANCH   4   5
HETATM    5  C3  UNL     1       5.910 -25.408 -15.048  1.00  0.00     0.156 C 
BRANCH   5   6
HETATM    6  O1  UNL     1       6.469 -24.160 -15.240  1.00  0.00    -0.393 OA
ATOM      7  H1  UNL     1       6.044 -23.742 -15.980  1.00  0.00     0.210 HD
ENDBRANCH   5   6
BRANCH   5   8
HETATM    8  C4  UNL     1       4.827 -25.339 -14.017  1.00  0.00     0.304 C 
BRANCH   8   9
HETATM    9  N2  UNL     1       3.591 -25.933 -14.441  1.00  0.00     0.091 N 
HETATM   10  C5  UNL     1       3.187 -27.056 -13.618  1.00  0.00     0.275 C 
HETATM   11  C6  UNL     1       1.656 -27.163 -13.587  1.00  0.00     0.063 C 
HETATM   12  C7  UNL     1       1.076 -25.975 -12.833  1.00  0.00     0.137 C 
HETATM   13  C20 UNL     1       1.993 -24.806 -13.055  1.00  0.00     0.063 C 
HETATM   14  C21 UNL     1       2.541 -24.918 -14.462  1.00  0.00     0.275 C 
BRANCH  12  15
HETATM   15  O2  UNL     1       0.843 -26.279 -11.494  1.00  0.00    -0.299 OA
BRANCH  15  16
HETATM   16  C8  UNL     1       0.771 -27.508 -10.906  1.00  0.00     0.361 C 
HETATM   17  O3  UNL     1      -0.393 -28.028 -10.871  1.00  0.00    -0.238 OA
HETATM   18  N3  UNL     1       1.856 -28.212 -10.355  1.00  0.00    -0.332 N 
ATOM     19  H3  UNL     1       2.779 -27.780 -10.393  1.00  0.00     0.165 HD
BRANCH  18  20
HETATM   20  C9  UNL     1       1.738 -29.520  -9.735  1.00  0.00     0.091 C 
HETATM   21  C10 UNL     1       2.036 -29.403  -8.301  1.00  0.00     0.030 C 
HETATM   22  C11 UNL     1       2.954 -30.396  -7.686  1.00  0.00    -0.009 C 
HETATM   23  C12 UNL     1       2.473 -31.815  -7.769  1.00  0.00     0.009 C 
HETATM   24  C19 UNL     1       4.358 -30.191  -8.151  1.00  0.00     0.042 C 
HETATM   25  C13 UNL     1       2.929 -32.513  -9.025  1.00  0.00    -0.011 C 
HETATM   26  C14 UNL     1       2.179 -31.954 -10.186  1.00  0.00     0.011 C 
HETATM   27  C18 UNL     1       4.402 -32.368  -9.254  1.00  0.00     0.042 C 
HETATM   28  C15 UNL     1       2.535 -30.525 -10.521  1.00  0.00     0.012 C 
HETATM   29  C16 UNL     1       4.010 -30.266 -10.547  1.00  0.00     0.044 C 
HETATM   30  C17 UNL     1       4.738 -30.915  -9.397  1.00  0.00     0.059 C 
BRANCH  30  31
HETATM   31  O4  UNL     1       6.100 -30.792  -9.596  1.00  0.00    -0.390 OA
ATOM     32  H4  UNL     1       6.397 -29.973  -9.218  1.00  0.00     0.210 HD
ENDBRANCH  30  31
ENDBRANCH  18  20
ENDBRANCH  15  16
ENDBRANCH  12  15
ENDBRANCH   8   9
ENDBRANCH   5   8
ENDBRANCH   4   5
ENDBRANCH   3   4
TORSDOF 9
ENDMDL
