MODEL 1
REMARK VINA RESULT: -9.478557586      0.000      0.000
REMARK  9 active torsions:
REMARK  status: ('A' for Active; 'I' for Inactive)
REMARK    1  A    between atoms: C3_3  and  C11_11 
REMARK    2  A    between atoms: C4_4  and  C5_5 
REMARK    3  A    between atoms: C5_5  and  C6_6 
REMARK    4  A    between atoms: C6_6  and  C7_7 
REMARK    5  A    between atoms: C16_17  and  O1_18 
REMARK    6  A    between atoms: O1_18  and  C17_19 
REMARK    7  A    between atoms: C18_20  and  O2_21 
REMARK    8  A    between atoms: C20_25  and  O4_26 
REMARK    9  A    between atoms: C23_30  and  O5_31 
ROOT
HETATM    1  C1  UNL     1       4.659 -29.717 -11.292  1.00  0.00     0.017 C 
HETATM    2  C2  UNL     1       4.642 -28.580 -11.679  1.00  0.00    -0.082 C 
HETATM    3  C3  UNL     1       4.595 -27.190 -12.162  1.00  0.00    -0.003 C 
HETATM    4  C4  UNL     1       5.695 -26.509 -12.025  1.00  0.00    -0.010 C 
ENDROOT
BRANCH   3   5
HETATM    5  C11 UNL     1       3.348 -26.679 -12.763  1.00  0.00     0.056 C 
HETATM    6  C12 UNL     1       2.654 -27.754 -13.508  1.00  0.00     0.017 C 
HETATM    7  C13 UNL     1       1.839 -27.146 -14.627  1.00  0.00    -0.006 C 
HETATM    8  C14 UNL     1       0.819 -28.179 -15.034  1.00  0.00     0.015 C 
HETATM    9  C21 UNL     1       1.249 -25.869 -14.143  1.00  0.00     0.031 C 
HETATM   10  C15 UNL     1      -0.434 -28.138 -14.197  1.00  0.00     0.077 C 
HETATM   11  S1  UNL     1      -1.274 -26.563 -14.633  1.00  0.00    -0.137 SA
HETATM   12  C16 UNL     1       0.078 -25.381 -14.908  1.00  0.00     0.188 C 
HETATM   13  C22 UNL     1       2.330 -24.818 -14.047  1.00  0.00     0.041 C 
HETATM   14  C23 UNL     1       3.644 -25.458 -13.590  1.00  0.00     0.127 C 
BRANCH  12  15
HETATM   15  O1  UNL     1      -0.243 -24.104 -14.579  1.00  0.00    -0.362 OA
BRANCH  15  16
HETATM   16  C17 UNL     1      -0.666 -23.298 -15.608  1.00  0.00     0.208 C 
HETATM   17  C18 UNL     1      -0.042 -21.933 -15.456  1.00  0.00     0.175 C 
HETATM   18  C19 UNL     1      -1.088 -21.051 -16.100  1.00  0.00     0.205 C 
HETATM   19  O3  UNL     1      -2.296 -21.672 -15.989  1.00  0.00    -0.356 OA
HETATM   20  C20 UNL     1      -2.144 -22.921 -15.460  1.00  0.00     0.288 C 
BRANCH  17  21
HETATM   21  O2  UNL     1       0.058 -21.579 -14.111  1.00  0.00    -0.391 OA
ATOM     22  H2  UNL     1       0.661 -22.154 -13.655  1.00  0.00     0.210 HD
ENDBRANCH  17  21
BRANCH  20  23
HETATM   23  O4  UNL     1      -2.899 -23.847 -16.184  1.00  0.00    -0.369 OA
ATOM     24  H4  UNL     1      -2.329 -24.250 -16.828  1.00  0.00     0.212 HD
ENDBRANCH  20  23
ENDBRANCH  15  16
ENDBRANCH  12  15
BRANCH  14  25
HETATM   25  O5  UNL     1       4.439 -25.743 -14.694  1.00  0.00    -0.395 OA
ATOM     26  H5  UNL     1       4.948 -24.992 -14.979  1.00  0.00     0.210 HD
ENDBRANCH  14  25
ENDBRANCH   3   5
BRANCH   4  27
HETATM   27  C5  UNL     1       6.901 -27.111 -11.423  1.00  0.00     0.032 C 
BRANCH  27  28
HETATM   28  C6  UNL     1       8.094 -26.330 -11.964  1.00  0.00     0.037 C 
BRANCH  28  29
HETATM   29  C7  UNL     1       7.821 -25.879 -13.347  1.00  0.00    -0.088 C 
HETATM   30  C8  UNL     1       7.614 -26.929 -14.385  1.00  0.00     0.043 C 
HETATM   31  C9  UNL     1       7.770 -24.594 -13.613  1.00  0.00    -0.029 C 
HETATM   32  C10 UNL     1       7.498 -24.140 -14.996  1.00  0.00     0.036 C 
ENDBRANCH  28  29
ENDBRANCH  27  28
ENDBRANCH   4  27
TORSDOF 9
ENDMDL
MODEL 2
REMARK VINA RESULT: -9.348854520      4.669      6.953
REMARK  9 active torsions:
REMARK  status: ('A' for Active; 'I' for Inactive)
REMARK    1  A    between atoms: C3_3  and  C11_11 
REMARK    2  A    between atoms: C4_4  and  C5_5 
REMARK    3  A    between atoms: C5_5  and  C6_6 
REMARK    4  A    between atoms: C6_6  and  C7_7 
REMARK    5  A    between atoms: C16_17  and  O1_18 
REMARK    6  A    between atoms: O1_18  and  C17_19 
REMARK    7  A    between atoms: C18_20  and  O2_21 
REMARK    8  A    between atoms: C20_25  and  O4_26 
REMARK    9  A    between atoms: C23_30  and  O5_31 
ROOT
HETATM    1  C1  UNL     1       2.799 -25.484 -14.561  1.00  0.00     0.017 C 
HETATM    2  C2  UNL     1       3.374 -26.311 -13.907  1.00  0.00    -0.082 C 
HETATM    3  C3  UNL     1       4.055 -27.330 -13.091  1.00  0.00    -0.003 C 
HETATM    4  C4  UNL     1       5.326 -27.483 -13.326  1.00  0.00    -0.010 C 
ENDROOT
BRANCH   3   5
HETATM    5  C11 UNL     1       3.281 -28.078 -12.082  1.00  0.00     0.056 C 
HETATM    6  C12 UNL     1       4.159 -29.014 -11.344  1.00  0.00     0.017 C 
HETATM    7  C13 UNL     1       3.346 -30.193 -10.861  1.00  0.00    -0.006 C 
HETATM    8  C14 UNL     1       4.139 -30.845  -9.756  1.00  0.00     0.015 C 
HETATM    9  C21 UNL     1       2.006 -29.703 -10.438  1.00  0.00     0.031 C 
HETATM   10  C15 UNL     1       3.901 -30.220  -8.405  1.00  0.00     0.077 C 
HETATM   11  S1  UNL     1       2.171 -30.649  -7.955  1.00  0.00    -0.137 SA
HETATM   12  C16 UNL     1       1.261 -30.602  -9.526  1.00  0.00     0.188 C 
HETATM   13  C22 UNL     1       1.191 -29.345 -11.659  1.00  0.00     0.041 C 
HETATM   14  C23 UNL     1       2.098 -28.740 -12.735  1.00  0.00     0.127 C 
BRANCH  12  15
HETATM   15  O1  UNL     1      -0.035 -30.222  -9.391  1.00  0.00    -0.362 OA
BRANCH  15  16
HETATM   16  C17 UNL     1      -0.979 -31.204  -9.561  1.00  0.00     0.208 C 
HETATM   17  C18 UNL     1      -2.047 -30.707 -10.504  1.00  0.00     0.175 C 
HETATM   18  C19 UNL     1      -3.256 -31.475 -10.021  1.00  0.00     0.205 C 
HETATM   19  O3  UNL     1      -3.074 -31.773  -8.704  1.00  0.00    -0.356 OA
HETATM   20  C20 UNL     1      -1.825 -31.400  -8.299  1.00  0.00     0.288 C 
BRANCH  17  21
HETATM   21  O2  UNL     1      -2.288 -29.347 -10.307  1.00  0.00    -0.391 OA
ATOM     22  H2  UNL     1      -1.929 -28.834 -11.021  1.00  0.00     0.210 HD
ENDBRANCH  17  21
BRANCH  20  23
HETATM   23  O4  UNL     1      -1.239 -32.418  -7.542  1.00  0.00    -0.369 OA
ATOM     24  H4  UNL     1      -1.180 -32.118  -6.643  1.00  0.00     0.212 HD
ENDBRANCH  20  23
ENDBRANCH  15  16
ENDBRANCH  12  15
BRANCH  14  25
HETATM   25  O5  UNL     1       2.472 -29.722 -13.644  1.00  0.00    -0.395 OA
ATOM     26  H5  UNL     1       2.893 -29.361 -14.416  1.00  0.00     0.210 HD
ENDBRANCH  14  25
ENDBRANCH   3   5
BRANCH   4  27
HETATM   27  C5  UNL     1       6.020 -26.676 -14.348  1.00  0.00     0.032 C 
BRANCH  27  28
HETATM   28  C6  UNL     1       7.499 -27.035 -14.256  1.00  0.00     0.037 C 
BRANCH  28  29
HETATM   29  C7  UNL     1       8.038 -26.632 -12.938  1.00  0.00    -0.088 C 
HETATM   30  C8  UNL     1       8.245 -25.176 -12.695  1.00  0.00     0.043 C 
HETATM   31  C9  UNL     1       8.312 -27.551 -12.040  1.00  0.00    -0.029 C 
HETATM   32  C10 UNL     1       8.852 -27.151 -10.720  1.00  0.00     0.036 C 
ENDBRANCH  28  29
ENDBRANCH  27  28
ENDBRANCH   4  27
TORSDOF 9
ENDMDL
MODEL 3
REMARK VINA RESULT: -9.283966829      4.693      6.687
REMARK  9 active torsions:
REMARK  status: ('A' for Active; 'I' for Inactive)
REMARK    1  A    between atoms: C3_3  and  C11_11 
REMARK    2  A    between atoms: C4_4  and  C5_5 
REMARK    3  A    between atoms: C5_5  and  C6_6 
REMARK    4  A    between atoms: C6_6  and  C7_7 
REMARK    5  A    between atoms: C16_17  and  O1_18 
REMARK    6  A    between atoms: O1_18  and  C17_19 
REMARK    7  A    between atoms: C18_20  and  O2_21 
REMARK    8  A    between atoms: C20_25  and  O4_26 
REMARK    9  A    between atoms: C23_30  and  O5_31 
ROOT
HETATM    1  C1  UNL     1       4.411 -25.149 -12.466  1.00  0.00     0.017 C 
HETATM    2  C2  UNL     1       4.711 -26.168 -11.906  1.00  0.00    -0.082 C 
HETATM    3  C3  UNL     1       5.053 -27.422 -11.215  1.00  0.00    -0.003 C 
HETATM    4  C4  UNL     1       6.324 -27.682 -11.114  1.00  0.00    -0.010 C 
ENDROOT
BRANCH   3   5
HETATM    5  C11 UNL     1       3.968 -28.269 -10.685  1.00  0.00     0.056 C 
HETATM    6  C12 UNL     1       4.491 -29.597 -10.291  1.00  0.00     0.017 C 
HETATM    7  C13 UNL     1       3.394 -30.629 -10.417  1.00  0.00    -0.006 C 
HETATM    8  C14 UNL     1       3.814 -31.815  -9.586  1.00  0.00     0.015 C 
HETATM    9  C21 UNL     1       2.111 -30.011  -9.986  1.00  0.00     0.031 C 
HETATM   10  C15 UNL     1       3.431 -31.689  -8.133  1.00  0.00     0.077 C 
HETATM   11  S1  UNL     1       1.597 -31.808  -8.090  1.00  0.00    -0.137 SA
HETATM   12  C16 UNL     1       1.045 -30.965  -9.601  1.00  0.00     0.188 C 
HETATM   13  C22 UNL     1       1.638 -29.041 -11.043  1.00  0.00     0.041 C 
HETATM   14  C23 UNL     1       2.837 -28.330 -11.676  1.00  0.00     0.127 C 
BRANCH  12  15
HETATM   15  O1  UNL     1      -0.159 -30.351  -9.470  1.00  0.00    -0.362 OA
BRANCH  15  16
HETATM   16  C17 UNL     1      -1.262 -31.097  -9.803  1.00  0.00     0.208 C 
HETATM   17  C18 UNL     1      -2.099 -30.327 -10.796  1.00  0.00     0.175 C 
HETATM   18  C19 UNL     1      -3.485 -30.846 -10.488  1.00  0.00     0.205 C 
HETATM   19  O3  UNL     1      -3.508 -31.254  -9.188  1.00  0.00    -0.356 OA
HETATM   20  C20 UNL     1      -2.259 -31.182  -8.642  1.00  0.00     0.288 C 
BRANCH  17  21
HETATM   21  O2  UNL     1      -2.073 -28.961 -10.513  1.00  0.00    -0.391 OA
ATOM     22  H2  UNL     1      -2.947 -28.638 -10.329  1.00  0.00     0.210 HD
ENDBRANCH  17  21
BRANCH  20  23
HETATM   23  O4  UNL     1      -1.979 -32.345  -7.920  1.00  0.00    -0.369 OA
ATOM     24  H4  UNL     1      -1.754 -32.092  -7.033  1.00  0.00     0.212 HD
ENDBRANCH  20  23
ENDBRANCH  15  16
ENDBRANCH  12  15
BRANCH  14  25
HETATM   25  O5  UNL     1       3.198 -28.971 -12.855  1.00  0.00    -0.395 OA
ATOM     26  H5  UNL     1       3.312 -29.907 -12.740  1.00  0.00     0.210 HD
ENDBRANCH  14  25
ENDBRANCH   3   5
BRANCH   4  27
HETATM   27  C5  UNL     1       7.340 -26.764 -11.664  1.00  0.00     0.032 C 
BRANCH  27  28
HETATM   28  C6  UNL     1       7.748 -27.328 -13.021  1.00  0.00     0.037 C 
BRANCH  28  29
HETATM   29  C7  UNL     1       7.473 -26.337 -14.085  1.00  0.00    -0.088 C 
HETATM   30  C8  UNL     1       6.828 -26.830 -15.336  1.00  0.00     0.043 C 
HETATM   31  C9  UNL     1       7.797 -25.078 -13.900  1.00  0.00    -0.029 C 
HETATM   32  C10 UNL     1       7.524 -24.084 -14.963  1.00  0.00     0.036 C 
ENDBRANCH  28  29
ENDBRANCH  27  28
ENDBRANCH   4  27
TORSDOF 9
ENDMDL
MODEL 4
REMARK VINA RESULT: -9.278318744      4.993      7.344
REMARK  9 active torsions:
REMARK  status: ('A' for Active; 'I' for Inactive)
REMARK    1  A    between atoms: C3_3  and  C11_11 
REMARK    2  A    between atoms: C4_4  and  C5_5 
REMARK    3  A    between atoms: C5_5  and  C6_6 
REMARK    4  A    between atoms: C6_6  and  C7_7 
REMARK    5  A    between atoms: C16_17  and  O1_18 
REMARK    6  A    between atoms: O1_18  and  C17_19 
REMARK    7  A    between atoms: C18_20  and  O2_21 
REMARK    8  A    between atoms: C20_25  and  O4_26 
REMARK    9  A    between atoms: C23_30  and  O5_31 
ROOT
HETATM    1  C1  UNL     1       2.539 -25.932 -14.714  1.00  0.00     0.017 C 
HETATM    2  C2  UNL     1       3.140 -26.636 -13.948  1.00  0.00    -0.082 C 
HETATM    3  C3  UNL     1       3.853 -27.507 -12.999  1.00  0.00    -0.003 C 
HETATM    4  C4  UNL     1       5.150 -27.511 -13.103  1.00  0.00    -0.010 C 
ENDROOT
BRANCH   3   5
HETATM    5  C11 UNL     1       3.076 -28.283 -12.013  1.00  0.00     0.056 C 
HETATM    6  C12 UNL     1       3.978 -29.097 -11.167  1.00  0.00     0.017 C 
HETATM    7  C13 UNL     1       3.244 -30.328 -10.686  1.00  0.00    -0.006 C 
HETATM    8  C14 UNL     1       4.006 -30.852  -9.496  1.00  0.00     0.015 C 
HETATM    9  C21 UNL     1       1.836 -29.952 -10.387  1.00  0.00     0.031 C 
HETATM   10  C15 UNL     1       3.608 -30.195  -8.198  1.00  0.00     0.077 C 
HETATM   11  S1  UNL     1       1.896 -30.771  -7.854  1.00  0.00    -0.137 SA
HETATM   12  C16 UNL     1       1.109 -30.879  -9.488  1.00  0.00     0.188 C 
HETATM   13  C22 UNL     1       1.088 -29.727 -11.680  1.00  0.00     0.041 C 
HETATM   14  C23 UNL     1       2.014 -29.083 -12.716  1.00  0.00     0.127 C 
BRANCH  12  15
HETATM   15  O1  UNL     1      -0.223 -30.620  -9.466  1.00  0.00    -0.362 OA
BRANCH  15  16
HETATM   16  C17 UNL     1      -0.991 -31.446  -8.683  1.00  0.00     0.208 C 
HETATM   17  C18 UNL     1      -1.036 -32.820  -9.307  1.00  0.00     0.175 C 
HETATM   18  C19 UNL     1      -2.384 -33.319  -8.838  1.00  0.00     0.205 C 
HETATM   19  O3  UNL     1      -3.185 -32.239  -8.617  1.00  0.00    -0.356 OA
HETATM   20  C20 UNL     1      -2.477 -31.081  -8.764  1.00  0.00     0.288 C 
BRANCH  17  21
HETATM   21  O2  UNL     1      -1.063 -32.732 -10.698  1.00  0.00    -0.391 OA
ATOM     22  H2  UNL     1      -1.563 -33.448 -11.072  1.00  0.00     0.210 HD
ENDBRANCH  17  21
BRANCH  20  23
HETATM   23  O4  UNL     1      -2.762 -30.205  -7.714  1.00  0.00    -0.369 OA
ATOM     24  H4  UNL     1      -3.680 -29.968  -7.771  1.00  0.00     0.212 HD
ENDBRANCH  20  23
ENDBRANCH  15  16
ENDBRANCH  12  15
BRANCH  14  25
HETATM   25  O5  UNL     1       2.547 -30.063 -13.546  1.00  0.00    -0.395 OA
ATOM     26  H5  UNL     1       2.065 -30.880 -13.500  1.00  0.00     0.210 HD
ENDBRANCH  14  25
ENDBRANCH   3   5
BRANCH   4  27
HETATM   27  C5  UNL     1       5.841 -26.688 -14.113  1.00  0.00     0.032 C 
BRANCH  27  28
HETATM   28  C6  UNL     1       7.303 -27.126 -14.107  1.00  0.00     0.037 C 
BRANCH  28  29
HETATM   29  C7  UNL     1       7.946 -26.729 -12.835  1.00  0.00    -0.088 C 
HETATM   30  C8  UNL     1       8.273 -25.286 -12.650  1.00  0.00     0.043 C 
HETATM   31  C9  UNL     1       8.204 -27.641 -11.925  1.00  0.00    -0.029 C 
HETATM   32  C10 UNL     1       8.848 -27.246 -10.651  1.00  0.00     0.036 C 
ENDBRANCH  28  29
ENDBRANCH  27  28
ENDBRANCH   4  27
TORSDOF 9
ENDMDL
MODEL 5
REMARK VINA RESULT: -9.256580569      4.651      6.772
REMARK  9 active torsions:
REMARK  status: ('A' for Active; 'I' for Inactive)
REMARK    1  A    between atoms: C3_3  and  C11_11 
REMARK    2  A    between atoms: C4_4  and  C5_5 
REMARK    3  A    between atoms: C5_5  and  C6_6 
REMARK    4  A    between atoms: C6_6  and  C7_7 
REMARK    5  A    between atoms: C16_17  and  O1_18 
REMARK    6  A    between atoms: O1_18  and  C17_19 
REMARK    7  A    between atoms: C18_20  and  O2_21 
REMARK    8  A    between atoms: C20_25  and  O4_26 
REMARK    9  A    between atoms: C23_30  and  O5_31 
ROOT
HETATM    1  C1  UNL     1       3.878 -26.109 -14.213  1.00  0.00     0.017 C 
HETATM    2  C2  UNL     1       4.244 -26.975 -13.466  1.00  0.00    -0.082 C 
HETATM    3  C3  UNL     1       4.668 -28.039 -12.541  1.00  0.00    -0.003 C 
HETATM    4  C4  UNL     1       5.930 -28.352 -12.581  1.00  0.00    -0.010 C 
ENDROOT
BRANCH   3   5
HETATM    5  C11 UNL     1       3.668 -28.653 -11.645  1.00  0.00     0.056 C 
HETATM    6  C12 UNL     1       4.285 -29.734 -10.843  1.00  0.00     0.017 C 
HETATM    7  C13 UNL     1       3.234 -30.760 -10.487  1.00  0.00    -0.006 C 
HETATM    8  C14 UNL     1       3.773 -31.550  -9.322  1.00  0.00     0.015 C 
HETATM    9  C21 UNL     1       1.958 -30.050 -10.199  1.00  0.00     0.031 C 
HETATM   10  C15 UNL     1       3.495 -30.907  -7.987  1.00  0.00     0.077 C 
HETATM   11  S1  UNL     1       1.678 -31.036  -7.742  1.00  0.00    -0.137 SA
HETATM   12  C16 UNL     1       0.972 -30.816  -9.401  1.00  0.00     0.188 C 
HETATM   13  C22 UNL     1       1.359 -29.544 -11.491  1.00  0.00     0.041 C 
HETATM   14  C23 UNL     1       2.471 -29.093 -12.443  1.00  0.00     0.127 C 
BRANCH  12  15
HETATM   15  O1  UNL     1      -0.247 -30.218  -9.397  1.00  0.00    -0.362 OA
BRANCH  15  16
HETATM   16  C17 UNL     1      -1.319 -31.020  -9.704  1.00  0.00     0.208 C 
HETATM   17  C18 UNL     1      -2.259 -30.264 -10.611  1.00  0.00     0.175 C 
HETATM   18  C19 UNL     1      -3.589 -30.886 -10.252  1.00  0.00     0.205 C 
HETATM   19  O3  UNL     1      -3.510 -31.352  -8.974  1.00  0.00    -0.356 OA
HETATM   20  C20 UNL     1      -2.238 -31.222  -8.495  1.00  0.00     0.288 C 
BRANCH  17  21
HETATM   21  O2  UNL     1      -2.303 -28.914 -10.265  1.00  0.00    -0.391 OA
ATOM     22  H2  UNL     1      -1.462 -28.499 -10.414  1.00  0.00     0.210 HD
ENDBRANCH  17  21
BRANCH  20  23
HETATM   23  O4  UNL     1      -1.844 -32.395  -7.846  1.00  0.00    -0.369 OA
ATOM     24  H4  UNL     1      -1.416 -32.953  -8.485  1.00  0.00     0.212 HD
ENDBRANCH  20  23
ENDBRANCH  15  16
ENDBRANCH  12  15
BRANCH  14  25
HETATM   25  O5  UNL     1       2.773 -30.116 -13.334  1.00  0.00    -0.395 OA
ATOM     26  H5  UNL     1       2.022 -30.377 -13.856  1.00  0.00     0.210 HD
ENDBRANCH  14  25
ENDBRANCH   3   5
BRANCH   4  27
HETATM   27  C5  UNL     1       6.860 -27.671 -13.502  1.00  0.00     0.032 C 
BRANCH  27  28
HETATM   28  C6  UNL     1       7.764 -26.796 -12.640  1.00  0.00     0.037 C 
BRANCH  28  29
HETATM   29  C7  UNL     1       7.913 -25.459 -13.256  1.00  0.00    -0.088 C 
HETATM   30  C8  UNL     1       8.647 -24.419 -12.478  1.00  0.00     0.043 C 
HETATM   31  C9  UNL     1       7.404 -25.231 -14.446  1.00  0.00    -0.029 C 
HETATM   32  C10 UNL     1       7.550 -23.894 -15.065  1.00  0.00     0.036 C 
ENDBRANCH  28  29
ENDBRANCH  27  28
ENDBRANCH   4  27
TORSDOF 9
ENDMDL
