MODEL 1
REMARK VINA RESULT: -8.313633740      0.000      0.000
REMARK  10 active torsions:
REMARK  status: ('A' for Active; 'I' for Inactive)
REMARK    1  A    between atoms: C2_2  and  C3_3 
REMARK    2  A    between atoms: C3_3  and  O1_4 
REMARK    3  A    between atoms: C4_6  and  O2_7 
REMARK    4  A    between atoms: C6_10  and  O3_11 
REMARK    5  A    between atoms: O3_11  and  C7_12 
REMARK    6  A    between atoms: C7_12  and  C8_14 
REMARK    7  A    between atoms: C12_19  and  O6_20 
REMARK    8  A    between atoms: C15_24  and  C16_25 
REMARK    9  A    between atoms: C16_25  and  C17_26 
REMARK   10  A    between atoms: C17_26  and  O7_27 
ROOT
HETATM    1  C3  UNL     1       1.070 -27.598 -11.763  1.00  0.00     0.109 C 
HETATM    2  C4  UNL     1       1.428 -27.072 -13.090  1.00  0.00     0.159 C 
HETATM    3  C5  UNL     1       2.500 -26.039 -13.056  1.00  0.00     0.070 C 
HETATM    4  C6  UNL     1       3.878 -26.432 -12.819  1.00  0.00     0.164 C 
HETATM    5  C12 UNL     1       4.222 -27.485 -11.861  1.00  0.00     0.161 C 
HETATM    6  C13 UNL     1       3.370 -28.665 -11.647  1.00  0.00     0.018 C 
HETATM    7  C14 UNL     1       3.264 -29.491 -12.937  1.00  0.00     0.024 C 
HETATM    8  C15 UNL     1       4.144 -29.625 -10.761  1.00  0.00    -0.070 C 
HETATM    9  C19 UNL     1       3.539 -30.541 -10.040  1.00  0.00    -0.023 C 
HETATM   10  C20 UNL     1       2.065 -30.757  -9.986  1.00  0.00     0.028 C 
HETATM   11  C21 UNL     1       1.338 -29.768 -10.808  1.00  0.00     0.017 C 
HETATM   12  C22 UNL     1       2.054 -28.434 -11.008  1.00  0.00     0.007 C 
HETATM   13  C23 UNL     1       2.270 -27.901  -9.598  1.00  0.00     0.020 C 
ENDROOT
BRANCH   4  14
HETATM   14  O3  UNL     1       4.524 -26.703 -14.053  1.00  0.00    -0.311 OA
BRANCH  14  15
HETATM   15  C7  UNL     1       5.409 -25.909 -14.706  1.00  0.00     0.288 C 
HETATM   16  O4  UNL     1       5.036 -25.413 -15.809  1.00  0.00    -0.262 OA
BRANCH  15  17
HETATM   17  C8  UNL     1       6.767 -25.571 -14.252  1.00  0.00     0.221 C 
HETATM   18  C9  UNL     1       7.300 -26.735 -13.448  1.00  0.00     0.044 C 
HETATM   19  C10 UNL     1       8.370 -26.071 -12.610  1.00  0.00     0.029 C 
HETATM   20  C11 UNL     1       8.164 -24.595 -12.935  1.00  0.00     0.169 C 
HETATM   21  O5  UNL     1       6.817 -24.530 -13.362  1.00  0.00    -0.376 OA
ENDBRANCH  15  17
ENDBRANCH  14  15
ENDBRANCH   4  14
BRANCH   5  22
HETATM   22  O6  UNL     1       4.430 -26.765 -10.642  1.00  0.00    -0.392 OA
ATOM     23  H6  UNL     1       4.607 -27.452 -10.011  1.00  0.00     0.210 HD
ENDBRANCH   5  22
BRANCH   2  24
HETATM   24  O2  UNL     1       0.273 -26.301 -13.476  1.00  0.00    -0.392 OA
ATOM     25  H2  UNL     1       0.571 -25.401 -13.412  1.00  0.00     0.210 HD
ENDBRANCH   2  24
BRANCH   1  26
HETATM   26  C2  UNL     1      -0.309 -28.158 -11.823  1.00  0.00     0.004 C 
HETATM   27  C1  UNL     1      -1.366 -27.663 -11.197  1.00  0.00     0.010 C 
ENDBRANCH   1  26
BRANCH   1  28
HETATM   28  O1  UNL     1       0.878 -26.416 -10.977  1.00  0.00    -0.382 OA
ATOM     29  H1  UNL     1       0.689 -25.764 -11.642  1.00  0.00     0.211 HD
ENDBRANCH   1  28
BRANCH   8  30
HETATM   30  C16 UNL     1       5.616 -29.539 -10.727  1.00  0.00     0.061 C 
BRANCH  30  31
HETATM   31  C17 UNL     1       6.326 -30.471  -9.807  1.00  0.00     0.171 C 
BRANCH  31  32
HETATM   32  O7  UNL     1       7.620 -30.076  -9.470  1.00  0.00    -0.396 OA
HETATM   33  C18 UNL     1       7.965 -28.919 -10.144  1.00  0.00     0.201 C 
ENDBRANCH  31  32
ENDBRANCH  30  31
ENDBRANCH   8  30
TORSDOF 10
ENDMDL
MODEL 2
REMARK VINA RESULT: -7.957603559      1.954      4.641
REMARK  10 active torsions:
REMARK  status: ('A' for Active; 'I' for Inactive)
REMARK    1  A    between atoms: C2_2  and  C3_3 
REMARK    2  A    between atoms: C3_3  and  O1_4 
REMARK    3  A    between atoms: C4_6  and  O2_7 
REMARK    4  A    between atoms: C6_10  and  O3_11 
REMARK    5  A    between atoms: O3_11  and  C7_12 
REMARK    6  A    between atoms: C7_12  and  C8_14 
REMARK    7  A    between atoms: C12_19  and  O6_20 
REMARK    8  A    between atoms: C15_24  and  C16_25 
REMARK    9  A    between atoms: C16_25  and  C17_26 
REMARK   10  A    between atoms: C17_26  and  O7_27 
ROOT
HETATM    1  C3  UNL     1       3.093 -29.584  -9.608  1.00  0.00     0.109 C 
HETATM    2  C4  UNL     1       4.543 -29.475  -9.384  1.00  0.00     0.159 C 
HETATM    3  C5  UNL     1       5.365 -30.024 -10.497  1.00  0.00     0.070 C 
HETATM    4  C6  UNL     1       5.484 -29.285 -11.742  1.00  0.00     0.164 C 
HETATM    5  C12 UNL     1       4.347 -28.565 -12.319  1.00  0.00     0.161 C 
HETATM    6  C13 UNL     1       3.334 -27.895 -11.488  1.00  0.00     0.018 C 
HETATM    7  C14 UNL     1       3.977 -26.774 -10.659  1.00  0.00     0.024 C 
HETATM    8  C15 UNL     1       2.451 -27.085 -12.421  1.00  0.00    -0.070 C 
HETATM    9  C19 UNL     1       1.231 -26.732 -12.084  1.00  0.00    -0.023 C 
HETATM   10  C20 UNL     1       0.564 -27.068 -10.795  1.00  0.00     0.028 C 
HETATM   11  C21 UNL     1       1.425 -27.910  -9.938  1.00  0.00     0.017 C 
HETATM   12  C22 UNL     1       2.448 -28.765 -10.682  1.00  0.00     0.007 C 
HETATM   13  C23 UNL     1       1.614 -29.632 -11.615  1.00  0.00     0.020 C 
ENDROOT
BRANCH   4  14
HETATM   14  O3  UNL     1       6.600 -28.410 -11.682  1.00  0.00    -0.311 OA
BRANCH  14  15
HETATM   15  C7  UNL     1       7.147 -27.709 -12.706  1.00  0.00     0.288 C 
HETATM   16  O4  UNL     1       7.671 -28.374 -13.647  1.00  0.00    -0.262 OA
BRANCH  15  17
HETATM   17  C8  UNL     1       7.192 -26.243 -12.826  1.00  0.00     0.221 C 
HETATM   18  C9  UNL     1       6.787 -25.871 -14.235  1.00  0.00     0.044 C 
HETATM   19  C10 UNL     1       7.404 -24.498 -14.384  1.00  0.00     0.029 C 
HETATM   20  C11 UNL     1       8.218 -24.369 -13.099  1.00  0.00     0.169 C 
HETATM   21  O5  UNL     1       8.449 -25.711 -12.713  1.00  0.00    -0.376 OA
ENDBRANCH  15  17
ENDBRANCH  14  15
ENDBRANCH   4  14
BRANCH   5  22
HETATM   22  O6  UNL     1       3.751 -29.533 -13.187  1.00  0.00    -0.392 OA
ATOM     23  H6  UNL     1       4.492 -29.880 -13.668  1.00  0.00     0.210 HD
ENDBRANCH   5  22
BRANCH   2  24
HETATM   24  O2  UNL     1       4.797 -30.420  -8.324  1.00  0.00    -0.392 OA
ATOM     25  H2  UNL     1       4.768 -29.888  -7.537  1.00  0.00     0.210 HD
ENDBRANCH   2  24
BRANCH   1  26
HETATM   26  C2  UNL     1       2.397 -29.547  -8.292  1.00  0.00     0.004 C 
HETATM   27  C1  UNL     1       1.628 -30.508  -7.803  1.00  0.00     0.010 C 
ENDBRANCH   1  26
BRANCH   1  28
HETATM   28  O1  UNL     1       2.917 -30.950 -10.001  1.00  0.00    -0.382 OA
ATOM     29  H1  UNL     1       2.473 -30.860 -10.837  1.00  0.00     0.211 HD
ENDBRANCH   1  28
BRANCH   8  30
HETATM   30  C16 UNL     1       2.986 -26.665 -13.729  1.00  0.00     0.061 C 
BRANCH  30  31
HETATM   31  C17 UNL     1       2.018 -26.085 -14.701  1.00  0.00     0.171 C 
BRANCH  31  32
HETATM   32  O7  UNL     1       2.191 -24.724 -14.947  1.00  0.00    -0.396 OA
HETATM   33  C18 UNL     1       0.986 -24.054 -14.842  1.00  0.00     0.201 C 
ENDBRANCH  31  32
ENDBRANCH  30  31
ENDBRANCH   8  30
TORSDOF 10
ENDMDL
MODEL 3
REMARK VINA RESULT: -7.927719336      2.526      5.302
REMARK  10 active torsions:
REMARK  status: ('A' for Active; 'I' for Inactive)
REMARK    1  A    between atoms: C2_2  and  C3_3 
REMARK    2  A    between atoms: C3_3  and  O1_4 
REMARK    3  A    between atoms: C4_6  and  O2_7 
REMARK    4  A    between atoms: C6_10  and  O3_11 
REMARK    5  A    between atoms: O3_11  and  C7_12 
REMARK    6  A    between atoms: C7_12  and  C8_14 
REMARK    7  A    between atoms: C12_19  and  O6_20 
REMARK    8  A    between atoms: C15_24  and  C16_25 
REMARK    9  A    between atoms: C16_25  and  C17_26 
REMARK   10  A    between atoms: C17_26  and  O7_27 
ROOT
HETATM    1  C3  UNL     1       1.553 -28.132 -10.735  1.00  0.00     0.109 C 
HETATM    2  C4  UNL     1       0.234 -28.179 -11.385  1.00  0.00     0.159 C 
HETATM    3  C5  UNL     1      -0.334 -26.836 -11.686  1.00  0.00     0.070 C 
HETATM    4  C6  UNL     1       0.201 -26.054 -12.787  1.00  0.00     0.164 C 
HETATM    5  C12 UNL     1       1.635 -26.026 -13.083  1.00  0.00     0.161 C 
HETATM    6  C13 UNL     1       2.501 -27.199 -12.896  1.00  0.00     0.018 C 
HETATM    7  C14 UNL     1       2.055 -28.347 -13.814  1.00  0.00     0.024 C 
HETATM    8  C15 UNL     1       3.852 -26.863 -13.504  1.00  0.00    -0.070 C 
HETATM    9  C19 UNL     1       4.949 -27.487 -13.138  1.00  0.00    -0.023 C 
HETATM   10  C20 UNL     1       5.023 -28.566 -12.113  1.00  0.00     0.028 C 
HETATM   11  C21 UNL     1       3.705 -28.824 -11.496  1.00  0.00     0.017 C 
HETATM   12  C22 UNL     1       2.739 -27.642 -11.503  1.00  0.00     0.007 C 
HETATM   13  C23 UNL     1       3.475 -26.543 -10.748  1.00  0.00     0.020 C 
ENDROOT
BRANCH   4  14
HETATM   14  O3  UNL     1      -0.509 -26.347 -13.980  1.00  0.00    -0.311 OA
BRANCH  14  15
HETATM   15  C7  UNL     1      -0.342 -25.768 -15.196  1.00  0.00     0.288 C 
HETATM   16  O4  UNL     1       0.110 -26.497 -16.127  1.00  0.00    -0.262 OA
BRANCH  15  17
HETATM   17  C8  UNL     1      -0.637 -24.366 -15.534  1.00  0.00     0.221 C 
HETATM   18  C9  UNL     1      -1.274 -24.335 -16.906  1.00  0.00     0.044 C 
HETATM   19  C10 UNL     1      -0.997 -22.915 -17.345  1.00  0.00     0.029 C 
HETATM   20  C11 UNL     1      -0.088 -22.404 -16.232  1.00  0.00     0.169 C 
HETATM   21  O5  UNL     1       0.477 -23.583 -15.692  1.00  0.00    -0.376 OA
ENDBRANCH  15  17
ENDBRANCH  14  15
ENDBRANCH   4  14
BRANCH   5  22
HETATM   22  O6  UNL     1       2.104 -24.906 -12.326  1.00  0.00    -0.392 OA
ATOM     23  H6  UNL     1       2.589 -24.399 -12.965  1.00  0.00     0.210 HD
ENDBRANCH   5  22
BRANCH   2  24
HETATM   24  O2  UNL     1      -0.644 -28.654 -10.344  1.00  0.00    -0.392 OA
ATOM     25  H2  UNL     1      -0.777 -29.569 -10.562  1.00  0.00     0.210 HD
ENDBRANCH   2  24
BRANCH   1  26
HETATM   26  C2  UNL     1       1.771 -29.406  -9.995  1.00  0.00     0.004 C 
HETATM   27  C1  UNL     1       2.070 -29.504  -8.708  1.00  0.00     0.010 C 
ENDBRANCH   1  26
BRANCH   1  28
HETATM   28  O1  UNL     1       1.366 -27.195  -9.667  1.00  0.00    -0.382 OA
ATOM     29  H1  UNL     1       2.261 -27.009  -9.408  1.00  0.00     0.211 HD
ENDBRANCH   1  28
BRANCH   8  30
HETATM   30  C16 UNL     1       3.929 -25.824 -14.548  1.00  0.00     0.061 C 
BRANCH  30  31
HETATM   31  C17 UNL     1       5.220 -25.696 -15.280  1.00  0.00     0.171 C 
BRANCH  31  32
HETATM   32  O7  UNL     1       6.023 -24.638 -14.855  1.00  0.00    -0.396 OA
HETATM   33  C18 UNL     1       7.314 -25.074 -14.619  1.00  0.00     0.201 C 
ENDBRANCH  31  32
ENDBRANCH  30  31
ENDBRANCH   8  30
TORSDOF 10
ENDMDL
MODEL 4
REMARK VINA RESULT: -7.916673676      1.740      3.551
REMARK  10 active torsions:
REMARK  status: ('A' for Active; 'I' for Inactive)
REMARK    1  A    between atoms: C2_2  and  C3_3 
REMARK    2  A    between atoms: C3_3  and  O1_4 
REMARK    3  A    between atoms: C4_6  and  O2_7 
REMARK    4  A    between atoms: C6_10  and  O3_11 
REMARK    5  A    between atoms: O3_11  and  C7_12 
REMARK    6  A    between atoms: C7_12  and  C8_14 
REMARK    7  A    between atoms: C12_19  and  O6_20 
REMARK    8  A    between atoms: C15_24  and  C16_25 
REMARK    9  A    between atoms: C16_25  and  C17_26 
REMARK   10  A    between atoms: C17_26  and  O7_27 
ROOT
HETATM    1  C3  UNL     1       1.789 -26.093 -12.686  1.00  0.00     0.109 C 
HETATM    2  C4  UNL     1       3.220 -26.158 -13.022  1.00  0.00     0.159 C 
HETATM    3  C5  UNL     1       4.106 -26.334 -11.839  1.00  0.00     0.070 C 
HETATM    4  C6  UNL     1       4.185 -27.625 -11.178  1.00  0.00     0.164 C 
HETATM    5  C12 UNL     1       3.001 -28.468 -10.997  1.00  0.00     0.161 C 
HETATM    6  C13 UNL     1       1.919 -28.531 -11.991  1.00  0.00     0.018 C 
HETATM    7  C14 UNL     1       2.447 -29.083 -13.323  1.00  0.00     0.024 C 
HETATM    8  C15 UNL     1       0.987 -29.655 -11.572  1.00  0.00    -0.070 C 
HETATM    9  C19 UNL     1      -0.265 -29.698 -11.967  1.00  0.00    -0.023 C 
HETATM   10  C20 UNL     1      -0.925 -28.690 -12.844  1.00  0.00     0.028 C 
HETATM   11  C21 UNL     1      -0.011 -27.579 -13.182  1.00  0.00     0.017 C 
HETATM   12  C22 UNL     1       1.096 -27.313 -12.164  1.00  0.00     0.007 C 
HETATM   13  C23 UNL     1       0.357 -27.019 -10.866  1.00  0.00     0.020 C 
ENDROOT
BRANCH   4  14
HETATM   14  O3  UNL     1       5.220 -28.404 -11.758  1.00  0.00    -0.311 OA
BRANCH  14  15
HETATM   15  C7  UNL     1       6.544 -28.110 -11.795  1.00  0.00     0.288 C 
HETATM   16  O4  UNL     1       7.238 -28.439 -10.789  1.00  0.00    -0.262 OA
BRANCH  15  17
HETATM   17  C8  UNL     1       7.250 -27.439 -12.898  1.00  0.00     0.221 C 
HETATM   18  C9  UNL     1       7.649 -26.056 -12.432  1.00  0.00     0.044 C 
HETATM   19  C10 UNL     1       7.818 -25.323 -13.744  1.00  0.00     0.029 C 
HETATM   20  C11 UNL     1       7.316 -26.350 -14.755  1.00  0.00     0.169 C 
HETATM   21  O5  UNL     1       6.465 -27.184 -13.992  1.00  0.00    -0.376 OA
ENDBRANCH  15  17
ENDBRANCH  14  15
ENDBRANCH   4  14
BRANCH   5  22
HETATM   22  O6  UNL     1       2.507 -28.068  -9.715  1.00  0.00    -0.392 OA
ATOM     23  H6  UNL     1       1.577 -28.249  -9.774  1.00  0.00     0.210 HD
ENDBRANCH   5  22
BRANCH   2  24
HETATM   24  O2  UNL     1       3.534 -24.815 -13.442  1.00  0.00    -0.392 OA
ATOM     25  H2  UNL     1       4.323 -24.606 -12.955  1.00  0.00     0.210 HD
ENDBRANCH   2  24
BRANCH   1  26
HETATM   26  C2  UNL     1       1.068 -25.385 -13.779  1.00  0.00     0.004 C 
HETATM   27  C1  UNL     1       0.313 -24.307 -13.629  1.00  0.00     0.010 C 
ENDBRANCH   1  26
BRANCH   1  28
HETATM   28  O1  UNL     1       1.739 -25.133 -11.624  1.00  0.00    -0.382 OA
ATOM     29  H1  UNL     1       2.311 -25.526 -10.974  1.00  0.00     0.211 HD
ENDBRANCH   1  28
BRANCH   8  30
HETATM   30  C16 UNL     1       1.508 -30.736 -10.714  1.00  0.00     0.061 C 
BRANCH  30  31
HETATM   31  C17 UNL     1       0.698 -31.100  -9.519  1.00  0.00     0.171 C 
BRANCH  31  32
HETATM   32  O7  UNL     1       0.961 -30.331  -8.386  1.00  0.00    -0.396 OA
HETATM   33  C18 UNL     1       2.019 -30.864  -7.672  1.00  0.00     0.201 C 
ENDBRANCH  31  32
ENDBRANCH  30  31
ENDBRANCH   8  30
TORSDOF 10
ENDMDL
MODEL 5
REMARK VINA RESULT: -7.868401427      2.741      5.410
REMARK  10 active torsions:
REMARK  status: ('A' for Active; 'I' for Inactive)
REMARK    1  A    between atoms: C2_2  and  C3_3 
REMARK    2  A    between atoms: C3_3  and  O1_4 
REMARK    3  A    between atoms: C4_6  and  O2_7 
REMARK    4  A    between atoms: C6_10  and  O3_11 
REMARK    5  A    between atoms: O3_11  and  C7_12 
REMARK    6  A    between atoms: C7_12  and  C8_14 
REMARK    7  A    between atoms: C12_19  and  O6_20 
REMARK    8  A    between atoms: C15_24  and  C16_25 
REMARK    9  A    between atoms: C16_25  and  C17_26 
REMARK   10  A    between atoms: C17_26  and  O7_27 
ROOT
HETATM    1  C3  UNL     1       1.481 -27.894 -10.935  1.00  0.00     0.109 C 
HETATM    2  C4  UNL     1       0.213 -27.567 -11.606  1.00  0.00     0.159 C 
HETATM    3  C5  UNL     1      -0.076 -26.108 -11.664  1.00  0.00     0.070 C 
HETATM    4  C6  UNL     1       0.654 -25.260 -12.590  1.00  0.00     0.164 C 
HETATM    5  C12 UNL     1       2.081 -25.458 -12.850  1.00  0.00     0.161 C 
HETATM    6  C13 UNL     1       2.702 -26.792 -12.868  1.00  0.00     0.018 C 
HETATM    7  C14 UNL     1       2.098 -27.648 -13.991  1.00  0.00     0.024 C 
HETATM    8  C15 UNL     1       4.122 -26.621 -13.378  1.00  0.00    -0.070 C 
HETATM    9  C19 UNL     1       5.062 -27.500 -13.115  1.00  0.00    -0.023 C 
HETATM   10  C20 UNL     1       4.878 -28.738 -12.306  1.00  0.00     0.028 C 
HETATM   11  C21 UNL     1       3.504 -28.843 -11.773  1.00  0.00     0.017 C 
HETATM   12  C22 UNL     1       2.778 -27.513 -11.577  1.00  0.00     0.007 C 
HETATM   13  C23 UNL     1       3.664 -26.731 -10.618  1.00  0.00     0.020 C 
ENDROOT
BRANCH   4  14
HETATM   14  O3  UNL     1      -0.033 -25.192 -13.830  1.00  0.00    -0.311 OA
BRANCH  14  15
HETATM   15  C7  UNL     1      -0.311 -24.078 -14.552  1.00  0.00     0.288 C 
HETATM   16  O4  UNL     1      -0.432 -22.991 -13.916  1.00  0.00    -0.262 OA
BRANCH  15  17
HETATM   17  C8  UNL     1      -0.487 -24.015 -16.012  1.00  0.00     0.221 C 
HETATM   18  C9  UNL     1       0.024 -22.674 -16.492  1.00  0.00     0.044 C 
HETATM   19  C10 UNL     1      -0.706 -22.516 -17.807  1.00  0.00     0.029 C 
HETATM   20  C11 UNL     1      -1.659 -23.707 -17.793  1.00  0.00     0.169 C 
HETATM   21  O5  UNL     1      -1.796 -24.011 -16.418  1.00  0.00    -0.376 OA
ENDBRANCH  15  17
ENDBRANCH  14  15
ENDBRANCH   4  14
BRANCH   5  22
HETATM   22  O6  UNL     1       2.711 -24.605 -11.889  1.00  0.00    -0.392 OA
ATOM     23  H6  UNL     1       2.203 -24.753 -11.100  1.00  0.00     0.210 HD
ENDBRANCH   5  22
BRANCH   2  24
HETATM   24  O2  UNL     1      -0.793 -28.042 -10.689  1.00  0.00    -0.392 OA
ATOM     25  H2  UNL     1      -1.501 -28.323 -11.256  1.00  0.00     0.210 HD
ENDBRANCH   2  24
BRANCH   1  26
HETATM   26  C2  UNL     1       1.417 -29.297 -10.441  1.00  0.00     0.004 C 
HETATM   27  C1  UNL     1       1.711 -29.692  -9.211  1.00  0.00     0.010 C 
ENDBRANCH   1  26
BRANCH   1  28
HETATM   28  O1  UNL     1       1.416 -27.145  -9.716  1.00  0.00    -0.382 OA
ATOM     29  H1  UNL     1       1.945 -27.673  -9.130  1.00  0.00     0.211 HD
ENDBRANCH   1  28
BRANCH   8  30
HETATM   30  C16 UNL     1       4.449 -25.446 -14.209  1.00  0.00     0.061 C 
BRANCH  30  31
HETATM   31  C17 UNL     1       5.892 -25.172 -14.453  1.00  0.00     0.171 C 
BRANCH  31  32
HETATM   32  O7  UNL     1       6.521 -24.445 -13.444  1.00  0.00    -0.396 OA
HETATM   33  C18 UNL     1       7.845 -24.826 -13.324  1.00  0.00     0.201 C 
ENDBRANCH  31  32
ENDBRANCH  30  31
ENDBRANCH   8  30
TORSDOF 10
ENDMDL
