MODEL 1
REMARK VINA RESULT: -8.529239453      0.000      0.000
REMARK  12 active torsions:
REMARK  status: ('A' for Active; 'I' for Inactive)
REMARK    1  A    between atoms: C2_2  and  C3_3 
REMARK    2  A    between atoms: C3_3  and  O1_4 
REMARK    3  A    between atoms: O1_4  and  C4_5 
REMARK    4  A    between atoms: C6_7  and  N1_8 
REMARK    5  A    between atoms: C9_13  and  N3_14 
REMARK    6  A    between atoms: N3_14  and  C10_16 
REMARK    7  A    between atoms: C17_25  and  N5_26 
REMARK    8  A    between atoms: N5_26  and  C18_28 
REMARK    9  A    between atoms: C18_28  and  C19_29 
REMARK   10  A    between atoms: C19_29  and  O2_31 
REMARK   11  A    between atoms: C24_39  and  C25_40 
REMARK   12  A    between atoms: C25_40  and  O4_42 
ROOT
HETATM    1  N1  UNL     1      -7.133 107.581 276.159  1.00  0.00    -0.320 N 
HETATM    2  C7  UNL     1      -7.577 106.324 276.022  1.00  0.00     0.185 A 
HETATM    3  N2  UNL     1      -6.647 105.581 275.374  1.00  0.00    -0.346 N 
ATOM      4  H2  UNL     1      -6.745 104.591 275.146  1.00  0.00     0.167 HD
HETATM    5  C8  UNL     1      -5.593 106.324 275.079  1.00  0.00     0.123 A 
HETATM    6  C9  UNL     1      -4.395 106.108 274.449  1.00  0.00     0.148 A 
HETATM    7  N4  UNL     1      -3.533 107.162 274.330  1.00  0.00    -0.175 N 
ATOM      8  H4  UNL     1      -2.640 107.013 273.862  1.00  0.00     0.186 HD
HETATM    9  C17 UNL     1      -3.816 108.383 274.802  1.00  0.00     0.681 A 
HETATM   10  N6  UNL     1      -4.996 108.573 275.416  1.00  0.00    -0.174 N 
ATOM     11  H6  UNL     1      -5.208 109.503 275.775  1.00  0.00     0.186 HD
HETATM   12  C21 UNL     1      -5.917 107.594 275.584  1.00  0.00     0.155 A 
ENDROOT
BRANCH   1  13
HETATM   13  C6  UNL     1      -7.752 108.748 276.776  1.00  0.00     0.123 C 
HETATM   14  C5  UNL     1      -8.053 108.559 278.223  1.00  0.00     0.063 C 
HETATM   15  C4  UNL     1      -9.491 108.651 278.613  1.00  0.00     0.154 C 
HETATM   16  C24 UNL     1     -10.341 109.481 277.677  1.00  0.00     0.179 C 
HETATM   17  O3  UNL     1      -9.631 110.142 276.703  1.00  0.00    -0.374 OA
HETATM   18  C22 UNL     1      -8.954 109.170 275.964  1.00  0.00     0.141 C 
HETATM   19  C23 UNL     1      -8.509 109.775 274.667  1.00  0.00     0.041 C 
BRANCH  15  20
HETATM   20  O1  UNL     1     -10.045 107.393 278.830  1.00  0.00    -0.383 OA
BRANCH  20  21
HETATM   21  C3  UNL     1     -10.963 107.128 277.830  1.00  0.00     0.168 C 
BRANCH  21  22
HETATM   22  C2  UNL     1     -11.535 105.731 277.939  1.00  0.00     0.022 C 
HETATM   23  C1  UNL     1     -10.595 104.722 277.349  1.00  0.00     0.007 C 
ENDBRANCH  21  22
ENDBRANCH  20  21
ENDBRANCH  15  20
BRANCH  16  24
HETATM   24  C25 UNL     1     -11.192 110.494 278.413  1.00  0.00     0.145 C 
HETATM   25  C26 UNL     1     -10.717 111.866 277.956  1.00  0.00     0.042 C 
BRANCH  24  26
HETATM   26  O4  UNL     1     -10.904 110.397 279.772  1.00  0.00    -0.393 OA
ATOM     27  H4  UNL     1     -11.542 109.816 280.169  1.00  0.00     0.210 HD
ENDBRANCH  24  26
ENDBRANCH  16  24
ENDBRANCH   1  13
BRANCH   6  28
HETATM   28  N3  UNL     1      -4.050 104.997 273.978  1.00  0.00    -0.369 N 
ATOM     29  H3  UNL     1      -3.593 104.388 274.656  1.00  0.00     0.161 HD
BRANCH  28  30
HETATM   30  C10 UNL     1      -4.173 104.422 272.687  1.00  0.00     0.083 C 
HETATM   31  C11 UNL     1      -2.836 103.976 272.169  1.00  0.00     0.025 C 
HETATM   32  C12 UNL     1      -2.697 102.476 272.104  1.00  0.00     0.002 C 
HETATM   33  C13 UNL     1      -2.587 101.951 273.494  1.00  0.00     0.000 C 
HETATM   34  C14 UNL     1      -3.865 102.002 274.267  1.00  0.00     0.000 C 
HETATM   35  C15 UNL     1      -5.085 102.168 273.437  1.00  0.00     0.002 C 
HETATM   36  C16 UNL     1      -5.226 103.350 272.603  1.00  0.00     0.025 C 
ENDBRANCH  28  30
ENDBRANCH   6  28
BRANCH   9  37
HETATM   37  N5  UNL     1      -2.937 109.317 274.642  1.00  0.00    -0.224 N 
ATOM     38  H5  UNL     1      -2.067 109.251 275.171  1.00  0.00     0.177 HD
BRANCH  37  39
HETATM   39  C18 UNL     1      -3.106 110.435 273.770  1.00  0.00     0.169 C 
BRANCH  39  40
HETATM   40  C19 UNL     1      -2.704 110.040 272.351  1.00  0.00     0.132 C 
HETATM   41  C20 UNL     1      -2.809 111.288 271.496  1.00  0.00     0.041 C 
BRANCH  40  42
HETATM   42  O2  UNL     1      -1.352 109.644 272.430  1.00  0.00    -0.394 OA
ATOM     43  H2  UNL     1      -0.952 109.925 271.616  1.00  0.00     0.210 HD
ENDBRANCH  40  42
ENDBRANCH  39  40
ENDBRANCH  37  39
ENDBRANCH   9  37
TORSDOF 12
ENDMDL
MODEL 2
REMARK VINA RESULT: -8.349577616      2.768      7.160
REMARK  12 active torsions:
REMARK  status: ('A' for Active; 'I' for Inactive)
REMARK    1  A    between atoms: C2_2  and  C3_3 
REMARK    2  A    between atoms: C3_3  and  O1_4 
REMARK    3  A    between atoms: O1_4  and  C4_5 
REMARK    4  A    between atoms: C6_7  and  N1_8 
REMARK    5  A    between atoms: C9_13  and  N3_14 
REMARK    6  A    between atoms: N3_14  and  C10_16 
REMARK    7  A    between atoms: C17_25  and  N5_26 
REMARK    8  A    between atoms: N5_26  and  C18_28 
REMARK    9  A    between atoms: C18_28  and  C19_29 
REMARK   10  A    between atoms: C19_29  and  O2_31 
REMARK   11  A    between atoms: C24_39  and  C25_40 
REMARK   12  A    between atoms: C25_40  and  O4_42 
ROOT
HETATM    1  N1  UNL     1      -5.118 108.483 273.229  1.00  0.00    -0.320 N 
HETATM    2  C7  UNL     1      -4.055 107.864 272.697  1.00  0.00     0.185 A 
HETATM    3  N2  UNL     1      -3.942 106.620 273.222  1.00  0.00    -0.346 N 
ATOM      4  H2  UNL     1      -3.214 105.948 272.981  1.00  0.00     0.167 HD
HETATM    5  C8  UNL     1      -4.913 106.403 274.094  1.00  0.00     0.123 A 
HETATM    6  C9  UNL     1      -5.281 105.357 274.901  1.00  0.00     0.148 A 
HETATM    7  N4  UNL     1      -6.383 105.515 275.693  1.00  0.00    -0.175 N 
ATOM      8  H4  UNL     1      -6.666 104.744 276.297  1.00  0.00     0.186 HD
HETATM    9  C17 UNL     1      -7.107 106.642 275.706  1.00  0.00     0.681 A 
HETATM   10  N6  UNL     1      -6.729 107.654 274.908  1.00  0.00    -0.174 N 
ATOM     11  H6  UNL     1      -7.282 108.511 274.921  1.00  0.00     0.186 HD
HETATM   12  C21 UNL     1      -5.653 107.597 274.088  1.00  0.00     0.155 A 
ENDROOT
BRANCH   1  13
HETATM   13  C6  UNL     1      -5.658 109.817 272.997  1.00  0.00     0.123 C 
HETATM   14  C5  UNL     1      -6.112 110.033 271.594  1.00  0.00     0.063 C 
HETATM   15  C4  UNL     1      -5.413 111.112 270.836  1.00  0.00     0.154 C 
HETATM   16  C24 UNL     1      -4.809 112.195 271.703  1.00  0.00     0.179 C 
HETATM   17  O3  UNL     1      -5.128 112.096 273.036  1.00  0.00    -0.374 OA
HETATM   18  C22 UNL     1      -4.667 110.852 273.473  1.00  0.00     0.141 C 
HETATM   19  C23 UNL     1      -4.611 110.859 274.970  1.00  0.00     0.041 C 
BRANCH  15  20
HETATM   20  O1  UNL     1      -4.482 110.592 269.942  1.00  0.00    -0.383 OA
BRANCH  20  21
HETATM   21  C3  UNL     1      -3.210 110.845 270.422  1.00  0.00     0.168 C 
BRANCH  21  22
HETATM   22  C2  UNL     1      -2.248 111.214 269.313  1.00  0.00     0.022 C 
HETATM   23  C1  UNL     1      -0.955 110.468 269.456  1.00  0.00     0.007 C 
ENDBRANCH  21  22
ENDBRANCH  20  21
ENDBRANCH  15  20
BRANCH  16  24
HETATM   24  C25 UNL     1      -5.176 113.586 271.230  1.00  0.00     0.145 C 
HETATM   25  C26 UNL     1      -6.544 113.894 271.821  1.00  0.00     0.042 C 
BRANCH  24  26
HETATM   26  O4  UNL     1      -5.331 113.547 269.847  1.00  0.00    -0.393 OA
ATOM     27  H4  UNL     1      -6.155 113.967 269.630  1.00  0.00     0.210 HD
ENDBRANCH  24  26
ENDBRANCH  16  24
ENDBRANCH   1  13
BRANCH   6  28
HETATM   28  N3  UNL     1      -4.660 104.267 274.949  1.00  0.00    -0.369 N 
ATOM     29  H3  UNL     1      -3.669 104.369 275.164  1.00  0.00     0.161 HD
BRANCH  28  30
HETATM   30  C10 UNL     1      -5.069 102.922 274.762  1.00  0.00     0.083 C 
HETATM   31  C11 UNL     1      -6.097 102.819 273.673  1.00  0.00     0.025 C 
HETATM   32  C12 UNL     1      -5.576 102.143 272.430  1.00  0.00     0.002 C 
HETATM   33  C13 UNL     1      -4.623 103.067 271.754  1.00  0.00     0.000 C 
HETATM   34  C14 UNL     1      -3.316 103.220 272.463  1.00  0.00     0.000 C 
HETATM   35  C15 UNL     1      -3.022 102.156 273.457  1.00  0.00     0.002 C 
HETATM   36  C16 UNL     1      -3.922 101.964 274.584  1.00  0.00     0.025 C 
ENDBRANCH  28  30
ENDBRANCH   6  28
BRANCH   9  37
HETATM   37  N5  UNL     1      -8.134 106.697 276.490  1.00  0.00    -0.224 N 
ATOM     38  H5  UNL     1      -8.851 107.395 276.291  1.00  0.00     0.177 HD
BRANCH  37  39
HETATM   39  C18 UNL     1      -8.328 105.841 277.616  1.00  0.00     0.169 C 
BRANCH  39  40
HETATM   40  C19 UNL     1      -9.456 104.856 277.321  1.00  0.00     0.132 C 
HETATM   41  C20 UNL     1      -8.843 103.469 277.306  1.00  0.00     0.041 C 
BRANCH  40  42
HETATM   42  O2  UNL     1     -10.350 104.958 278.409  1.00  0.00    -0.394 OA
ATOM     43  H2  UNL     1     -10.807 104.126 278.446  1.00  0.00     0.210 HD
ENDBRANCH  40  42
ENDBRANCH  39  40
ENDBRANCH  37  39
ENDBRANCH   9  37
TORSDOF 12
ENDMDL
MODEL 3
REMARK VINA RESULT: -8.277695933      2.087      4.385
REMARK  12 active torsions:
REMARK  status: ('A' for Active; 'I' for Inactive)
REMARK    1  A    between atoms: C2_2  and  C3_3 
REMARK    2  A    between atoms: C3_3  and  O1_4 
REMARK    3  A    between atoms: O1_4  and  C4_5 
REMARK    4  A    between atoms: C6_7  and  N1_8 
REMARK    5  A    between atoms: C9_13  and  N3_14 
REMARK    6  A    between atoms: N3_14  and  C10_16 
REMARK    7  A    between atoms: C17_25  and  N5_26 
REMARK    8  A    between atoms: N5_26  and  C18_28 
REMARK    9  A    between atoms: C18_28  and  C19_29 
REMARK   10  A    between atoms: C19_29  and  O2_31 
REMARK   11  A    between atoms: C24_39  and  C25_40 
REMARK   12  A    between atoms: C25_40  and  O4_42 
ROOT
HETATM    1  N1  UNL     1      -5.822 108.926 274.849  1.00  0.00    -0.320 N 
HETATM    2  C7  UNL     1      -4.616 108.900 274.264  1.00  0.00     0.185 A 
HETATM    3  N2  UNL     1      -4.218 107.615 274.099  1.00  0.00    -0.346 N 
ATOM      4  H2  UNL     1      -3.335 107.326 273.678  1.00  0.00     0.167 HD
HETATM    5  C8  UNL     1      -5.140 106.788 274.565  1.00  0.00     0.123 A 
HETATM    6  C9  UNL     1      -5.270 105.427 274.658  1.00  0.00     0.148 A 
HETATM    7  N4  UNL     1      -6.409 104.928 275.223  1.00  0.00    -0.175 N 
ATOM      8  H4  UNL     1      -6.515 103.916 275.298  1.00  0.00     0.186 HD
HETATM    9  C17 UNL     1      -7.391 105.714 275.682  1.00  0.00     0.681 A 
HETATM   10  N6  UNL     1      -7.245 107.045 275.582  1.00  0.00    -0.174 N 
ATOM     11  H6  UNL     1      -7.994 107.641 275.932  1.00  0.00     0.186 HD
HETATM   12  C21 UNL     1      -6.154 107.638 275.039  1.00  0.00     0.155 A 
ENDROOT
BRANCH   1  13
HETATM   13  C6  UNL     1      -6.668 110.050 275.236  1.00  0.00     0.123 C 
HETATM   14  C5  UNL     1      -7.172 109.953 276.635  1.00  0.00     0.063 C 
HETATM   15  C4  UNL     1      -8.654 109.884 276.796  1.00  0.00     0.154 C 
HETATM   16  C24 UNL     1      -9.436 110.504 275.659  1.00  0.00     0.179 C 
HETATM   17  O3  UNL     1      -8.663 111.164 274.734  1.00  0.00    -0.374 OA
HETATM   18  C22 UNL     1      -7.765 110.230 274.214  1.00  0.00     0.141 C 
HETATM   19  C23 UNL     1      -7.193 110.770 272.938  1.00  0.00     0.041 C 
BRANCH  15  20
HETATM   20  O1  UNL     1      -9.081 108.588 277.066  1.00  0.00    -0.383 OA
BRANCH  20  21
HETATM   21  C3  UNL     1      -9.040 108.377 278.432  1.00  0.00     0.168 C 
BRANCH  21  22
HETATM   22  C2  UNL     1     -10.425 108.234 279.027  1.00  0.00     0.022 C 
HETATM   23  C1  UNL     1     -10.773 109.428 279.865  1.00  0.00     0.007 C 
ENDBRANCH  21  22
ENDBRANCH  20  21
ENDBRANCH  15  20
BRANCH  16  24
HETATM   24  C25 UNL     1     -10.510 111.454 276.145  1.00  0.00     0.145 C 
HETATM   25  C26 UNL     1      -9.910 112.214 277.320  1.00  0.00     0.042 C 
BRANCH  24  26
HETATM   26  O4  UNL     1     -11.564 110.696 276.648  1.00  0.00    -0.393 OA
ATOM     27  H4  UNL     1     -12.268 111.289 276.884  1.00  0.00     0.210 HD
ENDBRANCH  24  26
ENDBRANCH  16  24
ENDBRANCH   1  13
BRANCH   6  28
HETATM   28  N3  UNL     1      -4.399 104.619 274.252  1.00  0.00    -0.369 N 
ATOM     29  H3  UNL     1      -3.649 104.452 274.923  1.00  0.00     0.161 HD
BRANCH  28  30
HETATM   30  C10 UNL     1      -4.253 103.893 273.042  1.00  0.00     0.083 C 
HETATM   31  C11 UNL     1      -2.840 103.417 272.868  1.00  0.00     0.025 C 
HETATM   32  C12 UNL     1      -2.696 101.924 273.014  1.00  0.00     0.002 C 
HETATM   33  C13 UNL     1      -2.877 101.570 274.450  1.00  0.00     0.000 C 
HETATM   34  C14 UNL     1      -4.287 101.685 274.933  1.00  0.00     0.000 C 
HETATM   35  C15 UNL     1      -5.309 101.724 273.855  1.00  0.00     0.002 C 
HETATM   36  C16 UNL     1      -5.270 102.796 272.873  1.00  0.00     0.025 C 
ENDBRANCH  28  30
ENDBRANCH   6  28
BRANCH   9  37
HETATM   37  N5  UNL     1      -8.432 105.148 276.201  1.00  0.00    -0.224 N 
ATOM     38  H5  UNL     1      -8.921 105.640 276.948  1.00  0.00     0.177 HD
BRANCH  37  39
HETATM   39  C18 UNL     1      -8.939 103.877 275.792  1.00  0.00     0.169 C 
BRANCH  39  40
HETATM   40  C19 UNL     1      -8.909 102.912 276.975  1.00  0.00     0.132 C 
HETATM   41  C20 UNL     1      -7.671 102.051 276.816  1.00  0.00     0.041 C 
BRANCH  40  42
HETATM   42  O2  UNL     1      -8.770 103.719 278.125  1.00  0.00    -0.394 OA
ATOM     43  H2  UNL     1      -9.152 103.221 278.838  1.00  0.00     0.210 HD
ENDBRANCH  40  42
ENDBRANCH  39  40
ENDBRANCH  37  39
ENDBRANCH   9  37
TORSDOF 12
ENDMDL
MODEL 4
REMARK VINA RESULT: -8.245607675      2.489      3.857
REMARK  12 active torsions:
REMARK  status: ('A' for Active; 'I' for Inactive)
REMARK    1  A    between atoms: C2_2  and  C3_3 
REMARK    2  A    between atoms: C3_3  and  O1_4 
REMARK    3  A    between atoms: O1_4  and  C4_5 
REMARK    4  A    between atoms: C6_7  and  N1_8 
REMARK    5  A    between atoms: C9_13  and  N3_14 
REMARK    6  A    between atoms: N3_14  and  C10_16 
REMARK    7  A    between atoms: C17_25  and  N5_26 
REMARK    8  A    between atoms: N5_26  and  C18_28 
REMARK    9  A    between atoms: C18_28  and  C19_29 
REMARK   10  A    between atoms: C19_29  and  O2_31 
REMARK   11  A    between atoms: C24_39  and  C25_40 
REMARK   12  A    between atoms: C25_40  and  O4_42 
ROOT
HETATM    1  N1  UNL     1      -6.827 107.607 274.548  1.00  0.00    -0.320 N 
HETATM    2  C7  UNL     1      -7.181 106.319 274.440  1.00  0.00     0.185 A 
HETATM    3  N2  UNL     1      -6.127 105.593 273.994  1.00  0.00    -0.346 N 
ATOM      4  H2  UNL     1      -6.139 104.587 273.827  1.00  0.00     0.167 HD
HETATM    5  C8  UNL     1      -5.079 106.379 273.806  1.00  0.00     0.123 A 
HETATM    6  C9  UNL     1      -3.789 106.196 273.379  1.00  0.00     0.148 A 
HETATM    7  N4  UNL     1      -2.974 107.290 273.312  1.00  0.00    -0.175 N 
ATOM      8  H4  UNL     1      -2.013 107.165 272.996  1.00  0.00     0.186 HD
HETATM    9  C17 UNL     1      -3.387 108.519 273.647  1.00  0.00     0.681 A 
HETATM   10  N6  UNL     1      -4.654 108.677 274.062  1.00  0.00    -0.174 N 
ATOM     11  H6  UNL     1      -4.966 109.614 274.316  1.00  0.00     0.186 HD
HETATM   12  C21 UNL     1      -5.540 107.657 274.162  1.00  0.00     0.155 A 
ENDROOT
BRANCH   1  13
HETATM   13  C6  UNL     1      -7.592 108.772 274.979  1.00  0.00     0.123 C 
HETATM   14  C5  UNL     1      -7.913 109.710 273.866  1.00  0.00     0.063 C 
HETATM   15  C4  UNL     1      -7.361 111.091 273.991  1.00  0.00     0.154 C 
HETATM   16  C24 UNL     1      -7.090 111.531 275.413  1.00  0.00     0.179 C 
HETATM   17  O3  UNL     1      -7.536 110.652 276.372  1.00  0.00    -0.374 OA
HETATM   18  C22 UNL     1      -6.890 109.436 276.139  1.00  0.00     0.141 C 
HETATM   19  C23 UNL     1      -7.010 108.585 277.367  1.00  0.00     0.041 C 
BRANCH  15  20
HETATM   20  O1  UNL     1      -6.247 111.273 273.177  1.00  0.00    -0.383 OA
BRANCH  20  21
HETATM   21  C3  UNL     1      -6.653 111.280 271.855  1.00  0.00     0.168 C 
BRANCH  21  22
HETATM   22  C2  UNL     1      -5.697 110.518 270.962  1.00  0.00     0.022 C 
HETATM   23  C1  UNL     1      -6.172 109.113 270.747  1.00  0.00     0.007 C 
ENDBRANCH  21  22
ENDBRANCH  20  21
ENDBRANCH  15  20
BRANCH  16  24
HETATM   24  C25 UNL     1      -7.669 112.897 275.716  1.00  0.00     0.145 C 
HETATM   25  C26 UNL     1      -6.509 113.880 275.644  1.00  0.00     0.042 C 
BRANCH  24  26
HETATM   26  O4  UNL     1      -8.116 112.894 277.035  1.00  0.00    -0.393 OA
ATOM     27  H4  UNL     1      -7.612 112.249 277.517  1.00  0.00     0.210 HD
ENDBRANCH  24  26
ENDBRANCH  16  24
ENDBRANCH   1  13
BRANCH   6  28
HETATM   28  N3  UNL     1      -3.321 105.079 273.047  1.00  0.00    -0.369 N 
ATOM     29  H3  UNL     1      -2.714 104.663 273.753  1.00  0.00     0.161 HD
BRANCH  28  30
HETATM   30  C10 UNL     1      -3.472 104.283 271.883  1.00  0.00     0.083 C 
HETATM   31  C11 UNL     1      -2.185 103.592 271.535  1.00  0.00     0.025 C 
HETATM   32  C12 UNL     1      -2.233 102.103 271.762  1.00  0.00     0.002 C 
HETATM   33  C13 UNL     1      -2.235 101.848 273.230  1.00  0.00     0.000 C 
HETATM   34  C14 UNL     1      -3.521 102.197 273.907  1.00  0.00     0.000 C 
HETATM   35  C15 UNL     1      -4.683 102.339 272.993  1.00  0.00     0.002 C 
HETATM   36  C16 UNL     1      -4.647 103.345 271.943  1.00  0.00     0.025 C 
ENDBRANCH  28  30
ENDBRANCH   6  28
BRANCH   9  37
HETATM   37  N5  UNL     1      -2.541 109.492 273.551  1.00  0.00    -0.224 N 
ATOM     38  H5  UNL     1      -1.864 109.614 274.305  1.00  0.00     0.177 HD
BRANCH  37  39
HETATM   39  C18 UNL     1      -2.494 110.408 272.457  1.00  0.00     0.169 C 
BRANCH  39  40
HETATM   40  C19 UNL     1      -2.514 111.839 272.988  1.00  0.00     0.132 C 
HETATM   41  C20 UNL     1      -2.907 112.737 271.831  1.00  0.00     0.041 C 
BRANCH  40  42
HETATM   42  O2  UNL     1      -3.529 111.872 273.967  1.00  0.00    -0.394 OA
ATOM     43  H2  UNL     1      -3.599 112.779 274.238  1.00  0.00     0.210 HD
ENDBRANCH  40  42
ENDBRANCH  39  40
ENDBRANCH  37  39
ENDBRANCH   9  37
TORSDOF 12
ENDMDL
MODEL 5
REMARK VINA RESULT: -8.237502112      0.820      1.130
REMARK  12 active torsions:
REMARK  status: ('A' for Active; 'I' for Inactive)
REMARK    1  A    between atoms: C2_2  and  C3_3 
REMARK    2  A    between atoms: C3_3  and  O1_4 
REMARK    3  A    between atoms: O1_4  and  C4_5 
REMARK    4  A    between atoms: C6_7  and  N1_8 
REMARK    5  A    between atoms: C9_13  and  N3_14 
REMARK    6  A    between atoms: N3_14  and  C10_16 
REMARK    7  A    between atoms: C17_25  and  N5_26 
REMARK    8  A    between atoms: N5_26  and  C18_28 
REMARK    9  A    between atoms: C18_28  and  C19_29 
REMARK   10  A    between atoms: C19_29  and  O2_31 
REMARK   11  A    between atoms: C24_39  and  C25_40 
REMARK   12  A    between atoms: C25_40  and  O4_42 
ROOT
HETATM    1  N1  UNL     1      -7.620 107.621 276.463  1.00  0.00    -0.320 N 
HETATM    2  C7  UNL     1      -8.204 106.415 276.468  1.00  0.00     0.185 A 
HETATM    3  N2  UNL     1      -7.348 105.493 275.965  1.00  0.00    -0.346 N 
ATOM      4  H2  UNL     1      -7.555 104.499 275.861  1.00  0.00     0.167 HD
HETATM    5  C8  UNL     1      -6.205 106.067 275.626  1.00  0.00     0.123 A 
HETATM    6  C9  UNL     1      -5.022 105.636 275.085  1.00  0.00     0.148 A 
HETATM    7  N4  UNL     1      -4.040 106.561 274.871  1.00  0.00    -0.175 N 
ATOM      8  H4  UNL     1      -3.156 106.252 274.468  1.00  0.00     0.186 HD
HETATM    9  C17 UNL     1      -4.192 107.858 275.169  1.00  0.00     0.681 A 
HETATM   10  N6  UNL     1      -5.359 108.260 275.699  1.00  0.00    -0.174 N 
ATOM     11  H6  UNL     1      -5.472 109.247 275.925  1.00  0.00     0.186 HD
HETATM   12  C21 UNL     1      -6.394 107.422 275.948  1.00  0.00     0.155 A 
ENDROOT
BRANCH   1  13
HETATM   13  C6  UNL     1      -8.117 108.922 276.896  1.00  0.00     0.123 C 
HETATM   14  C5  UNL     1      -8.567 108.938 278.316  1.00  0.00     0.063 C 
HETATM   15  C4  UNL     1     -10.005 109.264 278.546  1.00  0.00     0.154 C 
HETATM   16  C24 UNL     1     -10.643 110.090 277.451  1.00  0.00     0.179 C 
HETATM   17  O3  UNL     1      -9.762 110.538 276.495  1.00  0.00    -0.374 OA
HETATM   18  C22 UNL     1      -9.170 109.407 275.928  1.00  0.00     0.141 C 
HETATM   19  C23 UNL     1      -8.532 109.799 274.629  1.00  0.00     0.041 C 
BRANCH  15  20
HETATM   20  O1  UNL     1     -10.751 108.124 278.829  1.00  0.00    -0.383 OA
BRANCH  20  21
HETATM   21  C3  UNL     1     -11.606 107.873 277.771  1.00  0.00     0.168 C 
BRANCH  21  22
HETATM   22  C2  UNL     1     -12.385 106.589 277.962  1.00  0.00     0.022 C 
HETATM   23  C1  UNL     1     -11.470 105.402 277.954  1.00  0.00     0.007 C 
ENDBRANCH  21  22
ENDBRANCH  20  21
ENDBRANCH  15  20
BRANCH  16  24
HETATM   24  C25 UNL     1     -11.401 111.284 277.993  1.00  0.00     0.145 C 
HETATM   25  C26 UNL     1     -10.502 112.495 277.782  1.00  0.00     0.042 C 
BRANCH  24  26
HETATM   26  O4  UNL     1     -11.542 111.119 279.369  1.00  0.00    -0.393 OA
ATOM     27  H4  UNL     1     -11.437 111.968 279.780  1.00  0.00     0.210 HD
ENDBRANCH  24  26
ENDBRANCH  16  24
ENDBRANCH   1  13
BRANCH   6  28
HETATM   28  N3  UNL     1      -4.796 104.440 274.777  1.00  0.00    -0.369 N 
ATOM     29  H3  UNL     1      -3.940 104.066 275.185  1.00  0.00     0.161 HD
BRANCH  28  30
HETATM   30  C10 UNL     1      -5.499 103.507 273.972  1.00  0.00     0.083 C 
HETATM   31  C11 UNL     1      -5.296 103.798 272.513  1.00  0.00     0.025 C 
HETATM   32  C12 UNL     1      -4.449 102.764 271.817  1.00  0.00     0.002 C 
HETATM   33  C13 UNL     1      -3.040 102.922 272.275  1.00  0.00     0.000 C 
HETATM   34  C14 UNL     1      -2.801 102.466 273.678  1.00  0.00     0.000 C 
HETATM   35  C15 UNL     1      -3.857 101.579 274.229  1.00  0.00     0.002 C 
HETATM   36  C16 UNL     1      -5.221 102.073 274.333  1.00  0.00     0.025 C 
ENDBRANCH  28  30
ENDBRANCH   6  28
BRANCH   9  37
HETATM   37  N5  UNL     1      -3.204 108.658 274.931  1.00  0.00    -0.224 N 
ATOM     38  H5  UNL     1      -2.322 108.485 275.413  1.00  0.00     0.177 HD
BRANCH  37  39
HETATM   39  C18 UNL     1      -3.270 109.767 274.035  1.00  0.00     0.169 C 
BRANCH  39  40
HETATM   40  C19 UNL     1      -2.953 109.298 272.618  1.00  0.00     0.132 C 
HETATM   41  C20 UNL     1      -3.760 110.164 271.671  1.00  0.00     0.041 C 
BRANCH  40  42
HETATM   42  O2  UNL     1      -1.578 109.558 272.426  1.00  0.00    -0.394 OA
ATOM     43  H2  UNL     1      -1.118 108.885 272.913  1.00  0.00     0.210 HD
ENDBRANCH  40  42
ENDBRANCH  39  40
ENDBRANCH  37  39
ENDBRANCH   9  37
TORSDOF 12
ENDMDL
