MODEL 1
REMARK VINA RESULT: -8.883292989      0.000      0.000
REMARK  10 active torsions:
REMARK  status: ('A' for Active; 'I' for Inactive)
REMARK    1  A    between atoms: O1_2  and  C2_3 
REMARK    2  A    between atoms: C4_5  and  C5_6 
REMARK    3  A    between atoms: C5_6  and  O2_7 
REMARK    4  A    between atoms: C13_19  and  C15_21 
REMARK    5  A    between atoms: C15_21  and  C16_22 
REMARK    6  A    between atoms: C17_23  and  C19_25 
REMARK    7  A    between atoms: C19_25  and  C20_26 
REMARK    8  A    between atoms: C20_26  and  C21_27 
REMARK    9  A    between atoms: C25_31  and  O6_33 
REMARK   10  A    between atoms: C28_37  and  O8_38 
ROOT
HETATM    1  C2  UNL     1      -6.307 113.662 271.412  1.00  0.00     0.115 C 
HETATM    2  C3  UNL     1      -6.303 114.282 272.788  1.00  0.00     0.052 C 
HETATM    3  C4  UNL     1      -7.237 112.465 271.374  1.00  0.00     0.189 C 
HETATM    4  O3  UNL     1      -6.813 111.453 272.264  1.00  0.00    -0.337 OA
HETATM    5  C6  UNL     1      -5.485 111.084 272.262  1.00  0.00     0.113 A 
HETATM    6  C7  UNL     1      -4.552 111.908 271.704  1.00  0.00     0.010 A 
HETATM    7  C8  UNL     1      -3.211 111.537 271.704  1.00  0.00     0.014 A 
HETATM    8  C9  UNL     1      -2.804 110.343 272.258  1.00  0.00     0.019 A 
HETATM    9  C10 UNL     1      -3.733 109.487 272.830  1.00  0.00     0.052 A 
HETATM   10  C11 UNL     1      -5.055 109.876 272.820  1.00  0.00     0.121 A 
HETATM   11  O4  UNL     1      -5.815 108.891 273.435  1.00  0.00    -0.300 OA
HETATM   12  C12 UNL     1      -5.031 107.817 273.833  1.00  0.00     0.272 A 
HETATM   13  O5  UNL     1      -5.450 106.556 273.435  1.00  0.00    -0.331 OA
HETATM   14  C13 UNL     1      -5.856 106.090 274.693  1.00  0.00     0.101 C 
HETATM   15  C14 UNL     1      -7.323 106.098 274.932  1.00  0.00     0.050 C 
HETATM   16  C25 UNL     1      -5.200 107.360 275.261  1.00  0.00     0.150 C 
HETATM   17  C26 UNL     1      -6.085 108.195 276.114  1.00  0.00     0.055 C 
HETATM   18  C27 UNL     1      -3.661 108.189 273.487  1.00  0.00     0.228 A 
HETATM   19  O7  UNL     1      -2.573 107.546 273.694  1.00  0.00    -0.286 OA
HETATM   20  C28 UNL     1      -4.924 113.186 271.100  1.00  0.00     0.191 C 
ENDROOT
BRANCH  16  21
HETATM   21  O6  UNL     1      -3.971 107.155 275.847  1.00  0.00    -0.381 OA
ATOM     22  H6  UNL     1      -4.050 107.174 276.794  1.00  0.00     0.211 HD
ENDBRANCH  16  21
BRANCH  14  23
HETATM   23  C15 UNL     1      -5.057 104.906 275.107  1.00  0.00     0.068 C 
BRANCH  23  24
HETATM   24  C16 UNL     1      -5.771 103.655 275.289  1.00  0.00    -0.021 C 
HETATM   25  C17 UNL     1      -5.380 102.428 275.380  1.00  0.00    -0.087 C 
HETATM   26  C18 UNL     1      -6.369 101.330 275.568  1.00  0.00     0.043 C 
BRANCH  25  27
HETATM   27  C19 UNL     1      -3.961 102.045 275.323  1.00  0.00     0.037 C 
BRANCH  27  28
HETATM   28  C20 UNL     1      -3.460 101.623 273.967  1.00  0.00     0.031 C 
BRANCH  28  29
HETATM   29  C21 UNL     1      -2.894 102.716 273.156  1.00  0.00    -0.024 C 
HETATM   30  C22 UNL     1      -3.594 103.266 272.198  1.00  0.00    -0.091 C 
HETATM   31  C23 UNL     1      -2.964 104.386 271.396  1.00  0.00     0.042 C 
HETATM   32  C24 UNL     1      -4.966 102.897 271.793  1.00  0.00     0.042 C 
ENDBRANCH  28  29
ENDBRANCH  27  28
ENDBRANCH  25  27
ENDBRANCH  23  24
ENDBRANCH  14  23
BRANCH   3  33
HETATM   33  C5  UNL     1      -8.677 112.853 271.598  1.00  0.00     0.199 C 
BRANCH  33  34
HETATM   34  O2  UNL     1      -9.263 113.147 270.369  1.00  0.00    -0.398 OA
ATOM     35  H2  UNL     1      -9.407 114.085 270.313  1.00  0.00     0.209 HD
ENDBRANCH  33  34
ENDBRANCH   3  33
BRANCH  20  36
HETATM   36  O8  UNL     1      -4.722 113.046 269.709  1.00  0.00    -0.388 OA
ATOM     37  H8  UNL     1      -4.346 113.830 269.329  1.00  0.00     0.210 HD
ENDBRANCH  20  36
BRANCH   1  38
HETATM   38  O1  UNL     1      -6.711 114.535 270.421  1.00  0.00    -0.380 OA
HETATM   39  C1  UNL     1      -6.627 115.863 270.752  1.00  0.00     0.202 C 
ENDBRANCH   1  38
TORSDOF 10
ENDMDL
MODEL 2
REMARK VINA RESULT: -8.781653467      4.224      6.511
REMARK  10 active torsions:
REMARK  status: ('A' for Active; 'I' for Inactive)
REMARK    1  A    between atoms: O1_2  and  C2_3 
REMARK    2  A    between atoms: C4_5  and  C5_6 
REMARK    3  A    between atoms: C5_6  and  O2_7 
REMARK    4  A    between atoms: C13_19  and  C15_21 
REMARK    5  A    between atoms: C15_21  and  C16_22 
REMARK    6  A    between atoms: C17_23  and  C19_25 
REMARK    7  A    between atoms: C19_25  and  C20_26 
REMARK    8  A    between atoms: C20_26  and  C21_27 
REMARK    9  A    between atoms: C25_31  and  O6_33 
REMARK   10  A    between atoms: C28_37  and  O8_38 
ROOT
HETATM    1  C2  UNL     1     -11.403 111.504 277.901  1.00  0.00     0.115 C 
HETATM    2  C3  UNL     1     -12.112 111.483 276.568  1.00  0.00     0.052 C 
HETATM    3  C4  UNL     1      -9.914 111.712 277.704  1.00  0.00     0.189 C 
HETATM    4  O3  UNL     1      -9.338 110.654 276.966  1.00  0.00    -0.337 OA
HETATM    5  C6  UNL     1      -9.643 109.358 277.320  1.00  0.00     0.113 A 
HETATM    6  C7  UNL     1     -10.737 109.104 278.094  1.00  0.00     0.010 A 
HETATM    7  C8  UNL     1     -11.046 107.795 278.450  1.00  0.00     0.014 A 
HETATM    8  C9  UNL     1     -10.263 106.741 278.033  1.00  0.00     0.019 A 
HETATM    9  C10 UNL     1      -9.145 106.972 277.244  1.00  0.00     0.052 A 
HETATM   10  C11 UNL     1      -8.859 108.277 276.904  1.00  0.00     0.121 A 
HETATM   11  O4  UNL     1      -7.714 108.292 276.120  1.00  0.00    -0.300 OA
HETATM   12  C12 UNL     1      -7.195 107.016 275.951  1.00  0.00     0.272 A 
HETATM   13  O5  UNL     1      -5.848 106.847 276.237  1.00  0.00    -0.331 OA
HETATM   14  C13 UNL     1      -5.401 106.667 274.920  1.00  0.00     0.101 C 
HETATM   15  C14 UNL     1      -4.743 107.850 274.304  1.00  0.00     0.050 C 
HETATM   16  C25 UNL     1      -6.887 106.603 274.533  1.00  0.00     0.150 C 
HETATM   17  C26 UNL     1      -7.301 107.556 273.470  1.00  0.00     0.055 C 
HETATM   18  C27 UNL     1      -8.125 106.126 276.641  1.00  0.00     0.228 A 
HETATM   19  O7  UNL     1      -8.103 104.849 276.732  1.00  0.00    -0.286 OA
HETATM   20  C28 UNL     1     -11.603 110.182 278.568  1.00  0.00     0.191 C 
ENDROOT
BRANCH  16  21
HETATM   21  O6  UNL     1      -7.360 105.332 274.291  1.00  0.00    -0.381 OA
ATOM     22  H6  UNL     1      -8.129 105.366 273.734  1.00  0.00     0.211 HD
ENDBRANCH  16  21
BRANCH  14  23
HETATM   23  C15 UNL     1      -4.795 105.322 274.740  1.00  0.00     0.068 C 
BRANCH  23  24
HETATM   24  C16 UNL     1      -3.882 105.149 273.624  1.00  0.00    -0.021 C 
HETATM   25  C17 UNL     1      -3.998 104.564 272.480  1.00  0.00    -0.087 C 
HETATM   26  C18 UNL     1      -2.861 104.550 271.517  1.00  0.00     0.043 C 
BRANCH  25  27
HETATM   27  C19 UNL     1      -5.241 103.904 272.053  1.00  0.00     0.037 C 
BRANCH  27  28
HETATM   28  C20 UNL     1      -5.282 102.412 272.255  1.00  0.00     0.031 C 
BRANCH  28  29
HETATM   29  C21 UNL     1      -5.952 101.980 273.495  1.00  0.00    -0.024 C 
HETATM   30  C22 UNL     1      -5.253 101.583 274.527  1.00  0.00    -0.091 C 
HETATM   31  C23 UNL     1      -5.992 101.151 275.776  1.00  0.00     0.042 C 
HETATM   32  C24 UNL     1      -3.780 101.496 274.605  1.00  0.00     0.042 C 
ENDBRANCH  28  29
ENDBRANCH  27  28
ENDBRANCH  25  27
ENDBRANCH  23  24
ENDBRANCH  14  23
BRANCH   3  33
HETATM   33  C5  UNL     1      -9.598 113.060 277.107  1.00  0.00     0.199 C 
BRANCH  33  34
HETATM   34  O2  UNL     1      -9.408 113.978 278.137  1.00  0.00    -0.398 OA
ATOM     35  H2  UNL     1     -10.128 114.598 278.135  1.00  0.00     0.209 HD
ENDBRANCH  33  34
ENDBRANCH   3  33
BRANCH  20  36
HETATM   36  O8  UNL     1     -11.409 110.268 279.965  1.00  0.00    -0.388 OA
ATOM     37  H8  UNL     1     -10.948 109.509 280.302  1.00  0.00     0.210 HD
ENDBRANCH  20  36
BRANCH   1  38
HETATM   38  O1  UNL     1     -11.854 112.501 278.743  1.00  0.00    -0.380 OA
HETATM   39  C1  UNL     1     -13.096 112.996 278.438  1.00  0.00     0.202 C 
ENDBRANCH   1  38
TORSDOF 10
ENDMDL
MODEL 3
REMARK VINA RESULT: -8.769449136      2.839      4.739
REMARK  10 active torsions:
REMARK  status: ('A' for Active; 'I' for Inactive)
REMARK    1  A    between atoms: O1_2  and  C2_3 
REMARK    2  A    between atoms: C4_5  and  C5_6 
REMARK    3  A    between atoms: C5_6  and  O2_7 
REMARK    4  A    between atoms: C13_19  and  C15_21 
REMARK    5  A    between atoms: C15_21  and  C16_22 
REMARK    6  A    between atoms: C17_23  and  C19_25 
REMARK    7  A    between atoms: C19_25  and  C20_26 
REMARK    8  A    between atoms: C20_26  and  C21_27 
REMARK    9  A    between atoms: C25_31  and  O6_33 
REMARK   10  A    between atoms: C28_37  and  O8_38 
ROOT
HETATM    1  C2  UNL     1      -8.412 113.257 275.762  1.00  0.00     0.115 C 
HETATM    2  C3  UNL     1      -9.151 113.229 274.446  1.00  0.00     0.052 C 
HETATM    3  C4  UNL     1      -6.948 112.921 275.553  1.00  0.00     0.189 C 
HETATM    4  O3  UNL     1      -6.786 111.616 275.036  1.00  0.00    -0.337 OA
HETATM    5  C6  UNL     1      -7.484 110.581 275.621  1.00  0.00     0.113 A 
HETATM    6  C7  UNL     1      -8.561 110.850 276.412  1.00  0.00     0.010 A 
HETATM    7  C8  UNL     1      -9.266 109.805 277.002  1.00  0.00     0.014 A 
HETATM    8  C9  UNL     1      -8.892 108.494 276.802  1.00  0.00     0.019 A 
HETATM    9  C10 UNL     1      -7.800 108.194 276.002  1.00  0.00     0.052 A 
HETATM   10  C11 UNL     1      -7.118 109.245 275.428  1.00  0.00     0.121 A 
HETATM   11  O4  UNL     1      -6.069 108.738 274.674  1.00  0.00    -0.300 OA
HETATM   12  C12 UNL     1      -6.006 107.354 274.755  1.00  0.00     0.272 A 
HETATM   13  O5  UNL     1      -4.777 106.803 275.089  1.00  0.00    -0.331 OA
HETATM   14  C13 UNL     1      -4.476 106.249 273.836  1.00  0.00     0.101 C 
HETATM   15  C14 UNL     1      -3.497 107.014 273.020  1.00  0.00     0.050 C 
HETATM   16  C25 UNL     1      -5.919 106.611 273.444  1.00  0.00     0.150 C 
HETATM   17  C26 UNL     1      -6.047 107.437 272.215  1.00  0.00     0.055 C 
HETATM   18  C27 UNL     1      -7.143 106.963 275.584  1.00  0.00     0.228 A 
HETATM   19  O7  UNL     1      -7.537 105.790 275.914  1.00  0.00    -0.286 OA
HETATM   20  C28 UNL     1      -9.003 112.221 276.662  1.00  0.00     0.191 C 
ENDROOT
BRANCH  16  21
HETATM   21  O6  UNL     1      -6.793 105.547 273.437  1.00  0.00    -0.381 OA
ATOM     22  H6  UNL     1      -6.394 104.790 273.850  1.00  0.00     0.211 HD
ENDBRANCH  16  21
BRANCH  14  23
HETATM   23  C15 UNL     1      -4.355 104.770 273.921  1.00  0.00     0.068 C 
BRANCH  23  24
HETATM   24  C16 UNL     1      -3.597 104.105 272.876  1.00  0.00    -0.021 C 
HETATM   25  C17 UNL     1      -2.842 103.059 272.871  1.00  0.00    -0.087 C 
HETATM   26  C18 UNL     1      -2.181 102.607 271.615  1.00  0.00     0.043 C 
BRANCH  25  27
HETATM   27  C19 UNL     1      -2.606 102.250 274.077  1.00  0.00     0.037 C 
BRANCH  27  28
HETATM   28  C20 UNL     1      -3.602 101.147 274.320  1.00  0.00     0.031 C 
BRANCH  28  29
HETATM   29  C21 UNL     1      -4.608 101.447 275.355  1.00  0.00    -0.024 C 
HETATM   30  C22 UNL     1      -5.841 101.730 275.024  1.00  0.00    -0.091 C 
HETATM   31  C23 UNL     1      -6.833 102.028 276.129  1.00  0.00     0.042 C 
HETATM   32  C24 UNL     1      -6.384 101.805 273.653  1.00  0.00     0.042 C 
ENDBRANCH  28  29
ENDBRANCH  27  28
ENDBRANCH  25  27
ENDBRANCH  23  24
ENDBRANCH  14  23
BRANCH   3  33
HETATM   33  C5  UNL     1      -6.236 113.956 274.719  1.00  0.00     0.199 C 
BRANCH  33  34
HETATM   34  O2  UNL     1      -5.512 114.797 275.562  1.00  0.00    -0.398 OA
ATOM     35  H2  UNL     1      -5.186 115.533 275.057  1.00  0.00     0.209 HD
ENDBRANCH  33  34
ENDBRANCH   3  33
BRANCH  20  36
HETATM   36  O8  UNL     1      -8.725 112.490 278.021  1.00  0.00    -0.388 OA
ATOM     37  H8  UNL     1      -8.614 113.419 278.178  1.00  0.00     0.210 HD
ENDBRANCH  20  36
BRANCH   1  38
HETATM   38  O1  UNL     1      -8.471 114.483 276.395  1.00  0.00    -0.380 OA
HETATM   39  C1  UNL     1      -9.496 115.295 275.985  1.00  0.00     0.202 C 
ENDBRANCH   1  38
TORSDOF 10
ENDMDL
MODEL 4
REMARK VINA RESULT: -8.756931910      2.323      4.381
REMARK  10 active torsions:
REMARK  status: ('A' for Active; 'I' for Inactive)
REMARK    1  A    between atoms: O1_2  and  C2_3 
REMARK    2  A    between atoms: C4_5  and  C5_6 
REMARK    3  A    between atoms: C5_6  and  O2_7 
REMARK    4  A    between atoms: C13_19  and  C15_21 
REMARK    5  A    between atoms: C15_21  and  C16_22 
REMARK    6  A    between atoms: C17_23  and  C19_25 
REMARK    7  A    between atoms: C19_25  and  C20_26 
REMARK    8  A    between atoms: C20_26  and  C21_27 
REMARK    9  A    between atoms: C25_31  and  O6_33 
REMARK   10  A    between atoms: C28_37  and  O8_38 
ROOT
HETATM    1  C2  UNL     1      -1.062 111.939 269.551  1.00  0.00     0.115 C 
HETATM    2  C3  UNL     1      -1.231 111.036 268.353  1.00  0.00     0.052 C 
HETATM    3  C4  UNL     1      -0.703 111.126 270.779  1.00  0.00     0.189 C 
HETATM    4  O3  UNL     1      -1.728 110.214 271.113  1.00  0.00    -0.337 OA
HETATM    5  C6  UNL     1      -3.031 110.664 271.145  1.00  0.00     0.113 A 
HETATM    6  C7  UNL     1      -3.361 111.831 270.522  1.00  0.00     0.010 A 
HETATM    7  C8  UNL     1      -4.676 112.285 270.553  1.00  0.00     0.014 A 
HETATM    8  C9  UNL     1      -5.658 111.574 271.208  1.00  0.00     0.019 A 
HETATM    9  C10 UNL     1      -5.348 110.385 271.850  1.00  0.00     0.052 A 
HETATM   10  C11 UNL     1      -4.039 109.955 271.804  1.00  0.00     0.121 A 
HETATM   11  O4  UNL     1      -3.939 108.758 272.500  1.00  0.00    -0.300 OA
HETATM   12  C12 UNL     1      -5.158 108.384 273.049  1.00  0.00     0.272 A 
HETATM   13  O5  UNL     1      -5.164 108.068 274.400  1.00  0.00    -0.331 OA
HETATM   14  C13 UNL     1      -5.362 106.687 274.266  1.00  0.00     0.101 C 
HETATM   15  C14 UNL     1      -4.147 105.849 274.453  1.00  0.00     0.050 C 
HETATM   16  C25 UNL     1      -5.608 106.970 272.775  1.00  0.00     0.150 C 
HETATM   17  C26 UNL     1      -4.763 106.184 271.838  1.00  0.00     0.055 C 
HETATM   18  C27 UNL     1      -6.107 109.405 272.613  1.00  0.00     0.228 A 
HETATM   19  O7  UNL     1      -7.368 109.478 272.826  1.00  0.00    -0.286 OA
HETATM   20  C28 UNL     1      -2.362 112.629 269.813  1.00  0.00     0.191 C 
ENDROOT
BRANCH  16  21
HETATM   21  O6  UNL     1      -6.934 106.953 272.403  1.00  0.00    -0.381 OA
ATOM     22  H6  UNL     1      -7.452 106.485 273.047  1.00  0.00     0.211 HD
ENDBRANCH  16  21
BRANCH  14  23
HETATM   23  C15 UNL     1      -6.640 106.267 274.897  1.00  0.00     0.068 C 
BRANCH  23  24
HETATM   24  C16 UNL     1      -6.653 104.986 275.582  1.00  0.00    -0.021 C 
HETATM   25  C17 UNL     1      -6.799 103.772 275.168  1.00  0.00    -0.087 C 
HETATM   26  C18 UNL     1      -6.765 102.635 276.129  1.00  0.00     0.043 C 
BRANCH  25  27
HETATM   27  C19 UNL     1      -6.984 103.439 273.746  1.00  0.00     0.037 C 
BRANCH  27  28
HETATM   28  C20 UNL     1      -6.141 102.301 273.236  1.00  0.00     0.031 C 
BRANCH  28  29
HETATM   29  C21 UNL     1      -4.948 102.715 272.475  1.00  0.00    -0.024 C 
HETATM   30  C22 UNL     1      -3.748 102.465 272.929  1.00  0.00    -0.091 C 
HETATM   31  C23 UNL     1      -2.557 102.911 272.106  1.00  0.00     0.042 C 
HETATM   32  C24 UNL     1      -3.416 101.785 274.198  1.00  0.00     0.042 C 
ENDBRANCH  28  29
ENDBRANCH  27  28
ENDBRANCH  25  27
ENDBRANCH  23  24
ENDBRANCH  14  23
BRANCH   3  33
HETATM   33  C5  UNL     1       0.639 110.451 270.646  1.00  0.00     0.199 C 
BRANCH  33  34
HETATM   34  O2  UNL     1       0.865 109.669 271.777  1.00  0.00    -0.398 OA
ATOM     35  H2  UNL     1       0.769 110.211 272.551  1.00  0.00     0.209 HD
ENDBRANCH  33  34
ENDBRANCH   3  33
BRANCH  20  36
HETATM   36  O8  UNL     1      -2.183 113.809 270.568  1.00  0.00    -0.388 OA
ATOM     37  H8  UNL     1      -1.519 113.700 271.238  1.00  0.00     0.210 HD
ENDBRANCH  20  36
BRANCH   1  38
HETATM   38  O1  UNL     1      -0.078 112.893 269.381  1.00  0.00    -0.380 OA
HETATM   39  C1  UNL     1       0.257 113.150 268.076  1.00  0.00     0.202 C 
ENDBRANCH   1  38
TORSDOF 10
ENDMDL
MODEL 5
REMARK VINA RESULT: -8.688739654      3.124      4.709
REMARK  10 active torsions:
REMARK  status: ('A' for Active; 'I' for Inactive)
REMARK    1  A    between atoms: O1_2  and  C2_3 
REMARK    2  A    between atoms: C4_5  and  C5_6 
REMARK    3  A    between atoms: C5_6  and  O2_7 
REMARK    4  A    between atoms: C13_19  and  C15_21 
REMARK    5  A    between atoms: C15_21  and  C16_22 
REMARK    6  A    between atoms: C17_23  and  C19_25 
REMARK    7  A    between atoms: C19_25  and  C20_26 
REMARK    8  A    between atoms: C20_26  and  C21_27 
REMARK    9  A    between atoms: C25_31  and  O6_33 
REMARK   10  A    between atoms: C28_37  and  O8_38 
ROOT
HETATM    1  C2  UNL     1      -0.314 112.384 268.827  1.00  0.00     0.115 C 
HETATM    2  C3  UNL     1      -1.607 112.822 268.181  1.00  0.00     0.052 C 
HETATM    3  C4  UNL     1      -0.236 110.871 268.880  1.00  0.00     0.189 C 
HETATM    4  O3  UNL     1      -1.276 110.327 269.667  1.00  0.00    -0.337 OA
HETATM    5  C6  UNL     1      -1.530 110.882 270.902  1.00  0.00     0.113 A 
HETATM    6  C7  UNL     1      -1.060 112.128 271.197  1.00  0.00     0.010 A 
HETATM    7  C8  UNL     1      -1.318 112.689 272.444  1.00  0.00     0.014 A 
HETATM    8  C9  UNL     1      -2.043 112.005 273.395  1.00  0.00     0.019 A 
HETATM    9  C10 UNL     1      -2.531 110.736 273.120  1.00  0.00     0.052 A 
HETATM   10  C11 UNL     1      -2.264 110.202 271.879  1.00  0.00     0.121 A 
HETATM   11  O4  UNL     1      -2.835 108.938 271.805  1.00  0.00    -0.300 OA
HETATM   12  C12 UNL     1      -3.458 108.591 272.996  1.00  0.00     0.272 A 
HETATM   13  O5  UNL     1      -3.117 107.362 273.543  1.00  0.00    -0.331 OA
HETATM   14  C13 UNL     1      -4.329 106.704 273.291  1.00  0.00     0.101 C 
HETATM   15  C14 UNL     1      -4.319 105.774 272.131  1.00  0.00     0.050 C 
HETATM   16  C25 UNL     1      -4.875 108.083 272.884  1.00  0.00     0.150 C 
HETATM   17  C26 UNL     1      -5.486 108.142 271.530  1.00  0.00     0.055 C 
HETATM   18  C27 UNL     1      -3.311 109.756 273.863  1.00  0.00     0.228 A 
HETATM   19  O7  UNL     1      -3.756 109.940 275.050  1.00  0.00    -0.286 OA
HETATM   20  C28 UNL     1      -0.284 112.901 270.229  1.00  0.00     0.191 C 
ENDROOT
BRANCH  16  21
HETATM   21  O6  UNL     1      -5.674 108.683 273.831  1.00  0.00    -0.381 OA
ATOM     22  H6  UNL     1      -6.580 108.421 273.712  1.00  0.00     0.211 HD
ENDBRANCH  16  21
BRANCH  14  23
HETATM   23  C15 UNL     1      -4.981 106.281 274.558  1.00  0.00     0.068 C 
BRANCH  23  24
HETATM   24  C16 UNL     1      -6.061 105.315 274.457  1.00  0.00    -0.021 C 
HETATM   25  C17 UNL     1      -6.119 104.041 274.651  1.00  0.00    -0.087 C 
HETATM   26  C18 UNL     1      -7.399 103.303 274.466  1.00  0.00     0.043 C 
BRANCH  25  27
HETATM   27  C19 UNL     1      -4.951 103.253 275.077  1.00  0.00     0.037 C 
BRANCH  27  28
HETATM   28  C20 UNL     1      -4.845 101.878 274.473  1.00  0.00     0.031 C 
BRANCH  28  29
HETATM   29  C21 UNL     1      -3.513 101.258 274.591  1.00  0.00    -0.024 C 
HETATM   30  C22 UNL     1      -2.563 101.555 273.743  1.00  0.00    -0.091 C 
HETATM   31  C23 UNL     1      -1.213 100.889 273.912  1.00  0.00     0.042 C 
HETATM   32  C24 UNL     1      -2.668 102.485 272.600  1.00  0.00     0.042 C 
ENDBRANCH  28  29
ENDBRANCH  27  28
ENDBRANCH  25  27
ENDBRANCH  23  24
ENDBRANCH  14  23
BRANCH   3  33
HETATM   33  C5  UNL     1      -0.179 110.252 267.506  1.00  0.00     0.199 C 
BRANCH  33  34
HETATM   34  O2  UNL     1       1.094 110.446 266.974  1.00  0.00    -0.398 OA
ATOM     35  H2  UNL     1       1.109 110.118 266.083  1.00  0.00     0.209 HD
ENDBRANCH  33  34
ENDBRANCH   3  33
BRANCH  20  36
HETATM   36  O8  UNL     1       1.035 112.965 270.733  1.00  0.00    -0.388 OA
ATOM     37  H8  UNL     1       1.151 113.704 271.318  1.00  0.00     0.210 HD
ENDBRANCH  20  36
BRANCH   1  38
HETATM   38  O1  UNL     1       0.809 112.836 268.161  1.00  0.00    -0.380 OA
HETATM   39  C1  UNL     1       0.824 114.182 267.903  1.00  0.00     0.202 C 
ENDBRANCH   1  38
TORSDOF 10
ENDMDL
