MODEL 1
REMARK VINA RESULT: -8.123928226      0.000      0.000
REMARK  10 active torsions:
REMARK  status: ('A' for Active; 'I' for Inactive)
REMARK    1  A    between atoms: C2_2  and  C5_5 
REMARK    2  A    between atoms: C5_5  and  C6_6 
REMARK    3  A    between atoms: C6_6  and  N1_7 
REMARK    4  A    between atoms: C7_12  and  C8_13 
REMARK    5  A    between atoms: C8_13  and  C9_14 
REMARK    6  A    between atoms: C9_14  and  C10_15 
REMARK    7  A    between atoms: C18_28  and  C19_29 
REMARK    8  A    between atoms: C19_29  and  O2_30 
REMARK    9  A    between atoms: C23_35  and  C24_36 
REMARK   10  A    between atoms: C24_36  and  C25_37 
ROOT
HETATM    1  C10 UNL     1      -5.282 108.722 273.943  1.00  0.00     0.047 C 
HETATM    2  N4  UNL     1      -4.183 109.136 274.792  1.00  0.00    -0.333 N 
ATOM      3  H4  UNL     1      -3.835 108.476 275.488  1.00  0.00     0.165 HD
HETATM    4  C11 UNL     1      -3.557 110.428 274.706  1.00  0.00     0.317 C 
HETATM    5  O1  UNL     1      -2.345 110.645 274.769  1.00  0.00    -0.247 OA
HETATM    6  N5  UNL     1      -4.563 111.475 274.530  1.00  0.00    -0.335 N 
ATOM      7  H5  UNL     1      -4.359 112.460 274.361  1.00  0.00     0.165 HD
HETATM    8  C12 UNL     1      -5.888 110.909 274.630  1.00  0.00     0.115 C 
HETATM    9  C13 UNL     1      -6.985 111.785 274.901  1.00  0.00    -0.005 C 
HETATM   10  C14 UNL     1      -7.960 111.399 275.751  1.00  0.00    -0.023 C 
HETATM   11  C15 UNL     1      -7.931 110.112 276.410  1.00  0.00     0.021 A 
HETATM   12  C16 UNL     1      -8.107 108.989 275.501  1.00  0.00     0.003 A 
HETATM   13  C17 UNL     1      -7.030 107.934 275.653  1.00  0.00     0.015 C 
HETATM   14  C18 UNL     1      -6.180 107.701 274.478  1.00  0.00     0.038 C 
HETATM   15  C20 UNL     1      -9.064 109.216 276.638  1.00  0.00    -0.036 A 
HETATM   16  C21 UNL     1     -10.429 109.809 276.393  1.00  0.00     0.016 C 
HETATM   17  C22 UNL     1      -9.021 108.195 277.730  1.00  0.00     0.016 C 
HETATM   18  C23 UNL     1      -5.997 109.972 273.415  1.00  0.00     0.051 C 
ENDROOT
BRANCH   1  19
HETATM   19  C9  UNL     1      -4.556 108.126 272.725  1.00  0.00     0.040 C 
BRANCH  19  20
HETATM   20  C8  UNL     1      -3.390 107.246 273.137  1.00  0.00     0.082 C 
BRANCH  20  21
HETATM   21  C7  UNL     1      -3.647 105.927 272.484  1.00  0.00     0.113 A 
HETATM   22  N3  UNL     1      -3.256 105.510 271.271  1.00  0.00    -0.272 N 
HETATM   23  N2  UNL     1      -3.676 104.294 271.063  1.00  0.00    -0.225 N 
ATOM     24  H3  UNL     1      -2.711 106.062 270.610  1.00  0.00     0.190 HD
HETATM   25  N1  UNL     1      -4.349 103.895 272.136  1.00  0.00    -0.218 N 
ATOM     26  H2  UNL     1      -3.515 103.743 270.220  1.00  0.00     0.210 HD
HETATM   27  N6  UNL     1      -4.325 104.900 272.994  1.00  0.00    -0.270 N 
ATOM     28  H6  UNL     1      -4.762 104.891 273.916  1.00  0.00     0.190 HD
BRANCH  25  29
HETATM   29  C6  UNL     1      -5.015 102.615 272.267  1.00  0.00     0.171 C 
BRANCH  29  30
HETATM   30  C5  UNL     1      -5.678 102.348 273.547  1.00  0.00     0.032 C 
BRANCH  30  31
HETATM   31  C2  UNL     1      -4.912 101.864 274.715  1.00  0.00    -0.050 C 
HETATM   32  C1  UNL     1      -4.820 103.079 275.679  1.00  0.00     0.014 C 
HETATM   33  C3  UNL     1      -3.542 101.392 274.359  1.00  0.00     0.014 C 
HETATM   34  C4  UNL     1      -5.609 100.789 275.528  1.00  0.00     0.014 C 
ENDBRANCH  30  31
ENDBRANCH  29  30
ENDBRANCH  25  29
ENDBRANCH  20  21
ENDBRANCH  19  20
ENDBRANCH   1  19
BRANCH  14  35
HETATM   35  C19 UNL     1      -7.059 107.103 273.395  1.00  0.00     0.171 C 
BRANCH  35  36
HETATM   36  O2  UNL     1      -7.092 105.712 273.673  1.00  0.00    -0.400 OA
ATOM     37  H2  UNL     1      -7.662 105.341 273.009  1.00  0.00     0.209 HD
ENDBRANCH  35  36
ENDBRANCH  14  35
BRANCH  18  38
HETATM   38  C24 UNL     1      -5.352 110.504 272.189  1.00  0.00     0.122 C 
BRANCH  38  39
HETATM   39  C25 UNL     1      -6.309 110.675 271.082  1.00  0.00     0.173 C 
HETATM   40  O3  UNL     1      -7.169 111.567 271.016  1.00  0.00    -0.648 OA
HETATM   41  O4  UNL     1      -6.299 109.785 269.978  1.00  0.00    -0.648 OA
ENDBRANCH  38  39
ENDBRANCH  18  38
TORSDOF 10
ENDMDL
MODEL 2
REMARK VINA RESULT: -7.806139600      3.150      5.817
REMARK  10 active torsions:
REMARK  status: ('A' for Active; 'I' for Inactive)
REMARK    1  A    between atoms: C2_2  and  C5_5 
REMARK    2  A    between atoms: C5_5  and  C6_6 
REMARK    3  A    between atoms: C6_6  and  N1_7 
REMARK    4  A    between atoms: C7_12  and  C8_13 
REMARK    5  A    between atoms: C8_13  and  C9_14 
REMARK    6  A    between atoms: C9_14  and  C10_15 
REMARK    7  A    between atoms: C18_28  and  C19_29 
REMARK    8  A    between atoms: C19_29  and  O2_30 
REMARK    9  A    between atoms: C23_35  and  C24_36 
REMARK   10  A    between atoms: C24_36  and  C25_37 
ROOT
HETATM    1  C10 UNL     1      -3.470 110.337 271.584  1.00  0.00     0.047 C 
HETATM    2  N4  UNL     1      -4.315 109.934 270.477  1.00  0.00    -0.333 N 
ATOM      3  H4  UNL     1      -3.877 109.482 269.674  1.00  0.00     0.165 HD
HETATM    4  C11 UNL     1      -5.739 110.138 270.451  1.00  0.00     0.317 C 
HETATM    5  O1  UNL     1      -6.574 109.324 270.052  1.00  0.00    -0.247 OA
HETATM    6  N5  UNL     1      -6.077 111.463 270.970  1.00  0.00    -0.335 N 
ATOM      7  H5  UNL     1      -7.025 111.805 271.128  1.00  0.00     0.165 HD
HETATM    8  C12 UNL     1      -4.872 112.216 271.226  1.00  0.00     0.115 C 
HETATM    9  C13 UNL     1      -4.966 113.639 271.334  1.00  0.00    -0.005 C 
HETATM   10  C14 UNL     1      -4.013 114.420 270.783  1.00  0.00    -0.023 C 
HETATM   11  C15 UNL     1      -2.885 113.859 270.073  1.00  0.00     0.021 A 
HETATM   12  C16 UNL     1      -1.965 113.126 270.928  1.00  0.00     0.003 A 
HETATM   13  C17 UNL     1      -1.661 111.735 270.411  1.00  0.00     0.015 C 
HETATM   14  C18 UNL     1      -2.070 110.620 271.275  1.00  0.00     0.038 C 
HETATM   15  C20 UNL     1      -1.497 114.313 270.132  1.00  0.00    -0.036 A 
HETATM   16  C21 UNL     1      -1.270 115.649 270.795  1.00  0.00     0.016 C 
HETATM   17  C22 UNL     1      -0.545 114.007 269.019  1.00  0.00     0.016 C 
HETATM   18  C23 UNL     1      -4.177 111.451 272.366  1.00  0.00     0.051 C 
ENDROOT
BRANCH   1  19
HETATM   19  C9  UNL     1      -3.516 109.105 272.504  1.00  0.00     0.040 C 
BRANCH  19  20
HETATM   20  C8  UNL     1      -3.675 107.817 271.716  1.00  0.00     0.082 C 
BRANCH  20  21
HETATM   21  C7  UNL     1      -4.695 107.025 272.467  1.00  0.00     0.113 A 
HETATM   22  N3  UNL     1      -6.030 107.146 272.435  1.00  0.00    -0.272 N 
HETATM   23  N2  UNL     1      -6.574 106.269 273.231  1.00  0.00    -0.225 N 
ATOM     24  H3  UNL     1      -6.544 107.823 271.872  1.00  0.00     0.190 HD
HETATM   25  N1  UNL     1      -5.605 105.559 273.797  1.00  0.00    -0.218 N 
ATOM     26  H2  UNL     1      -7.575 106.148 273.391  1.00  0.00     0.210 HD
HETATM   27  N6  UNL     1      -4.465 106.031 273.323  1.00  0.00    -0.270 N 
ATOM     28  H6  UNL     1      -3.540 105.683 273.577  1.00  0.00     0.190 HD
BRANCH  25  29
HETATM   29  C6  UNL     1      -5.809 104.518 274.783  1.00  0.00     0.171 C 
BRANCH  29  30
HETATM   30  C5  UNL     1      -4.722 103.547 274.947  1.00  0.00     0.032 C 
BRANCH  30  31
HETATM   31  C2  UNL     1      -4.874 102.150 274.489  1.00  0.00    -0.050 C 
HETATM   32  C1  UNL     1      -3.432 101.657 274.187  1.00  0.00     0.014 C 
HETATM   33  C3  UNL     1      -5.721 102.026 273.267  1.00  0.00     0.014 C 
HETATM   34  C4  UNL     1      -5.388 101.191 275.545  1.00  0.00     0.014 C 
ENDBRANCH  30  31
ENDBRANCH  29  30
ENDBRANCH  25  29
ENDBRANCH  20  21
ENDBRANCH  19  20
ENDBRANCH   1  19
BRANCH  14  35
HETATM   35  C19 UNL     1      -1.221 110.684 272.531  1.00  0.00     0.171 C 
BRANCH  35  36
HETATM   36  O2  UNL     1      -0.020 110.003 272.199  1.00  0.00    -0.400 OA
ATOM     37  H2  UNL     1       0.498 110.015 272.995  1.00  0.00     0.209 HD
ENDBRANCH  35  36
ENDBRANCH  14  35
BRANCH  18  38
HETATM   38  C24 UNL     1      -5.115 110.908 273.381  1.00  0.00     0.122 C 
BRANCH  38  39
HETATM   39  C25 UNL     1      -5.062 111.657 274.648  1.00  0.00     0.173 C 
HETATM   40  O3  UNL     1      -5.155 112.891 274.750  1.00  0.00    -0.648 OA
HETATM   41  O4  UNL     1      -4.893 110.976 275.880  1.00  0.00    -0.648 OA
ENDBRANCH  38  39
ENDBRANCH  18  38
TORSDOF 10
ENDMDL
MODEL 3
REMARK VINA RESULT: -7.768368549      2.034      3.377
REMARK  10 active torsions:
REMARK  status: ('A' for Active; 'I' for Inactive)
REMARK    1  A    between atoms: C2_2  and  C5_5 
REMARK    2  A    between atoms: C5_5  and  C6_6 
REMARK    3  A    between atoms: C6_6  and  N1_7 
REMARK    4  A    between atoms: C7_12  and  C8_13 
REMARK    5  A    between atoms: C8_13  and  C9_14 
REMARK    6  A    between atoms: C9_14  and  C10_15 
REMARK    7  A    between atoms: C18_28  and  C19_29 
REMARK    8  A    between atoms: C19_29  and  O2_30 
REMARK    9  A    between atoms: C23_35  and  C24_36 
REMARK   10  A    between atoms: C24_36  and  C25_37 
ROOT
HETATM    1  C10 UNL     1      -5.240 109.258 272.950  1.00  0.00     0.047 C 
HETATM    2  N4  UNL     1      -5.690 108.312 273.951  1.00  0.00    -0.333 N 
ATOM      3  H4  UNL     1      -6.577 107.831 273.797  1.00  0.00     0.165 HD
HETATM    4  C11 UNL     1      -4.954 108.016 275.150  1.00  0.00     0.317 C 
HETATM    5  O1  UNL     1      -4.794 106.895 275.636  1.00  0.00    -0.247 OA
HETATM    6  N5  UNL     1      -4.407 109.241 275.733  1.00  0.00    -0.335 N 
ATOM      7  H5  UNL     1      -3.781 109.278 276.538  1.00  0.00     0.165 HD
HETATM    8  C12 UNL     1      -4.884 110.392 275.002  1.00  0.00     0.115 C 
HETATM    9  C13 UNL     1      -4.820 111.674 275.631  1.00  0.00    -0.005 C 
HETATM   10  C14 UNL     1      -5.840 112.547 275.486  1.00  0.00    -0.023 C 
HETATM   11  C15 UNL     1      -7.016 112.222 274.709  1.00  0.00     0.021 A 
HETATM   12  C16 UNL     1      -6.755 112.099 273.283  1.00  0.00     0.003 A 
HETATM   13  C17 UNL     1      -7.278 110.803 272.698  1.00  0.00     0.015 C 
HETATM   14  C18 UNL     1      -6.271 109.895 272.133  1.00  0.00     0.038 C 
HETATM   15  C20 UNL     1      -7.740 113.109 273.801  1.00  0.00    -0.036 A 
HETATM   16  C21 UNL     1      -7.378 114.571 273.884  1.00  0.00     0.016 C 
HETATM   17  C22 UNL     1      -9.173 112.846 273.458  1.00  0.00     0.016 C 
HETATM   18  C23 UNL     1      -4.261 110.242 273.603  1.00  0.00     0.051 C 
ENDROOT
BRANCH   1  19
HETATM   19  C9  UNL     1      -4.376 108.381 272.028  1.00  0.00     0.040 C 
BRANCH  19  20
HETATM   20  C8  UNL     1      -5.153 107.194 271.486  1.00  0.00     0.082 C 
BRANCH  20  21
HETATM   21  C7  UNL     1      -4.320 105.999 271.818  1.00  0.00     0.113 A 
HETATM   22  N3  UNL     1      -3.249 105.526 271.166  1.00  0.00    -0.272 N 
HETATM   23  N2  UNL     1      -2.796 104.463 271.770  1.00  0.00    -0.225 N 
ATOM     24  H3  UNL     1      -2.848 105.935 270.323  1.00  0.00     0.190 HD
HETATM   25  N1  UNL     1      -3.563 104.224 272.827  1.00  0.00    -0.218 N 
ATOM     26  H2  UNL     1      -1.989 103.910 271.479  1.00  0.00     0.210 HD
HETATM   27  N6  UNL     1      -4.488 105.167 272.844  1.00  0.00    -0.270 N 
ATOM     28  H6  UNL     1      -5.227 105.247 273.544  1.00  0.00     0.190 HD
BRANCH  25  29
HETATM   29  C6  UNL     1      -3.408 103.097 273.724  1.00  0.00     0.171 C 
BRANCH  29  30
HETATM   30  C5  UNL     1      -4.338 103.026 274.856  1.00  0.00     0.032 C 
BRANCH  30  31
HETATM   31  C2  UNL     1      -5.574 102.220 274.775  1.00  0.00    -0.050 C 
HETATM   32  C1  UNL     1      -6.689 103.114 275.383  1.00  0.00     0.014 C 
HETATM   33  C3  UNL     1      -5.483 100.936 275.530  1.00  0.00     0.014 C 
HETATM   34  C4  UNL     1      -6.050 101.930 273.365  1.00  0.00     0.014 C 
ENDBRANCH  30  31
ENDBRANCH  29  30
ENDBRANCH  25  29
ENDBRANCH  20  21
ENDBRANCH  19  20
ENDBRANCH   1  19
BRANCH  14  35
HETATM   35  C19 UNL     1      -5.679 110.577 270.913  1.00  0.00     0.171 C 
BRANCH  35  36
HETATM   36  O2  UNL     1      -6.280 109.931 269.802  1.00  0.00    -0.400 OA
ATOM     37  H2  UNL     1      -5.562 109.518 269.338  1.00  0.00     0.209 HD
ENDBRANCH  35  36
ENDBRANCH  14  35
BRANCH  18  38
HETATM   38  C24 UNL     1      -2.873 109.716 273.620  1.00  0.00     0.122 C 
BRANCH  38  39
HETATM   39  C25 UNL     1      -1.900 110.691 273.097  1.00  0.00     0.173 C 
HETATM   40  O3  UNL     1      -1.739 111.841 273.535  1.00  0.00    -0.648 OA
HETATM   41  O4  UNL     1      -1.053 110.351 272.012  1.00  0.00    -0.648 OA
ENDBRANCH  38  39
ENDBRANCH  18  38
TORSDOF 10
ENDMDL
MODEL 4
REMARK VINA RESULT: -7.730871878      3.615      6.803
REMARK  10 active torsions:
REMARK  status: ('A' for Active; 'I' for Inactive)
REMARK    1  A    between atoms: C2_2  and  C5_5 
REMARK    2  A    between atoms: C5_5  and  C6_6 
REMARK    3  A    between atoms: C6_6  and  N1_7 
REMARK    4  A    between atoms: C7_12  and  C8_13 
REMARK    5  A    between atoms: C8_13  and  C9_14 
REMARK    6  A    between atoms: C9_14  and  C10_15 
REMARK    7  A    between atoms: C18_28  and  C19_29 
REMARK    8  A    between atoms: C19_29  and  O2_30 
REMARK    9  A    between atoms: C23_35  and  C24_36 
REMARK   10  A    between atoms: C24_36  and  C25_37 
ROOT
HETATM    1  C10 UNL     1      -4.642 107.205 273.818  1.00  0.00     0.047 C 
HETATM    2  N4  UNL     1      -4.520 107.535 275.223  1.00  0.00    -0.333 N 
ATOM      3  H4  UNL     1      -3.633 107.343 275.690  1.00  0.00     0.165 HD
HETATM    4  C11 UNL     1      -5.583 108.119 275.996  1.00  0.00     0.317 C 
HETATM    5  O1  UNL     1      -5.457 109.026 276.821  1.00  0.00    -0.247 OA
HETATM    6  N5  UNL     1      -6.862 107.487 275.671  1.00  0.00    -0.335 N 
ATOM      7  H5  UNL     1      -7.770 107.786 276.027  1.00  0.00     0.165 HD
HETATM    8  C12 UNL     1      -6.649 106.377 274.771  1.00  0.00     0.115 C 
HETATM    9  C13 UNL     1      -7.673 105.386 274.657  1.00  0.00    -0.005 C 
HETATM   10  C14 UNL     1      -7.340 104.081 274.572  1.00  0.00    -0.023 C 
HETATM   11  C15 UNL     1      -5.962 103.643 274.597  1.00  0.00     0.021 A 
HETATM   12  C16 UNL     1      -5.203 104.042 273.421  1.00  0.00     0.003 A 
HETATM   13  C17 UNL     1      -3.906 104.744 273.767  1.00  0.00     0.015 C 
HETATM   14  C18 UNL     1      -3.782 106.135 273.315  1.00  0.00     0.038 C 
HETATM   15  C20 UNL     1      -5.360 102.590 273.781  1.00  0.00    -0.036 A 
HETATM   16  C21 UNL     1      -6.326 101.707 273.032  1.00  0.00     0.016 C 
HETATM   17  C22 UNL     1      -4.110 101.899 274.228  1.00  0.00     0.016 C 
HETATM   18  C23 UNL     1      -6.127 107.027 273.478  1.00  0.00     0.051 C 
ENDROOT
BRANCH   1  19
HETATM   19  C9  UNL     1      -4.224 108.515 273.130  1.00  0.00     0.040 C 
BRANCH  19  20
HETATM   20  C8  UNL     1      -2.983 109.117 273.766  1.00  0.00     0.082 C 
BRANCH  20  21
HETATM   21  C7  UNL     1      -2.333 109.909 272.680  1.00  0.00     0.113 A 
HETATM   22  N3  UNL     1      -2.901 110.779 271.832  1.00  0.00    -0.272 N 
HETATM   23  N2  UNL     1      -1.999 111.269 271.029  1.00  0.00    -0.225 N 
ATOM     24  H3  UNL     1      -3.891 111.021 271.817  1.00  0.00     0.190 HD
HETATM   25  N1  UNL     1      -0.826 110.728 271.337  1.00  0.00    -0.218 N 
ATOM     26  H2  UNL     1      -2.166 111.951 270.289  1.00  0.00     0.210 HD
HETATM   27  N6  UNL     1      -1.044 109.901 272.345  1.00  0.00    -0.270 N 
ATOM     28  H6  UNL     1      -0.327 109.337 272.802  1.00  0.00     0.190 HD
BRANCH  25  29
HETATM   29  C6  UNL     1       0.415 110.986 270.635  1.00  0.00     0.171 C 
BRANCH  29  30
HETATM   30  C5  UNL     1       0.982 109.868 269.873  1.00  0.00     0.032 C 
BRANCH  30  31
HETATM   31  C2  UNL     1       0.912 109.840 268.397  1.00  0.00    -0.050 C 
HETATM   32  C1  UNL     1       2.199 110.560 267.911  1.00  0.00     0.014 C 
HETATM   33  C3  UNL     1      -0.295 110.533 267.857  1.00  0.00     0.014 C 
HETATM   34  C4  UNL     1       1.000 108.455 267.786  1.00  0.00     0.014 C 
ENDBRANCH  30  31
ENDBRANCH  29  30
ENDBRANCH  25  29
ENDBRANCH  20  21
ENDBRANCH  19  20
ENDBRANCH   1  19
BRANCH  14  35
HETATM   35  C19 UNL     1      -3.738 106.117 271.798  1.00  0.00     0.171 C 
BRANCH  35  36
HETATM   36  O2  UNL     1      -2.848 105.062 271.468  1.00  0.00    -0.400 OA
ATOM     37  H2  UNL     1      -2.506 104.758 272.300  1.00  0.00     0.209 HD
ENDBRANCH  35  36
ENDBRANCH  14  35
BRANCH  18  38
HETATM   38  C24 UNL     1      -6.780 108.319 273.152  1.00  0.00     0.122 C 
BRANCH  38  39
HETATM   39  C25 UNL     1      -6.711 108.633 271.714  1.00  0.00     0.173 C 
HETATM   40  O3  UNL     1      -6.781 107.797 270.799  1.00  0.00    -0.648 OA
HETATM   41  O4  UNL     1      -6.553 109.972 271.276  1.00  0.00    -0.648 OA
ENDBRANCH  38  39
ENDBRANCH  18  38
TORSDOF 10
ENDMDL
MODEL 5
REMARK VINA RESULT: -7.722019101      3.760      6.810
REMARK  10 active torsions:
REMARK  status: ('A' for Active; 'I' for Inactive)
REMARK    1  A    between atoms: C2_2  and  C5_5 
REMARK    2  A    between atoms: C5_5  and  C6_6 
REMARK    3  A    between atoms: C6_6  and  N1_7 
REMARK    4  A    between atoms: C7_12  and  C8_13 
REMARK    5  A    between atoms: C8_13  and  C9_14 
REMARK    6  A    between atoms: C9_14  and  C10_15 
REMARK    7  A    between atoms: C18_28  and  C19_29 
REMARK    8  A    between atoms: C19_29  and  O2_30 
REMARK    9  A    between atoms: C23_35  and  C24_36 
REMARK   10  A    between atoms: C24_36  and  C25_37 
ROOT
HETATM    1  C10 UNL     1      -4.485 107.412 273.595  1.00  0.00     0.047 C 
HETATM    2  N4  UNL     1      -4.329 107.798 274.983  1.00  0.00    -0.333 N 
ATOM      3  H4  UNL     1      -3.435 107.612 275.439  1.00  0.00     0.165 HD
HETATM    4  C11 UNL     1      -5.367 108.430 275.752  1.00  0.00     0.317 C 
HETATM    5  O1  UNL     1      -5.211 109.368 276.536  1.00  0.00    -0.247 OA
HETATM    6  N5  UNL     1      -6.661 107.803 275.481  1.00  0.00    -0.335 N 
ATOM      7  H5  UNL     1      -7.556 108.130 275.843  1.00  0.00     0.165 HD
HETATM    8  C12 UNL     1      -6.483 106.654 274.624  1.00  0.00     0.115 C 
HETATM    9  C13 UNL     1      -7.523 105.674 274.573  1.00  0.00    -0.005 C 
HETATM   10  C14 UNL     1      -7.209 104.362 274.535  1.00  0.00    -0.023 C 
HETATM   11  C15 UNL     1      -5.837 103.905 274.550  1.00  0.00     0.021 A 
HETATM   12  C16 UNL     1      -5.099 104.243 273.343  1.00  0.00     0.003 A 
HETATM   13  C17 UNL     1      -3.784 104.940 273.632  1.00  0.00     0.015 C 
HETATM   14  C18 UNL     1      -3.651 106.310 273.120  1.00  0.00     0.038 C 
HETATM   15  C20 UNL     1      -5.268 102.811 273.767  1.00  0.00    -0.036 A 
HETATM   16  C21 UNL     1      -6.262 101.911 273.075  1.00  0.00     0.016 C 
HETATM   17  C22 UNL     1      -4.018 102.120 274.215  1.00  0.00     0.016 C 
HETATM   18  C23 UNL     1      -5.980 107.241 273.294  1.00  0.00     0.051 C 
ENDROOT
BRANCH   1  19
HETATM   19  C9  UNL     1      -4.064 108.686 272.845  1.00  0.00     0.040 C 
BRANCH  19  20
HETATM   20  C8  UNL     1      -3.013 109.471 273.610  1.00  0.00     0.082 C 
BRANCH  20  21
HETATM   21  C7  UNL     1      -2.074 109.984 272.567  1.00  0.00     0.113 A 
HETATM   22  N3  UNL     1      -0.932 110.664 272.739  1.00  0.00    -0.272 N 
HETATM   23  N2  UNL     1      -0.396 110.932 271.582  1.00  0.00    -0.225 N 
ATOM     24  H3  UNL     1      -0.541 110.933 273.641  1.00  0.00     0.190 HD
HETATM   25  N1  UNL     1      -1.178 110.431 270.633  1.00  0.00    -0.218 N 
ATOM     26  H2  UNL     1       0.476 111.439 271.431  1.00  0.00     0.210 HD
HETATM   27  N6  UNL     1      -2.197 109.856 271.247  1.00  0.00    -0.270 N 
ATOM     28  H6  UNL     1      -2.969 109.382 270.777  1.00  0.00     0.190 HD
BRANCH  25  29
HETATM   29  C6  UNL     1      -0.943 110.566 269.210  1.00  0.00     0.171 C 
BRANCH  29  30
HETATM   30  C5  UNL     1       0.022 109.638 268.612  1.00  0.00     0.032 C 
BRANCH  30  31
HETATM   31  C2  UNL     1       1.425 110.041 268.385  1.00  0.00    -0.050 C 
HETATM   32  C1  UNL     1       1.720 109.687 266.901  1.00  0.00     0.014 C 
HETATM   33  C3  UNL     1       2.388 109.332 269.278  1.00  0.00     0.014 C 
HETATM   34  C4  UNL     1       1.677 111.534 268.474  1.00  0.00     0.014 C 
ENDBRANCH  30  31
ENDBRANCH  29  30
ENDBRANCH  25  29
ENDBRANCH  20  21
ENDBRANCH  19  20
ENDBRANCH   1  19
BRANCH  14  35
HETATM   35  C19 UNL     1      -3.640 106.228 271.605  1.00  0.00     0.171 C 
BRANCH  35  36
HETATM   36  O2  UNL     1      -2.834 105.100 271.302  1.00  0.00    -0.400 OA
ATOM     37  H2  UNL     1      -2.414 105.311 270.477  1.00  0.00     0.209 HD
ENDBRANCH  35  36
ENDBRANCH  14  35
BRANCH  18  38
HETATM   38  C24 UNL     1      -6.622 108.529 272.928  1.00  0.00     0.122 C 
BRANCH  38  39
HETATM   39  C25 UNL     1      -6.656 108.741 271.471  1.00  0.00     0.173 C 
HETATM   40  O3  UNL     1      -6.773 107.843 270.623  1.00  0.00    -0.648 OA
HETATM   41  O4  UNL     1      -6.552 110.048 270.931  1.00  0.00    -0.648 OA
ENDBRANCH  38  39
ENDBRANCH  18  38
TORSDOF 10
ENDMDL
