MODEL 1
REMARK VINA RESULT: -8.143591435      0.000      0.000
REMARK  4 active torsions:
REMARK  status: ('A' for Active; 'I' for Inactive)
REMARK    1  A    between atoms: C2_2  and  O1_5 
REMARK    2  A    between atoms: O1_5  and  C5_6 
REMARK       I    between atoms: C5_6  and  N1_8 
REMARK    3  A    between atoms: C6_11  and  C7_12 
REMARK    4  A    between atoms: C9_16  and  C10_17 
ROOT
HETATM    1  C5  UNL     1       0.248 -26.368 -11.807  1.00  0.00     0.383 C 
HETATM    2  O2  UNL     1       0.753 -25.498 -12.533  1.00  0.00    -0.236 OA
HETATM    3  N1  UNL     1       0.937 -27.529 -11.419  1.00  0.00    -0.226 N 
HETATM    4  N2  UNL     1       0.341 -28.523 -10.551  1.00  0.00    -0.291 N 
ATOM      5  H2  UNL     1      -0.654 -28.747 -10.511  1.00  0.00     0.187 HD
HETATM    6  C6  UNL     1       1.249 -29.080  -9.840  1.00  0.00     0.104 C 
HETATM    7  C8  UNL     1       2.561 -28.473 -10.198  1.00  0.00     0.098 C 
HETATM    8  C9  UNL     1       2.231 -28.087 -11.655  1.00  0.00     0.152 C 
ENDROOT
BRANCH   8   9
HETATM    9  C10 UNL     1       3.247 -27.320 -12.311  1.00  0.00    -0.030 A 
HETATM   10  C11 UNL     1       3.064 -26.710 -13.515  1.00  0.00     0.035 A 
HETATM   11  C12 UNL     1       4.070 -25.955 -14.131  1.00  0.00     0.058 A 
HETATM   12 CL1  UNL     1       3.785 -25.192 -15.681  1.00  0.00    -0.082 Cl
HETATM   13  C13 UNL     1       5.291 -25.807 -13.529  1.00  0.00     0.077 A 
HETATM   14 CL2  UNL     1       6.586 -24.874 -14.252  1.00  0.00    -0.081 Cl
HETATM   15  C14 UNL     1       5.502 -26.417 -12.300  1.00  0.00     0.058 A 
HETATM   16 CL3  UNL     1       7.048 -26.247 -11.502  1.00  0.00    -0.082 Cl
HETATM   17  C15 UNL     1       4.495 -27.160 -11.706  1.00  0.00     0.035 A 
ENDBRANCH   8   9
BRANCH   1  18
HETATM   18  O1  UNL     1      -1.066 -26.117 -11.394  1.00  0.00    -0.293 OA
BRANCH  18  19
HETATM   19  C2  UNL     1      -2.180 -26.416 -12.183  1.00  0.00     0.061 C 
HETATM   20  C1  UNL     1      -2.735 -25.166 -12.857  1.00  0.00     0.046 C 
HETATM   21  C3  UNL     1      -1.899 -27.477 -13.228  1.00  0.00     0.046 C 
HETATM   22  C4  UNL     1      -3.276 -26.936 -11.276  1.00  0.00     0.046 C 
ENDBRANCH  18  19
ENDBRANCH   1  18
BRANCH   6  23
HETATM   23  C7  UNL     1       1.082 -30.128  -8.841  1.00  0.00     0.224 C 
HETATM   24  O3  UNL     1       0.160 -30.087  -7.981  1.00  0.00    -0.643 OA
HETATM   25  O4  UNL     1       1.928 -31.228  -8.782  1.00  0.00    -0.643 OA
ENDBRANCH   6  23
TORSDOF 4
ENDMDL
MODEL 2
REMARK VINA RESULT: -8.127546859      0.097      1.835
REMARK  4 active torsions:
REMARK  status: ('A' for Active; 'I' for Inactive)
REMARK    1  A    between atoms: C2_2  and  O1_5 
REMARK    2  A    between atoms: O1_5  and  C5_6 
REMARK       I    between atoms: C5_6  and  N1_8 
REMARK    3  A    between atoms: C6_11  and  C7_12 
REMARK    4  A    between atoms: C9_16  and  C10_17 
ROOT
HETATM    1  C5  UNL     1       0.339 -26.351 -11.802  1.00  0.00     0.383 C 
HETATM    2  O2  UNL     1       0.864 -25.477 -12.510  1.00  0.00    -0.236 OA
HETATM    3  N1  UNL     1       1.012 -27.521 -11.413  1.00  0.00    -0.226 N 
HETATM    4  N2  UNL     1       0.392 -28.519 -10.567  1.00  0.00    -0.291 N 
ATOM      5  H2  UNL     1      -0.605 -28.736 -10.549  1.00  0.00     0.187 HD
HETATM    6  C6  UNL     1       1.282 -29.090  -9.844  1.00  0.00     0.104 C 
HETATM    7  C8  UNL     1       2.605 -28.489 -10.170  1.00  0.00     0.098 C 
HETATM    8  C9  UNL     1       2.305 -28.086 -11.630  1.00  0.00     0.152 C 
ENDROOT
BRANCH   8   9
HETATM    9  C10 UNL     1       3.340 -27.320 -12.257  1.00  0.00    -0.030 A 
HETATM   10  C11 UNL     1       4.565 -27.118 -11.697  1.00  0.00     0.035 A 
HETATM   11  C12 UNL     1       5.566 -26.374 -12.336  1.00  0.00     0.058 A 
HETATM   12 CL1  UNL     1       7.124 -26.143 -11.573  1.00  0.00    -0.082 Cl
HETATM   13  C13 UNL     1       5.335 -25.818 -13.566  1.00  0.00     0.077 A 
HETATM   14 CL2  UNL     1       6.549 -24.878 -14.411  1.00  0.00    -0.081 Cl
HETATM   15  C14 UNL     1       4.095 -26.010 -14.158  1.00  0.00     0.058 A 
HETATM   16 CL3  UNL     1       3.767 -25.314 -15.727  1.00  0.00    -0.082 Cl
HETATM   17  C15 UNL     1       3.118 -26.748 -13.512  1.00  0.00     0.035 A 
ENDBRANCH   8   9
BRANCH   1  18
HETATM   18  O1  UNL     1      -0.982 -26.095 -11.412  1.00  0.00    -0.293 OA
BRANCH  18  19
HETATM   19  C2  UNL     1      -2.081 -26.371 -12.229  1.00  0.00     0.061 C 
HETATM   20  C1  UNL     1      -2.635 -25.099 -12.863  1.00  0.00     0.046 C 
HETATM   21  C3  UNL     1      -1.778 -27.389 -13.309  1.00  0.00     0.046 C 
HETATM   22  C4  UNL     1      -3.186 -26.932 -11.359  1.00  0.00     0.046 C 
ENDBRANCH  18  19
ENDBRANCH   1  18
BRANCH   6  23
HETATM   23  C7  UNL     1       1.088 -30.147  -8.859  1.00  0.00     0.224 C 
HETATM   24  O3  UNL     1       0.154 -30.104  -8.011  1.00  0.00    -0.643 OA
HETATM   25  O4  UNL     1       1.919 -31.258  -8.801  1.00  0.00    -0.643 OA
ENDBRANCH   6  23
TORSDOF 4
ENDMDL
MODEL 3
REMARK VINA RESULT: -7.977677267      0.889      1.010
REMARK  4 active torsions:
REMARK  status: ('A' for Active; 'I' for Inactive)
REMARK    1  A    between atoms: C2_2  and  O1_5 
REMARK    2  A    between atoms: O1_5  and  C5_6 
REMARK       I    between atoms: C5_6  and  N1_8 
REMARK    3  A    between atoms: C6_11  and  C7_12 
REMARK    4  A    between atoms: C9_16  and  C10_17 
ROOT
HETATM    1  C5  UNL     1       0.372 -25.859 -12.044  1.00  0.00     0.383 C 
HETATM    2  O2  UNL     1       1.062 -24.971 -12.568  1.00  0.00    -0.236 OA
HETATM    3  N1  UNL     1       0.876 -27.133 -11.737  1.00  0.00    -0.226 N 
HETATM    4  N2  UNL     1       0.062 -28.150 -11.104  1.00  0.00    -0.291 N 
ATOM      5  H2  UNL     1      -0.945 -28.256 -11.227  1.00  0.00     0.187 HD
HETATM    6  C6  UNL     1       0.795 -28.896 -10.365  1.00  0.00     0.104 C 
HETATM    7  C8  UNL     1       2.200 -28.411 -10.458  1.00  0.00     0.098 C 
HETATM    8  C9  UNL     1       2.127 -27.807 -11.877  1.00  0.00     0.152 C 
ENDROOT
BRANCH   8   9
HETATM    9  C10 UNL     1       3.300 -27.092 -12.279  1.00  0.00    -0.030 A 
HETATM   10  C11 UNL     1       3.337 -26.259 -13.356  1.00  0.00     0.035 A 
HETATM   11  C12 UNL     1       4.494 -25.560 -13.722  1.00  0.00     0.058 A 
HETATM   12 CL1  UNL     1       4.488 -24.501 -15.116  1.00  0.00    -0.082 Cl
HETATM   13  C13 UNL     1       5.644 -25.698 -12.994  1.00  0.00     0.077 A 
HETATM   14 CL2  UNL     1       7.121 -24.848 -13.405  1.00  0.00    -0.081 Cl
HETATM   15  C14 UNL     1       5.634 -26.541 -11.891  1.00  0.00     0.058 A 
HETATM   16 CL3  UNL     1       7.085 -26.739 -10.938  1.00  0.00    -0.082 Cl
HETATM   17  C15 UNL     1       4.480 -27.223 -11.543  1.00  0.00     0.035 A 
ENDBRANCH   8   9
BRANCH   1  18
HETATM   18  O1  UNL     1      -0.957 -25.506 -11.776  1.00  0.00    -0.293 OA
BRANCH  18  19
HETATM   19  C2  UNL     1      -1.952 -25.499 -12.756  1.00  0.00     0.061 C 
HETATM   20  C1  UNL     1      -2.339 -24.076 -13.145  1.00  0.00     0.046 C 
HETATM   21  C3  UNL     1      -1.570 -26.280 -13.997  1.00  0.00     0.046 C 
HETATM   22  C4  UNL     1      -3.196 -26.136 -12.171  1.00  0.00     0.046 C 
ENDBRANCH  18  19
ENDBRANCH   1  18
BRANCH   6  23
HETATM   23  C7  UNL     1       0.379 -30.034  -9.555  1.00  0.00     0.224 C 
HETATM   24  O3  UNL     1       0.045 -31.135 -10.074  1.00  0.00    -0.643 OA
HETATM   25  O4  UNL     1       0.328 -29.969  -8.169  1.00  0.00    -0.643 OA
ENDBRANCH   6  23
TORSDOF 4
ENDMDL
MODEL 4
REMARK VINA RESULT: -7.686360906      3.303      5.541
REMARK  4 active torsions:
REMARK  status: ('A' for Active; 'I' for Inactive)
REMARK    1  A    between atoms: C2_2  and  O1_5 
REMARK    2  A    between atoms: O1_5  and  C5_6 
REMARK       I    between atoms: C5_6  and  N1_8 
REMARK    3  A    between atoms: C6_11  and  C7_12 
REMARK    4  A    between atoms: C9_16  and  C10_17 
ROOT
HETATM    1  C5  UNL     1       1.020 -26.856 -13.331  1.00  0.00     0.383 C 
HETATM    2  O2  UNL     1       0.571 -27.831 -12.711  1.00  0.00    -0.236 OA
HETATM    3  N1  UNL     1       2.263 -26.273 -13.038  1.00  0.00    -0.226 N 
HETATM    4  N2  UNL     1       2.782 -25.148 -13.788  1.00  0.00    -0.291 N 
ATOM      5  H2  UNL     1       2.214 -24.421 -14.224  1.00  0.00     0.187 HD
HETATM    6  C6  UNL     1       4.061 -25.204 -13.825  1.00  0.00     0.104 C 
HETATM    7  C8  UNL     1       4.499 -26.412 -13.074  1.00  0.00     0.098 C 
HETATM    8  C9  UNL     1       3.310 -26.500 -12.093  1.00  0.00     0.152 C 
ENDROOT
BRANCH   8   9
HETATM    9  C10 UNL     1       3.307 -27.671 -11.269  1.00  0.00    -0.030 A 
HETATM   10  C11 UNL     1       2.272 -28.005 -10.448  1.00  0.00     0.035 A 
HETATM   11  C12 UNL     1       2.286 -29.162  -9.659  1.00  0.00     0.058 A 
HETATM   12 CL1  UNL     1       0.931 -29.546  -8.620  1.00  0.00    -0.082 Cl
HETATM   13  C13 UNL     1       3.363 -30.007  -9.690  1.00  0.00     0.077 A 
HETATM   14 CL2  UNL     1       3.436 -31.468  -8.725  1.00  0.00    -0.081 Cl
HETATM   15  C14 UNL     1       4.431 -29.689 -10.519  1.00  0.00     0.058 A 
HETATM   16 CL3  UNL     1       5.821 -30.746 -10.584  1.00  0.00    -0.082 Cl
HETATM   17  C15 UNL     1       4.398 -28.541 -11.292  1.00  0.00     0.035 A 
ENDBRANCH   8   9
BRANCH   1  18
HETATM   18  O1  UNL     1       0.199 -26.366 -14.355  1.00  0.00    -0.293 OA
BRANCH  18  19
HETATM   19  C2  UNL     1      -0.912 -25.555 -14.114  1.00  0.00     0.061 C 
HETATM   20  C1  UNL     1      -2.212 -26.347 -14.215  1.00  0.00     0.046 C 
HETATM   21  C3  UNL     1      -0.850 -24.845 -12.777  1.00  0.00     0.046 C 
HETATM   22  C4  UNL     1      -0.970 -24.498 -15.199  1.00  0.00     0.046 C 
ENDBRANCH  18  19
ENDBRANCH   1  18
BRANCH   6  23
HETATM   23  C7  UNL     1       4.976 -24.273 -14.474  1.00  0.00     0.224 C 
HETATM   24  O3  UNL     1       4.685 -23.701 -15.561  1.00  0.00    -0.643 OA
HETATM   25  O4  UNL     1       6.217 -23.964 -13.932  1.00  0.00    -0.643 OA
ENDBRANCH   6  23
TORSDOF 4
ENDMDL
MODEL 5
REMARK VINA RESULT: -7.641773047      3.748      6.568
REMARK  4 active torsions:
REMARK  status: ('A' for Active; 'I' for Inactive)
REMARK    1  A    between atoms: C2_2  and  O1_5 
REMARK    2  A    between atoms: O1_5  and  C5_6 
REMARK       I    between atoms: C5_6  and  N1_8 
REMARK    3  A    between atoms: C6_11  and  C7_12 
REMARK    4  A    between atoms: C9_16  and  C10_17 
ROOT
HETATM    1  C5  UNL     1       4.303 -25.989 -12.762  1.00  0.00     0.383 C 
HETATM    2  O2  UNL     1       4.971 -26.546 -11.877  1.00  0.00    -0.236 OA
HETATM    3  N1  UNL     1       3.049 -26.464 -13.180  1.00  0.00    -0.226 N 
HETATM    4  N2  UNL     1       2.272 -25.787 -14.199  1.00  0.00    -0.291 N 
ATOM      5  H2  UNL     1       2.661 -25.261 -14.981  1.00  0.00     0.187 HD
HETATM    6  C6  UNL     1       1.022 -25.949 -13.969  1.00  0.00     0.104 C 
HETATM    7  C8  UNL     1       0.874 -26.773 -12.739  1.00  0.00     0.098 C 
HETATM    8  C9  UNL     1       2.198 -27.560 -12.845  1.00  0.00     0.152 C 
ENDROOT
BRANCH   8   9
HETATM    9  C10 UNL     1       2.488 -28.389 -11.714  1.00  0.00    -0.030 A 
HETATM   10  C11 UNL     1       1.602 -28.614 -10.704  1.00  0.00     0.035 A 
HETATM   11  C12 UNL     1       1.904 -29.438  -9.613  1.00  0.00     0.058 A 
HETATM   12 CL1  UNL     1       0.730 -29.694  -8.341  1.00  0.00    -0.082 Cl
HETATM   13  C13 UNL     1       3.124 -30.054  -9.529  1.00  0.00     0.077 A 
HETATM   14 CL2  UNL     1       3.557 -31.096  -8.188  1.00  0.00    -0.081 Cl
HETATM   15  C14 UNL     1       4.045 -29.842 -10.546  1.00  0.00     0.058 A 
HETATM   16 CL3  UNL     1       5.611 -30.613 -10.471  1.00  0.00    -0.082 Cl
HETATM   17  C15 UNL     1       3.728 -29.024 -11.617  1.00  0.00     0.035 A 
ENDBRANCH   8   9
BRANCH   1  18
HETATM   18  O1  UNL     1       4.884 -24.845 -13.323  1.00  0.00    -0.293 OA
BRANCH  18  19
HETATM   19  C2  UNL     1       6.112 -24.867 -13.990  1.00  0.00     0.061 C 
HETATM   20  C1  UNL     1       7.264 -24.547 -13.043  1.00  0.00     0.046 C 
HETATM   21  C3  UNL     1       6.381 -26.182 -14.694  1.00  0.00     0.046 C 
HETATM   22  C4  UNL     1       6.101 -23.773 -15.036  1.00  0.00     0.046 C 
ENDBRANCH  18  19
ENDBRANCH   1  18
BRANCH   6  23
HETATM   23  C7  UNL     1      -0.100 -25.437 -14.746  1.00  0.00     0.224 C 
HETATM   24  O3  UNL     1      -1.037 -26.187 -15.137  1.00  0.00    -0.643 OA
HETATM   25  O4  UNL     1      -0.200 -24.097 -15.098  1.00  0.00    -0.643 OA
ENDBRANCH   6  23
TORSDOF 4
ENDMDL
