MODEL 1
REMARK VINA RESULT: -8.180687497      0.000      0.000
REMARK  3 active torsions:
REMARK  status: ('A' for Active; 'I' for Inactive)
REMARK    1  A    between atoms: C5_7  and  N1_8 
REMARK    2  A    between atoms: N1_8  and  S1_10 
REMARK    3  A    between atoms: C7_14  and  C8_15 
ROOT
HETATM    1  C1  UNL     1       7.147 -27.835 -11.440  1.00  0.00     0.052 C 
HETATM    2  C2  UNL     1       5.930 -27.406 -12.180  1.00  0.00    -0.016 A 
HETATM    3  C3  UNL     1       5.870 -26.195 -12.807  1.00  0.00     0.065 A 
HETATM    4 CL1  UNL     1       7.263 -25.131 -12.733  1.00  0.00    -0.082 Cl
HETATM    5  C4  UNL     1       4.743 -25.800 -13.493  1.00  0.00     0.084 A 
HETATM    6 CL2  UNL     1       4.720 -24.242 -14.275  1.00  0.00    -0.080 Cl
HETATM    7  C5  UNL     1       3.654 -26.647 -13.544  1.00  0.00     0.077 A 
HETATM    8  C7  UNL     1       3.697 -27.864 -12.918  1.00  0.00     0.017 A 
HETATM    9  C12 UNL     1       4.858 -28.256 -12.220  1.00  0.00     0.054 A 
HETATM   10 CL3  UNL     1       4.901 -29.825 -11.424  1.00  0.00    -0.083 Cl
ENDROOT
BRANCH   8  11
HETATM   11  C8  UNL     1       2.584 -28.777 -12.878  1.00  0.00     0.040 C 
HETATM   12  C9  UNL     1       1.792 -28.940 -11.846  1.00  0.00     0.079 C 
HETATM   13  S2  UNL     1       1.883 -28.100 -10.257  1.00  0.00    -0.024 SA
HETATM   14  C11 UNL     1       0.650 -29.829 -11.692  1.00  0.00     0.266 C 
HETATM   15  C10 UNL     1       0.822 -29.244  -9.392  1.00  0.00     0.291 C 
HETATM   16  O3  UNL     1       0.725 -29.335  -8.169  1.00  0.00    -0.260 OA
HETATM   17  N2  UNL     1       0.165 -29.968 -10.398  1.00  0.00    -0.283 N 
ATOM     18  H2  UNL     1      -0.632 -30.569 -10.188  1.00  0.00     0.172 HD
HETATM   19  O4  UNL     1       0.159 -30.423 -12.717  1.00  0.00    -0.267 OA
ENDBRANCH   8  11
BRANCH   7  20
HETATM   20  N1  UNL     1       2.536 -26.225 -14.297  1.00  0.00    -0.282 N 
ATOM     21  H1  UNL     1       2.526 -26.389 -15.304  1.00  0.00     0.178 HD
BRANCH  20  22
HETATM   22  S1  UNL     1       1.177 -25.436 -13.558  1.00  0.00     0.227 S 
HETATM   23  C6  UNL     1      -0.216 -26.502 -13.737  1.00  0.00     0.186 C 
HETATM   24  O1  UNL     1       0.874 -24.136 -14.235  1.00  0.00    -0.206 OA
HETATM   25  O2  UNL     1       1.531 -25.187 -12.112  1.00  0.00    -0.206 OA
ENDBRANCH  20  22
ENDBRANCH   7  20
TORSDOF 3
ENDMDL
MODEL 2
REMARK VINA RESULT: -7.919584494      2.650      3.734
REMARK  3 active torsions:
REMARK  status: ('A' for Active; 'I' for Inactive)
REMARK    1  A    between atoms: C5_7  and  N1_8 
REMARK    2  A    between atoms: N1_8  and  S1_10 
REMARK    3  A    between atoms: C7_14  and  C8_15 
ROOT
HETATM    1  C1  UNL     1       4.972 -30.409 -11.070  1.00  0.00     0.052 C 
HETATM    2  C2  UNL     1       4.969 -29.007 -11.568  1.00  0.00    -0.016 A 
HETATM    3  C3  UNL     1       6.006 -28.158 -11.309  1.00  0.00     0.065 A 
HETATM    4 CL1  UNL     1       7.367 -28.744 -10.369  1.00  0.00    -0.082 Cl
HETATM    5  C4  UNL     1       6.002 -26.862 -11.773  1.00  0.00     0.084 A 
HETATM    6 CL2  UNL     1       7.353 -25.820 -11.412  1.00  0.00    -0.080 Cl
HETATM    7  C5  UNL     1       4.926 -26.414 -12.512  1.00  0.00     0.077 A 
HETATM    8  C7  UNL     1       3.875 -27.252 -12.780  1.00  0.00     0.017 A 
HETATM    9  C12 UNL     1       3.893 -28.578 -12.299  1.00  0.00     0.054 A 
HETATM   10 CL3  UNL     1       2.540 -29.645 -12.653  1.00  0.00    -0.083 Cl
ENDROOT
BRANCH   8  11
HETATM   11  C8  UNL     1       2.694 -26.842 -13.493  1.00  0.00     0.040 C 
HETATM   12  C9  UNL     1       1.549 -26.545 -12.929  1.00  0.00     0.079 C 
HETATM   13  S2  UNL     1       1.159 -26.571 -11.172  1.00  0.00    -0.024 SA
HETATM   14  C11 UNL     1       0.298 -26.128 -13.545  1.00  0.00     0.266 C 
HETATM   15  C10 UNL     1      -0.611 -26.531 -11.384  1.00  0.00     0.291 C 
HETATM   16  O3  UNL     1      -1.436 -26.806 -10.513  1.00  0.00    -0.260 OA
HETATM   17  N2  UNL     1      -0.814 -26.131 -12.713  1.00  0.00    -0.283 N 
ATOM     18  H2  UNL     1      -1.735 -25.856 -13.052  1.00  0.00     0.172 HD
HETATM   19  O4  UNL     1       0.276 -25.788 -14.781  1.00  0.00    -0.267 OA
ENDBRANCH   8  11
BRANCH   7  20
HETATM   20  N1  UNL     1       4.981 -25.093 -13.010  1.00  0.00    -0.282 N 
ATOM     21  H1  UNL     1       4.628 -24.331 -12.431  1.00  0.00     0.178 HD
BRANCH  20  22
HETATM   22  S1  UNL     1       5.635 -24.730 -14.577  1.00  0.00     0.227 S 
HETATM   23  C6  UNL     1       6.970 -23.602 -14.346  1.00  0.00     0.186 C 
HETATM   24  O1  UNL     1       4.608 -24.082 -15.453  1.00  0.00    -0.206 OA
HETATM   25  O2  UNL     1       6.080 -26.033 -15.194  1.00  0.00    -0.206 OA
ENDBRANCH  20  22
ENDBRANCH   7  20
TORSDOF 3
ENDMDL
MODEL 3
REMARK VINA RESULT: -7.820830075      1.451      2.181
REMARK  3 active torsions:
REMARK  status: ('A' for Active; 'I' for Inactive)
REMARK    1  A    between atoms: C5_7  and  N1_8 
REMARK    2  A    between atoms: N1_8  and  S1_10 
REMARK    3  A    between atoms: C7_14  and  C8_15 
ROOT
HETATM    1  C1  UNL     1       6.663 -28.204 -13.001  1.00  0.00     0.052 C 
HETATM    2  C2  UNL     1       5.373 -27.498 -12.786  1.00  0.00    -0.016 A 
HETATM    3  C3  UNL     1       5.040 -26.389 -13.511  1.00  0.00     0.065 A 
HETATM    4 CL1  UNL     1       6.166 -25.796 -14.718  1.00  0.00    -0.082 Cl
HETATM    5  C4  UNL     1       3.843 -25.737 -13.311  1.00  0.00     0.084 A 
HETATM    6 CL2  UNL     1       3.470 -24.326 -14.265  1.00  0.00    -0.080 Cl
HETATM    7  C5  UNL     1       2.967 -26.215 -12.358  1.00  0.00     0.077 A 
HETATM    8  C7  UNL     1       3.286 -27.324 -11.621  1.00  0.00     0.017 A 
HETATM    9  C12 UNL     1       4.514 -27.983 -11.836  1.00  0.00     0.054 A 
HETATM   10 CL3  UNL     1       4.910 -29.409 -10.885  1.00  0.00    -0.083 Cl
ENDROOT
BRANCH   8  11
HETATM   11  C8  UNL     1       2.450 -27.848 -10.572  1.00  0.00     0.040 C 
HETATM   12  C9  UNL     1       1.501 -28.734 -10.750  1.00  0.00     0.079 C 
HETATM   13  S2  UNL     1       1.001 -29.503 -12.299  1.00  0.00    -0.024 SA
HETATM   14  C11 UNL     1       0.598 -29.326  -9.774  1.00  0.00     0.266 C 
HETATM   15  C10 UNL     1      -0.562 -30.114 -11.695  1.00  0.00     0.291 C 
HETATM   16  O3  UNL     1      -1.491 -30.506 -12.402  1.00  0.00    -0.260 OA
HETATM   17  N2  UNL     1      -0.471 -30.042 -10.298  1.00  0.00    -0.283 N 
ATOM     18  H2  UNL     1      -1.158 -30.493  -9.694  1.00  0.00     0.172 HD
HETATM   19  O4  UNL     1       0.819 -29.169  -8.520  1.00  0.00    -0.267 OA
ENDBRANCH   8  11
BRANCH   7  20
HETATM   20  N1  UNL     1       1.730 -25.546 -12.218  1.00  0.00    -0.282 N 
ATOM     21  H1  UNL     1       1.596 -24.915 -11.428  1.00  0.00     0.178 HD
BRANCH  20  22
HETATM   22  S1  UNL     1       0.433 -25.769 -13.350  1.00  0.00     0.227 S 
HETATM   23  C6  UNL     1      -0.940 -26.427 -12.460  1.00  0.00     0.186 C 
HETATM   24  O1  UNL     1       0.815 -26.740 -14.424  1.00  0.00    -0.206 OA
HETATM   25  O2  UNL     1       0.133 -24.424 -13.964  1.00  0.00    -0.206 OA
ENDBRANCH  20  22
ENDBRANCH   7  20
TORSDOF 3
ENDMDL
MODEL 4
REMARK VINA RESULT: -7.724559905      1.570      1.692
REMARK  3 active torsions:
REMARK  status: ('A' for Active; 'I' for Inactive)
REMARK    1  A    between atoms: C5_7  and  N1_8 
REMARK    2  A    between atoms: N1_8  and  S1_10 
REMARK    3  A    between atoms: C7_14  and  C8_15 
ROOT
HETATM    1  C1  UNL     1       7.711 -27.381 -10.293  1.00  0.00     0.052 C 
HETATM    2  C2  UNL     1       6.831 -27.054 -11.447  1.00  0.00    -0.016 A 
HETATM    3  C3  UNL     1       7.055 -25.954 -12.223  1.00  0.00     0.065 A 
HETATM    4 CL1  UNL     1       8.414 -24.911 -11.843  1.00  0.00    -0.082 Cl
HETATM    5  C4  UNL     1       6.240 -25.654 -13.292  1.00  0.00     0.084 A 
HETATM    6 CL2  UNL     1       6.573 -24.235 -14.249  1.00  0.00    -0.080 Cl
HETATM    7  C5  UNL     1       5.176 -26.483 -13.580  1.00  0.00     0.077 A 
HETATM    8  C7  UNL     1       4.934 -27.590 -12.811  1.00  0.00     0.017 A 
HETATM    9  C12 UNL     1       5.778 -27.886 -11.719  1.00  0.00     0.054 A 
HETATM   10 CL3  UNL     1       5.460 -29.314 -10.741  1.00  0.00    -0.083 Cl
ENDROOT
BRANCH   8  11
HETATM   11  C8  UNL     1       3.813 -28.470 -13.013  1.00  0.00     0.040 C 
HETATM   12  C9  UNL     1       2.650 -28.340 -12.423  1.00  0.00     0.079 C 
HETATM   13  S2  UNL     1       2.161 -27.075 -11.240  1.00  0.00    -0.024 SA
HETATM   14  C11 UNL     1       1.456 -29.165 -12.545  1.00  0.00     0.266 C 
HETATM   15  C10 UNL     1       0.715 -27.936 -10.648  1.00  0.00     0.291 C 
HETATM   16  O3  UNL     1       0.106 -27.670  -9.612  1.00  0.00    -0.260 OA
HETATM   17  N2  UNL     1       0.462 -28.931 -11.604  1.00  0.00    -0.283 N 
ATOM     18  H2  UNL     1      -0.410 -29.458 -11.607  1.00  0.00     0.172 HD
HETATM   19  O4  UNL     1       1.376 -30.038 -13.481  1.00  0.00    -0.267 OA
ENDBRANCH   8  11
BRANCH   7  20
HETATM   20  N1  UNL     1       4.392 -26.168 -14.713  1.00  0.00    -0.282 N 
ATOM     21  H1  UNL     1       4.592 -26.632 -15.598  1.00  0.00     0.178 HD
BRANCH  20  22
HETATM   22  S1  UNL     1       3.099 -25.012 -14.640  1.00  0.00     0.227 S 
HETATM   23  C6  UNL     1       1.582 -25.907 -14.726  1.00  0.00     0.186 C 
HETATM   24  O1  UNL     1       3.158 -24.062 -15.795  1.00  0.00    -0.206 OA
HETATM   25  O2  UNL     1       3.247 -24.249 -13.346  1.00  0.00    -0.206 OA
ENDBRANCH  20  22
ENDBRANCH   7  20
TORSDOF 3
ENDMDL
MODEL 5
REMARK VINA RESULT: -7.653956633      2.288      2.944
REMARK  3 active torsions:
REMARK  status: ('A' for Active; 'I' for Inactive)
REMARK    1  A    between atoms: C5_7  and  N1_8 
REMARK    2  A    between atoms: N1_8  and  S1_10 
REMARK    3  A    between atoms: C7_14  and  C8_15 
ROOT
HETATM    1  C1  UNL     1       5.527 -29.790 -10.809  1.00  0.00     0.052 C 
HETATM    2  C2  UNL     1       4.892 -28.558 -11.348  1.00  0.00    -0.016 A 
HETATM    3  C3  UNL     1       5.587 -27.687 -12.137  1.00  0.00     0.065 A 
HETATM    4 CL1  UNL     1       7.263 -28.040 -12.517  1.00  0.00    -0.082 Cl
HETATM    5  C4  UNL     1       4.997 -26.547 -12.636  1.00  0.00     0.084 A 
HETATM    6 CL2  UNL     1       5.932 -25.470 -13.639  1.00  0.00    -0.080 Cl
HETATM    7  C5  UNL     1       3.678 -26.282 -12.329  1.00  0.00     0.077 A 
HETATM    8  C7  UNL     1       2.967 -27.144 -11.537  1.00  0.00     0.017 A 
HETATM    9  C12 UNL     1       3.583 -28.308 -11.034  1.00  0.00     0.054 A 
HETATM   10 CL3  UNL     1       2.657 -29.409 -10.021  1.00  0.00    -0.083 Cl
ENDROOT
BRANCH   8  11
HETATM   11  C8  UNL     1       1.607 -26.907 -11.128  1.00  0.00     0.040 C 
HETATM   12  C9  UNL     1       0.560 -27.505 -11.643  1.00  0.00     0.079 C 
HETATM   13  S2  UNL     1       0.542 -28.735 -12.957  1.00  0.00    -0.024 SA
HETATM   14  C11 UNL     1      -0.849 -27.343 -11.315  1.00  0.00     0.266 C 
HETATM   15  C10 UNL     1      -1.200 -28.590 -13.310  1.00  0.00     0.291 C 
HETATM   16  O3  UNL     1      -1.755 -29.009 -14.326  1.00  0.00    -0.260 OA
HETATM   17  N2  UNL     1      -1.745 -27.921 -12.205  1.00  0.00    -0.283 N 
ATOM     18  H2  UNL     1      -2.753 -27.861 -12.061  1.00  0.00     0.172 HD
HETATM   19  O4  UNL     1      -1.189 -26.699 -10.259  1.00  0.00    -0.267 OA
ENDBRANCH   8  11
BRANCH   7  20
HETATM   20  N1  UNL     1       3.096 -25.128 -12.900  1.00  0.00    -0.282 N 
ATOM     21  H1  UNL     1       3.148 -24.245 -12.392  1.00  0.00     0.178 HD
BRANCH  20  22
HETATM   22  S1  UNL     1       2.296 -25.170 -14.440  1.00  0.00     0.227 S 
HETATM   23  C6  UNL     1       0.656 -24.567 -14.202  1.00  0.00     0.186 C 
HETATM   24  O1  UNL     1       2.219 -26.568 -14.970  1.00  0.00    -0.206 OA
HETATM   25  O2  UNL     1       3.095 -24.309 -15.388  1.00  0.00    -0.206 OA
ENDBRANCH  20  22
ENDBRANCH   7  20
TORSDOF 3
ENDMDL
