MODEL 1
REMARK VINA RESULT: -7.046779419      0.000      0.000
REMARK  6 active torsions:
REMARK  status: ('A' for Active; 'I' for Inactive)
REMARK    1  A    between atoms: C4_4  and  C5_5 
REMARK    2  A    between atoms: C5_5  and  C6_6 
REMARK    3  A    between atoms: C6_6  and  C7_7 
REMARK    4  A    between atoms: C7_7  and  C8_8 
REMARK    5  A    between atoms: C8_8  and  C9_9 
REMARK    6  A    between atoms: C9_9  and  C10_10 
ROOT
HETATM    1  C7  UNL     1      76.571 396.140 118.242  1.00  0.00     0.001 C 
ENDROOT
BRANCH   1   2
HETATM    2  C6  UNL     1      77.452 395.698 117.100  1.00  0.00     0.005 C 
BRANCH   2   3
HETATM    3  C5  UNL     1      78.777 395.224 117.704  1.00  0.00     0.038 C 
BRANCH   3   4
HETATM    4  C4  UNL     1      78.943 393.756 117.495  1.00  0.00    -0.058 A 
HETATM    5  C3  UNL     1      78.575 393.170 116.300  1.00  0.00     0.007 A 
HETATM    6  C2  UNL     1      78.725 391.808 116.099  1.00  0.00     0.001 A 
HETATM    7  C1  UNL     1      79.245 390.984 117.074  1.00  0.00     0.000 A 
HETATM    8  C17 UNL     1      79.613 391.568 118.268  1.00  0.00     0.001 A 
HETATM    9  C16 UNL     1      79.462 392.931 118.470  1.00  0.00     0.007 A 
ENDBRANCH   3   4
ENDBRANCH   2   3
ENDBRANCH   1   2
BRANCH   1  10
HETATM   10  C8  UNL     1      75.849 395.012 118.915  1.00  0.00     0.005 C 
BRANCH  10  11
HETATM   11  C9  UNL     1      75.348 394.017 117.910  1.00  0.00     0.038 C 
BRANCH  11  12
HETATM   12  C10 UNL     1      75.669 392.618 118.296  1.00  0.00    -0.058 A 
HETATM   13  C11 UNL     1      76.183 392.288 119.533  1.00  0.00     0.007 A 
HETATM   14  C12 UNL     1      76.477 390.985 119.879  1.00  0.00     0.001 A 
HETATM   15  C13 UNL     1      76.271 389.943 119.000  1.00  0.00     0.000 A 
HETATM   16  C14 UNL     1      75.757 390.264 117.762  1.00  0.00     0.001 A 
HETATM   17  C15 UNL     1      75.462 391.566 117.413  1.00  0.00     0.007 A 
ENDBRANCH  11  12
ENDBRANCH  10  11
ENDBRANCH   1  10
TORSDOF 6
ENDMDL
MODEL 2
REMARK VINA RESULT: -7.033829994      0.039      1.615
REMARK  6 active torsions:
REMARK  status: ('A' for Active; 'I' for Inactive)
REMARK    1  A    between atoms: C4_4  and  C5_5 
REMARK    2  A    between atoms: C5_5  and  C6_6 
REMARK    3  A    between atoms: C6_6  and  C7_7 
REMARK    4  A    between atoms: C7_7  and  C8_8 
REMARK    5  A    between atoms: C8_8  and  C9_9 
REMARK    6  A    between atoms: C9_9  and  C10_10 
ROOT
HETATM    1  C7  UNL     1      76.554 396.129 118.325  1.00  0.00     0.001 C 
ENDROOT
BRANCH   1   2
HETATM    2  C6  UNL     1      77.412 395.716 117.155  1.00  0.00     0.005 C 
BRANCH   2   3
HETATM    3  C5  UNL     1      78.756 395.246 117.719  1.00  0.00     0.038 C 
BRANCH   3   4
HETATM    4  C4  UNL     1      78.925 393.780 117.494  1.00  0.00    -0.058 A 
HETATM    5  C3  UNL     1      79.450 392.973 118.484  1.00  0.00     0.007 A 
HETATM    6  C2  UNL     1      79.610 391.612 118.283  1.00  0.00     0.001 A 
HETATM    7  C1  UNL     1      79.255 391.008 117.095  1.00  0.00     0.000 A 
HETATM    8  C17 UNL     1      78.732 391.814 116.105  1.00  0.00     0.001 A 
HETATM    9  C16 UNL     1      78.571 393.176 116.306  1.00  0.00     0.007 A 
ENDBRANCH   3   4
ENDBRANCH   2   3
ENDBRANCH   1   2
BRANCH   1  10
HETATM   10  C8  UNL     1      75.828 394.987 118.969  1.00  0.00     0.005 C 
BRANCH  10  11
HETATM   11  C9  UNL     1      75.329 394.015 117.940  1.00  0.00     0.038 C 
BRANCH  11  12
HETATM   12  C10 UNL     1      75.655 392.608 118.290  1.00  0.00    -0.058 A 
HETATM   13  C11 UNL     1      75.454 391.559 117.416  1.00  0.00     0.007 A 
HETATM   14  C12 UNL     1      75.761 390.258 117.754  1.00  0.00     0.001 A 
HETATM   15  C13 UNL     1      76.284 389.938 118.989  1.00  0.00     0.000 A 
HETATM   16  C14 UNL     1      76.489 390.980 119.868  1.00  0.00     0.001 A 
HETATM   17  C15 UNL     1      76.183 392.284 119.533  1.00  0.00     0.007 A 
ENDBRANCH  11  12
ENDBRANCH  10  11
ENDBRANCH   1  10
TORSDOF 6
ENDMDL
MODEL 3
REMARK VINA RESULT: -7.017493508      0.056      3.734
REMARK  6 active torsions:
REMARK  status: ('A' for Active; 'I' for Inactive)
REMARK    1  A    between atoms: C4_4  and  C5_5 
REMARK    2  A    between atoms: C5_5  and  C6_6 
REMARK    3  A    between atoms: C6_6  and  C7_7 
REMARK    4  A    between atoms: C7_7  and  C8_8 
REMARK    5  A    between atoms: C8_8  and  C9_9 
REMARK    6  A    between atoms: C9_9  and  C10_10 
ROOT
HETATM    1  C7  UNL     1      76.576 396.157 118.322  1.00  0.00     0.001 C 
ENDROOT
BRANCH   1   2
HETATM    2  C6  UNL     1      75.869 395.010 118.999  1.00  0.00     0.005 C 
BRANCH   2   3
HETATM    3  C5  UNL     1      75.386 394.060 117.899  1.00  0.00     0.038 C 
BRANCH   3   4
HETATM    4  C4  UNL     1      75.677 392.646 118.275  1.00  0.00    -0.058 A 
HETATM    5  C3  UNL     1      76.179 392.340 119.524  1.00  0.00     0.007 A 
HETATM    6  C2  UNL     1      76.453 391.029 119.880  1.00  0.00     0.001 A 
HETATM    7  C1  UNL     1      76.236 389.981 119.011  1.00  0.00     0.000 A 
HETATM    8  C17 UNL     1      75.735 390.286 117.763  1.00  0.00     0.001 A 
HETATM    9  C16 UNL     1      75.461 391.597 117.406  1.00  0.00     0.007 A 
ENDBRANCH   3   4
ENDBRANCH   2   3
ENDBRANCH   1   2
BRANCH   1  10
HETATM   10  C8  UNL     1      77.434 395.737 117.168  1.00  0.00     0.005 C 
BRANCH  10  11
HETATM   11  C9  UNL     1      78.771 395.247 117.640  1.00  0.00     0.038 C 
BRANCH  11  12
HETATM   12  C10 UNL     1      78.932 393.782 117.450  1.00  0.00    -0.058 A 
HETATM   13  C11 UNL     1      78.584 393.141 116.278  1.00  0.00     0.007 A 
HETATM   14  C12 UNL     1      78.738 391.780 116.116  1.00  0.00     0.001 A 
HETATM   15  C13 UNL     1      79.249 390.987 117.121  1.00  0.00     0.000 A 
HETATM   16  C14 UNL     1      79.601 391.619 118.295  1.00  0.00     0.001 A 
HETATM   17  C15 UNL     1      79.448 392.981 118.461  1.00  0.00     0.007 A 
ENDBRANCH  11  12
ENDBRANCH  10  11
ENDBRANCH   1  10
TORSDOF 6
ENDMDL
MODEL 4
REMARK VINA RESULT: -7.015830710      1.351      3.134
REMARK  6 active torsions:
REMARK  status: ('A' for Active; 'I' for Inactive)
REMARK    1  A    between atoms: C4_4  and  C5_5 
REMARK    2  A    between atoms: C5_5  and  C6_6 
REMARK    3  A    between atoms: C6_6  and  C7_7 
REMARK    4  A    between atoms: C7_7  and  C8_8 
REMARK    5  A    between atoms: C8_8  and  C9_9 
REMARK    6  A    between atoms: C9_9  and  C10_10 
ROOT
HETATM    1  C7  UNL     1      77.172 396.063 117.463  1.00  0.00     0.001 C 
ENDROOT
BRANCH   1   2
HETATM    2  C6  UNL     1      76.146 395.580 118.458  1.00  0.00     0.005 C 
BRANCH   2   3
HETATM    3  C5  UNL     1      76.900 395.163 119.724  1.00  0.00     0.038 C 
BRANCH   3   4
HETATM    4  C4  UNL     1      77.062 393.681 119.762  1.00  0.00    -0.058 A 
HETATM    5  C3  UNL     1      78.317 393.114 119.868  1.00  0.00     0.007 A 
HETATM    6  C2  UNL     1      78.476 391.738 119.903  1.00  0.00     0.001 A 
HETATM    7  C1  UNL     1      77.398 390.881 119.836  1.00  0.00     0.000 A 
HETATM    8  C17 UNL     1      76.144 391.447 119.730  1.00  0.00     0.001 A 
HETATM    9  C16 UNL     1      75.984 392.823 119.695  1.00  0.00     0.007 A 
ENDBRANCH   3   4
ENDBRANCH   2   3
ENDBRANCH   1   2
BRANCH   1  10
HETATM   10  C8  UNL     1      77.731 394.972 116.601  1.00  0.00     0.005 C 
BRANCH  10  11
HETATM   11  C9  UNL     1      76.669 393.979 116.231  1.00  0.00     0.038 C 
BRANCH  11  12
HETATM   12  C10 UNL     1      77.169 392.580 116.272  1.00  0.00    -0.058 A 
HETATM   13  C11 UNL     1      76.329 391.488 116.207  1.00  0.00     0.007 A 
HETATM   14  C12 UNL     1      76.806 390.194 116.246  1.00  0.00     0.001 A 
HETATM   15  C13 UNL     1      78.154 389.927 116.355  1.00  0.00     0.000 A 
HETATM   16  C14 UNL     1      79.002 391.012 116.420  1.00  0.00     0.001 A 
HETATM   17  C15 UNL     1      78.527 392.308 116.381  1.00  0.00     0.007 A 
ENDBRANCH  11  12
ENDBRANCH  10  11
ENDBRANCH   1  10
TORSDOF 6
ENDMDL
MODEL 5
REMARK VINA RESULT: -7.014333031      1.352      2.384
REMARK  6 active torsions:
REMARK  status: ('A' for Active; 'I' for Inactive)
REMARK    1  A    between atoms: C4_4  and  C5_5 
REMARK    2  A    between atoms: C5_5  and  C6_6 
REMARK    3  A    between atoms: C6_6  and  C7_7 
REMARK    4  A    between atoms: C7_7  and  C8_8 
REMARK    5  A    between atoms: C8_8  and  C9_9 
REMARK    6  A    between atoms: C9_9  and  C10_10 
ROOT
HETATM    1  C7  UNL     1      76.992 396.046 117.494  1.00  0.00     0.001 C 
ENDROOT
BRANCH   1   2
HETATM    2  C6  UNL     1      77.686 394.971 116.695  1.00  0.00     0.005 C 
BRANCH   2   3
HETATM    3  C5  UNL     1      76.613 393.983 116.230  1.00  0.00     0.038 C 
BRANCH   3   4
HETATM    4  C4  UNL     1      77.144 392.589 116.268  1.00  0.00    -0.058 A 
HETATM    5  C3  UNL     1      78.500 392.357 116.391  1.00  0.00     0.007 A 
HETATM    6  C2  UNL     1      79.001 391.066 116.426  1.00  0.00     0.001 A 
HETATM    7  C1  UNL     1      78.175 389.965 116.342  1.00  0.00     0.000 A 
HETATM    8  C17 UNL     1      76.821 390.196 116.219  1.00  0.00     0.001 A 
HETATM    9  C16 UNL     1      76.319 391.488 116.184  1.00  0.00     0.007 A 
ENDBRANCH   3   4
ENDBRANCH   2   3
ENDBRANCH   1   2
BRANCH   1  10
HETATM   10  C8  UNL     1      76.148 395.512 118.611  1.00  0.00     0.005 C 
BRANCH  10  11
HETATM   11  C9  UNL     1      76.999 395.026 119.747  1.00  0.00     0.038 C 
BRANCH  11  12
HETATM   12  C10 UNL     1      77.106 393.544 119.775  1.00  0.00    -0.058 A 
HETATM   13  C11 UNL     1      76.005 392.718 119.689  1.00  0.00     0.007 A 
HETATM   14  C12 UNL     1      76.118 391.343 119.717  1.00  0.00     0.001 A 
HETATM   15  C13 UNL     1      77.344 390.724 119.834  1.00  0.00     0.000 A 
HETATM   16  C14 UNL     1      78.451 391.542 119.920  1.00  0.00     0.001 A 
HETATM   17  C15 UNL     1      78.341 392.918 119.893  1.00  0.00     0.007 A 
ENDBRANCH  11  12
ENDBRANCH  10  11
ENDBRANCH   1  10
TORSDOF 6
ENDMDL
