MODEL 1
REMARK VINA RESULT: -7.131032747      0.000      0.000
REMARK  7 active torsions:
REMARK  status: ('A' for Active; 'I' for Inactive)
REMARK    1  A    between atoms: C4_5  and  C5_6 
REMARK    2  A    between atoms: C5_6  and  C6_7 
REMARK    3  A    between atoms: C6_7  and  C7_8 
REMARK    4  A    between atoms: C7_8  and  C8_9 
REMARK    5  A    between atoms: C8_9  and  C9_10 
REMARK    6  A    between atoms: C9_10  and  C10_11 
REMARK    7  A    between atoms: C10_11  and  C11_12 
ROOT
HETATM    1  C6  UNL     1      79.248 403.144 119.826  1.00  0.00     0.005 C 
ENDROOT
BRANCH   1   2
HETATM    2  C5  UNL     1      78.060 403.762 120.505  1.00  0.00     0.038 C 
BRANCH   2   3
HETATM    3  C4  UNL     1      77.852 405.177 120.118  1.00  0.00    -0.058 A 
HETATM    4  C3  UNL     1      78.912 406.065 120.121  1.00  0.00     0.009 A 
HETATM    5  C2  UNL     1      78.723 407.394 119.759  1.00  0.00     0.027 A 
HETATM    6  C1  UNL     1      77.484 407.874 119.387  1.00  0.00     0.046 A 
HETATM    7  N1  UNL     1      77.293 409.242 119.015  1.00  0.00    -0.102 NA
HETATM    8  C16 UNL     1      76.434 406.976 119.389  1.00  0.00     0.027 A 
HETATM    9  C15 UNL     1      76.605 405.650 119.747  1.00  0.00     0.009 A 
ENDBRANCH   2   3
ENDBRANCH   1   2
BRANCH   1  10
HETATM   10  C7  UNL     1      78.943 402.971 118.371  1.00  0.00     0.000 C 
BRANCH  10  11
HETATM   11  C8  UNL     1      79.376 401.620 117.844  1.00  0.00     0.000 C 
BRANCH  11  12
HETATM   12  C9  UNL     1      78.196 401.048 117.055  1.00  0.00     0.000 C 
BRANCH  12  13
HETATM   13  C10 UNL     1      76.958 401.740 117.575  1.00  0.00     0.004 C 
BRANCH  13  14
HETATM   14  C11 UNL     1      75.935 400.764 118.099  1.00  0.00    -0.014 C 
HETATM   15  C12 UNL     1      75.458 401.217 119.467  1.00  0.00     0.004 C 
HETATM   16  C13 UNL     1      76.636 400.457 120.056  1.00  0.00     0.001 C 
HETATM   17  C14 UNL     1      76.604 399.583 118.813  1.00  0.00     0.004 C 
ENDBRANCH  13  14
ENDBRANCH  12  13
ENDBRANCH  11  12
ENDBRANCH  10  11
ENDBRANCH   1  10
TORSDOF 7
ENDMDL
MODEL 2
REMARK VINA RESULT: -7.037986302      7.312     10.549
REMARK  7 active torsions:
REMARK  status: ('A' for Active; 'I' for Inactive)
REMARK    1  A    between atoms: C4_5  and  C5_6 
REMARK    2  A    between atoms: C5_6  and  C6_7 
REMARK    3  A    between atoms: C6_7  and  C7_8 
REMARK    4  A    between atoms: C7_8  and  C8_9 
REMARK    5  A    between atoms: C8_9  and  C9_10 
REMARK    6  A    between atoms: C9_10  and  C10_11 
REMARK    7  A    between atoms: C10_11  and  C11_12 
ROOT
HETATM    1  C6  UNL     1      76.149 392.841 119.340  1.00  0.00     0.005 C 
ENDROOT
BRANCH   1   2
HETATM    2  C5  UNL     1      75.840 393.580 118.070  1.00  0.00     0.038 C 
BRANCH   2   3
HETATM    3  C4  UNL     1      76.400 394.952 118.054  1.00  0.00    -0.058 A 
HETATM    4  C3  UNL     1      75.971 395.890 118.975  1.00  0.00     0.009 A 
HETATM    5  C2  UNL     1      76.493 397.179 118.966  1.00  0.00     0.027 A 
HETATM    6  C1  UNL     1      77.447 397.568 118.048  1.00  0.00     0.046 A 
HETATM    7  N1  UNL     1      77.981 398.895 118.042  1.00  0.00    -0.102 NA
HETATM    8  C16 UNL     1      77.865 396.620 117.134  1.00  0.00     0.027 A 
HETATM    9  C15 UNL     1      77.357 395.333 117.129  1.00  0.00     0.009 A 
ENDBRANCH   2   3
ENDBRANCH   1   2
BRANCH   1  10
HETATM   10  C7  UNL     1      77.632 392.680 119.462  1.00  0.00     0.000 C 
BRANCH  10  11
HETATM   11  C8  UNL     1      78.033 391.278 119.866  1.00  0.00     0.000 C 
BRANCH  11  12
HETATM   12  C9  UNL     1      79.174 390.854 118.939  1.00  0.00     0.000 C 
BRANCH  12  13
HETATM   13  C10 UNL     1      79.034 391.679 117.682  1.00  0.00     0.004 C 
BRANCH  13  14
HETATM   14  C11 UNL     1      78.892 390.823 116.449  1.00  0.00    -0.014 C 
HETATM   15  C12 UNL     1      77.754 391.351 115.594  1.00  0.00     0.004 C 
HETATM   16  C13 UNL     1      76.818 390.488 116.427  1.00  0.00     0.001 C 
HETATM   17  C14 UNL     1      78.013 389.596 116.719  1.00  0.00     0.004 C 
ENDBRANCH  13  14
ENDBRANCH  12  13
ENDBRANCH  11  12
ENDBRANCH  10  11
ENDBRANCH   1  10
TORSDOF 7
ENDMDL
MODEL 3
REMARK VINA RESULT: -6.998128503      7.298     10.498
REMARK  7 active torsions:
REMARK  status: ('A' for Active; 'I' for Inactive)
REMARK    1  A    between atoms: C4_5  and  C5_6 
REMARK    2  A    between atoms: C5_6  and  C6_7 
REMARK    3  A    between atoms: C6_7  and  C7_8 
REMARK    4  A    between atoms: C7_8  and  C8_9 
REMARK    5  A    between atoms: C8_9  and  C9_10 
REMARK    6  A    between atoms: C9_10  and  C10_11 
REMARK    7  A    between atoms: C10_11  and  C11_12 
ROOT
HETATM    1  C6  UNL     1      75.620 393.074 117.860  1.00  0.00     0.005 C 
ENDROOT
BRANCH   1   2
HETATM    2  C5  UNL     1      76.302 393.477 119.136  1.00  0.00     0.038 C 
BRANCH   2   3
HETATM    3  C4  UNL     1      76.813 394.868 119.099  1.00  0.00    -0.058 A 
HETATM    4  C3  UNL     1      75.943 395.925 118.901  1.00  0.00     0.009 A 
HETATM    5  C2  UNL     1      76.417 397.232 118.866  1.00  0.00     0.027 A 
HETATM    6  C1  UNL     1      77.756 397.522 119.024  1.00  0.00     0.046 A 
HETATM    7  N1  UNL     1      78.239 398.868 118.988  1.00  0.00    -0.102 NA
HETATM    8  C16 UNL     1      78.613 396.455 119.221  1.00  0.00     0.027 A 
HETATM    9  C15 UNL     1      78.158 395.149 119.258  1.00  0.00     0.009 A 
ENDBRANCH   2   3
ENDBRANCH   1   2
BRANCH   1  10
HETATM   10  C7  UNL     1      76.641 392.991 116.768  1.00  0.00     0.000 C 
BRANCH  10  11
HETATM   11  C8  UNL     1      76.543 391.704 115.979  1.00  0.00     0.000 C 
BRANCH  11  12
HETATM   12  C9  UNL     1      77.962 391.142 115.860  1.00  0.00     0.000 C 
BRANCH  12  13
HETATM   13  C10 UNL     1      78.765 391.768 116.975  1.00  0.00     0.004 C 
BRANCH  13  14
HETATM   14  C11 UNL     1      79.429 390.737 117.851  1.00  0.00    -0.014 C 
HETATM   15  C12 UNL     1      78.532 389.518 117.968  1.00  0.00     0.004 C 
HETATM   16  C13 UNL     1      77.848 390.217 119.133  1.00  0.00     0.001 C 
HETATM   17  C14 UNL     1      79.139 390.994 119.335  1.00  0.00     0.004 C 
ENDBRANCH  13  14
ENDBRANCH  12  13
ENDBRANCH  11  12
ENDBRANCH  10  11
ENDBRANCH   1  10
TORSDOF 7
ENDMDL
MODEL 4
REMARK VINA RESULT: -6.954046627      7.248     10.348
REMARK  7 active torsions:
REMARK  status: ('A' for Active; 'I' for Inactive)
REMARK    1  A    between atoms: C4_5  and  C5_6 
REMARK    2  A    between atoms: C5_6  and  C6_7 
REMARK    3  A    between atoms: C6_7  and  C7_8 
REMARK    4  A    between atoms: C7_8  and  C8_9 
REMARK    5  A    between atoms: C8_9  and  C9_10 
REMARK    6  A    between atoms: C9_10  and  C10_11 
REMARK    7  A    between atoms: C10_11  and  C11_12 
ROOT
HETATM    1  C6  UNL     1      78.665 393.235 116.731  1.00  0.00     0.005 C 
ENDROOT
BRANCH   1   2
HETATM    2  C5  UNL     1      78.976 393.674 118.132  1.00  0.00     0.038 C 
BRANCH   2   3
HETATM    3  C4  UNL     1      78.438 395.019 118.445  1.00  0.00    -0.058 A 
HETATM    4  C3  UNL     1      77.563 395.192 119.501  1.00  0.00     0.009 A 
HETATM    5  C2  UNL     1      77.055 396.452 119.799  1.00  0.00     0.027 A 
HETATM    6  C1  UNL     1      77.400 397.566 119.061  1.00  0.00     0.046 A 
HETATM    7  N1  UNL     1      76.876 398.859 119.371  1.00  0.00    -0.102 NA
HETATM    8  C16 UNL     1      78.275 397.377 118.009  1.00  0.00     0.027 A 
HETATM    9  C15 UNL     1      78.790 396.131 117.698  1.00  0.00     0.009 A 
ENDBRANCH   2   3
ENDBRANCH   1   2
BRANCH   1  10
HETATM   10  C7  UNL     1      77.190 393.013 116.605  1.00  0.00     0.000 C 
BRANCH  10  11
HETATM   11  C8  UNL     1      76.856 391.695 115.941  1.00  0.00     0.000 C 
BRANCH  11  12
HETATM   12  C9  UNL     1      75.716 391.065 116.744  1.00  0.00     0.000 C 
BRANCH  12  13
HETATM   13  C10 UNL     1      75.791 391.658 118.131  1.00  0.00     0.004 C 
BRANCH  13  14
HETATM   14  C11 UNL     1      75.942 390.602 119.197  1.00  0.00    -0.014 C 
HETATM   15  C12 UNL     1      77.061 390.995 120.144  1.00  0.00     0.004 C 
HETATM   16  C13 UNL     1      78.023 390.312 119.184  1.00  0.00     0.001 C 
HETATM   17  C14 UNL     1      76.851 389.460 118.726  1.00  0.00     0.004 C 
ENDBRANCH  13  14
ENDBRANCH  12  13
ENDBRANCH  11  12
ENDBRANCH  10  11
ENDBRANCH   1  10
TORSDOF 7
ENDMDL
MODEL 5
REMARK VINA RESULT: -6.947598465      0.980      1.457
REMARK  7 active torsions:
REMARK  status: ('A' for Active; 'I' for Inactive)
REMARK    1  A    between atoms: C4_5  and  C5_6 
REMARK    2  A    between atoms: C5_6  and  C6_7 
REMARK    3  A    between atoms: C6_7  and  C7_8 
REMARK    4  A    between atoms: C7_8  and  C8_9 
REMARK    5  A    between atoms: C8_9  and  C9_10 
REMARK    6  A    between atoms: C9_10  and  C10_11 
REMARK    7  A    between atoms: C10_11  and  C11_12 
ROOT
HETATM    1  C6  UNL     1      79.066 403.498 118.216  1.00  0.00     0.005 C 
ENDROOT
BRANCH   1   2
HETATM    2  C5  UNL     1      78.866 404.002 119.616  1.00  0.00     0.038 C 
BRANCH   2   3
HETATM    3  C4  UNL     1      78.307 405.374 119.657  1.00  0.00    -0.058 A 
HETATM    4  C3  UNL     1      79.150 406.470 119.669  1.00  0.00     0.009 A 
HETATM    5  C2  UNL     1      78.632 407.760 119.706  1.00  0.00     0.027 A 
HETATM    6  C1  UNL     1      77.272 407.994 119.735  1.00  0.00     0.046 A 
HETATM    7  N1  UNL     1      76.743 409.323 119.773  1.00  0.00    -0.102 NA
HETATM    8  C16 UNL     1      76.443 406.889 119.722  1.00  0.00     0.027 A 
HETATM    9  C15 UNL     1      76.941 405.599 119.685  1.00  0.00     0.009 A 
ENDBRANCH   2   3
ENDBRANCH   1   2
BRANCH   1  10
HETATM   10  C7  UNL     1      79.295 402.019 118.259  1.00  0.00     0.000 C 
BRANCH  10  11
HETATM   11  C8  UNL     1      79.600 401.520 119.655  1.00  0.00     0.000 C 
BRANCH  11  12
HETATM   12  C9  UNL     1      78.849 400.198 119.831  1.00  0.00     0.000 C 
BRANCH  12  13
HETATM   13  C10 UNL     1      77.746 400.191 118.799  1.00  0.00     0.004 C 
BRANCH  13  14
HETATM   14  C11 UNL     1      76.380 400.055 119.422  1.00  0.00    -0.014 C 
HETATM   15  C12 UNL     1      75.414 401.004 118.738  1.00  0.00     0.004 C 
HETATM   16  C13 UNL     1      75.870 402.071 119.721  1.00  0.00     0.001 C 
HETATM   17  C14 UNL     1      76.244 400.940 120.667  1.00  0.00     0.004 C 
ENDBRANCH  13  14
ENDBRANCH  12  13
ENDBRANCH  11  12
ENDBRANCH  10  11
ENDBRANCH   1  10
TORSDOF 7
ENDMDL
