MODEL 1
REMARK VINA RESULT: -6.897556456      0.000      0.000
REMARK  6 active torsions:
REMARK  status: ('A' for Active; 'I' for Inactive)
REMARK    1  A    between atoms: C5_5  and  C6_6 
REMARK    2  A    between atoms: C6_6  and  C7_7 
REMARK    3  A    between atoms: C7_7  and  C8_8 
REMARK    4  A    between atoms: C8_8  and  C9_9 
REMARK    5  A    between atoms: C9_9  and  N1_10 
REMARK    6  A    between atoms: N1_10  and  C10_12 
ROOT
HETATM    1  C9  UNL     1      78.886 402.833 119.678  1.00  0.00     0.119 C 
ENDROOT
BRANCH   1   2
HETATM    2  C8  UNL     1      79.040 403.109 118.205  1.00  0.00     0.020 C 
BRANCH   2   3
HETATM    3  C7  UNL     1      77.802 402.589 117.488  1.00  0.00     0.002 C 
BRANCH   3   4
HETATM    4  C6  UNL     1      77.739 401.089 117.502  1.00  0.00     0.009 C 
BRANCH   4   5
HETATM    5  C5  UNL     1      76.391 400.543 117.857  1.00  0.00     0.014 C 
HETATM    6  C2  UNL     1      76.511 399.497 118.906  1.00  0.00    -0.085 C 
HETATM    7  C1  UNL     1      76.795 398.204 118.958  1.00  0.00     0.014 C 
HETATM    8  C3  UNL     1      76.170 400.525 119.927  1.00  0.00     0.034 C 
HETATM    9  C4  UNL     1      75.562 401.347 118.811  1.00  0.00     0.013 C 
ENDBRANCH   4   5
ENDBRANCH   3   4
ENDBRANCH   2   3
ENDBRANCH   1   2
BRANCH   1  10
HETATM   10  N1  UNL     1      78.945 404.052 120.448  1.00  0.00    -0.390 N 
ATOM     11  H1  UNL     1      79.481 404.065 121.316  1.00  0.00     0.159 HD
BRANCH  10  12
HETATM   12  C10 UNL     1      78.283 405.226 120.031  1.00  0.00     0.027 A 
HETATM   13  C11 UNL     1      76.912 405.286 119.944  1.00  0.00     0.029 A 
HETATM   14  C12 UNL     1      76.272 406.458 119.528  1.00  0.00     0.002 A 
HETATM   15  C13 UNL     1      77.023 407.567 119.203  1.00  0.00     0.000 A 
HETATM   16  C14 UNL     1      78.390 407.517 119.288  1.00  0.00     0.002 A 
HETATM   17  C15 UNL     1      79.006 406.348 119.701  1.00  0.00     0.029 A 
ENDBRANCH  10  12
ENDBRANCH   1  10
TORSDOF 6
ENDMDL
MODEL 2
REMARK VINA RESULT: -6.877452914      7.773     10.770
REMARK  6 active torsions:
REMARK  status: ('A' for Active; 'I' for Inactive)
REMARK    1  A    between atoms: C5_5  and  C6_6 
REMARK    2  A    between atoms: C6_6  and  C7_7 
REMARK    3  A    between atoms: C7_7  and  C8_8 
REMARK    4  A    between atoms: C8_8  and  C9_9 
REMARK    5  A    between atoms: C9_9  and  N1_10 
REMARK    6  A    between atoms: N1_10  and  C10_12 
ROOT
HETATM    1  C9  UNL     1      77.790 392.054 115.948  1.00  0.00     0.119 C 
ENDROOT
BRANCH   1   2
HETATM    2  C8  UNL     1      77.470 390.589 116.096  1.00  0.00     0.020 C 
BRANCH   2   3
HETATM    3  C7  UNL     1      78.432 389.988 117.112  1.00  0.00     0.002 C 
BRANCH   3   4
HETATM    4  C6  UNL     1      79.159 391.050 117.885  1.00  0.00     0.009 C 
BRANCH   4   5
HETATM    5  C5  UNL     1      78.832 391.066 119.346  1.00  0.00     0.014 C 
HETATM    6  C2  UNL     1      78.104 392.311 119.705  1.00  0.00    -0.085 C 
HETATM    7  C1  UNL     1      78.415 393.566 119.994  1.00  0.00     0.014 C 
HETATM    8  C3  UNL     1      76.825 391.557 119.605  1.00  0.00     0.034 C 
HETATM    9  C4  UNL     1      77.629 390.286 119.781  1.00  0.00     0.013 C 
ENDBRANCH   4   5
ENDBRANCH   3   4
ENDBRANCH   2   3
ENDBRANCH   1   2
BRANCH   1  10
HETATM   10  N1  UNL     1      76.639 392.873 116.241  1.00  0.00    -0.390 N 
ATOM     11  H1  UNL     1      75.710 392.527 116.002  1.00  0.00     0.159 HD
BRANCH  10  12
HETATM   12  C10 UNL     1      76.765 394.140 116.847  1.00  0.00     0.027 A 
HETATM   13  C11 UNL     1      75.785 394.645 117.669  1.00  0.00     0.029 A 
HETATM   14  C12 UNL     1      75.927 395.904 118.262  1.00  0.00     0.002 A 
HETATM   15  C13 UNL     1      77.061 396.647 118.022  1.00  0.00     0.000 A 
HETATM   16  C14 UNL     1      78.044 396.153 117.205  1.00  0.00     0.002 A 
HETATM   17  C15 UNL     1      77.887 394.905 116.627  1.00  0.00     0.029 A 
ENDBRANCH  10  12
ENDBRANCH   1  10
TORSDOF 6
ENDMDL
MODEL 3
REMARK VINA RESULT: -6.824647942      2.257      7.093
REMARK  6 active torsions:
REMARK  status: ('A' for Active; 'I' for Inactive)
REMARK    1  A    between atoms: C5_5  and  C6_6 
REMARK    2  A    between atoms: C6_6  and  C7_7 
REMARK    3  A    between atoms: C7_7  and  C8_8 
REMARK    4  A    between atoms: C8_8  and  C9_9 
REMARK    5  A    between atoms: C9_9  and  N1_10 
REMARK    6  A    between atoms: N1_10  and  C10_12 
ROOT
HETATM    1  C9  UNL     1      76.355 400.024 119.390  1.00  0.00     0.119 C 
ENDROOT
BRANCH   1   2
HETATM    2  C8  UNL     1      76.273 400.931 120.591  1.00  0.00     0.020 C 
BRANCH   2   3
HETATM    3  C7  UNL     1      77.676 401.430 120.910  1.00  0.00     0.002 C 
BRANCH   3   4
HETATM    4  C6  UNL     1      77.795 402.915 120.724  1.00  0.00     0.009 C 
BRANCH   4   5
HETATM    5  C5  UNL     1      79.026 403.337 119.985  1.00  0.00     0.014 C 
HETATM    6  C2  UNL     1      78.952 402.913 118.562  1.00  0.00    -0.085 C 
HETATM    7  C1  UNL     1      79.188 401.811 117.866  1.00  0.00     0.014 C 
HETATM    8  C3  UNL     1      78.484 404.281 118.210  1.00  0.00     0.034 C 
HETATM    9  C4  UNL     1      79.083 404.759 119.516  1.00  0.00     0.013 C 
ENDBRANCH   4   5
ENDBRANCH   3   4
ENDBRANCH   2   3
ENDBRANCH   1   2
BRANCH   1  10
HETATM   10  N1  UNL     1      77.365 399.010 119.568  1.00  0.00    -0.390 N 
ATOM     11  H1  UNL     1      78.141 399.189 120.205  1.00  0.00     0.159 HD
BRANCH  10  12
HETATM   12  C10 UNL     1      77.308 397.778 118.884  1.00  0.00     0.027 A 
HETATM   13  C11 UNL     1      76.199 396.968 118.952  1.00  0.00     0.029 A 
HETATM   14  C12 UNL     1      76.160 395.749 118.267  1.00  0.00     0.002 A 
HETATM   15  C13 UNL     1      77.244 395.354 117.515  1.00  0.00     0.000 A 
HETATM   16  C14 UNL     1      78.354 396.154 117.440  1.00  0.00     0.002 A 
HETATM   17  C15 UNL     1      78.375 397.357 118.125  1.00  0.00     0.029 A 
ENDBRANCH  10  12
ENDBRANCH   1  10
TORSDOF 6
ENDMDL
MODEL 4
REMARK VINA RESULT: -6.789498004      2.198      7.411
REMARK  6 active torsions:
REMARK  status: ('A' for Active; 'I' for Inactive)
REMARK    1  A    between atoms: C5_5  and  C6_6 
REMARK    2  A    between atoms: C6_6  and  C7_7 
REMARK    3  A    between atoms: C7_7  and  C8_8 
REMARK    4  A    between atoms: C8_8  and  C9_9 
REMARK    5  A    between atoms: C9_9  and  N1_10 
REMARK    6  A    between atoms: N1_10  and  C10_12 
ROOT
HETATM    1  C9  UNL     1      77.645 405.625 120.100  1.00  0.00     0.119 C 
ENDROOT
BRANCH   1   2
HETATM    2  C8  UNL     1      76.647 406.672 119.677  1.00  0.00     0.020 C 
BRANCH   2   3
HETATM    3  C7  UNL     1      77.397 407.789 118.962  1.00  0.00     0.002 C 
BRANCH   3   4
HETATM    4  C6  UNL     1      78.386 408.463 119.868  1.00  0.00     0.009 C 
BRANCH   4   5
HETATM    5  C5  UNL     1      78.423 409.953 119.721  1.00  0.00     0.014 C 
HETATM    6  C2  UNL     1      77.511 410.597 120.703  1.00  0.00    -0.085 C 
HETATM    7  C1  UNL     1      76.217 410.866 120.791  1.00  0.00     0.014 C 
HETATM    8  C3  UNL     1      78.681 410.831 121.592  1.00  0.00     0.034 C 
HETATM    9  C4  UNL     1      79.565 410.671 120.373  1.00  0.00     0.013 C 
ENDBRANCH   4   5
ENDBRANCH   3   4
ENDBRANCH   2   3
ENDBRANCH   1   2
BRANCH   1  10
HETATM   10  N1  UNL     1      77.729 404.561 119.130  1.00  0.00    -0.390 N 
ATOM     11  H1  UNL     1      78.224 404.726 118.253  1.00  0.00     0.159 HD
BRANCH  10  12
HETATM   12  C10 UNL     1      77.146 403.298 119.361  1.00  0.00     0.027 A 
HETATM   13  C11 UNL     1      76.285 402.726 118.455  1.00  0.00     0.029 A 
HETATM   14  C12 UNL     1      75.715 401.472 118.701  1.00  0.00     0.002 A 
HETATM   15  C13 UNL     1      76.019 400.802 119.865  1.00  0.00     0.000 A 
HETATM   16  C14 UNL     1      76.876 401.364 120.776  1.00  0.00     0.002 A 
HETATM   17  C15 UNL     1      77.430 402.605 120.514  1.00  0.00     0.029 A 
ENDBRANCH  10  12
ENDBRANCH   1  10
TORSDOF 6
ENDMDL
MODEL 5
REMARK VINA RESULT: -6.777343125      7.819     10.732
REMARK  6 active torsions:
REMARK  status: ('A' for Active; 'I' for Inactive)
REMARK    1  A    between atoms: C5_5  and  C6_6 
REMARK    2  A    between atoms: C6_6  and  C7_7 
REMARK    3  A    between atoms: C7_7  and  C8_8 
REMARK    4  A    between atoms: C8_8  and  C9_9 
REMARK    5  A    between atoms: C9_9  and  N1_10 
REMARK    6  A    between atoms: N1_10  and  C10_12 
ROOT
HETATM    1  C9  UNL     1      79.085 391.691 119.193  1.00  0.00     0.119 C 
ENDROOT
BRANCH   1   2
HETATM    2  C8  UNL     1      78.891 390.317 118.606  1.00  0.00     0.020 C 
BRANCH   2   3
HETATM    3  C7  UNL     1      77.519 389.806 119.026  1.00  0.00     0.002 C 
BRANCH   3   4
HETATM    4  C6  UNL     1      76.599 390.930 119.408  1.00  0.00     0.009 C 
BRANCH   4   5
HETATM    5  C5  UNL     1      75.472 391.143 118.446  1.00  0.00     0.014 C 
HETATM    6  C2  UNL     1      75.585 392.476 117.797  1.00  0.00    -0.085 C 
HETATM    7  C1  UNL     1      75.269 393.728 118.092  1.00  0.00     0.014 C 
HETATM    8  C3  UNL     1      76.228 391.818 116.627  1.00  0.00     0.034 C 
HETATM    9  C4  UNL     1      75.608 390.517 117.092  1.00  0.00     0.013 C 
ENDBRANCH   4   5
ENDBRANCH   3   4
ENDBRANCH   2   3
ENDBRANCH   1   2
BRANCH   1  10
HETATM   10  N1  UNL     1      79.450 392.648 118.177  1.00  0.00    -0.390 N 
ATOM     11  H1  UNL     1      80.112 392.372 117.451  1.00  0.00     0.159 HD
BRANCH  10  12
HETATM   12  C10 UNL     1      78.917 393.953 118.160  1.00  0.00     0.027 A 
HETATM   13  C11 UNL     1      78.667 394.644 119.322  1.00  0.00     0.029 A 
HETATM   14  C12 UNL     1      78.137 395.938 119.287  1.00  0.00     0.002 A 
HETATM   15  C13 UNL     1      77.863 396.529 118.073  1.00  0.00     0.000 A 
HETATM   16  C14 UNL     1      78.109 395.850 116.909  1.00  0.00     0.002 A 
HETATM   17  C15 UNL     1      78.633 394.569 116.964  1.00  0.00     0.029 A 
ENDBRANCH  10  12
ENDBRANCH   1  10
TORSDOF 6
ENDMDL
