MODEL 1
REMARK VINA RESULT: -6.287091667      0.000      0.000
REMARK  7 active torsions:
REMARK  status: ('A' for Active; 'I' for Inactive)
REMARK    1  A    between atoms: N1_1  and  C1_5 
REMARK    2  A    between atoms: C1_5  and  C2_6 
REMARK    3  A    between atoms: C2_6  and  C3_7 
REMARK    4  A    between atoms: C3_7  and  C4_8 
REMARK    5  A    between atoms: C4_8  and  C5_9 
REMARK    6  A    between atoms: C5_9  and  C6_10 
REMARK    7  A    between atoms: C6_10  and  C7_11 
ROOT
HETATM    1  C7  UNL     1      77.534 393.014 119.258  1.00  0.00    -0.047 A 
HETATM    2  C8  UNL     1      78.762 392.491 118.885  1.00  0.00     0.008 A 
HETATM    3  C9  UNL     1      79.670 393.229 118.124  1.00  0.00     0.001 A 
HETATM    4  C10 UNL     1      79.381 394.508 117.714  1.00  0.00     0.012 A 
HETATM    5  C11 UNL     1      78.161 395.036 118.082  1.00  0.00    -0.025 A 
HETATM    6  C12 UNL     1      77.883 396.318 117.660  1.00  0.00     0.012 A 
HETATM    7  C13 UNL     1      76.666 396.915 117.990  1.00  0.00     0.001 A 
HETATM    8  C14 UNL     1      75.776 396.172 118.744  1.00  0.00     0.001 A 
HETATM    9  C15 UNL     1      76.071 394.876 119.163  1.00  0.00     0.013 A 
HETATM   10  C16 UNL     1      77.257 394.294 118.841  1.00  0.00    -0.020 A 
ENDROOT
BRANCH   1  11
HETATM   11  C6  UNL     1      76.609 392.207 120.073  1.00  0.00     0.039 C 
BRANCH  11  12
HETATM   12  C5  UNL     1      76.124 390.965 119.424  1.00  0.00     0.005 C 
BRANCH  12  13
HETATM   13  C4  UNL     1      75.209 391.208 118.243  1.00  0.00     0.000 C 
BRANCH  13  14
HETATM   14  C3  UNL     1      75.909 390.570 117.056  1.00  0.00     0.002 C 
BRANCH  14  15
HETATM   15  C2  UNL     1      76.502 391.551 116.098  1.00  0.00     0.027 C 
BRANCH  15  16
HETATM   16  C1  UNL     1      77.881 391.121 115.641  1.00  0.00     0.229 C 
BRANCH  16  17
HETATM   17  N1  UNL     1      78.344 389.978 116.424  1.00  0.00    -0.079 N 
ATOM     18  H13 UNL     1      77.632 389.652 117.079  1.00  0.00     0.274 HD
ATOM     19  H12 UNL     1      78.423 389.135 115.855  1.00  0.00     0.274 HD
ATOM     20  H11 UNL     1      79.220 390.201 116.896  1.00  0.00     0.274 HD
ENDBRANCH  16  17
ENDBRANCH  15  16
ENDBRANCH  14  15
ENDBRANCH  13  14
ENDBRANCH  12  13
ENDBRANCH  11  12
ENDBRANCH   1  11
TORSDOF 7
ENDMDL
MODEL 2
REMARK VINA RESULT: -6.240606612      2.898      5.524
REMARK  7 active torsions:
REMARK  status: ('A' for Active; 'I' for Inactive)
REMARK    1  A    between atoms: N1_1  and  C1_5 
REMARK    2  A    between atoms: C1_5  and  C2_6 
REMARK    3  A    between atoms: C2_6  and  C3_7 
REMARK    4  A    between atoms: C3_7  and  C4_8 
REMARK    5  A    between atoms: C4_8  and  C5_9 
REMARK    6  A    between atoms: C5_9  and  C6_10 
REMARK    7  A    between atoms: C6_10  and  C7_11 
ROOT
HETATM    1  C7  UNL     1      76.772 393.621 118.261  1.00  0.00    -0.047 A 
HETATM    2  C8  UNL     1      77.107 393.776 119.596  1.00  0.00     0.008 A 
HETATM    3  C9  UNL     1      77.973 392.891 120.240  1.00  0.00     0.001 A 
HETATM    4  C10 UNL     1      78.530 391.828 119.573  1.00  0.00     0.012 A 
HETATM    5  C11 UNL     1      78.202 391.667 118.243  1.00  0.00    -0.025 A 
HETATM    6  C12 UNL     1      78.764 390.593 117.587  1.00  0.00     0.012 A 
HETATM    7  C13 UNL     1      78.473 390.364 116.242  1.00  0.00     0.001 A 
HETATM    8  C14 UNL     1      77.614 391.248 115.616  1.00  0.00     0.001 A 
HETATM    9  C15 UNL     1      77.052 392.330 116.293  1.00  0.00     0.013 A 
HETATM   10  C16 UNL     1      77.335 392.552 117.604  1.00  0.00    -0.020 A 
ENDROOT
BRANCH   1  11
HETATM   11  C6  UNL     1      75.864 394.586 117.613  1.00  0.00     0.039 C 
BRANCH  11  12
HETATM   12  C5  UNL     1      76.307 396.000 117.676  1.00  0.00     0.005 C 
BRANCH  12  13
HETATM   13  C4  UNL     1      77.649 396.251 117.021  1.00  0.00     0.000 C 
BRANCH  13  14
HETATM   14  C3  UNL     1      78.514 396.871 118.104  1.00  0.00     0.002 C 
BRANCH  14  15
HETATM   15  C2  UNL     1      77.742 397.425 119.257  1.00  0.00     0.027 C 
BRANCH  15  16
HETATM   16  C1  UNL     1      77.846 398.934 119.325  1.00  0.00     0.229 C 
BRANCH  16  17
HETATM   17  N1  UNL     1      76.705 399.554 118.656  1.00  0.00    -0.079 N 
ATOM     18  H13 UNL     1      75.841 399.037 118.821  1.00  0.00     0.274 HD
ATOM     19  H12 UNL     1      76.440 400.436 119.095  1.00  0.00     0.274 HD
ATOM     20  H11 UNL     1      76.895 399.668 117.660  1.00  0.00     0.274 HD
ENDBRANCH  16  17
ENDBRANCH  15  16
ENDBRANCH  14  15
ENDBRANCH  13  14
ENDBRANCH  12  13
ENDBRANCH  11  12
ENDBRANCH   1  11
TORSDOF 7
ENDMDL
MODEL 3
REMARK VINA RESULT: -6.225141184      1.352      2.023
REMARK  7 active torsions:
REMARK  status: ('A' for Active; 'I' for Inactive)
REMARK    1  A    between atoms: N1_1  and  C1_5 
REMARK    2  A    between atoms: C1_5  and  C2_6 
REMARK    3  A    between atoms: C2_6  and  C3_7 
REMARK    4  A    between atoms: C3_7  and  C4_8 
REMARK    5  A    between atoms: C4_8  and  C5_9 
REMARK    6  A    between atoms: C5_9  and  C6_10 
REMARK    7  A    between atoms: C6_10  and  C7_11 
ROOT
HETATM    1  C7  UNL     1      76.680 393.626 117.478  1.00  0.00    -0.047 A 
HETATM    2  C8  UNL     1      77.698 393.078 116.715  1.00  0.00     0.008 A 
HETATM    3  C9  UNL     1      78.915 393.739 116.534  1.00  0.00     0.001 A 
HETATM    4  C10 UNL     1      79.151 394.964 117.109  1.00  0.00     0.012 A 
HETATM    5  C11 UNL     1      78.142 395.517 117.870  1.00  0.00    -0.025 A 
HETATM    6  C12 UNL     1      78.391 396.749 118.435  1.00  0.00     0.012 A 
HETATM    7  C13 UNL     1      77.415 397.372 119.214  1.00  0.00     0.001 A 
HETATM    8  C14 UNL     1      76.215 396.705 119.384  1.00  0.00     0.001 A 
HETATM    9  C15 UNL     1      75.978 395.460 118.805  1.00  0.00     0.013 A 
HETATM   10  C16 UNL     1      76.929 394.854 118.046  1.00  0.00    -0.020 A 
ENDROOT
BRANCH   1  11
HETATM   11  C6  UNL     1      75.416 392.890 117.656  1.00  0.00     0.039 C 
BRANCH  11  12
HETATM   12  C5  UNL     1      75.551 391.564 118.306  1.00  0.00     0.005 C 
BRANCH  12  13
HETATM   13  C4  UNL     1      76.188 391.618 119.679  1.00  0.00     0.000 C 
BRANCH  13  14
HETATM   14  C3  UNL     1      77.243 390.526 119.674  1.00  0.00     0.002 C 
BRANCH  14  15
HETATM   15  C2  UNL     1      78.636 391.026 119.470  1.00  0.00     0.027 C 
BRANCH  15  16
HETATM   16  C1  UNL     1      79.284 390.391 118.257  1.00  0.00     0.229 C 
BRANCH  16  17
HETATM   17  N1  UNL     1      78.433 389.332 117.719  1.00  0.00    -0.079 N 
ATOM     18  H13 UNL     1      78.615 388.434 118.168  1.00  0.00     0.274 HD
ATOM     19  H12 UNL     1      77.459 389.448 118.001  1.00  0.00     0.274 HD
ATOM     20  H11 UNL     1      78.531 389.277 116.705  1.00  0.00     0.274 HD
ENDBRANCH  16  17
ENDBRANCH  15  16
ENDBRANCH  14  15
ENDBRANCH  13  14
ENDBRANCH  12  13
ENDBRANCH  11  12
ENDBRANCH   1  11
TORSDOF 7
ENDMDL
MODEL 4
REMARK VINA RESULT: -6.219472767      1.321      2.543
REMARK  7 active torsions:
REMARK  status: ('A' for Active; 'I' for Inactive)
REMARK    1  A    between atoms: N1_1  and  C1_5 
REMARK    2  A    between atoms: C1_5  and  C2_6 
REMARK    3  A    between atoms: C2_6  and  C3_7 
REMARK    4  A    between atoms: C3_7  and  C4_8 
REMARK    5  A    between atoms: C4_8  and  C5_9 
REMARK    6  A    between atoms: C5_9  and  C6_10 
REMARK    7  A    between atoms: C6_10  and  C7_11 
ROOT
HETATM    1  C7  UNL     1      77.212 393.207 119.201  1.00  0.00    -0.047 A 
HETATM    2  C8  UNL     1      76.083 392.594 118.683  1.00  0.00     0.008 A 
HETATM    3  C9  UNL     1      75.166 393.294 117.896  1.00  0.00     0.001 A 
HETATM    4  C10 UNL     1      75.350 394.623 117.601  1.00  0.00     0.012 A 
HETATM    5  C11 UNL     1      76.472 395.241 118.112  1.00  0.00    -0.025 A 
HETATM    6  C12 UNL     1      76.641 396.575 117.813  1.00  0.00     0.012 A 
HETATM    7  C13 UNL     1      77.750 397.267 118.300  1.00  0.00     0.001 A 
HETATM    8  C14 UNL     1      78.649 396.561 119.078  1.00  0.00     0.001 A 
HETATM    9  C15 UNL     1      78.465 395.212 119.374  1.00  0.00     0.013 A 
HETATM   10  C16 UNL     1      77.383 394.538 118.900  1.00  0.00    -0.020 A 
ENDROOT
BRANCH   1  11
HETATM   11  C6  UNL     1      78.162 392.430 120.017  1.00  0.00     0.039 C 
BRANCH  11  12
HETATM   12  C5  UNL     1      78.781 391.274 119.324  1.00  0.00     0.005 C 
BRANCH  12  13
HETATM   13  C4  UNL     1      79.551 391.648 118.076  1.00  0.00     0.000 C 
BRANCH  13  14
HETATM   14  C3  UNL     1      79.058 390.696 117.000  1.00  0.00     0.002 C 
BRANCH  14  15
HETATM   15  C2  UNL     1      78.173 391.334 115.980  1.00  0.00     0.027 C 
BRANCH  15  16
HETATM   16  C1  UNL     1      76.838 390.625 115.879  1.00  0.00     0.229 C 
BRANCH  16  17
HETATM   17  N1  UNL     1      76.847 389.405 116.681  1.00  0.00    -0.079 N 
ATOM     18  H13 UNL     1      77.715 388.882 116.568  1.00  0.00     0.274 HD
ATOM     19  H12 UNL     1      76.920 389.607 117.678  1.00  0.00     0.274 HD
ATOM     20  H11 UNL     1      76.029 388.833 116.468  1.00  0.00     0.274 HD
ENDBRANCH  16  17
ENDBRANCH  15  16
ENDBRANCH  14  15
ENDBRANCH  13  14
ENDBRANCH  12  13
ENDBRANCH  11  12
ENDBRANCH   1  11
TORSDOF 7
ENDMDL
MODEL 5
REMARK VINA RESULT: -6.202820672      1.746      3.387
REMARK  7 active torsions:
REMARK  status: ('A' for Active; 'I' for Inactive)
REMARK    1  A    between atoms: N1_1  and  C1_5 
REMARK    2  A    between atoms: C1_5  and  C2_6 
REMARK    3  A    between atoms: C2_6  and  C3_7 
REMARK    4  A    between atoms: C3_7  and  C4_8 
REMARK    5  A    between atoms: C4_8  and  C5_9 
REMARK    6  A    between atoms: C5_9  and  C6_10 
REMARK    7  A    between atoms: C6_10  and  C7_11 
ROOT
HETATM    1  C7  UNL     1      77.484 393.766 117.132  1.00  0.00    -0.047 A 
HETATM    2  C8  UNL     1      76.312 393.047 117.299  1.00  0.00     0.008 A 
HETATM    3  C9  UNL     1      75.244 393.550 118.043  1.00  0.00     0.001 A 
HETATM    4  C10 UNL     1      75.313 394.785 118.641  1.00  0.00     0.012 A 
HETATM    5  C11 UNL     1      76.476 395.508 118.480  1.00  0.00    -0.025 A 
HETATM    6  C12 UNL     1      76.533 396.742 119.090  1.00  0.00     0.012 A 
HETATM    7  C13 UNL     1      77.681 397.527 118.975  1.00  0.00     0.001 A 
HETATM    8  C14 UNL     1      78.731 397.016 118.235  1.00  0.00     0.001 A 
HETATM    9  C15 UNL     1      78.659 395.766 117.624  1.00  0.00     0.013 A 
HETATM   10  C16 UNL     1      77.541 395.000 117.737  1.00  0.00    -0.020 A 
ENDROOT
BRANCH   1  11
HETATM   11  C6  UNL     1      78.584 393.205 116.327  1.00  0.00     0.039 C 
BRANCH  11  12
HETATM   12  C5  UNL     1      78.644 391.724 116.297  1.00  0.00     0.005 C 
BRANCH  12  13
HETATM   13  C4  UNL     1      79.605 391.129 117.305  1.00  0.00     0.000 C 
BRANCH  13  14
HETATM   14  C3  UNL     1      78.736 390.348 118.275  1.00  0.00     0.002 C 
BRANCH  14  15
HETATM   15  C2  UNL     1      78.475 391.055 119.564  1.00  0.00     0.027 C 
BRANCH  15  16
HETATM   16  C1  UNL     1      77.050 390.848 120.035  1.00  0.00     0.229 C 
BRANCH  16  17
HETATM   17  N1  UNL     1      76.338 389.952 119.127  1.00  0.00    -0.079 N 
ATOM     18  H13 UNL     1      75.597 390.437 118.619  1.00  0.00     0.274 HD
ATOM     19  H12 UNL     1      76.915 389.682 118.330  1.00  0.00     0.274 HD
ATOM     20  H11 UNL     1      75.984 389.141 119.632  1.00  0.00     0.274 HD
ENDBRANCH  16  17
ENDBRANCH  15  16
ENDBRANCH  14  15
ENDBRANCH  13  14
ENDBRANCH  12  13
ENDBRANCH  11  12
ENDBRANCH   1  11
TORSDOF 7
ENDMDL
