MODEL 1
REMARK VINA RESULT: -7.297475993      0.000      0.000
REMARK  7 active torsions:
REMARK  status: ('A' for Active; 'I' for Inactive)
REMARK    1  A    between atoms: C4_4  and  C5_5 
REMARK    2  A    between atoms: C5_5  and  C6_6 
REMARK    3  A    between atoms: C6_6  and  C7_7 
REMARK    4  A    between atoms: C7_7  and  C8_8 
REMARK    5  A    between atoms: C8_8  and  C9_9 
REMARK    6  A    between atoms: C9_9  and  N1_10 
REMARK    7  A    between atoms: N1_10  and  C10_13 
ROOT
HETATM    1  C8  UNL     1      78.933 400.769 119.969  1.00  0.00     0.027 C 
ENDROOT
BRANCH   1   2
HETATM    2  C7  UNL     1      77.796 401.176 120.859  1.00  0.00     0.002 C 
BRANCH   2   3
HETATM    3  C6  UNL     1      77.609 402.657 120.830  1.00  0.00     0.005 C 
BRANCH   3   4
HETATM    4  C5  UNL     1      78.751 403.416 120.181  1.00  0.00     0.038 C 
BRANCH   4   5
HETATM    5  C4  UNL     1      78.220 404.774 119.901  1.00  0.00    -0.058 A 
HETATM    6  C3  UNL     1      76.869 404.978 119.771  1.00  0.00     0.007 A 
HETATM    7  C2  UNL     1      76.384 406.260 119.528  1.00  0.00     0.001 A 
HETATM    8  C1  UNL     1      77.253 407.337 119.417  1.00  0.00     0.000 A 
HETATM    9  C16 UNL     1      78.606 407.132 119.547  1.00  0.00     0.001 A 
HETATM   10  C15 UNL     1      79.065 405.841 119.790  1.00  0.00     0.007 A 
ENDBRANCH   4   5
ENDBRANCH   3   4
ENDBRANCH   2   3
ENDBRANCH   1   2
BRANCH   1  11
HETATM   11  C9  UNL     1      78.436 399.809 118.910  1.00  0.00     0.232 C 
BRANCH  11  12
HETATM   12  N1  UNL     1      77.450 398.903 119.449  1.00  0.00    -0.071 N 
ATOM     13  H12 UNL     1      77.745 398.477 120.327  1.00  0.00     0.277 HD
ATOM     14  H11 UNL     1      76.622 399.384 119.800  1.00  0.00     0.277 HD
BRANCH  12  15
HETATM   15  C10 UNL     1      77.140 397.935 118.442  1.00  0.00     0.185 C 
HETATM   16  C11 UNL     1      78.380 397.166 117.989  1.00  0.00     0.033 C 
HETATM   17  C12 UNL     1      77.761 396.052 117.167  1.00  0.00     0.002 C 
HETATM   18  C13 UNL     1      76.330 395.893 117.675  1.00  0.00     0.002 C 
HETATM   19  C14 UNL     1      76.296 396.774 118.934  1.00  0.00     0.033 C 
ENDBRANCH  12  15
ENDBRANCH  11  12
ENDBRANCH   1  11
TORSDOF 7
ENDMDL
MODEL 2
REMARK VINA RESULT: -7.265710734      0.798      1.518
REMARK  7 active torsions:
REMARK  status: ('A' for Active; 'I' for Inactive)
REMARK    1  A    between atoms: C4_4  and  C5_5 
REMARK    2  A    between atoms: C5_5  and  C6_6 
REMARK    3  A    between atoms: C6_6  and  C7_7 
REMARK    4  A    between atoms: C7_7  and  C8_8 
REMARK    5  A    between atoms: C8_8  and  C9_9 
REMARK    6  A    between atoms: C9_9  and  N1_10 
REMARK    7  A    between atoms: N1_10  and  C10_13 
ROOT
HETATM    1  C8  UNL     1      76.182 400.853 120.071  1.00  0.00     0.027 C 
ENDROOT
BRANCH   1   2
HETATM    2  C7  UNL     1      77.444 401.176 120.814  1.00  0.00     0.002 C 
BRANCH   2   3
HETATM    3  C6  UNL     1      77.686 402.649 120.827  1.00  0.00     0.005 C 
BRANCH   3   4
HETATM    4  C5  UNL     1      76.551 403.471 120.245  1.00  0.00     0.038 C 
BRANCH   4   5
HETATM    5  C4  UNL     1      77.139 404.797 119.929  1.00  0.00    -0.058 A 
HETATM    6  C3  UNL     1      78.491 405.001 120.040  1.00  0.00     0.007 A 
HETATM    7  C2  UNL     1      79.031 406.244 119.721  1.00  0.00     0.001 A 
HETATM    8  C1  UNL     1      78.216 407.282 119.292  1.00  0.00     0.000 A 
HETATM    9  C16 UNL     1      76.861 407.078 119.182  1.00  0.00     0.001 A 
HETATM   10  C15 UNL     1      76.347 405.825 119.506  1.00  0.00     0.007 A 
ENDBRANCH   4   5
ENDBRANCH   3   4
ENDBRANCH   2   3
ENDBRANCH   1   2
BRANCH   1  11
HETATM   11  C9  UNL     1      76.500 399.973 118.882  1.00  0.00     0.232 C 
BRANCH  11  12
HETATM   12  N1  UNL     1      77.224 398.791 119.285  1.00  0.00    -0.071 N 
ATOM     13  H12 UNL     1      78.214 398.973 119.453  1.00  0.00     0.277 HD
ATOM     14  H11 UNL     1      76.980 398.482 120.226  1.00  0.00     0.277 HD
BRANCH  12  15
HETATM   15  C10 UNL     1      77.007 397.779 118.298  1.00  0.00     0.185 C 
HETATM   16  C11 UNL     1      78.303 397.063 117.922  1.00  0.00     0.033 C 
HETATM   17  C12 UNL     1      77.778 395.894 117.110  1.00  0.00     0.002 C 
HETATM   18  C13 UNL     1      76.335 395.677 117.563  1.00  0.00     0.002 C 
HETATM   19  C14 UNL     1      76.202 396.591 118.791  1.00  0.00     0.033 C 
ENDBRANCH  12  15
ENDBRANCH  11  12
ENDBRANCH   1  11
TORSDOF 7
ENDMDL
MODEL 3
REMARK VINA RESULT: -7.237813215      3.257      5.381
REMARK  7 active torsions:
REMARK  status: ('A' for Active; 'I' for Inactive)
REMARK    1  A    between atoms: C4_4  and  C5_5 
REMARK    2  A    between atoms: C5_5  and  C6_6 
REMARK    3  A    between atoms: C6_6  and  C7_7 
REMARK    4  A    between atoms: C7_7  and  C8_8 
REMARK    5  A    between atoms: C8_8  and  C9_9 
REMARK    6  A    between atoms: C9_9  and  N1_10 
REMARK    7  A    between atoms: N1_10  and  C10_13 
ROOT
HETATM    1  C8  UNL     1      76.076 396.146 118.891  1.00  0.00     0.027 C 
ENDROOT
BRANCH   1   2
HETATM    2  C7  UNL     1      77.335 396.321 119.687  1.00  0.00     0.002 C 
BRANCH   2   3
HETATM    3  C6  UNL     1      78.296 397.207 118.965  1.00  0.00     0.005 C 
BRANCH   3   4
HETATM    4  C5  UNL     1      77.640 398.320 118.169  1.00  0.00     0.038 C 
BRANCH   4   5
HETATM    5  C4  UNL     1      77.561 399.479 119.094  1.00  0.00    -0.058 A 
HETATM    6  C3  UNL     1      76.344 399.965 119.498  1.00  0.00     0.007 A 
HETATM    7  C2  UNL     1      76.287 401.039 120.381  1.00  0.00     0.001 A 
HETATM    8  C1  UNL     1      77.449 401.627 120.858  1.00  0.00     0.000 A 
HETATM    9  C16 UNL     1      78.670 401.141 120.453  1.00  0.00     0.001 A 
HETATM   10  C15 UNL     1      78.699 400.065 119.570  1.00  0.00     0.007 A 
ENDBRANCH   4   5
ENDBRANCH   3   4
ENDBRANCH   2   3
ENDBRANCH   1   2
BRANCH   1  11
HETATM   11  C9  UNL     1      75.819 394.673 118.658  1.00  0.00     0.232 C 
BRANCH  11  12
HETATM   12  N1  UNL     1      76.818 394.100 117.788  1.00  0.00    -0.071 N 
ATOM     13  H12 UNL     1      76.533 394.102 116.808  1.00  0.00     0.277 HD
ATOM     14  H11 UNL     1      77.643 394.691 117.692  1.00  0.00     0.277 HD
BRANCH  12  15
HETATM   15  C10 UNL     1      77.128 392.790 118.271  1.00  0.00     0.185 C 
HETATM   16  C11 UNL     1      78.449 392.765 119.038  1.00  0.00     0.033 C 
HETATM   17  C12 UNL     1      78.407 391.384 119.667  1.00  0.00     0.002 C 
HETATM   18  C13 UNL     1      76.931 390.996 119.739  1.00  0.00     0.002 C 
HETATM   19  C14 UNL     1      76.199 392.294 119.363  1.00  0.00     0.033 C 
ENDBRANCH  12  15
ENDBRANCH  11  12
ENDBRANCH   1  11
TORSDOF 7
ENDMDL
MODEL 4
REMARK VINA RESULT: -7.233841404      3.327      5.474
REMARK  7 active torsions:
REMARK  status: ('A' for Active; 'I' for Inactive)
REMARK    1  A    between atoms: C4_4  and  C5_5 
REMARK    2  A    between atoms: C5_5  and  C6_6 
REMARK    3  A    between atoms: C6_6  and  C7_7 
REMARK    4  A    between atoms: C7_7  and  C8_8 
REMARK    5  A    between atoms: C8_8  and  C9_9 
REMARK    6  A    between atoms: C9_9  and  N1_10 
REMARK    7  A    between atoms: N1_10  and  C10_13 
ROOT
HETATM    1  C8  UNL     1      78.714 396.183 117.807  1.00  0.00     0.027 C 
ENDROOT
BRANCH   1   2
HETATM    2  C7  UNL     1      78.437 396.482 119.251  1.00  0.00     0.002 C 
BRANCH   2   3
HETATM    3  C6  UNL     1      77.127 397.183 119.401  1.00  0.00     0.005 C 
BRANCH   3   4
HETATM    4  C5  UNL     1      76.916 398.324 118.422  1.00  0.00     0.038 C 
BRANCH   4   5
HETATM    5  C4  UNL     1      77.723 399.454 118.947  1.00  0.00    -0.058 A 
HETATM    6  C3  UNL     1      78.657 400.070 118.153  1.00  0.00     0.007 A 
HETATM    7  C2  UNL     1      79.392 401.141 118.653  1.00  0.00     0.001 A 
HETATM    8  C1  UNL     1      79.190 401.595 119.948  1.00  0.00     0.000 A 
HETATM    9  C16 UNL     1      78.255 400.979 120.745  1.00  0.00     0.001 A 
HETATM   10  C15 UNL     1      77.533 399.910 120.221  1.00  0.00     0.007 A 
ENDBRANCH   4   5
ENDBRANCH   3   4
ENDBRANCH   2   3
ENDBRANCH   1   2
BRANCH   1  11
HETATM   11  C9  UNL     1      78.593 394.694 117.561  1.00  0.00     0.232 C 
BRANCH  11  12
HETATM   12  N1  UNL     1      78.792 393.946 118.779  1.00  0.00    -0.071 N 
ATOM     13  H12 UNL     1      79.769 393.691 118.929  1.00  0.00     0.277 HD
ATOM     14  H11 UNL     1      78.668 394.515 119.616  1.00  0.00     0.277 HD
BRANCH  12  15
HETATM   15  C10 UNL     1      77.923 392.810 118.749  1.00  0.00     0.185 C 
HETATM   16  C11 UNL     1      78.425 391.684 119.651  1.00  0.00     0.033 C 
HETATM   17  C12 UNL     1      77.227 390.752 119.667  1.00  0.00     0.002 C 
HETATM   18  C13 UNL     1      76.013 391.616 119.333  1.00  0.00     0.002 C 
HETATM   19  C14 UNL     1      76.566 393.049 119.385  1.00  0.00     0.033 C 
ENDBRANCH  12  15
ENDBRANCH  11  12
ENDBRANCH   1  11
TORSDOF 7
ENDMDL
MODEL 5
REMARK VINA RESULT: -7.216413745      3.740      8.955
REMARK  7 active torsions:
REMARK  status: ('A' for Active; 'I' for Inactive)
REMARK    1  A    between atoms: C4_4  and  C5_5 
REMARK    2  A    between atoms: C5_5  and  C6_6 
REMARK    3  A    between atoms: C6_6  and  C7_7 
REMARK    4  A    between atoms: C7_7  and  C8_8 
REMARK    5  A    between atoms: C8_8  and  C9_9 
REMARK    6  A    between atoms: C9_9  and  N1_10 
REMARK    7  A    between atoms: N1_10  and  C10_13 
ROOT
HETATM    1  C8  UNL     1      77.295 406.497 120.067  1.00  0.00     0.027 C 
ENDROOT
BRANCH   1   2
HETATM    2  C7  UNL     1      78.721 406.032 120.101  1.00  0.00     0.002 C 
BRANCH   2   3
HETATM    3  C6  UNL     1      78.890 404.791 119.288  1.00  0.00     0.005 C 
BRANCH   3   4
HETATM    4  C5  UNL     1      79.066 403.527 120.110  1.00  0.00     0.038 C 
BRANCH   4   5
HETATM    5  C4  UNL     1      77.865 402.700 119.833  1.00  0.00    -0.058 A 
HETATM    6  C3  UNL     1      77.174 402.851 118.658  1.00  0.00     0.007 A 
HETATM    7  C2  UNL     1      76.061 402.054 118.403  1.00  0.00     0.001 A 
HETATM    8  C1  UNL     1      75.641 401.108 119.327  1.00  0.00     0.000 A 
HETATM    9  C16 UNL     1      76.333 400.958 120.506  1.00  0.00     0.001 A 
HETATM   10  C15 UNL     1      77.443 401.766 120.735  1.00  0.00     0.007 A 
ENDBRANCH   4   5
ENDBRANCH   3   4
ENDBRANCH   2   3
ENDBRANCH   1   2
BRANCH   1  11
HETATM   11  C9  UNL     1      77.118 407.524 118.970  1.00  0.00     0.232 C 
BRANCH  11  12
HETATM   12  N1  UNL     1      77.999 408.651 119.163  1.00  0.00    -0.071 N 
ATOM     13  H12 UNL     1      78.974 408.374 119.278  1.00  0.00     0.277 HD
ATOM     14  H11 UNL     1      78.115 409.210 118.317  1.00  0.00     0.277 HD
BRANCH  12  15
HETATM   15  C10 UNL     1      77.507 409.416 120.267  1.00  0.00     0.185 C 
HETATM   16  C11 UNL     1      78.592 410.304 120.874  1.00  0.00     0.033 C 
HETATM   17  C12 UNL     1      77.777 411.188 121.799  1.00  0.00     0.002 C 
HETATM   18  C13 UNL     1      76.353 411.184 121.244  1.00  0.00     0.002 C 
HETATM   19  C14 UNL     1      76.499 410.484 119.884  1.00  0.00     0.033 C 
ENDBRANCH  12  15
ENDBRANCH  11  12
ENDBRANCH   1  11
TORSDOF 7
ENDMDL
