MODEL 1
REMARK VINA RESULT: -7.098636908      0.000      0.000
REMARK  6 active torsions:
REMARK  status: ('A' for Active; 'I' for Inactive)
REMARK    1  A    between atoms: C2_2  and  C3_3 
REMARK    2  A    between atoms: C3_3  and  C4_4 
REMARK    3  A    between atoms: C7_7  and  C8_8 
REMARK    4  A    between atoms: C8_8  and  N1_9 
REMARK    5  A    between atoms: N1_9  and  C9_12 
REMARK    6  A    between atoms: C9_12  and  C10_13 
ROOT
HETATM    1  N1  UNL     1      77.679 403.007 120.812  1.00  0.00    -0.071 N 
ATOM      2  H11 UNL     1      78.509 403.027 120.219  1.00  0.00     0.277 HD
ATOM      3  H12 UNL     1      78.130 403.313 121.675  1.00  0.00     0.277 HD
ENDROOT
BRANCH   1   4
HETATM    4  C8  UNL     1      77.091 401.708 120.913  1.00  0.00     0.237 C 
BRANCH   4   5
HETATM    5  C7  UNL     1      77.606 400.730 119.900  1.00  0.00     0.011 C 
HETATM    6  C6  UNL     1      78.887 401.190 119.241  1.00  0.00     0.007 C 
HETATM    7  C5  UNL     1      79.008 400.165 118.118  1.00  0.00     0.005 C 
HETATM    8  C4  UNL     1      77.599 399.737 117.792  1.00  0.00    -0.011 C 
HETATM    9  C16 UNL     1      76.700 400.579 118.708  1.00  0.00     0.011 C 
BRANCH   8  10
HETATM   10  C3  UNL     1      77.285 398.317 118.067  1.00  0.00     0.031 C 
BRANCH  10  11
HETATM   11  C2  UNL     1      78.398 397.392 118.258  1.00  0.00    -0.037 C 
HETATM   12  C1  UNL     1      78.452 396.521 119.232  1.00  0.00     0.007 C 
ENDBRANCH  10  11
ENDBRANCH   8  10
ENDBRANCH   4   5
ENDBRANCH   1   4
BRANCH   1  13
HETATM   13  C9  UNL     1      76.622 403.915 120.359  1.00  0.00     0.270 C 
BRANCH  13  14
HETATM   14  C10 UNL     1      77.211 405.230 119.978  1.00  0.00    -0.033 A 
HETATM   15  C11 UNL     1      76.404 406.275 119.580  1.00  0.00     0.009 A 
HETATM   16  C12 UNL     1      76.905 407.502 119.222  1.00  0.00     0.001 A 
HETATM   17  C13 UNL     1      78.266 407.737 119.250  1.00  0.00     0.000 A 
HETATM   18  C14 UNL     1      79.086 406.702 119.646  1.00  0.00     0.001 A 
HETATM   19  C15 UNL     1      78.567 405.473 120.003  1.00  0.00     0.009 A 
ENDBRANCH  13  14
ENDBRANCH   1  13
TORSDOF 6
ENDMDL
MODEL 2
REMARK VINA RESULT: -7.063426729      0.598      1.334
REMARK  6 active torsions:
REMARK  status: ('A' for Active; 'I' for Inactive)
REMARK    1  A    between atoms: C2_2  and  C3_3 
REMARK    2  A    between atoms: C3_3  and  C4_4 
REMARK    3  A    between atoms: C7_7  and  C8_8 
REMARK    4  A    between atoms: C8_8  and  N1_9 
REMARK    5  A    between atoms: N1_9  and  C9_12 
REMARK    6  A    between atoms: C9_12  and  C10_13 
ROOT
HETATM    1  N1  UNL     1      77.811 403.070 120.844  1.00  0.00    -0.071 N 
ATOM      2  H11 UNL     1      78.641 403.161 120.259  1.00  0.00     0.277 HD
ATOM      3  H12 UNL     1      78.232 403.391 121.716  1.00  0.00     0.277 HD
ENDROOT
BRANCH   1   4
HETATM    4  C8  UNL     1      77.317 401.731 120.916  1.00  0.00     0.237 C 
BRANCH   4   5
HETATM    5  C7  UNL     1      77.901 400.814 119.883  1.00  0.00     0.011 C 
HETATM    6  C6  UNL     1      78.955 401.487 119.032  1.00  0.00     0.007 C 
HETATM    7  C5  UNL     1      79.154 400.433 117.948  1.00  0.00     0.005 C 
HETATM    8  C4  UNL     1      77.845 399.693 117.841  1.00  0.00    -0.011 C 
HETATM    9  C16 UNL     1      76.906 400.389 118.838  1.00  0.00     0.011 C 
BRANCH   8  10
HETATM   10  C3  UNL     1      77.889 398.262 118.218  1.00  0.00     0.031 C 
BRANCH  10  11
HETATM   11  C2  UNL     1      76.622 397.550 118.354  1.00  0.00    -0.037 C 
HETATM   12  C1  UNL     1      76.469 396.489 119.104  1.00  0.00     0.007 C 
ENDBRANCH  10  11
ENDBRANCH   8  10
ENDBRANCH   4   5
ENDBRANCH   1   4
BRANCH   1  13
HETATM   13  C9  UNL     1      76.694 403.909 120.398  1.00  0.00     0.270 C 
BRANCH  13  14
HETATM   14  C10 UNL     1      77.199 405.250 119.990  1.00  0.00    -0.033 A 
HETATM   15  C11 UNL     1      78.545 405.548 120.060  1.00  0.00     0.009 A 
HETATM   16  C12 UNL     1      79.052 406.769 119.694  1.00  0.00     0.001 A 
HETATM   17  C13 UNL     1      78.214 407.765 119.233  1.00  0.00     0.000 A 
HETATM   18  C14 UNL     1      76.867 407.483 119.157  1.00  0.00     0.001 A 
HETATM   19  C15 UNL     1      76.371 406.249 119.529  1.00  0.00     0.009 A 
ENDBRANCH  13  14
ENDBRANCH   1  13
TORSDOF 6
ENDMDL
MODEL 3
REMARK VINA RESULT: -7.050150619      1.564      2.239
REMARK  6 active torsions:
REMARK  status: ('A' for Active; 'I' for Inactive)
REMARK    1  A    between atoms: C2_2  and  C3_3 
REMARK    2  A    between atoms: C3_3  and  C4_4 
REMARK    3  A    between atoms: C7_7  and  C8_8 
REMARK    4  A    between atoms: C8_8  and  N1_9 
REMARK    5  A    between atoms: N1_9  and  C9_12 
REMARK    6  A    between atoms: C9_12  and  C10_13 
ROOT
HETATM    1  N1  UNL     1      77.598 403.081 117.526  1.00  0.00    -0.071 N 
ATOM      2  H11 UNL     1      76.748 403.046 118.088  1.00  0.00     0.277 HD
ATOM      3  H12 UNL     1      77.213 403.610 116.743  1.00  0.00     0.277 HD
ENDROOT
BRANCH   1   4
HETATM    4  C8  UNL     1      78.079 401.789 117.150  1.00  0.00     0.237 C 
BRANCH   4   5
HETATM    5  C7  UNL     1      77.521 400.671 117.979  1.00  0.00     0.011 C 
HETATM    6  C6  UNL     1      76.318 401.090 118.793  1.00  0.00     0.007 C 
HETATM    7  C5  UNL     1      76.152 399.872 119.696  1.00  0.00     0.005 C 
HETATM    8  C4  UNL     1      77.528 399.274 119.843  1.00  0.00    -0.011 C 
HETATM    9  C16 UNL     1      78.461 400.208 119.058  1.00  0.00     0.011 C 
BRANCH   8  10
HETATM   10  C3  UNL     1      77.698 397.918 119.272  1.00  0.00     0.031 C 
BRANCH  10  11
HETATM   11  C2  UNL     1      76.496 397.152 118.955  1.00  0.00    -0.037 C 
HETATM   12  C1  UNL     1      76.312 396.542 117.813  1.00  0.00     0.007 C 
ENDBRANCH  10  11
ENDBRANCH   8  10
ENDBRANCH   4   5
ENDBRANCH   1   4
BRANCH   1  13
HETATM   13  C9  UNL     1      78.707 403.767 118.197  1.00  0.00     0.270 C 
BRANCH  13  14
HETATM   14  C10 UNL     1      78.215 405.017 118.841  1.00  0.00    -0.033 A 
HETATM   15  C11 UNL     1      76.866 405.305 118.882  1.00  0.00     0.009 A 
HETATM   16  C12 UNL     1      76.370 406.443 119.465  1.00  0.00     0.001 A 
HETATM   17  C13 UNL     1      77.224 407.361 120.045  1.00  0.00     0.000 A 
HETATM   18  C14 UNL     1      78.575 407.088 120.013  1.00  0.00     0.001 A 
HETATM   19  C15 UNL     1      79.059 405.938 119.422  1.00  0.00     0.009 A 
ENDBRANCH  13  14
ENDBRANCH   1  13
TORSDOF 6
ENDMDL
MODEL 4
REMARK VINA RESULT: -7.046536423      2.195      7.272
REMARK  6 active torsions:
REMARK  status: ('A' for Active; 'I' for Inactive)
REMARK    1  A    between atoms: C2_2  and  C3_3 
REMARK    2  A    between atoms: C3_3  and  C4_4 
REMARK    3  A    between atoms: C7_7  and  C8_8 
REMARK    4  A    between atoms: C8_8  and  N1_9 
REMARK    5  A    between atoms: N1_9  and  C9_12 
REMARK    6  A    between atoms: C9_12  and  C10_13 
ROOT
HETATM    1  N1  UNL     1      79.136 403.890 118.241  1.00  0.00    -0.071 N 
ATOM      2  H11 UNL     1      79.805 404.310 117.596  1.00  0.00     0.277 HD
ATOM      3  H12 UNL     1      78.289 404.162 117.742  1.00  0.00     0.277 HD
ENDROOT
BRANCH   1   4
HETATM    4  C8  UNL     1      79.211 404.433 119.561  1.00  0.00     0.237 C 
BRANCH   4   5
HETATM    5  C7  UNL     1      78.347 405.641 119.769  1.00  0.00     0.011 C 
HETATM    6  C6  UNL     1      76.872 405.309 119.785  1.00  0.00     0.007 C 
HETATM    7  C5  UNL     1      76.270 406.710 119.741  1.00  0.00     0.005 C 
HETATM    8  C4  UNL     1      77.279 407.574 119.028  1.00  0.00    -0.011 C 
HETATM    9  C16 UNL     1      78.417 406.622 118.631  1.00  0.00     0.011 C 
BRANCH   8  10
HETATM   10  C3  UNL     1      77.885 408.651 119.843  1.00  0.00     0.031 C 
BRANCH  10  11
HETATM   11  C2  UNL     1      77.060 409.811 120.169  1.00  0.00    -0.037 C 
HETATM   12  C1  UNL     1      77.107 410.427 121.322  1.00  0.00     0.007 C 
ENDBRANCH  10  11
ENDBRANCH   8  10
ENDBRANCH   4   5
ENDBRANCH   1   4
BRANCH   1  13
HETATM   13  C9  UNL     1      79.290 402.438 118.371  1.00  0.00     0.270 C 
BRANCH  13  14
HETATM   14  C10 UNL     1      78.041 401.843 118.924  1.00  0.00    -0.033 A 
HETATM   15  C11 UNL     1      76.869 401.865 118.197  1.00  0.00     0.009 A 
HETATM   16  C12 UNL     1      75.697 401.328 118.667  1.00  0.00     0.001 A 
HETATM   17  C13 UNL     1      75.650 400.734 119.913  1.00  0.00     0.000 A 
HETATM   18  C14 UNL     1      76.814 400.703 120.652  1.00  0.00     0.001 A 
HETATM   19  C15 UNL     1      77.986 401.248 120.165  1.00  0.00     0.009 A 
ENDBRANCH  13  14
ENDBRANCH   1  13
TORSDOF 6
ENDMDL
MODEL 5
REMARK VINA RESULT: -7.045902189      1.568      2.465
REMARK  6 active torsions:
REMARK  status: ('A' for Active; 'I' for Inactive)
REMARK    1  A    between atoms: C2_2  and  C3_3 
REMARK    2  A    between atoms: C3_3  and  C4_4 
REMARK    3  A    between atoms: C7_7  and  C8_8 
REMARK    4  A    between atoms: C8_8  and  N1_9 
REMARK    5  A    between atoms: N1_9  and  C9_12 
REMARK    6  A    between atoms: C9_12  and  C10_13 
ROOT
HETATM    1  N1  UNL     1      77.608 403.065 117.492  1.00  0.00    -0.071 N 
ATOM      2  H11 UNL     1      76.740 403.031 118.026  1.00  0.00     0.277 HD
ATOM      3  H12 UNL     1      77.247 403.589 116.694  1.00  0.00     0.277 HD
ENDROOT
BRANCH   1   4
HETATM    4  C8  UNL     1      78.104 401.772 117.139  1.00  0.00     0.237 C 
BRANCH   4   5
HETATM    5  C7  UNL     1      77.537 400.659 117.969  1.00  0.00     0.011 C 
HETATM    6  C6  UNL     1      76.330 401.086 118.774  1.00  0.00     0.007 C 
HETATM    7  C5  UNL     1      76.154 399.872 119.679  1.00  0.00     0.005 C 
HETATM    8  C4  UNL     1      77.526 399.268 119.838  1.00  0.00    -0.011 C 
HETATM    9  C16 UNL     1      78.468 400.196 119.055  1.00  0.00     0.011 C 
BRANCH   8  10
HETATM   10  C3  UNL     1      77.694 397.910 119.272  1.00  0.00     0.031 C 
BRANCH  10  11
HETATM   11  C2  UNL     1      76.492 397.157 118.929  1.00  0.00    -0.037 C 
HETATM   12  C1  UNL     1      76.334 396.533 117.791  1.00  0.00     0.007 C 
ENDBRANCH  10  11
ENDBRANCH   8  10
ENDBRANCH   4   5
ENDBRANCH   1   4
BRANCH   1  13
HETATM   13  C9  UNL     1      78.692 403.757 118.195  1.00  0.00     0.270 C 
BRANCH  13  14
HETATM   14  C10 UNL     1      78.172 405.000 118.832  1.00  0.00    -0.033 A 
HETATM   15  C11 UNL     1      79.034 405.913 119.403  1.00  0.00     0.009 A 
HETATM   16  C12 UNL     1      78.598 407.070 119.999  1.00  0.00     0.001 A 
HETATM   17  C13 UNL     1      77.250 407.366 120.048  1.00  0.00     0.000 A 
HETATM   18  C14 UNL     1      76.375 406.464 119.482  1.00  0.00     0.001 A 
HETATM   19  C15 UNL     1      76.829 405.303 118.886  1.00  0.00     0.009 A 
ENDBRANCH  13  14
ENDBRANCH   1  13
TORSDOF 6
ENDMDL
