MODEL 1
REMARK VINA RESULT: -6.431648132      0.000      0.000
REMARK  8 active torsions:
REMARK  status: ('A' for Active; 'I' for Inactive)
REMARK    1  A    between atoms: N1_1  and  C1_5 
REMARK    2  A    between atoms: C1_5  and  C2_6 
REMARK    3  A    between atoms: C2_6  and  C3_7 
REMARK    4  A    between atoms: C3_7  and  C4_8 
REMARK    5  A    between atoms: C4_8  and  C5_9 
REMARK    6  A    between atoms: C5_9  and  C6_10 
REMARK    7  A    between atoms: C6_10  and  C7_11 
REMARK    8  A    between atoms: C7_11  and  C8_12 
ROOT
HETATM    1  C6  UNL     1      76.524 391.469 119.646  1.00  0.00     0.000 C 
ENDROOT
BRANCH   1   2
HETATM    2  C5  UNL     1      78.009 391.786 119.776  1.00  0.00     0.000 C 
BRANCH   2   3
HETATM    3  C4  UNL     1      78.739 390.737 118.994  1.00  0.00     0.000 C 
BRANCH   3   4
HETATM    4  C3  UNL     1      79.611 391.280 117.911  1.00  0.00     0.002 C 
BRANCH   4   5
HETATM    5  C2  UNL     1      78.935 391.168 116.588  1.00  0.00     0.027 C 
BRANCH   5   6
HETATM    6  C1  UNL     1      77.974 389.974 116.561  1.00  0.00     0.229 C 
BRANCH   6   7
HETATM    7  N1  UNL     1      76.748 390.457 115.947  1.00  0.00    -0.079 N 
ATOM      8  H13 UNL     1      76.258 389.747 115.404  1.00  0.00     0.274 HD
ATOM      9  H12 UNL     1      76.001 390.638 116.619  1.00  0.00     0.274 HD
ATOM     10  H11 UNL     1      77.010 391.278 115.402  1.00  0.00     0.274 HD
ENDBRANCH   6   7
ENDBRANCH   5   6
ENDBRANCH   4   5
ENDBRANCH   3   4
ENDBRANCH   2   3
ENDBRANCH   1   2
BRANCH   1  11
HETATM   11  C7  UNL     1      75.852 392.479 118.739  1.00  0.00     0.004 C 
BRANCH  11  12
HETATM   12  C8  UNL     1      76.712 393.734 118.596  1.00  0.00    -0.014 C 
HETATM   13  C9  UNL     1      76.806 394.048 117.144  1.00  0.00     0.004 C 
HETATM   14  C10 UNL     1      77.923 394.870 116.684  1.00  0.00     0.000 C 
HETATM   15  C11 UNL     1      78.817 395.487 117.682  1.00  0.00     0.000 C 
HETATM   16  C12 UNL     1      78.371 396.901 118.082  1.00  0.00     0.000 C 
HETATM   17  C13 UNL     1      77.446 396.835 119.278  1.00  0.00     0.000 C 
HETATM   18  C14 UNL     1      76.135 396.173 118.872  1.00  0.00     0.000 C 
HETATM   19  C15 UNL     1      76.059 394.797 119.426  1.00  0.00     0.004 C 
ENDBRANCH  11  12
ENDBRANCH   1  11
TORSDOF 8
ENDMDL
MODEL 2
REMARK VINA RESULT: -6.357494557      1.691      3.192
REMARK  8 active torsions:
REMARK  status: ('A' for Active; 'I' for Inactive)
REMARK    1  A    between atoms: N1_1  and  C1_5 
REMARK    2  A    between atoms: C1_5  and  C2_6 
REMARK    3  A    between atoms: C2_6  and  C3_7 
REMARK    4  A    between atoms: C3_7  and  C4_8 
REMARK    5  A    between atoms: C4_8  and  C5_9 
REMARK    6  A    between atoms: C5_9  and  C6_10 
REMARK    7  A    between atoms: C6_10  and  C7_11 
REMARK    8  A    between atoms: C7_11  and  C8_12 
ROOT
HETATM    1  C6  UNL     1      79.234 391.419 117.149  1.00  0.00     0.000 C 
ENDROOT
BRANCH   1   2
HETATM    2  C5  UNL     1      78.048 391.778 116.262  1.00  0.00     0.000 C 
BRANCH   2   3
HETATM    3  C4  UNL     1      76.992 390.748 116.523  1.00  0.00     0.000 C 
BRANCH   3   4
HETATM    4  C3  UNL     1      75.673 391.315 116.933  1.00  0.00     0.002 C 
BRANCH   4   5
HETATM    5  C2  UNL     1      75.421 391.063 118.380  1.00  0.00     0.027 C 
BRANCH   5   6
HETATM    6  C1  UNL     1      76.378 389.998 118.928  1.00  0.00     0.229 C 
BRANCH   6   7
HETATM    7  N1  UNL     1      76.963 390.563 120.132  1.00  0.00    -0.079 N 
ATOM      8  H13 UNL     1      77.031 391.581 120.112  1.00  0.00     0.274 HD
ATOM      9  H12 UNL     1      76.357 390.494 120.950  1.00  0.00     0.274 HD
ATOM     10  H11 UNL     1      77.863 390.098 120.254  1.00  0.00     0.274 HD
ENDBRANCH   6   7
ENDBRANCH   5   6
ENDBRANCH   4   5
ENDBRANCH   3   4
ENDBRANCH   2   3
ENDBRANCH   1   2
BRANCH   1  11
HETATM   11  C7  UNL     1      79.408 392.460 118.235  1.00  0.00     0.004 C 
BRANCH  11  12
HETATM   12  C8  UNL     1      78.398 393.593 118.065  1.00  0.00    -0.014 C 
HETATM   13  C9  UNL     1      77.738 393.806 119.383  1.00  0.00     0.004 C 
HETATM   14  C10 UNL     1      76.432 394.460 119.407  1.00  0.00     0.000 C 
HETATM   15  C11 UNL     1      75.892 395.027 118.156  1.00  0.00     0.000 C 
HETATM   16  C12 UNL     1      76.263 396.505 117.969  1.00  0.00     0.000 C 
HETATM   17  C13 UNL     1      77.561 396.622 117.200  1.00  0.00     0.000 C 
HETATM   18  C14 UNL     1      78.708 396.096 118.055  1.00  0.00     0.000 C 
HETATM   19  C15 UNL     1      79.163 394.775 117.550  1.00  0.00     0.004 C 
ENDBRANCH  11  12
ENDBRANCH   1  11
TORSDOF 8
ENDMDL
MODEL 3
REMARK VINA RESULT: -6.357088428      9.967     13.590
REMARK  8 active torsions:
REMARK  status: ('A' for Active; 'I' for Inactive)
REMARK    1  A    between atoms: N1_1  and  C1_5 
REMARK    2  A    between atoms: C1_5  and  C2_6 
REMARK    3  A    between atoms: C2_6  and  C3_7 
REMARK    4  A    between atoms: C3_7  and  C4_8 
REMARK    5  A    between atoms: C4_8  and  C5_9 
REMARK    6  A    between atoms: C5_9  and  C6_10 
REMARK    7  A    between atoms: C6_10  and  C7_11 
REMARK    8  A    between atoms: C7_11  and  C8_12 
ROOT
HETATM    1  C6  UNL     1      77.069 405.761 120.131  1.00  0.00     0.000 C 
ENDROOT
BRANCH   1   2
HETATM    2  C5  UNL     1      76.875 407.079 119.393  1.00  0.00     0.000 C 
BRANCH   2   3
HETATM    3  C4  UNL     1      78.240 407.669 119.203  1.00  0.00     0.000 C 
BRANCH   3   4
HETATM    4  C3  UNL     1      78.391 409.048 119.754  1.00  0.00     0.002 C 
BRANCH   4   5
HETATM    5  C2  UNL     1      77.066 409.599 120.159  1.00  0.00     0.027 C 
BRANCH   5   6
HETATM    6  C1  UNL     1      77.213 410.580 121.328  1.00  0.00     0.229 C 
BRANCH   6   7
HETATM    7  N1  UNL     1      78.641 410.787 121.502  1.00  0.00    -0.079 N 
ATOM      8  H13 UNL     1      79.215 410.177 120.919  1.00  0.00     0.274 HD
ATOM      9  H12 UNL     1      78.974 411.672 121.120  1.00  0.00     0.274 HD
ATOM     10  H11 UNL     1      78.822 410.683 122.501  1.00  0.00     0.274 HD
ENDBRANCH   6   7
ENDBRANCH   5   6
ENDBRANCH   4   5
ENDBRANCH   3   4
ENDBRANCH   2   3
ENDBRANCH   1   2
BRANCH   1  11
HETATM   11  C7  UNL     1      78.537 405.388 120.155  1.00  0.00     0.004 C 
BRANCH  11  12
HETATM   12  C8  UNL     1      78.727 403.914 119.807  1.00  0.00    -0.014 C 
HETATM   13  C9  UNL     1      77.688 403.143 120.542  1.00  0.00     0.004 C 
HETATM   14  C10 UNL     1      77.920 401.721 120.785  1.00  0.00     0.000 C 
HETATM   15  C11 UNL     1      79.088 401.070 120.160  1.00  0.00     0.000 C 
HETATM   16  C12 UNL     1      78.757 400.446 118.797  1.00  0.00     0.000 C 
HETATM   17  C13 UNL     1      79.006 401.450 117.691  1.00  0.00     0.000 C 
HETATM   18  C14 UNL     1      77.991 402.582 117.796  1.00  0.00     0.000 C 
HETATM   19  C15 UNL     1      78.643 403.812 118.314  1.00  0.00     0.004 C 
ENDBRANCH  11  12
ENDBRANCH   1  11
TORSDOF 8
ENDMDL
MODEL 4
REMARK VINA RESULT: -6.283744986      1.346      2.135
REMARK  8 active torsions:
REMARK  status: ('A' for Active; 'I' for Inactive)
REMARK    1  A    between atoms: N1_1  and  C1_5 
REMARK    2  A    between atoms: C1_5  and  C2_6 
REMARK    3  A    between atoms: C2_6  and  C3_7 
REMARK    4  A    between atoms: C3_7  and  C4_8 
REMARK    5  A    between atoms: C4_8  and  C5_9 
REMARK    6  A    between atoms: C5_9  and  C6_10 
REMARK    7  A    between atoms: C6_10  and  C7_11 
REMARK    8  A    between atoms: C7_11  and  C8_12 
ROOT
HETATM    1  C6  UNL     1      75.752 391.463 116.935  1.00  0.00     0.000 C 
ENDROOT
BRANCH   1   2
HETATM    2  C5  UNL     1      75.721 391.662 118.445  1.00  0.00     0.000 C 
BRANCH   2   3
HETATM    3  C4  UNL     1      76.454 390.501 119.044  1.00  0.00     0.000 C 
BRANCH   3   4
HETATM    4  C3  UNL     1      77.565 390.889 119.963  1.00  0.00     0.002 C 
BRANCH   4   5
HETATM    5  C2  UNL     1      78.807 391.179 119.191  1.00  0.00     0.027 C 
BRANCH   5   6
HETATM    6  C1  UNL     1      79.019 390.142 118.081  1.00  0.00     0.229 C 
BRANCH   6   7
HETATM    7  N1  UNL     1      79.428 390.890 116.905  1.00  0.00    -0.079 N 
ATOM      8  H13 UNL     1      79.452 391.900 117.053  1.00  0.00     0.274 HD
ATOM      9  H12 UNL     1      80.415 390.775 116.672  1.00  0.00     0.274 HD
ATOM     10  H11 UNL     1      78.799 390.605 116.155  1.00  0.00     0.274 HD
ENDBRANCH   6   7
ENDBRANCH   5   6
ENDBRANCH   4   5
ENDBRANCH   3   4
ENDBRANCH   2   3
ENDBRANCH   1   2
BRANCH   1  11
HETATM   11  C7  UNL     1      76.363 392.674 116.261  1.00  0.00     0.004 C 
BRANCH  11  12
HETATM   12  C8  UNL     1      76.821 393.697 117.298  1.00  0.00    -0.014 C 
HETATM   13  C9  UNL     1      78.186 394.148 116.909  1.00  0.00     0.004 C 
HETATM   14  C10 UNL     1      79.043 394.730 117.938  1.00  0.00     0.000 C 
HETATM   15  C11 UNL     1      78.478 394.996 119.275  1.00  0.00     0.000 C 
HETATM   16  C12 UNL     1      77.915 396.419 119.406  1.00  0.00     0.000 C 
HETATM   17  C13 UNL     1      76.449 396.434 119.027  1.00  0.00     0.000 C 
HETATM   18  C14 UNL     1      76.306 396.154 117.536  1.00  0.00     0.000 C 
HETATM   19  C15 UNL     1      75.786 394.780 117.318  1.00  0.00     0.004 C 
ENDBRANCH  11  12
ENDBRANCH   1  11
TORSDOF 8
ENDMDL
MODEL 5
REMARK VINA RESULT: -6.275898165      1.300      2.144
REMARK  8 active torsions:
REMARK  status: ('A' for Active; 'I' for Inactive)
REMARK    1  A    between atoms: N1_1  and  C1_5 
REMARK    2  A    between atoms: C1_5  and  C2_6 
REMARK    3  A    between atoms: C2_6  and  C3_7 
REMARK    4  A    between atoms: C3_7  and  C4_8 
REMARK    5  A    between atoms: C4_8  and  C5_9 
REMARK    6  A    between atoms: C5_9  and  C6_10 
REMARK    7  A    between atoms: C6_10  and  C7_11 
REMARK    8  A    between atoms: C7_11  and  C8_12 
ROOT
HETATM    1  C6  UNL     1      78.687 391.648 119.668  1.00  0.00     0.000 C 
ENDROOT
BRANCH   1   2
HETATM    2  C5  UNL     1      77.924 390.385 119.290  1.00  0.00     0.000 C 
BRANCH   2   3
HETATM    3  C4  UNL     1      76.503 390.601 119.714  1.00  0.00     0.000 C 
BRANCH   3   4
HETATM    4  C3  UNL     1      75.641 391.222 118.665  1.00  0.00     0.002 C 
BRANCH   4   5
HETATM    5  C2  UNL     1      75.682 390.419 117.409  1.00  0.00     0.027 C 
BRANCH   5   6
HETATM    6  C1  UNL     1      76.044 391.299 116.207  1.00  0.00     0.229 C 
BRANCH   6   7
HETATM    7  N1  UNL     1      77.346 390.841 115.751  1.00  0.00    -0.079 N 
ATOM      8  H13 UNL     1      78.124 391.381 116.132  1.00  0.00     0.274 HD
ATOM      9  H12 UNL     1      77.619 389.938 116.140  1.00  0.00     0.274 HD
ATOM     10  H11 UNL     1      77.307 390.848 114.732  1.00  0.00     0.274 HD
ENDBRANCH   6   7
ENDBRANCH   5   6
ENDBRANCH   4   5
ENDBRANCH   3   4
ENDBRANCH   2   3
ENDBRANCH   1   2
BRANCH   1  11
HETATM   11  C7  UNL     1      79.149 392.372 118.420  1.00  0.00     0.004 C 
BRANCH  11  12
HETATM   12  C8  UNL     1      78.726 393.839 118.456  1.00  0.00    -0.014 C 
HETATM   13  C9  UNL     1      77.992 394.124 117.193  1.00  0.00     0.004 C 
HETATM   14  C10 UNL     1      77.900 395.511 116.742  1.00  0.00     0.000 C 
HETATM   15  C11 UNL     1      78.393 396.585 117.626  1.00  0.00     0.000 C 
HETATM   16  C12 UNL     1      77.293 397.153 118.534  1.00  0.00     0.000 C 
HETATM   17  C13 UNL     1      77.257 396.396 119.844  1.00  0.00     0.000 C 
HETATM   18  C14 UNL     1      76.780 394.970 119.594  1.00  0.00     0.000 C 
HETATM   19  C15 UNL     1      77.917 394.020 119.705  1.00  0.00     0.004 C 
ENDBRANCH  11  12
ENDBRANCH   1  11
TORSDOF 8
ENDMDL
