MODEL 1
REMARK VINA RESULT: -7.602635903      0.000      0.000
REMARK  4 active torsions:
REMARK  status: ('A' for Active; 'I' for Inactive)
REMARK       I    between atoms: N1_7  and  C7_8 
REMARK    1  A    between atoms: C7_8  and  O2_10 
REMARK    2  A    between atoms: O2_10  and  C8_11 
REMARK    3  A    between atoms: C15_21  and  N3_22 
REMARK    4  A    between atoms: N3_22  and  S1_24 
ROOT
HETATM    1  C1  UNL     1     -15.761 -40.562  -7.376  1.00  0.00     0.011 C 
HETATM    2  C2  UNL     1     -16.630 -39.907  -8.444  1.00  0.00     0.000 C 
HETATM    3  C3  UNL     1     -15.848 -39.351  -9.573  1.00  0.00     0.014 C 
HETATM    4  C4  UNL     1     -16.355 -38.133 -10.235  1.00  0.00     0.034 C 
HETATM    5  C5  UNL     1     -17.685 -38.227 -10.905  1.00  0.00     0.108 C 
HETATM    6  C6  UNL     1     -18.736 -38.972 -10.164  1.00  0.00     0.153 C 
HETATM    7  N1  UNL     1     -18.707 -38.836  -8.752  1.00  0.00    -0.326 N 
HETATM    8  C7  UNL     1     -19.952 -38.616  -8.140  1.00  0.00     0.363 C 
HETATM    9  O1  UNL     1     -20.035 -38.481  -6.878  1.00  0.00    -0.238 OA
HETATM   10  C12 UNL     1     -17.581 -38.895  -7.859  1.00  0.00     0.132 C 
HETATM   11  N2  UNL     1     -18.106 -36.867 -11.180  1.00  0.00    -0.354 N 
ATOM     12  H2  UNL     1     -19.083 -36.583 -11.113  1.00  0.00     0.162 HD
HETATM   13  C13 UNL     1     -17.083 -35.952 -11.549  1.00  0.00     0.220 C 
HETATM   14  O3  UNL     1     -17.202 -34.709 -11.405  1.00  0.00    -0.274 OA
HETATM   15  C14 UNL     1     -15.854 -36.562 -12.120  1.00  0.00     0.129 C 
HETATM   16  C15 UNL     1     -15.339 -37.715 -11.281  1.00  0.00     0.107 C 
ENDROOT
BRANCH   8  17
HETATM   17  O2  UNL     1     -21.154 -38.528  -8.824  1.00  0.00    -0.294 OA
BRANCH  17  18
HETATM   18  C8  UNL     1     -22.062 -39.614  -8.863  1.00  0.00     0.061 C 
HETATM   19  C9  UNL     1     -23.212 -39.333  -7.919  1.00  0.00     0.046 C 
HETATM   20  C10 UNL     1     -21.404 -40.915  -8.465  1.00  0.00     0.046 C 
HETATM   21  C11 UNL     1     -22.591 -39.768 -10.265  1.00  0.00     0.046 C 
ENDBRANCH  17  18
ENDBRANCH   8  17
BRANCH  16  22
HETATM   22  N3  UNL     1     -14.079 -37.302 -10.735  1.00  0.00    -0.314 N 
ATOM     23  H3  UNL     1     -13.976 -36.554 -10.049  1.00  0.00     0.172 HD
BRANCH  22  24
HETATM   24  S1  UNL     1     -12.762 -38.211 -11.366  1.00  0.00     0.223 S 
HETATM   25  C16 UNL     1     -12.413 -39.626 -10.345  1.00  0.00     0.185 C 
HETATM   26  O4  UNL     1     -13.120 -38.752 -12.734  1.00  0.00    -0.206 OA
HETATM   27  O5  UNL     1     -11.535 -37.370 -11.462  1.00  0.00    -0.206 OA
ENDBRANCH  22  24
ENDBRANCH  16  22
TORSDOF 4
ENDMDL
MODEL 2
REMARK VINA RESULT: -7.398730375      3.549      5.469
REMARK  4 active torsions:
REMARK  status: ('A' for Active; 'I' for Inactive)
REMARK       I    between atoms: N1_7  and  C7_8 
REMARK    1  A    between atoms: C7_8  and  O2_10 
REMARK    2  A    between atoms: O2_10  and  C8_11 
REMARK    3  A    between atoms: C15_21  and  N3_22 
REMARK    4  A    between atoms: N3_22  and  S1_24 
ROOT
HETATM    1  C1  UNL     1     -20.708 -41.757 -10.279  1.00  0.00     0.011 C 
HETATM    2  C2  UNL     1     -19.455 -40.899 -10.411  1.00  0.00     0.000 C 
HETATM    3  C3  UNL     1     -18.209 -41.629 -10.077  1.00  0.00     0.014 C 
HETATM    4  C4  UNL     1     -17.108 -40.871  -9.448  1.00  0.00     0.034 C 
HETATM    5  C5  UNL     1     -16.512 -39.756 -10.240  1.00  0.00     0.108 C 
HETATM    6  C6  UNL     1     -17.473 -38.893 -10.975  1.00  0.00     0.153 C 
HETATM    7  N1  UNL     1     -18.715 -38.664 -10.327  1.00  0.00    -0.326 N 
HETATM    8  C7  UNL     1     -19.169 -37.335 -10.345  1.00  0.00     0.363 C 
HETATM    9  O1  UNL     1     -20.271 -37.023  -9.792  1.00  0.00    -0.238 OA
HETATM   10  C12 UNL     1     -19.573 -39.601  -9.655  1.00  0.00     0.132 C 
HETATM   11  N2  UNL     1     -15.711 -38.976  -9.317  1.00  0.00    -0.354 N 
ATOM     12  H2  UNL     1     -15.645 -37.961  -9.388  1.00  0.00     0.162 HD
HETATM   13  C13 UNL     1     -15.023 -39.704  -8.308  1.00  0.00     0.220 C 
HETATM   14  O3  UNL     1     -14.658 -39.180  -7.226  1.00  0.00    -0.274 OA
HETATM   15  C14 UNL     1     -14.761 -41.134  -8.616  1.00  0.00     0.129 C 
HETATM   16  C15 UNL     1     -15.998 -41.851  -9.120  1.00  0.00     0.107 C 
ENDROOT
BRANCH   8  17
HETATM   17  O2  UNL     1     -18.489 -36.284 -10.941  1.00  0.00    -0.294 OA
BRANCH  17  18
HETATM   18  C8  UNL     1     -17.649 -35.428 -10.189  1.00  0.00     0.061 C 
HETATM   19  C9  UNL     1     -16.304 -35.322 -10.878  1.00  0.00     0.046 C 
HETATM   20  C10 UNL     1     -17.443 -35.934  -8.781  1.00  0.00     0.046 C 
HETATM   21  C11 UNL     1     -18.279 -34.062 -10.108  1.00  0.00     0.046 C 
ENDBRANCH  17  18
ENDBRANCH   8  17
BRANCH  16  22
HETATM   22  N3  UNL     1     -16.353 -42.819  -8.123  1.00  0.00    -0.314 N 
ATOM     23  H3  UNL     1     -16.873 -42.595  -7.275  1.00  0.00     0.172 HD
BRANCH  22  24
HETATM   24  S1  UNL     1     -15.803 -44.400  -8.520  1.00  0.00     0.223 S 
HETATM   25  C16 UNL     1     -17.073 -45.612  -8.230  1.00  0.00     0.185 C 
HETATM   26  O4  UNL     1     -15.474 -44.473  -9.997  1.00  0.00    -0.206 OA
HETATM   27  O5  UNL     1     -14.599 -44.760  -7.718  1.00  0.00    -0.206 OA
ENDBRANCH  22  24
ENDBRANCH  16  22
TORSDOF 4
ENDMDL
MODEL 3
REMARK VINA RESULT: -7.343536808      2.026      3.136
REMARK  4 active torsions:
REMARK  status: ('A' for Active; 'I' for Inactive)
REMARK       I    between atoms: N1_7  and  C7_8 
REMARK    1  A    between atoms: C7_8  and  O2_10 
REMARK    2  A    between atoms: O2_10  and  C8_11 
REMARK    3  A    between atoms: C15_21  and  N3_22 
REMARK    4  A    between atoms: N3_22  and  S1_24 
ROOT
HETATM    1  C1  UNL     1     -17.640 -35.157  -9.465  1.00  0.00     0.011 C 
HETATM    2  C2  UNL     1     -17.720 -36.678  -9.397  1.00  0.00     0.000 C 
HETATM    3  C3  UNL     1     -16.416 -37.343  -9.625  1.00  0.00     0.014 C 
HETATM    4  C4  UNL     1     -16.414 -38.653 -10.306  1.00  0.00     0.034 C 
HETATM    5  C5  UNL     1     -17.124 -39.774  -9.624  1.00  0.00     0.108 C 
HETATM    6  C6  UNL     1     -18.432 -39.436  -9.005  1.00  0.00     0.153 C 
HETATM    7  N1  UNL     1     -19.212 -38.476  -9.701  1.00  0.00    -0.326 N 
HETATM    8  C7  UNL     1     -20.575 -38.787  -9.832  1.00  0.00     0.363 C 
HETATM    9  O1  UNL     1     -21.362 -37.993 -10.439  1.00  0.00    -0.238 OA
HETATM   10  C12 UNL     1     -18.802 -37.230 -10.288  1.00  0.00     0.132 C 
HETATM   11  N2  UNL     1     -17.269 -40.831 -10.607  1.00  0.00    -0.354 N 
ATOM     12  H2  UNL     1     -18.099 -41.422 -10.642  1.00  0.00     0.162 HD
HETATM   13  C13 UNL     1     -16.191 -40.997 -11.518  1.00  0.00     0.220 C 
HETATM   14  O3  UNL     1     -16.332 -41.542 -12.641  1.00  0.00    -0.274 OA
HETATM   15  C14 UNL     1     -14.876 -40.481 -11.055  1.00  0.00     0.129 C 
HETATM   16  C15 UNL     1     -14.970 -39.072 -10.505  1.00  0.00     0.107 C 
ENDROOT
BRANCH   8  17
HETATM   17  O2  UNL     1     -21.166 -39.939  -9.336  1.00  0.00    -0.294 OA
BRANCH  17  18
HETATM   18  C8  UNL     1     -21.896 -39.930  -8.122  1.00  0.00     0.061 C 
HETATM   19  C9  UNL     1     -23.370 -40.090  -8.428  1.00  0.00     0.046 C 
HETATM   20  C10 UNL     1     -21.690 -38.647  -7.350  1.00  0.00     0.046 C 
HETATM   21  C11 UNL     1     -21.435 -41.075  -7.259  1.00  0.00     0.046 C 
ENDBRANCH  17  18
ENDBRANCH   8  17
BRANCH  16  22
HETATM   22  N3  UNL     1     -14.238 -38.226 -11.402  1.00  0.00    -0.314 N 
ATOM     23  H3  UNL     1     -14.660 -37.728 -12.185  1.00  0.00     0.172 HD
BRANCH  22  24
HETATM   24  S1  UNL     1     -12.565 -38.144 -11.005  1.00  0.00     0.223 S 
HETATM   25  C16 UNL     1     -12.131 -36.530 -10.393  1.00  0.00     0.185 C 
HETATM   26  O4  UNL     1     -12.253 -39.120  -9.890  1.00  0.00    -0.206 OA
HETATM   27  O5  UNL     1     -11.722 -38.452 -12.195  1.00  0.00    -0.206 OA
ENDBRANCH  22  24
ENDBRANCH  16  22
TORSDOF 4
ENDMDL
MODEL 4
REMARK VINA RESULT: -7.313408530      1.910      3.622
REMARK  4 active torsions:
REMARK  status: ('A' for Active; 'I' for Inactive)
REMARK       I    between atoms: N1_7  and  C7_8 
REMARK    1  A    between atoms: C7_8  and  O2_10 
REMARK    2  A    between atoms: O2_10  and  C8_11 
REMARK    3  A    between atoms: C15_21  and  N3_22 
REMARK    4  A    between atoms: N3_22  and  S1_24 
ROOT
HETATM    1  C1  UNL     1     -17.776 -36.064 -11.729  1.00  0.00     0.011 C 
HETATM    2  C2  UNL     1     -17.992 -36.896 -10.469  1.00  0.00     0.000 C 
HETATM    3  C3  UNL     1     -16.781 -37.635 -10.043  1.00  0.00     0.014 C 
HETATM    4  C4  UNL     1     -16.962 -38.951  -9.398  1.00  0.00     0.034 C 
HETATM    5  C5  UNL     1     -17.710 -38.978  -8.107  1.00  0.00     0.108 C 
HETATM    6  C6  UNL     1     -18.921 -38.119  -8.039  1.00  0.00     0.153 C 
HETATM    7  N1  UNL     1     -19.666 -38.009  -9.241  1.00  0.00    -0.326 N 
HETATM    8  C7  UNL     1     -21.059 -38.124  -9.100  1.00  0.00     0.363 C 
HETATM    9  O1  UNL     1     -21.818 -38.040 -10.117  1.00  0.00    -0.238 OA
HETATM   10  C12 UNL     1     -19.195 -37.795 -10.583  1.00  0.00     0.132 C 
HETATM   11  N2  UNL     1     -18.039 -40.366  -7.849  1.00  0.00    -0.354 N 
ATOM     12  H2  UNL     1     -18.921 -40.637  -7.414  1.00  0.00     0.162 HD
HETATM   13  C13 UNL     1     -17.067 -41.327  -8.235  1.00  0.00     0.220 C 
HETATM   14  O3  UNL     1     -17.357 -42.527  -8.470  1.00  0.00    -0.274 OA
HETATM   15  C14 UNL     1     -15.673 -40.821  -8.343  1.00  0.00     0.129 C 
HETATM   16  C15 UNL     1     -15.587 -39.540  -9.148  1.00  0.00     0.107 C 
ENDROOT
BRANCH   8  17
HETATM   17  O2  UNL     1     -21.709 -38.332  -7.894  1.00  0.00    -0.294 OA
BRANCH  17  18
HETATM   18  C8  UNL     1     -22.213 -39.606  -7.537  1.00  0.00     0.061 C 
HETATM   19  C9  UNL     1     -22.008 -39.823  -6.053  1.00  0.00     0.046 C 
HETATM   20  C10 UNL     1     -21.527 -40.717  -8.297  1.00  0.00     0.046 C 
HETATM   21  C11 UNL     1     -23.685 -39.663  -7.853  1.00  0.00     0.046 C 
ENDBRANCH  17  18
ENDBRANCH   8  17
BRANCH  16  22
HETATM   22  N3  UNL     1     -14.860 -39.849 -10.345  1.00  0.00    -0.314 N 
ATOM     23  H3  UNL     1     -15.246 -40.391 -11.119  1.00  0.00     0.172 HD
BRANCH  22  24
HETATM   24  S1  UNL     1     -13.266 -39.203 -10.330  1.00  0.00     0.223 S 
HETATM   25  C16 UNL     1     -12.492 -39.370 -11.924  1.00  0.00     0.185 C 
HETATM   26  O4  UNL     1     -13.317 -37.718 -10.035  1.00  0.00    -0.206 OA
HETATM   27  O5  UNL     1     -12.425 -39.891  -9.310  1.00  0.00    -0.206 OA
ENDBRANCH  22  24
ENDBRANCH  16  22
TORSDOF 4
ENDMDL
MODEL 5
REMARK VINA RESULT: -7.271325515      1.881      3.664
REMARK  4 active torsions:
REMARK  status: ('A' for Active; 'I' for Inactive)
REMARK       I    between atoms: N1_7  and  C7_8 
REMARK    1  A    between atoms: C7_8  and  O2_10 
REMARK    2  A    between atoms: O2_10  and  C8_11 
REMARK    3  A    between atoms: C15_21  and  N3_22 
REMARK    4  A    between atoms: N3_22  and  S1_24 
ROOT
HETATM    1  C1  UNL     1     -18.421 -35.972 -11.487  1.00  0.00     0.011 C 
HETATM    2  C2  UNL     1     -18.433 -36.841 -10.234  1.00  0.00     0.000 C 
HETATM    3  C3  UNL     1     -17.141 -37.523  -9.984  1.00  0.00     0.014 C 
HETATM    4  C4  UNL     1     -17.172 -38.860  -9.357  1.00  0.00     0.034 C 
HETATM    5  C5  UNL     1     -17.748 -38.953  -7.984  1.00  0.00     0.108 C 
HETATM    6  C6  UNL     1     -18.983 -38.163  -7.740  1.00  0.00     0.153 C 
HETATM    7  N1  UNL     1     -19.879 -38.068  -8.836  1.00  0.00    -0.326 N 
HETATM    8  C7  UNL     1     -21.235 -38.261  -8.525  1.00  0.00     0.363 C 
HETATM    9  O1  UNL     1     -22.120 -38.197  -9.436  1.00  0.00    -0.238 OA
HETATM   10  C12 UNL     1     -19.594 -37.801 -10.220  1.00  0.00     0.132 C 
HETATM   11  N2  UNL     1     -17.971 -40.362  -7.724  1.00  0.00    -0.354 N 
ATOM     12  H2  UNL     1     -18.776 -40.689  -7.190  1.00  0.00     0.162 HD
HETATM   13  C13 UNL     1     -17.007 -41.262  -8.256  1.00  0.00     0.220 C 
HETATM   14  O3  UNL     1     -17.264 -42.470  -8.485  1.00  0.00    -0.274 OA
HETATM   15  C14 UNL     1     -15.667 -40.679  -8.524  1.00  0.00     0.129 C 
HETATM   16  C15 UNL     1     -15.748 -39.378  -9.298  1.00  0.00     0.107 C 
ENDROOT
BRANCH   8  17
HETATM   17  O2  UNL     1     -21.715 -38.529  -7.252  1.00  0.00    -0.294 OA
BRANCH  17  18
HETATM   18  C8  UNL     1     -22.363 -39.751  -6.950  1.00  0.00     0.061 C 
HETATM   19  C9  UNL     1     -21.437 -40.900  -7.289  1.00  0.00     0.046 C 
HETATM   20  C10 UNL     1     -23.652 -39.912  -7.722  1.00  0.00     0.046 C 
HETATM   21  C11 UNL     1     -22.690 -39.788  -5.480  1.00  0.00     0.046 C 
ENDBRANCH  17  18
ENDBRANCH   8  17
BRANCH  16  22
HETATM   22  N3  UNL     1     -15.165 -39.623 -10.585  1.00  0.00    -0.314 N 
ATOM     23  H3  UNL     1     -15.585 -40.224 -11.293  1.00  0.00     0.172 HD
BRANCH  22  24
HETATM   24  S1  UNL     1     -13.676 -38.787 -10.800  1.00  0.00     0.223 S 
HETATM   25  C16 UNL     1     -12.292 -39.830 -10.397  1.00  0.00     0.185 C 
HETATM   26  O4  UNL     1     -13.509 -38.402 -12.255  1.00  0.00    -0.206 OA
HETATM   27  O5  UNL     1     -13.626 -37.566  -9.947  1.00  0.00    -0.206 OA
ENDBRANCH  22  24
ENDBRANCH  16  22
TORSDOF 4
ENDMDL
