MODEL 1
REMARK VINA RESULT: -9.076394624      0.000      0.000
REMARK  3 active torsions:
REMARK  status: ('A' for Active; 'I' for Inactive)
REMARK       I    between atoms: N2_5  and  C4_6 
REMARK    1  A    between atoms: C4_6  and  C5_8 
REMARK    2  A    between atoms: C5_8  and  N3_9 
REMARK       I    between atoms: N3_9  and  C6_11 
REMARK    3  A    between atoms: C6_11  and  C7_13 
ROOT
HETATM    1  N1  UNL     1     -21.194 -42.595  -3.399  1.00  0.00    -0.197 NA
HETATM    2  C1  UNL     1     -22.088 -42.098  -3.942  1.00  0.00     0.067 C 
HETATM    3  C2  UNL     1     -23.203 -41.470  -4.621  1.00  0.00     0.129 C 
HETATM    4  C3  UNL     1     -23.006 -39.971  -4.876  1.00  0.00     0.146 C 
HETATM    5  N2  UNL     1     -22.394 -40.247  -6.155  1.00  0.00    -0.347 N 
HETATM    6  C4  UNL     1     -21.525 -39.577  -7.012  1.00  0.00     0.248 C 
HETATM    7  O1  UNL     1     -21.109 -38.423  -6.641  1.00  0.00    -0.271 OA
HETATM    8  C20 UNL     1     -23.078 -41.516  -6.131  1.00  0.00     0.146 C 
ENDROOT
BRANCH   6   9
HETATM    9  C5  UNL     1     -21.031 -40.068  -8.312  1.00  0.00     0.117 C 
HETATM   10  C16 UNL     1     -20.400 -41.431  -8.028  1.00  0.00     0.068 C 
HETATM   11  C17 UNL     1     -20.815 -42.486  -9.013  1.00  0.00     0.235 C 
HETATM   12  N4  UNL     1     -20.666 -41.910 -10.335  1.00  0.00    -0.075 N 
HETATM   13  C18 UNL     1     -21.823 -41.040 -10.512  1.00  0.00     0.235 C 
ATOM     14  H42 UNL     1     -19.773 -41.440 -10.480  1.00  0.00     0.277 HD
ATOM     15  H41 UNL     1     -20.557 -42.604 -11.075  1.00  0.00     0.277 HD
HETATM   16  C19 UNL     1     -22.132 -40.187  -9.339  1.00  0.00     0.068 C 
BRANCH   9  17
HETATM   17  N3  UNL     1     -19.972 -39.202  -8.757  1.00  0.00    -0.341 N 
HETATM   18  C6  UNL     1     -20.059 -38.129  -9.662  1.00  0.00     0.247 C 
HETATM   19  O2  UNL     1     -21.123 -37.781 -10.224  1.00  0.00    -0.271 OA
ATOM     20  H3  UNL     1     -19.047 -39.389  -8.369  1.00  0.00     0.163 HD
BRANCH  18  21
HETATM   21  C7  UNL     1     -18.881 -37.291 -10.046  1.00  0.00     0.214 C 
HETATM   22  C8  UNL     1     -17.920 -38.191 -10.757  1.00  0.00     0.046 C 
HETATM   23  C9  UNL     1     -16.516 -37.657 -10.828  1.00  0.00    -0.009 C 
HETATM   24  C10 UNL     1     -16.199 -36.962 -12.111  1.00  0.00     0.005 C 
HETATM   25  C15 UNL     1     -16.156 -36.861  -9.607  1.00  0.00     0.036 C 
HETATM   26  C11 UNL     1     -16.793 -35.614 -12.271  1.00  0.00     0.000 C 
HETATM   27  C12 UNL     1     -16.490 -34.651 -11.172  1.00  0.00     0.002 C 
HETATM   28  C13 UNL     1     -17.444 -34.733 -10.007  1.00  0.00     0.032 C 
HETATM   29  C14 UNL     1     -17.252 -35.936  -9.147  1.00  0.00     0.122 C 
HETATM   30  O3  UNL     1     -18.388 -36.668  -8.920  1.00  0.00    -0.371 OA
ENDBRANCH  18  21
ENDBRANCH   9  17
ENDBRANCH   6   9
TORSDOF 3
ENDMDL
MODEL 2
REMARK VINA RESULT: -8.892375931      3.760      7.963
REMARK  3 active torsions:
REMARK  status: ('A' for Active; 'I' for Inactive)
REMARK       I    between atoms: N2_5  and  C4_6 
REMARK    1  A    between atoms: C4_6  and  C5_8 
REMARK    2  A    between atoms: C5_8  and  N3_9 
REMARK       I    between atoms: N3_9  and  C6_11 
REMARK    3  A    between atoms: C6_11  and  C7_13 
ROOT
HETATM    1  N1  UNL     1     -17.150 -34.286  -9.293  1.00  0.00    -0.197 NA
HETATM    2  C1  UNL     1     -16.614 -34.353 -10.317  1.00  0.00     0.067 C 
HETATM    3  C2  UNL     1     -15.939 -34.437 -11.595  1.00  0.00     0.129 C 
HETATM    4  C3  UNL     1     -14.409 -34.454 -11.486  1.00  0.00     0.146 C 
HETATM    5  N2  UNL     1     -14.410 -35.896 -11.402  1.00  0.00    -0.347 N 
HETATM    6  C4  UNL     1     -13.545 -36.869 -10.907  1.00  0.00     0.248 C 
HETATM    7  O1  UNL     1     -12.457 -36.464 -10.365  1.00  0.00    -0.271 OA
HETATM    8  C20 UNL     1     -15.699 -35.864 -12.046  1.00  0.00     0.146 C 
ENDROOT
BRANCH   6   9
HETATM    9  C5  UNL     1     -13.760 -38.327 -10.944  1.00  0.00     0.117 C 
HETATM   10  C16 UNL     1     -13.660 -38.724 -12.417  1.00  0.00     0.068 C 
HETATM   11  C17 UNL     1     -12.805 -39.937 -12.640  1.00  0.00     0.235 C 
HETATM   12  N4  UNL     1     -13.226 -40.935 -11.676  1.00  0.00    -0.075 N 
HETATM   13  C18 UNL     1     -12.626 -40.528 -10.410  1.00  0.00     0.235 C 
ATOM     14  H42 UNL     1     -14.237 -41.060 -11.630  1.00  0.00     0.277 HD
ATOM     15  H41 UNL     1     -13.000 -41.891 -11.949  1.00  0.00     0.277 HD
HETATM   16  C19 UNL     1     -12.748 -39.080 -10.113  1.00  0.00     0.068 C 
BRANCH   9  17
HETATM   17  N3  UNL     1     -15.109 -38.602 -10.527  1.00  0.00    -0.341 N 
HETATM   18  C6  UNL     1     -15.659 -38.464  -9.240  1.00  0.00     0.247 C 
HETATM   19  O2  UNL     1     -15.006 -38.070  -8.246  1.00  0.00    -0.271 OA
ATOM     20  H3  UNL     1     -15.744 -38.937 -11.253  1.00  0.00     0.163 HD
BRANCH  18  21
HETATM   21  C7  UNL     1     -17.088 -38.778  -8.927  1.00  0.00     0.214 C 
HETATM   22  C8  UNL     1     -17.618 -39.581 -10.074  1.00  0.00     0.046 C 
HETATM   23  C9  UNL     1     -19.119 -39.613 -10.158  1.00  0.00    -0.009 C 
HETATM   24  C10 UNL     1     -19.732 -40.828  -9.541  1.00  0.00     0.005 C 
HETATM   25  C15 UNL     1     -19.735 -38.326  -9.694  1.00  0.00     0.036 C 
HETATM   26  C11 UNL     1     -19.745 -40.853  -8.059  1.00  0.00     0.000 C 
HETATM   27  C12 UNL     1     -20.382 -39.670  -7.409  1.00  0.00     0.002 C 
HETATM   28  C13 UNL     1     -19.444 -38.510  -7.198  1.00  0.00     0.032 C 
HETATM   29  C14 UNL     1     -19.100 -37.769  -8.447  1.00  0.00     0.122 C 
HETATM   30  O3  UNL     1     -17.757 -37.603  -8.666  1.00  0.00    -0.371 OA
ENDBRANCH  18  21
ENDBRANCH   9  17
ENDBRANCH   6   9
TORSDOF 3
ENDMDL
MODEL 3
REMARK VINA RESULT: -8.887904370      2.953      7.670
REMARK  3 active torsions:
REMARK  status: ('A' for Active; 'I' for Inactive)
REMARK       I    between atoms: N2_5  and  C4_6 
REMARK    1  A    between atoms: C4_6  and  C5_8 
REMARK    2  A    between atoms: C5_8  and  N3_9 
REMARK       I    between atoms: N3_9  and  C6_11 
REMARK    3  A    between atoms: C6_11  and  C7_13 
ROOT
HETATM    1  N1  UNL     1     -13.420 -34.189 -11.140  1.00  0.00    -0.197 NA
HETATM    2  C1  UNL     1     -14.512 -34.486 -11.384  1.00  0.00     0.067 C 
HETATM    3  C2  UNL     1     -15.876 -34.863 -11.692  1.00  0.00     0.129 C 
HETATM    4  C3  UNL     1     -15.988 -36.119 -12.564  1.00  0.00     0.146 C 
HETATM    5  N2  UNL     1     -16.031 -36.957 -11.389  1.00  0.00    -0.347 N 
HETATM    6  C4  UNL     1     -15.752 -38.291 -11.101  1.00  0.00     0.248 C 
HETATM    7  O1  UNL     1     -15.338 -39.024 -12.068  1.00  0.00    -0.271 OA
HETATM    8  C20 UNL     1     -16.479 -35.796 -10.661  1.00  0.00     0.146 C 
ENDROOT
BRANCH   6   9
HETATM    9  C5  UNL     1     -15.886 -38.947  -9.787  1.00  0.00     0.117 C 
HETATM   10  C16 UNL     1     -15.158 -40.285  -9.916  1.00  0.00     0.068 C 
HETATM   11  C17 UNL     1     -14.251 -40.572  -8.755  1.00  0.00     0.235 C 
HETATM   12  N4  UNL     1     -15.010 -40.304  -7.549  1.00  0.00    -0.075 N 
HETATM   13  C18 UNL     1     -15.017 -38.852  -7.410  1.00  0.00     0.235 C 
ATOM     14  H42 UNL     1     -15.940 -40.721  -7.549  1.00  0.00     0.277 HD
ATOM     15  H41 UNL     1     -14.659 -40.793  -6.726  1.00  0.00     0.277 HD
HETATM   16  C19 UNL     1     -15.299 -38.119  -8.668  1.00  0.00     0.068 C 
BRANCH   9  17
HETATM   17  N3  UNL     1     -17.275 -39.246  -9.564  1.00  0.00    -0.341 N 
HETATM   18  C6  UNL     1     -18.240 -38.439  -8.935  1.00  0.00     0.247 C 
HETATM   19  O2  UNL     1     -17.994 -37.304  -8.464  1.00  0.00    -0.271 OA
ATOM     20  H3  UNL     1     -17.598 -40.152  -9.902  1.00  0.00     0.163 HD
BRANCH  18  21
HETATM   21  C7  UNL     1     -19.666 -38.859  -8.764  1.00  0.00     0.214 C 
HETATM   22  C8  UNL     1     -20.397 -38.424  -9.995  1.00  0.00     0.046 C 
HETATM   23  C9  UNL     1     -21.891 -38.357  -9.830  1.00  0.00    -0.009 C 
HETATM   24  C10 UNL     1     -22.606 -39.575 -10.316  1.00  0.00     0.005 C 
HETATM   25  C15 UNL     1     -22.283 -37.940  -8.443  1.00  0.00     0.036 C 
HETATM   26  C11 UNL     1     -22.495 -40.770  -9.446  1.00  0.00     0.000 C 
HETATM   27  C12 UNL     1     -22.906 -40.563  -8.026  1.00  0.00     0.002 C 
HETATM   28  C13 UNL     1     -21.804 -40.042  -7.140  1.00  0.00     0.032 C 
HETATM   29  C14 UNL     1     -21.473 -38.604  -7.362  1.00  0.00     0.122 C 
HETATM   30  O3  UNL     1     -20.144 -38.347  -7.578  1.00  0.00    -0.371 OA
ENDBRANCH  18  21
ENDBRANCH   9  17
ENDBRANCH   6   9
TORSDOF 3
ENDMDL
MODEL 4
REMARK VINA RESULT: -8.874061378      3.088      7.650
REMARK  3 active torsions:
REMARK  status: ('A' for Active; 'I' for Inactive)
REMARK       I    between atoms: N2_5  and  C4_6 
REMARK    1  A    between atoms: C4_6  and  C5_8 
REMARK    2  A    between atoms: C5_8  and  N3_9 
REMARK       I    between atoms: N3_9  and  C6_11 
REMARK    3  A    between atoms: C6_11  and  C7_13 
ROOT
HETATM    1  N1  UNL     1     -13.476 -34.559 -11.081  1.00  0.00    -0.197 NA
HETATM    2  C1  UNL     1     -14.552 -34.868 -11.375  1.00  0.00     0.067 C 
HETATM    3  C2  UNL     1     -15.897 -35.260 -11.745  1.00  0.00     0.129 C 
HETATM    4  C3  UNL     1     -15.963 -36.573 -12.534  1.00  0.00     0.146 C 
HETATM    5  N2  UNL     1     -16.089 -37.328 -11.309  1.00  0.00    -0.347 N 
HETATM    6  C4  UNL     1     -15.840 -38.640 -10.913  1.00  0.00     0.248 C 
HETATM    7  O1  UNL     1     -15.370 -39.440 -11.797  1.00  0.00    -0.271 OA
HETATM    8  C20 UNL     1     -16.574 -36.118 -10.694  1.00  0.00     0.146 C 
ENDROOT
BRANCH   6   9
HETATM    9  C5  UNL     1     -16.064 -39.202  -9.569  1.00  0.00     0.117 C 
HETATM   10  C16 UNL     1     -15.665 -40.675  -9.663  1.00  0.00     0.068 C 
HETATM   11  C17 UNL     1     -14.799 -41.122  -8.522  1.00  0.00     0.235 C 
HETATM   12  N4  UNL     1     -15.427 -40.647  -7.304  1.00  0.00    -0.075 N 
HETATM   13  C18 UNL     1     -15.098 -39.227  -7.227  1.00  0.00     0.235 C 
ATOM     14  H42 UNL     1     -16.427 -40.840  -7.256  1.00  0.00     0.277 HD
ATOM     15  H41 UNL     1     -15.162 -41.175  -6.473  1.00  0.00     0.277 HD
HETATM   16  C19 UNL     1     -15.259 -38.493  -8.506  1.00  0.00     0.068 C 
BRANCH   9  17
HETATM   17  N3  UNL     1     -17.474 -39.169  -9.287  1.00  0.00    -0.341 N 
HETATM   18  C6  UNL     1     -18.476 -40.013  -9.800  1.00  0.00     0.247 C 
HETATM   19  O2  UNL     1     -18.251 -40.941 -10.611  1.00  0.00    -0.271 OA
ATOM     20  H3  UNL     1     -17.785 -38.447  -8.636  1.00  0.00     0.163 HD
BRANCH  18  21
HETATM   21  C7  UNL     1     -19.919 -39.884  -9.426  1.00  0.00     0.214 C 
HETATM   22  C8  UNL     1     -20.638 -41.027 -10.070  1.00  0.00     0.046 C 
HETATM   23  C9  UNL     1     -22.126 -40.832 -10.182  1.00  0.00    -0.009 C 
HETATM   24  C10 UNL     1     -22.903 -41.479  -9.083  1.00  0.00     0.005 C 
HETATM   25  C15 UNL     1     -22.487 -39.392 -10.408  1.00  0.00     0.036 C 
HETATM   26  C11 UNL     1     -22.842 -40.796  -7.769  1.00  0.00     0.000 C 
HETATM   27  C12 UNL     1     -23.231 -39.355  -7.783  1.00  0.00     0.002 C 
HETATM   28  C13 UNL     1     -22.098 -38.418  -8.117  1.00  0.00     0.032 C 
HETATM   29  C14 UNL     1     -21.700 -38.433  -9.555  1.00  0.00     0.122 C 
HETATM   30  O3  UNL     1     -20.362 -38.629  -9.779  1.00  0.00    -0.371 OA
ENDBRANCH  18  21
ENDBRANCH   9  17
ENDBRANCH   6   9
TORSDOF 3
ENDMDL
MODEL 5
REMARK VINA RESULT: -8.839427522      2.660      7.337
REMARK  3 active torsions:
REMARK  status: ('A' for Active; 'I' for Inactive)
REMARK       I    between atoms: N2_5  and  C4_6 
REMARK    1  A    between atoms: C4_6  and  C5_8 
REMARK    2  A    between atoms: C5_8  and  N3_9 
REMARK       I    between atoms: N3_9  and  C6_11 
REMARK    3  A    between atoms: C6_11  and  C7_13 
ROOT
HETATM    1  N1  UNL     1     -16.028 -33.410  -9.920  1.00  0.00    -0.197 NA
HETATM    2  C1  UNL     1     -16.969 -34.038 -10.166  1.00  0.00     0.067 C 
HETATM    3  C2  UNL     1     -18.142 -34.828 -10.477  1.00  0.00     0.129 C 
HETATM    4  C3  UNL     1     -17.898 -35.905 -11.541  1.00  0.00     0.146 C 
HETATM    5  N2  UNL     1     -17.537 -36.861 -10.520  1.00  0.00    -0.347 N 
HETATM    6  C4  UNL     1     -16.789 -38.034 -10.470  1.00  0.00     0.248 C 
HETATM    7  O1  UNL     1     -16.242 -38.428 -11.561  1.00  0.00    -0.271 OA
HETATM    8  C20 UNL     1     -18.285 -36.050  -9.593  1.00  0.00     0.146 C 
ENDROOT
BRANCH   6   9
HETATM    9  C5  UNL     1     -16.561 -38.873  -9.279  1.00  0.00     0.117 C 
HETATM   10  C16 UNL     1     -16.069 -40.220  -9.809  1.00  0.00     0.068 C 
HETATM   11  C17 UNL     1     -14.873 -40.741  -9.066  1.00  0.00     0.235 C 
HETATM   12  N4  UNL     1     -15.164 -40.612  -7.652  1.00  0.00    -0.075 N 
HETATM   13  C18 UNL     1     -14.963 -39.200  -7.342  1.00  0.00     0.235 C 
ATOM     14  H42 UNL     1     -16.085 -40.962  -7.389  1.00  0.00     0.277 HD
ATOM     15  H41 UNL     1     -14.622 -41.243  -7.062  1.00  0.00     0.277 HD
HETATM   16  C19 UNL     1     -15.553 -38.266  -8.331  1.00  0.00     0.068 C 
BRANCH   9  17
HETATM   17  N3  UNL     1     -17.826 -39.113  -8.638  1.00  0.00    -0.341 N 
HETATM   18  C6  UNL     1     -18.942 -39.791  -9.161  1.00  0.00     0.247 C 
HETATM   19  O2  UNL     1     -18.974 -40.292 -10.309  1.00  0.00    -0.271 OA
ATOM     20  H3  UNL     1     -17.926 -38.746  -7.692  1.00  0.00     0.163 HD
BRANCH  18  21
HETATM   21  C7  UNL     1     -20.211 -39.984  -8.392  1.00  0.00     0.214 C 
HETATM   22  C8  UNL     1     -21.297 -39.308  -9.169  1.00  0.00     0.046 C 
HETATM   23  C9  UNL     1     -22.533 -39.011  -8.365  1.00  0.00    -0.009 C 
HETATM   24  C10 UNL     1     -23.610 -40.035  -8.513  1.00  0.00     0.005 C 
HETATM   25  C15 UNL     1     -22.208 -38.681  -6.937  1.00  0.00     0.036 C 
HETATM   26  C11 UNL     1     -23.373 -41.316  -7.806  1.00  0.00     0.000 C 
HETATM   27  C12 UNL     1     -23.092 -41.193  -6.345  1.00  0.00     0.002 C 
HETATM   28  C13 UNL     1     -21.639 -40.958  -6.020  1.00  0.00     0.032 C 
HETATM   29  C14 UNL     1     -21.161 -39.579  -6.335  1.00  0.00     0.122 C 
HETATM   30  O3  UNL     1     -20.029 -39.526  -7.106  1.00  0.00    -0.371 OA
ENDBRANCH  18  21
ENDBRANCH   9  17
ENDBRANCH   6   9
TORSDOF 3
ENDMDL
