MODEL 1
REMARK VINA RESULT: -8.528090163      0.000      0.000
REMARK  2 active torsions:
REMARK  status: ('A' for Active; 'I' for Inactive)
REMARK       I    between atoms: C1_2  and  N1_3 
REMARK       I    between atoms: C1_2  and  N2_15 
REMARK    1  A    between atoms: N1_3  and  C2_5 
REMARK    2  A    between atoms: N2_15  and  N3_17 
ROOT
HETATM    1  O1  UNL     1     -17.686 -37.982  -8.802  1.00  0.00    -0.246 OA
HETATM    2  C1  UNL     1     -18.517 -37.913  -9.740  1.00  0.00     0.331 C 
HETATM    3  N1  UNL     1     -19.760 -38.639  -9.682  1.00  0.00    -0.337 N 
ATOM      4  H1  UNL     1     -20.410 -38.557 -10.465  1.00  0.00     0.164 HD
HETATM    5  N2  UNL     1     -18.206 -37.105 -10.856  1.00  0.00    -0.270 N 
ATOM      6  H2  UNL     1     -18.866 -37.034 -11.630  1.00  0.00     0.185 HD
ENDROOT
BRANCH   3   7
HETATM    7  C2  UNL     1     -20.126 -39.471  -8.574  1.00  0.00     0.094 C 
HETATM    8  C3  UNL     1     -20.906 -38.682  -7.559  1.00  0.00     0.009 C 
HETATM    9  C4  UNL     1     -21.114 -39.472  -6.282  1.00  0.00     0.011 C 
HETATM   10  C8  UNL     1     -22.234 -38.315  -8.125  1.00  0.00     0.011 C 
HETATM   11  C5  UNL     1     -21.800 -40.764  -6.661  1.00  0.00    -0.013 C 
HETATM   12  C6  UNL     1     -23.198 -40.395  -7.134  1.00  0.00     0.009 C 
HETATM   13  C11 UNL     1     -21.038 -41.540  -7.689  1.00  0.00     0.011 C 
HETATM   14  C7  UNL     1     -23.045 -39.563  -8.385  1.00  0.00    -0.013 C 
HETATM   15  C9  UNL     1     -22.314 -40.377  -9.411  1.00  0.00     0.011 C 
HETATM   16  C10 UNL     1     -20.925 -40.693  -8.963  1.00  0.00     0.009 C 
ENDBRANCH   3   7
BRANCH   5  17
HETATM   17  N3  UNL     1     -17.018 -36.412 -10.906  1.00  0.00    -0.211 NA
HETATM   18  C12 UNL     1     -16.332 -36.634 -12.195  1.00  0.00     0.188 C 
HETATM   19  S1  UNL     1     -15.004 -35.357 -12.067  1.00  0.00    -0.145 SA
HETATM   20  C13 UNL     1     -15.715 -34.505 -10.635  1.00  0.00     0.083 C 
HETATM   21  C14 UNL     1     -15.905 -33.037 -10.823  1.00  0.00     0.157 C 
HETATM   22  C16 UNL     1     -17.160 -35.008 -10.825  1.00  0.00     0.109 C 
HETATM   23  S2  UNL     1     -17.239 -32.789  -9.627  1.00  0.00     0.147 S 
HETATM   24  O2  UNL     1     -16.637 -32.429  -8.323  1.00  0.00    -0.228 OA
HETATM   25  O3  UNL     1     -18.247 -31.841 -10.136  1.00  0.00    -0.228 OA
HETATM   26  C15 UNL     1     -17.867 -34.484  -9.619  1.00  0.00     0.163 C 
ENDBRANCH   5  17
TORSDOF 2
ENDMDL
MODEL 2
REMARK VINA RESULT: -8.297291324      0.787      1.178
REMARK  2 active torsions:
REMARK  status: ('A' for Active; 'I' for Inactive)
REMARK       I    between atoms: C1_2  and  N1_3 
REMARK       I    between atoms: C1_2  and  N2_15 
REMARK    1  A    between atoms: N1_3  and  C2_5 
REMARK    2  A    between atoms: N2_15  and  N3_17 
ROOT
HETATM    1  O1  UNL     1     -18.009 -37.803  -9.038  1.00  0.00    -0.246 OA
HETATM    2  C1  UNL     1     -18.744 -37.703 -10.049  1.00  0.00     0.331 C 
HETATM    3  N1  UNL     1     -20.020 -38.369 -10.106  1.00  0.00    -0.337 N 
ATOM      4  H1  UNL     1     -20.589 -38.263 -10.946  1.00  0.00     0.164 HD
HETATM    5  N2  UNL     1     -18.292 -36.920 -11.135  1.00  0.00    -0.270 N 
ATOM      6  H2  UNL     1     -18.872 -36.824 -11.968  1.00  0.00     0.185 HD
ENDROOT
BRANCH   3   7
HETATM    7  C2  UNL     1     -20.528 -39.174  -9.034  1.00  0.00     0.094 C 
HETATM    8  C3  UNL     1     -22.027 -39.075  -8.967  1.00  0.00     0.009 C 
HETATM    9  C4  UNL     1     -22.571 -39.733  -7.714  1.00  0.00     0.011 C 
HETATM   10  C8  UNL     1     -22.624 -39.734 -10.162  1.00  0.00     0.011 C 
HETATM   11  C5  UNL     1     -22.086 -41.164  -7.713  1.00  0.00    -0.013 C 
HETATM   12  C6  UNL     1     -22.784 -41.865  -8.868  1.00  0.00     0.009 C 
HETATM   13  C11 UNL     1     -20.595 -41.266  -7.804  1.00  0.00     0.011 C 
HETATM   14  C7  UNL     1     -22.310 -41.211 -10.144  1.00  0.00    -0.013 C 
HETATM   15  C9  UNL     1     -20.820 -41.363 -10.230  1.00  0.00     0.011 C 
HETATM   16  C10 UNL     1     -20.137 -40.630  -9.123  1.00  0.00     0.009 C 
ENDBRANCH   3   7
BRANCH   5  17
HETATM   17  N3  UNL     1     -17.072 -36.285 -11.076  1.00  0.00    -0.211 NA
HETATM   18  C12 UNL     1     -16.317 -36.474 -12.330  1.00  0.00     0.188 C 
HETATM   19  S1  UNL     1     -14.943 -35.272 -12.054  1.00  0.00    -0.145 SA
HETATM   20  C13 UNL     1     -15.703 -34.460 -10.626  1.00  0.00     0.083 C 
HETATM   21  C14 UNL     1     -15.814 -32.976 -10.747  1.00  0.00     0.157 C 
HETATM   22  C16 UNL     1     -17.155 -34.881 -10.929  1.00  0.00     0.109 C 
HETATM   23  S2  UNL     1     -17.208 -32.723  -9.623  1.00  0.00     0.147 S 
HETATM   24  O2  UNL     1     -16.674 -32.459  -8.267  1.00  0.00    -0.228 OA
HETATM   25  O3  UNL     1     -18.138 -31.703 -10.141  1.00  0.00    -0.228 OA
HETATM   26  C15 UNL     1     -17.912 -34.384  -9.742  1.00  0.00     0.163 C 
ENDBRANCH   5  17
TORSDOF 2
ENDMDL
MODEL 3
REMARK VINA RESULT: -8.233881519      4.438      8.171
REMARK  2 active torsions:
REMARK  status: ('A' for Active; 'I' for Inactive)
REMARK       I    between atoms: C1_2  and  N1_3 
REMARK       I    between atoms: C1_2  and  N2_15 
REMARK    1  A    between atoms: N1_3  and  C2_5 
REMARK    2  A    between atoms: N2_15  and  N3_17 
ROOT
HETATM    1  O1  UNL     1     -19.042 -40.139  -7.942  1.00  0.00    -0.246 OA
HETATM    2  C1  UNL     1     -19.596 -39.043  -7.687  1.00  0.00     0.331 C 
HETATM    3  N1  UNL     1     -19.060 -37.806  -8.196  1.00  0.00    -0.337 N 
ATOM      4  H1  UNL     1     -19.540 -36.936  -7.966  1.00  0.00     0.164 HD
HETATM    5  N2  UNL     1     -20.761 -39.048  -6.887  1.00  0.00    -0.270 N 
ATOM      6  H2  UNL     1     -21.228 -38.169  -6.666  1.00  0.00     0.185 HD
ENDROOT
BRANCH   3   7
HETATM    7  C2  UNL     1     -17.883 -37.744  -9.012  1.00  0.00     0.094 C 
HETATM    8  C3  UNL     1     -18.212 -38.100 -10.436  1.00  0.00     0.009 C 
HETATM    9  C4  UNL     1     -16.957 -38.259 -11.271  1.00  0.00     0.011 C 
HETATM   10  C8  UNL     1     -19.062 -37.033 -11.034  1.00  0.00     0.011 C 
HETATM   11  C5  UNL     1     -16.180 -36.968 -11.164  1.00  0.00    -0.013 C 
HETATM   12  C6  UNL     1     -17.001 -35.901 -11.874  1.00  0.00     0.009 C 
HETATM   13  C11 UNL     1     -15.873 -36.598  -9.746  1.00  0.00     0.011 C 
HETATM   14  C7  UNL     1     -18.289 -35.738 -11.104  1.00  0.00    -0.013 C 
HETATM   15  C9  UNL     1     -17.955 -35.329  -9.700  1.00  0.00     0.011 C 
HETATM   16  C10 UNL     1     -17.193 -36.401  -8.991  1.00  0.00     0.009 C 
ENDBRANCH   3   7
BRANCH   5  17
HETATM   17  N3  UNL     1     -21.269 -40.232  -6.404  1.00  0.00    -0.211 NA
HETATM   18  C12 UNL     1     -21.657 -40.100  -4.985  1.00  0.00     0.188 C 
HETATM   19  S1  UNL     1     -22.566 -41.691  -4.759  1.00  0.00    -0.145 SA
HETATM   20  C13 UNL     1     -22.653 -42.097  -6.522  1.00  0.00     0.083 C 
HETATM   21  C14 UNL     1     -24.030 -42.385  -7.021  1.00  0.00     0.157 C 
HETATM   22  C16 UNL     1     -22.452 -40.662  -7.049  1.00  0.00     0.109 C 
HETATM   23  S2  UNL     1     -23.773 -41.962  -8.761  1.00  0.00     0.147 S 
HETATM   24  O2  UNL     1     -23.375 -43.188  -9.488  1.00  0.00    -0.228 OA
HETATM   25  O3  UNL     1     -24.939 -41.252  -9.319  1.00  0.00    -0.228 OA
HETATM   26  C15 UNL     1     -22.368 -40.847  -8.528  1.00  0.00     0.163 C 
ENDBRANCH   5  17
TORSDOF 2
ENDMDL
MODEL 4
REMARK VINA RESULT: -8.050751105      2.075      3.189
REMARK  2 active torsions:
REMARK  status: ('A' for Active; 'I' for Inactive)
REMARK       I    between atoms: C1_2  and  N1_3 
REMARK       I    between atoms: C1_2  and  N2_15 
REMARK    1  A    between atoms: N1_3  and  C2_5 
REMARK    2  A    between atoms: N2_15  and  N3_17 
ROOT
HETATM    1  O1  UNL     1     -19.613 -37.212 -10.769  1.00  0.00    -0.246 OA
HETATM    2  C1  UNL     1     -19.158 -37.458  -9.625  1.00  0.00     0.331 C 
HETATM    3  N1  UNL     1     -19.647 -38.575  -8.859  1.00  0.00    -0.337 N 
ATOM      4  H1  UNL     1     -19.252 -38.741  -7.933  1.00  0.00     0.164 HD
HETATM    5  N2  UNL     1     -18.154 -36.611  -9.105  1.00  0.00    -0.270 N 
ATOM      6  H2  UNL     1     -17.770 -36.790  -8.177  1.00  0.00     0.185 HD
ENDROOT
BRANCH   3   7
HETATM    7  C2  UNL     1     -20.662 -39.466  -9.339  1.00  0.00     0.094 C 
HETATM    8  C3  UNL     1     -20.672 -40.735  -8.532  1.00  0.00     0.009 C 
HETATM    9  C4  UNL     1     -21.579 -41.779  -9.152  1.00  0.00     0.011 C 
HETATM   10  C8  UNL     1     -21.143 -40.442  -7.149  1.00  0.00     0.011 C 
HETATM   11  C5  UNL     1     -22.953 -41.163  -9.278  1.00  0.00    -0.013 C 
HETATM   12  C6  UNL     1     -23.478 -40.968  -7.863  1.00  0.00     0.009 C 
HETATM   13  C11 UNL     1     -22.941 -39.887 -10.060  1.00  0.00     0.011 C 
HETATM   14  C7  UNL     1     -22.576 -39.967  -7.183  1.00  0.00    -0.013 C 
HETATM   15  C9  UNL     1     -22.614 -38.687  -7.963  1.00  0.00     0.011 C 
HETATM   16  C10 UNL     1     -22.050 -38.871  -9.334  1.00  0.00     0.009 C 
ENDBRANCH   3   7
BRANCH   5  17
HETATM   17  N3  UNL     1     -17.690 -35.545  -9.841  1.00  0.00    -0.211 NA
HETATM   18  C12 UNL     1     -17.613 -34.325  -9.013  1.00  0.00     0.188 C 
HETATM   19  S1  UNL     1     -16.681 -33.223 -10.164  1.00  0.00    -0.145 SA
HETATM   20  C13 UNL     1     -16.209 -34.534 -11.321  1.00  0.00     0.083 C 
HETATM   21  C14 UNL     1     -14.744 -34.613 -11.599  1.00  0.00     0.157 C 
HETATM   22  C16 UNL     1     -16.378 -35.710 -10.340  1.00  0.00     0.109 C 
HETATM   23  S2  UNL     1     -14.659 -36.357 -12.070  1.00  0.00     0.147 S 
HETATM   24  O2  UNL     1     -14.828 -36.454 -13.538  1.00  0.00    -0.228 OA
HETATM   25  O3  UNL     1     -13.446 -36.999 -11.534  1.00  0.00    -0.228 OA
HETATM   26  C15 UNL     1     -16.143 -36.910 -11.197  1.00  0.00     0.163 C 
ENDBRANCH   5  17
TORSDOF 2
ENDMDL
MODEL 5
REMARK VINA RESULT: -7.974278699      4.346      7.943
REMARK  2 active torsions:
REMARK  status: ('A' for Active; 'I' for Inactive)
REMARK       I    between atoms: C1_2  and  N1_3 
REMARK       I    between atoms: C1_2  and  N2_15 
REMARK    1  A    between atoms: N1_3  and  C2_5 
REMARK    2  A    between atoms: N2_15  and  N3_17 
ROOT
HETATM    1  O1  UNL     1     -20.565 -39.385 -10.067  1.00  0.00    -0.246 OA
HETATM    2  C1  UNL     1     -19.578 -39.782  -9.401  1.00  0.00     0.331 C 
HETATM    3  N1  UNL     1     -18.261 -39.251  -9.641  1.00  0.00    -0.337 N 
ATOM      4  H1  UNL     1     -17.484 -39.600  -9.079  1.00  0.00     0.164 HD
HETATM    5  N2  UNL     1     -19.789 -40.765  -8.408  1.00  0.00    -0.270 N 
ATOM      6  H2  UNL     1     -19.002 -41.103  -7.855  1.00  0.00     0.185 HD
ENDROOT
BRANCH   3   7
HETATM    7  C2  UNL     1     -17.991 -38.253 -10.634  1.00  0.00     0.094 C 
HETATM    8  C3  UNL     1     -18.716 -36.977 -10.306  1.00  0.00     0.009 C 
HETATM    9  C4  UNL     1     -18.630 -35.981 -11.447  1.00  0.00     0.011 C 
HETATM   10  C8  UNL     1     -18.123 -36.367  -9.083  1.00  0.00     0.011 C 
HETATM   11  C5  UNL     1     -17.165 -35.756 -11.736  1.00  0.00    -0.013 C 
HETATM   12  C6  UNL     1     -16.585 -35.032 -10.529  1.00  0.00     0.009 C 
HETATM   13  C11 UNL     1     -16.436 -37.028 -12.038  1.00  0.00     0.011 C 
HETATM   14  C7  UNL     1     -16.691 -35.968  -9.349  1.00  0.00    -0.013 C 
HETATM   15  C9  UNL     1     -15.920 -37.215  -9.662  1.00  0.00     0.011 C 
HETATM   16  C10 UNL     1     -16.523 -37.950 -10.815  1.00  0.00     0.009 C 
ENDBRANCH   3   7
BRANCH   5  17
HETATM   17  N3  UNL     1     -21.050 -41.269  -8.182  1.00  0.00    -0.211 NA
HETATM   18  C12 UNL     1     -21.158 -42.658  -8.669  1.00  0.00     0.188 C 
HETATM   19  S1  UNL     1     -22.790 -43.120  -7.941  1.00  0.00    -0.145 SA
HETATM   20  C13 UNL     1     -22.912 -41.678  -6.852  1.00  0.00     0.083 C 
HETATM   21  C14 UNL     1     -23.157 -42.009  -5.417  1.00  0.00     0.157 C 
HETATM   22  C16 UNL     1     -21.406 -41.350  -6.817  1.00  0.00     0.109 C 
HETATM   23  S2  UNL     1     -22.454 -40.515  -4.678  1.00  0.00     0.147 S 
HETATM   24  O2  UNL     1     -23.536 -39.518  -4.517  1.00  0.00    -0.228 OA
HETATM   25  O3  UNL     1     -21.699 -40.827  -3.451  1.00  0.00    -0.228 OA
HETATM   26  C15 UNL     1     -21.350 -40.076  -6.041  1.00  0.00     0.163 C 
ENDBRANCH   5  17
TORSDOF 2
ENDMDL
