MODEL 1
REMARK VINA RESULT: -9.035319576      0.000      0.000
REMARK  4 active torsions:
REMARK  status: ('A' for Active; 'I' for Inactive)
REMARK    1  A    between atoms: C4_4  and  N1_5 
REMARK    2  A    between atoms: N1_5  and  C5_7 
REMARK    3  A    between atoms: C6_10  and  N3_11 
REMARK    4  A    between atoms: N3_11  and  C7_13 
ROOT
HETATM    1  C1  UNL     1     -17.152 -32.776  -9.620  1.00  0.00     0.049 C 
HETATM    2  C2  UNL     1     -17.285 -34.132 -10.216  1.00  0.00    -0.052 A 
HETATM    3  C3  UNL     1     -18.243 -35.041  -9.829  1.00  0.00     0.037 A 
HETATM    4  C4  UNL     1     -18.375 -36.297 -10.374  1.00  0.00     0.035 A 
HETATM    5  C14 UNL     1     -17.499 -36.676 -11.366  1.00  0.00     0.052 A 
HETATM    6  C15 UNL     1     -16.531 -35.782 -11.767  1.00  0.00     0.053 A 
HETATM    7  C16 UNL     1     -15.625 -36.211 -12.814  1.00  0.00     0.100 C 
HETATM    8  N6  UNL     1     -14.901 -36.538 -13.658  1.00  0.00    -0.191 NA
HETATM    9  C17 UNL     1     -16.414 -34.529 -11.212  1.00  0.00    -0.035 A 
HETATM   10  C18 UNL     1     -15.339 -33.590 -11.687  1.00  0.00     0.050 C 
ENDROOT
BRANCH   4  11
HETATM   11  N1  UNL     1     -19.379 -37.144  -9.912  1.00  0.00    -0.340 N 
ATOM     12  H1  UNL     1     -20.272 -37.113 -10.403  1.00  0.00     0.167 HD
BRANCH  11  13
HETATM   13  C5  UNL     1     -19.284 -37.964  -8.922  1.00  0.00     0.151 A 
HETATM   14  N2  UNL     1     -18.090 -38.161  -8.335  1.00  0.00    -0.174 N 
HETATM   15  C6  UNL     1     -17.928 -39.008  -7.292  1.00  0.00     0.680 A 
ATOM     16  H2  UNL     1     -17.279 -37.655  -8.689  1.00  0.00     0.186 HD
HETATM   17  N4  UNL     1     -18.996 -39.667  -6.833  1.00  0.00    -0.192 N 
HETATM   18  C10 UNL     1     -20.231 -39.483  -7.417  1.00  0.00     0.073 A 
ATOM     19  H4  UNL     1     -18.897 -40.310  -6.047  1.00  0.00     0.184 HD
HETATM   20  C11 UNL     1     -20.399 -38.642  -8.455  1.00  0.00     0.113 A 
HETATM   21  C13 UNL     1     -21.447 -40.183  -6.940  1.00  0.00     0.223 C 
HETATM   22  N5  UNL     1     -21.721 -38.557  -8.958  1.00  0.00    -0.274 N 
HETATM   23  C12 UNL     1     -22.304 -37.577  -9.834  1.00  0.00     0.170 C 
HETATM   24  S1  UNL     1     -22.559 -39.916  -8.293  1.00  0.00     0.238 S 
HETATM   25  O1  UNL     1     -22.525 -41.063  -9.265  1.00  0.00    -0.205 OA
HETATM   26  O2  UNL     1     -23.930 -39.577  -7.834  1.00  0.00    -0.205 OA
BRANCH  15  27
HETATM   27  N3  UNL     1     -16.778 -39.144  -6.793  1.00  0.00    -0.222 N 
ATOM     28  H3  UNL     1     -16.686 -38.776  -5.847  1.00  0.00     0.178 HD
BRANCH  27  29
HETATM   29  C7  UNL     1     -15.593 -39.714  -7.312  1.00  0.00     0.091 C 
HETATM   30  C8  UNL     1     -14.776 -38.744  -8.166  1.00  0.00     0.032 C 
HETATM   31  C9  UNL     1     -15.781 -41.037  -7.991  1.00  0.00     0.032 C 
ENDBRANCH  27  29
ENDBRANCH  15  27
ENDBRANCH  11  13
ENDBRANCH   4  11
TORSDOF 4
ENDMDL
MODEL 2
REMARK VINA RESULT: -8.987774846      1.119      2.093
REMARK  4 active torsions:
REMARK  status: ('A' for Active; 'I' for Inactive)
REMARK    1  A    between atoms: C4_4  and  N1_5 
REMARK    2  A    between atoms: N1_5  and  C5_7 
REMARK    3  A    between atoms: C6_10  and  N3_11 
REMARK    4  A    between atoms: N3_11  and  C7_13 
ROOT
HETATM    1  C1  UNL     1     -15.528 -36.224 -12.923  1.00  0.00     0.049 C 
HETATM    2  C2  UNL     1     -16.487 -35.858 -11.847  1.00  0.00    -0.052 A 
HETATM    3  C3  UNL     1     -17.475 -36.701 -11.391  1.00  0.00     0.037 A 
HETATM    4  C4  UNL     1     -18.367 -36.373 -10.397  1.00  0.00     0.035 A 
HETATM    5  C14 UNL     1     -18.273 -35.128  -9.818  1.00  0.00     0.052 A 
HETATM    6  C15 UNL     1     -17.292 -34.268 -10.260  1.00  0.00     0.053 A 
HETATM    7  C16 UNL     1     -17.220 -32.964  -9.630  1.00  0.00     0.100 C 
HETATM    8  N6  UNL     1     -17.144 -31.923  -9.125  1.00  0.00    -0.191 NA
HETATM    9  C17 UNL     1     -16.408 -34.613 -11.256  1.00  0.00    -0.035 A 
HETATM   10  C18 UNL     1     -15.354 -33.635 -11.701  1.00  0.00     0.050 C 
ENDROOT
BRANCH   4  11
HETATM   11  N1  UNL     1     -19.331 -37.298 -10.007  1.00  0.00    -0.340 N 
ATOM     12  H1  UNL     1     -20.166 -37.370 -10.588  1.00  0.00     0.167 HD
BRANCH  11  13
HETATM   13  C5  UNL     1     -19.266 -38.072  -8.978  1.00  0.00     0.151 A 
HETATM   14  N2  UNL     1     -18.085 -38.263  -8.364  1.00  0.00    -0.174 N 
HETATM   15  C6  UNL     1     -17.954 -39.063  -7.280  1.00  0.00     0.680 A 
ATOM     16  H2  UNL     1     -17.259 -37.789  -8.729  1.00  0.00     0.186 HD
HETATM   17  N4  UNL     1     -19.041 -39.680  -6.807  1.00  0.00    -0.192 N 
HETATM   18  C10 UNL     1     -20.264 -39.501  -7.418  1.00  0.00     0.073 A 
ATOM     19  H4  UNL     1     -18.966 -40.287  -5.991  1.00  0.00     0.184 HD
HETATM   20  C11 UNL     1     -20.400 -38.707  -8.497  1.00  0.00     0.113 A 
HETATM   21  C13 UNL     1     -21.499 -40.157  -6.928  1.00  0.00     0.223 C 
HETATM   22  N5  UNL     1     -21.713 -38.622  -9.024  1.00  0.00    -0.274 N 
HETATM   23  C12 UNL     1     -22.265 -37.674  -9.953  1.00  0.00     0.170 C 
HETATM   24  S1  UNL     1     -22.586 -39.933  -8.310  1.00  0.00     0.238 S 
HETATM   25  O1  UNL     1     -22.560 -41.125  -9.226  1.00  0.00    -0.205 OA
HETATM   26  O2  UNL     1     -23.957 -39.548  -7.889  1.00  0.00    -0.205 OA
BRANCH  15  27
HETATM   27  N3  UNL     1     -16.814 -39.195  -6.758  1.00  0.00    -0.222 N 
ATOM     28  H3  UNL     1     -16.736 -38.804  -5.819  1.00  0.00     0.178 HD
BRANCH  27  29
HETATM   29  C7  UNL     1     -15.626 -39.790  -7.241  1.00  0.00     0.091 C 
HETATM   30  C8  UNL     1     -14.745 -38.826  -8.037  1.00  0.00     0.032 C 
HETATM   31  C9  UNL     1     -15.824 -41.091  -7.958  1.00  0.00     0.032 C 
ENDBRANCH  27  29
ENDBRANCH  15  27
ENDBRANCH  11  13
ENDBRANCH   4  11
TORSDOF 4
ENDMDL
MODEL 3
REMARK VINA RESULT: -8.827584837      3.280      5.991
REMARK  4 active torsions:
REMARK  status: ('A' for Active; 'I' for Inactive)
REMARK    1  A    between atoms: C4_4  and  N1_5 
REMARK    2  A    between atoms: N1_5  and  C5_7 
REMARK    3  A    between atoms: C6_10  and  N3_11 
REMARK    4  A    between atoms: N3_11  and  C7_13 
ROOT
HETATM    1  C1  UNL     1     -17.712 -41.023 -10.299  1.00  0.00     0.049 C 
HETATM    2  C2  UNL     1     -18.495 -39.759 -10.278  1.00  0.00    -0.052 A 
HETATM    3  C3  UNL     1     -19.792 -39.677  -9.823  1.00  0.00     0.037 A 
HETATM    4  C4  UNL     1     -20.525 -38.514  -9.799  1.00  0.00     0.035 A 
HETATM    5  C14 UNL     1     -19.934 -37.357 -10.254  1.00  0.00     0.052 A 
HETATM    6  C15 UNL     1     -18.637 -37.417 -10.714  1.00  0.00     0.053 A 
HETATM    7  C16 UNL     1     -18.044 -36.182 -11.187  1.00  0.00     0.100 C 
HETATM    8  N6  UNL     1     -17.553 -35.198 -11.557  1.00  0.00    -0.191 NA
HETATM    9  C17 UNL     1     -17.918 -38.590 -10.731  1.00  0.00    -0.035 A 
HETATM   10  C18 UNL     1     -16.503 -38.599 -11.244  1.00  0.00     0.050 C 
ENDROOT
BRANCH   4  11
HETATM   11  N1  UNL     1     -21.832 -38.536  -9.319  1.00  0.00    -0.340 N 
ATOM     12  H1  UNL     1     -22.282 -37.635  -9.159  1.00  0.00     0.167 HD
BRANCH  11  13
HETATM   13  C5  UNL     1     -22.527 -39.590  -9.059  1.00  0.00     0.151 A 
HETATM   14  N2  UNL     1     -23.262 -40.158 -10.032  1.00  0.00    -0.174 N 
HETATM   15  C6  UNL     1     -24.010 -41.266  -9.821  1.00  0.00     0.680 A 
ATOM     16  H2  UNL     1     -23.254 -39.739 -10.962  1.00  0.00     0.186 HD
HETATM   17  N4  UNL     1     -24.013 -41.810  -8.600  1.00  0.00    -0.192 N 
HETATM   18  C10 UNL     1     -23.269 -41.248  -7.586  1.00  0.00     0.073 A 
ATOM     19  H4  UNL     1     -24.569 -42.646  -8.419  1.00  0.00     0.184 HD
HETATM   20  C11 UNL     1     -22.523 -40.146  -7.790  1.00  0.00     0.113 A 
HETATM   21  C13 UNL     1     -23.233 -41.818  -6.218  1.00  0.00     0.223 C 
HETATM   22  N5  UNL     1     -21.815 -39.675  -6.656  1.00  0.00    -0.274 N 
HETATM   23  C12 UNL     1     -20.731 -38.734  -6.581  1.00  0.00     0.170 C 
HETATM   24  S1  UNL     1     -22.526 -40.478  -5.299  1.00  0.00     0.238 S 
HETATM   25  O1  UNL     1     -23.591 -39.609  -4.690  1.00  0.00    -0.205 OA
HETATM   26  O2  UNL     1     -21.516 -40.945  -4.315  1.00  0.00    -0.205 OA
BRANCH  15  27
HETATM   27  N3  UNL     1     -24.674 -41.742 -10.781  1.00  0.00    -0.222 N 
ATOM     28  H3  UNL     1     -24.142 -41.855 -11.644  1.00  0.00     0.178 HD
BRANCH  27  29
HETATM   29  C7  UNL     1     -26.026 -42.147 -10.874  1.00  0.00     0.091 C 
HETATM   30  C8  UNL     1     -26.320 -43.001 -12.108  1.00  0.00     0.032 C 
HETATM   31  C9  UNL     1     -27.023 -41.041 -10.707  1.00  0.00     0.032 C 
ENDBRANCH  27  29
ENDBRANCH  15  27
ENDBRANCH  11  13
ENDBRANCH   4  11
TORSDOF 4
ENDMDL
MODEL 4
REMARK VINA RESULT: -8.811502843      3.321      5.922
REMARK  4 active torsions:
REMARK  status: ('A' for Active; 'I' for Inactive)
REMARK    1  A    between atoms: C4_4  and  N1_5 
REMARK    2  A    between atoms: N1_5  and  C5_7 
REMARK    3  A    between atoms: C6_10  and  N3_11 
REMARK    4  A    between atoms: N3_11  and  C7_13 
ROOT
HETATM    1  C1  UNL     1     -18.163 -35.965 -11.311  1.00  0.00     0.049 C 
HETATM    2  C2  UNL     1     -18.714 -37.238 -10.775  1.00  0.00    -0.052 A 
HETATM    3  C3  UNL     1     -19.986 -37.360 -10.264  1.00  0.00     0.037 A 
HETATM    4  C4  UNL     1     -20.505 -38.531  -9.765  1.00  0.00     0.035 A 
HETATM    5  C14 UNL     1     -19.712 -39.656  -9.775  1.00  0.00     0.052 A 
HETATM    6  C15 UNL     1     -18.434 -39.557 -10.282  1.00  0.00     0.053 A 
HETATM    7  C16 UNL     1     -17.624 -40.758 -10.278  1.00  0.00     0.100 C 
HETATM    8  N6  UNL     1     -16.970 -41.716 -10.291  1.00  0.00    -0.191 NA
HETATM    9  C17 UNL     1     -17.931 -38.376 -10.777  1.00  0.00    -0.035 A 
HETATM   10  C18 UNL     1     -16.529 -38.322 -11.319  1.00  0.00     0.050 C 
ENDROOT
BRANCH   4  11
HETATM   11  N1  UNL     1     -21.806 -38.550  -9.269  1.00  0.00    -0.340 N 
ATOM     12  H1  UNL     1     -22.240 -37.649  -9.073  1.00  0.00     0.167 HD
BRANCH  11  13
HETATM   13  C5  UNL     1     -22.513 -39.603  -9.036  1.00  0.00     0.151 A 
HETATM   14  N2  UNL     1     -23.248 -40.143 -10.024  1.00  0.00    -0.174 N 
HETATM   15  C6  UNL     1     -24.009 -41.246  -9.841  1.00  0.00     0.680 A 
ATOM     16  H2  UNL     1     -23.230 -39.704 -10.945  1.00  0.00     0.186 HD
HETATM   17  N4  UNL     1     -24.025 -41.816  -8.631  1.00  0.00    -0.192 N 
HETATM   18  C10 UNL     1     -23.281 -41.283  -7.601  1.00  0.00     0.073 A 
ATOM     19  H4  UNL     1     -24.591 -42.650  -8.470  1.00  0.00     0.184 HD
HETATM   20  C11 UNL     1     -22.522 -40.184  -7.778  1.00  0.00     0.113 A 
HETATM   21  C13 UNL     1     -23.259 -41.881  -6.245  1.00  0.00     0.223 C 
HETATM   22  N5  UNL     1     -21.817 -39.744  -6.630  1.00  0.00    -0.274 N 
HETATM   23  C12 UNL     1     -20.724 -38.817  -6.530  1.00  0.00     0.170 C 
HETATM   24  S1  UNL     1     -22.544 -40.568  -5.294  1.00  0.00     0.238 S 
HETATM   25  O1  UNL     1     -23.604 -39.701  -4.674  1.00  0.00    -0.205 OA
HETATM   26  O2  UNL     1     -21.545 -41.065  -4.314  1.00  0.00    -0.205 OA
BRANCH  15  27
HETATM   27  N3  UNL     1     -24.672 -41.696 -10.814  1.00  0.00    -0.222 N 
ATOM     28  H3  UNL     1     -24.162 -41.714 -11.696  1.00  0.00     0.178 HD
BRANCH  27  29
HETATM   29  C7  UNL     1     -25.998 -42.180 -10.900  1.00  0.00     0.091 C 
HETATM   30  C8  UNL     1     -26.252 -43.039 -12.138  1.00  0.00     0.032 C 
HETATM   31  C9  UNL     1     -27.058 -41.136 -10.714  1.00  0.00     0.032 C 
ENDBRANCH  27  29
ENDBRANCH  15  27
ENDBRANCH  11  13
ENDBRANCH   4  11
TORSDOF 4
ENDMDL
MODEL 5
REMARK VINA RESULT: -8.779303888      1.347      2.340
REMARK  4 active torsions:
REMARK  status: ('A' for Active; 'I' for Inactive)
REMARK    1  A    between atoms: C4_4  and  N1_5 
REMARK    2  A    between atoms: N1_5  and  C5_7 
REMARK    3  A    between atoms: C6_10  and  N3_11 
REMARK    4  A    between atoms: N3_11  and  C7_13 
ROOT
HETATM    1  C1  UNL     1     -15.373 -36.220 -13.097  1.00  0.00     0.049 C 
HETATM    2  C2  UNL     1     -16.338 -36.014 -11.985  1.00  0.00    -0.052 A 
HETATM    3  C3  UNL     1     -17.296 -36.936 -11.629  1.00  0.00     0.037 A 
HETATM    4  C4  UNL     1     -18.193 -36.756 -10.602  1.00  0.00     0.035 A 
HETATM    5  C14 UNL     1     -18.137 -35.584  -9.882  1.00  0.00     0.052 A 
HETATM    6  C15 UNL     1     -17.186 -34.647 -10.221  1.00  0.00     0.053 A 
HETATM    7  C16 UNL     1     -17.153 -33.424  -9.444  1.00  0.00     0.100 C 
HETATM    8  N6  UNL     1     -17.108 -32.447  -8.821  1.00  0.00    -0.191 NA
HETATM    9  C17 UNL     1     -16.296 -34.844 -11.252  1.00  0.00    -0.035 A 
HETATM   10  C18 UNL     1     -15.277 -33.787 -11.581  1.00  0.00     0.050 C 
ENDROOT
BRANCH   4  11
HETATM   11  N1  UNL     1     -19.125 -37.751 -10.321  1.00  0.00    -0.340 N 
ATOM     12  H1  UNL     1     -19.973 -37.764 -10.886  1.00  0.00     0.167 HD
BRANCH  11  13
HETATM   13  C5  UNL     1     -19.014 -38.659  -9.413  1.00  0.00     0.151 A 
HETATM   14  N2  UNL     1     -17.793 -39.096  -9.056  1.00  0.00    -0.174 N 
HETATM   15  C6  UNL     1     -17.612 -40.045  -8.109  1.00  0.00     0.680 A 
ATOM     16  H2  UNL     1     -16.974 -38.697  -9.516  1.00  0.00     0.186 HD
HETATM   17  N4  UNL     1     -18.689 -40.562  -7.509  1.00  0.00    -0.192 N 
HETATM   18  C10 UNL     1     -19.952 -40.132  -7.857  1.00  0.00     0.073 A 
ATOM     19  H4  UNL     1     -18.577 -41.278  -6.791  1.00  0.00     0.184 HD
HETATM   20  C11 UNL     1     -20.138 -39.187  -8.799  1.00  0.00     0.113 A 
HETATM   21  C13 UNL     1     -21.177 -40.667  -7.217  1.00  0.00     0.223 C 
HETATM   22  N5  UNL     1     -21.489 -38.848  -9.057  1.00  0.00    -0.274 N 
HETATM   23  C12 UNL     1     -22.028 -37.715  -9.759  1.00  0.00     0.170 C 
HETATM   24  S1  UNL     1     -22.430 -40.108  -8.337  1.00  0.00     0.238 S 
HETATM   25  O1  UNL     1     -22.753 -41.156  -9.365  1.00  0.00    -0.205 OA
HETATM   26  O2  UNL     1     -23.629 -39.594  -7.627  1.00  0.00    -0.205 OA
BRANCH  15  27
HETATM   27  N3  UNL     1     -16.437 -40.406  -7.827  1.00  0.00    -0.222 N 
ATOM     28  H3  UNL     1     -16.247 -40.468  -6.827  1.00  0.00     0.178 HD
BRANCH  27  29
HETATM   29  C7  UNL     1     -15.337 -40.739  -8.650  1.00  0.00     0.091 C 
HETATM   30  C8  UNL     1     -15.074 -42.243  -8.732  1.00  0.00     0.032 C 
HETATM   31  C9  UNL     1     -14.085 -39.966  -8.365  1.00  0.00     0.032 C 
ENDBRANCH  27  29
ENDBRANCH  15  27
ENDBRANCH  11  13
ENDBRANCH   4  11
TORSDOF 4
ENDMDL
