MODEL 1
REMARK VINA RESULT: -8.523184557      0.000      0.000
REMARK  2 active torsions:
REMARK  status: ('A' for Active; 'I' for Inactive)
REMARK       I    between atoms: C1_2  and  N1_3 
REMARK       I    between atoms: C1_2  and  N4_24 
REMARK    1  A    between atoms: N1_3  and  C2_5 
REMARK       I    between atoms: N2_13  and  C10_14 
REMARK       I    between atoms: C10_14  and  N3_16 
REMARK    2  A    between atoms: N3_16  and  C11_18 
ROOT
HETATM    1  C2  UNL     1     -19.454 -38.705 -10.246  1.00  0.00     0.088 C 
HETATM    2  C3  UNL     1     -18.609 -39.838  -9.724  1.00  0.00     0.027 C 
HETATM    3  C4  UNL     1     -19.253 -41.177  -9.789  1.00  0.00     0.027 C 
HETATM    4  C5  UNL     1     -20.204 -41.474  -8.670  1.00  0.00     0.089 C 
HETATM    5  C6  UNL     1     -19.820 -40.772  -7.377  1.00  0.00     0.027 C 
HETATM    6  C7  UNL     1     -20.458 -39.422  -7.419  1.00  0.00     0.027 C 
HETATM    7  C8  UNL     1     -21.288 -39.454  -8.644  1.00  0.00     0.091 C 
HETATM    8  C9  UNL     1     -20.847 -38.645  -9.791  1.00  0.00     0.050 C 
HETATM    9  N2  UNL     1     -21.482 -40.858  -8.957  1.00  0.00    -0.325 N 
HETATM   10  C10 UNL     1     -22.634 -41.520  -9.436  1.00  0.00     0.319 C 
HETATM   11  O2  UNL     1     -23.698 -40.843  -9.641  1.00  0.00    -0.247 OA
HETATM   12  N3  UNL     1     -22.639 -42.910  -9.695  1.00  0.00    -0.338 N 
ATOM     13  H3  UNL     1     -21.779 -43.431  -9.525  1.00  0.00     0.164 HD
ENDROOT
BRANCH   1  14
HETATM   14  N1  UNL     1     -18.750 -37.457 -10.031  1.00  0.00    -0.338 N 
HETATM   15  C1  UNL     1     -17.633 -37.055 -10.796  1.00  0.00     0.318 C 
HETATM   16  O1  UNL     1     -17.263 -37.867 -11.712  1.00  0.00    -0.247 OA
HETATM   17  N4  UNL     1     -16.948 -35.827 -10.578  1.00  0.00    -0.334 N 
HETATM   18  C16 UNL     1     -15.817 -35.526 -11.427  1.00  0.00     0.127 C 
HETATM   19  C20 UNL     1     -17.437 -34.979  -9.528  1.00  0.00     0.127 C 
HETATM   20  C17 UNL     1     -15.032 -34.337 -10.995  1.00  0.00     0.020 C 
HETATM   21  C18 UNL     1     -16.045 -33.254 -10.601  1.00  0.00     0.003 C 
HETATM   22  C19 UNL     1     -16.672 -33.715  -9.324  1.00  0.00     0.020 C 
ATOM     23  H1  UNL     1     -19.077 -36.837  -9.290  1.00  0.00     0.164 HD
ENDBRANCH   1  14
BRANCH  12  24
HETATM   24  C11 UNL     1     -23.778 -43.635 -10.182  1.00  0.00     0.090 C 
HETATM   25  C12 UNL     1     -23.509 -43.928 -11.664  1.00  0.00     0.051 C 
HETATM   26  C13 UNL     1     -24.812 -44.365 -12.271  1.00  0.00     0.169 C 
HETATM   27  O3  UNL     1     -25.402 -45.295 -11.453  1.00  0.00    -0.391 OA
HETATM   28  C14 UNL     1     -24.524 -45.919 -10.578  1.00  0.00     0.169 C 
HETATM   29  C15 UNL     1     -24.010 -44.944  -9.512  1.00  0.00     0.051 C 
ENDBRANCH  12  24
TORSDOF 2
ENDMDL
MODEL 2
REMARK VINA RESULT: -8.348456727      1.067      1.153
REMARK  2 active torsions:
REMARK  status: ('A' for Active; 'I' for Inactive)
REMARK       I    between atoms: C1_2  and  N1_3 
REMARK       I    between atoms: C1_2  and  N4_24 
REMARK    1  A    between atoms: N1_3  and  C2_5 
REMARK       I    between atoms: N2_13  and  C10_14 
REMARK       I    between atoms: C10_14  and  N3_16 
REMARK    2  A    between atoms: N3_16  and  C11_18 
ROOT
HETATM    1  C2  UNL     1     -18.583 -38.510 -10.658  1.00  0.00     0.088 C 
HETATM    2  C3  UNL     1     -17.728 -39.644 -10.155  1.00  0.00     0.027 C 
HETATM    3  C4  UNL     1     -18.428 -40.951 -10.044  1.00  0.00     0.027 C 
HETATM    4  C5  UNL     1     -19.251 -41.123  -8.803  1.00  0.00     0.089 C 
HETATM    5  C6  UNL     1     -18.687 -40.352  -7.619  1.00  0.00     0.027 C 
HETATM    6  C7  UNL     1     -19.271 -38.979  -7.689  1.00  0.00     0.027 C 
HETATM    7  C8  UNL     1     -20.241 -39.055  -8.802  1.00  0.00     0.091 C 
HETATM    8  C9  UNL     1     -19.909 -38.351 -10.051  1.00  0.00     0.050 C 
HETATM    9  N2  UNL     1     -20.528 -40.467  -8.985  1.00  0.00    -0.325 N 
HETATM   10  C10 UNL     1     -21.755 -41.103  -9.276  1.00  0.00     0.319 C 
HETATM   11  O2  UNL     1     -22.808 -40.391  -9.407  1.00  0.00    -0.247 OA
HETATM   12  N3  UNL     1     -21.846 -42.506  -9.428  1.00  0.00    -0.338 N 
ATOM     13  H3  UNL     1     -20.994 -43.056  -9.320  1.00  0.00     0.164 HD
ENDROOT
BRANCH   1  14
HETATM   14  N1  UNL     1     -17.808 -37.286 -10.620  1.00  0.00    -0.338 N 
HETATM   15  C1  UNL     1     -16.639 -37.084 -11.387  1.00  0.00     0.318 C 
HETATM   16  O1  UNL     1     -16.288 -38.060 -12.136  1.00  0.00    -0.247 OA
HETATM   17  N4  UNL     1     -15.886 -35.878 -11.344  1.00  0.00    -0.334 N 
HETATM   18  C16 UNL     1     -14.705 -35.791 -12.175  1.00  0.00     0.127 C 
HETATM   19  C20 UNL     1     -16.358 -34.838 -10.475  1.00  0.00     0.127 C 
HETATM   20  C17 UNL     1     -13.862 -34.593 -11.910  1.00  0.00     0.020 C 
HETATM   21  C18 UNL     1     -14.818 -33.403 -11.752  1.00  0.00     0.003 C 
HETATM   22  C19 UNL     1     -15.522 -33.604 -10.448  1.00  0.00     0.020 C 
ATOM     23  H1  UNL     1     -18.123 -36.532 -10.010  1.00  0.00     0.164 HD
ENDBRANCH   1  14
BRANCH  12  24
HETATM   24  C11 UNL     1     -23.064 -43.206  -9.724  1.00  0.00     0.090 C 
HETATM   25  C12 UNL     1     -22.988 -43.612 -11.202  1.00  0.00     0.051 C 
HETATM   26  C13 UNL     1     -24.370 -44.026 -11.619  1.00  0.00     0.169 C 
HETATM   27  O3  UNL     1     -24.893 -44.869 -10.672  1.00  0.00    -0.391 OA
HETATM   28  C14 UNL     1     -23.943 -45.474  -9.862  1.00  0.00     0.169 C 
HETATM   29  C15 UNL     1     -23.265 -44.455  -8.938  1.00  0.00     0.051 C 
ENDBRANCH  12  24
TORSDOF 2
ENDMDL
MODEL 3
REMARK VINA RESULT: -8.321127853      3.099      9.573
REMARK  2 active torsions:
REMARK  status: ('A' for Active; 'I' for Inactive)
REMARK       I    between atoms: C1_2  and  N1_3 
REMARK       I    between atoms: C1_2  and  N4_24 
REMARK    1  A    between atoms: N1_3  and  C2_5 
REMARK       I    between atoms: N2_13  and  C10_14 
REMARK       I    between atoms: C10_14  and  N3_16 
REMARK    2  A    between atoms: N3_16  and  C11_18 
ROOT
HETATM    1  C2  UNL     1     -18.679 -38.991 -10.392  1.00  0.00     0.088 C 
HETATM    2  C3  UNL     1     -18.965 -37.625 -10.957  1.00  0.00     0.027 C 
HETATM    3  C4  UNL     1     -17.809 -36.974 -11.629  1.00  0.00     0.027 C 
HETATM    4  C5  UNL     1     -16.838 -36.304 -10.704  1.00  0.00     0.089 C 
HETATM    5  C6  UNL     1     -17.505 -35.772  -9.445  1.00  0.00     0.027 C 
HETATM    6  C7  UNL     1     -17.507 -36.894  -8.459  1.00  0.00     0.027 C 
HETATM    7  C8  UNL     1     -16.725 -37.960  -9.123  1.00  0.00     0.091 C 
HETATM    8  C9  UNL     1     -17.453 -39.146  -9.602  1.00  0.00     0.050 C 
HETATM    9  N2  UNL     1     -15.944 -37.298 -10.152  1.00  0.00    -0.325 N 
HETATM   10  C10 UNL     1     -14.612 -37.534 -10.559  1.00  0.00     0.319 C 
HETATM   11  O2  UNL     1     -13.937 -38.449  -9.975  1.00  0.00    -0.247 OA
HETATM   12  N3  UNL     1     -14.008 -36.787 -11.597  1.00  0.00    -0.338 N 
ATOM     13  H3  UNL     1     -14.564 -36.063 -12.050  1.00  0.00     0.164 HD
ENDROOT
BRANCH   1  14
HETATM   14  N1  UNL     1     -19.853 -39.461  -9.684  1.00  0.00    -0.338 N 
HETATM   15  C1  UNL     1     -20.254 -40.815  -9.658  1.00  0.00     0.318 C 
HETATM   16  O1  UNL     1     -19.509 -41.629 -10.307  1.00  0.00    -0.247 OA
HETATM   17  N4  UNL     1     -21.408 -41.267  -8.960  1.00  0.00    -0.334 N 
HETATM   18  C16 UNL     1     -21.715 -42.679  -9.008  1.00  0.00     0.127 C 
HETATM   19  C20 UNL     1     -22.180 -40.281  -8.259  1.00  0.00     0.127 C 
HETATM   20  C17 UNL     1     -23.045 -43.032  -8.439  1.00  0.00     0.020 C 
HETATM   21  C18 UNL     1     -23.203 -42.223  -7.145  1.00  0.00     0.003 C 
HETATM   22  C19 UNL     1     -23.392 -40.800  -7.562  1.00  0.00     0.020 C 
ATOM     23  H1  UNL     1     -20.420 -38.779  -9.179  1.00  0.00     0.164 HD
ENDBRANCH   1  14
BRANCH  12  24
HETATM   24  C11 UNL     1     -12.661 -36.984 -12.052  1.00  0.00     0.090 C 
HETATM   25  C12 UNL     1     -11.781 -37.053 -10.797  1.00  0.00     0.051 C 
HETATM   26  C13 UNL     1     -10.356 -36.907 -11.248  1.00  0.00     0.169 C 
HETATM   27  O3  UNL     1     -10.136 -37.731 -12.322  1.00  0.00    -0.391 OA
HETATM   28  C14 UNL     1     -11.049 -38.769 -12.438  1.00  0.00     0.169 C 
HETATM   29  C15 UNL     1     -12.443 -38.248 -12.809  1.00  0.00     0.051 C 
ENDBRANCH  12  24
TORSDOF 2
ENDMDL
MODEL 4
REMARK VINA RESULT: -8.279772341      4.411      5.419
REMARK  2 active torsions:
REMARK  status: ('A' for Active; 'I' for Inactive)
REMARK       I    between atoms: C1_2  and  N1_3 
REMARK       I    between atoms: C1_2  and  N4_24 
REMARK    1  A    between atoms: N1_3  and  C2_5 
REMARK       I    between atoms: N2_13  and  C10_14 
REMARK       I    between atoms: C10_14  and  N3_16 
REMARK    2  A    between atoms: N3_16  and  C11_18 
ROOT
HETATM    1  C2  UNL     1     -16.268 -39.620  -9.832  1.00  0.00     0.088 C 
HETATM    2  C3  UNL     1     -17.405 -40.035 -10.730  1.00  0.00     0.027 C 
HETATM    3  C4  UNL     1     -18.139 -41.249 -10.284  1.00  0.00     0.027 C 
HETATM    4  C5  UNL     1     -17.484 -42.549 -10.640  1.00  0.00     0.089 C 
HETATM    5  C6  UNL     1     -16.679 -42.462 -11.928  1.00  0.00     0.027 C 
HETATM    6  C7  UNL     1     -15.311 -41.999 -11.544  1.00  0.00     0.027 C 
HETATM    7  C8  UNL     1     -15.339 -41.980 -10.065  1.00  0.00     0.091 C 
HETATM    8  C9  UNL     1     -15.341 -40.669  -9.397  1.00  0.00     0.050 C 
HETATM    9  N2  UNL     1     -16.444 -42.837  -9.676  1.00  0.00    -0.325 N 
HETATM   10  C10 UNL     1     -16.534 -43.758  -8.609  1.00  0.00     0.319 C 
HETATM   11  O2  UNL     1     -15.528 -43.911  -7.835  1.00  0.00    -0.247 OA
HETATM   12  N3  UNL     1     -17.707 -44.512  -8.374  1.00  0.00    -0.338 N 
ATOM     13  H3  UNL     1     -18.498 -44.374  -9.002  1.00  0.00     0.164 HD
ENDROOT
BRANCH   1  14
HETATM   14  N1  UNL     1     -15.583 -38.493 -10.434  1.00  0.00    -0.338 N 
HETATM   15  C1  UNL     1     -15.993 -37.153 -10.261  1.00  0.00     0.318 C 
HETATM   16  O1  UNL     1     -17.026 -36.977  -9.526  1.00  0.00    -0.247 OA
HETATM   17  N4  UNL     1     -15.313 -36.054 -10.855  1.00  0.00    -0.334 N 
HETATM   18  C16 UNL     1     -15.830 -34.726 -10.603  1.00  0.00     0.127 C 
HETATM   19  C20 UNL     1     -14.163 -36.350 -11.661  1.00  0.00     0.127 C 
HETATM   20  C17 UNL     1     -15.198 -33.662 -11.430  1.00  0.00     0.020 C 
HETATM   21  C18 UNL     1     -13.689 -33.943 -11.440  1.00  0.00     0.003 C 
HETATM   22  C19 UNL     1     -13.500 -35.166 -12.280  1.00  0.00     0.020 C 
ATOM     23  H1  UNL     1     -14.764 -38.678 -11.013  1.00  0.00     0.164 HD
ENDBRANCH   1  14
BRANCH  12  24
HETATM   24  C11 UNL     1     -17.855 -45.459  -7.306  1.00  0.00     0.090 C 
HETATM   25  C12 UNL     1     -19.362 -45.615  -7.064  1.00  0.00     0.051 C 
HETATM   26  C13 UNL     1     -19.528 -46.316  -5.747  1.00  0.00     0.169 C 
HETATM   27  O3  UNL     1     -18.681 -47.394  -5.699  1.00  0.00    -0.391 OA
HETATM   28  C14 UNL     1     -18.253 -47.835  -6.943  1.00  0.00     0.169 C 
HETATM   29  C15 UNL     1     -17.318 -46.816  -7.606  1.00  0.00     0.051 C 
ENDBRANCH  12  24
TORSDOF 2
ENDMDL
MODEL 5
REMARK VINA RESULT: -8.279435737      1.769      9.531
REMARK  2 active torsions:
REMARK  status: ('A' for Active; 'I' for Inactive)
REMARK       I    between atoms: C1_2  and  N1_3 
REMARK       I    between atoms: C1_2  and  N4_24 
REMARK    1  A    between atoms: N1_3  and  C2_5 
REMARK       I    between atoms: N2_13  and  C10_14 
REMARK       I    between atoms: C10_14  and  N3_16 
REMARK    2  A    between atoms: N3_16  and  C11_18 
ROOT
HETATM    1  C2  UNL     1     -20.882 -40.478  -8.382  1.00  0.00     0.088 C 
HETATM    2  C3  UNL     1     -19.953 -40.356  -7.202  1.00  0.00     0.027 C 
HETATM    3  C4  UNL     1     -19.109 -39.132  -7.198  1.00  0.00     0.027 C 
HETATM    4  C5  UNL     1     -17.883 -39.209  -8.057  1.00  0.00     0.089 C 
HETATM    5  C6  UNL     1     -17.337 -40.624  -8.167  1.00  0.00     0.027 C 
HETATM    6  C7  UNL     1     -18.049 -41.268  -9.311  1.00  0.00     0.027 C 
HETATM    7  C8  UNL     1     -18.855 -40.173  -9.895  1.00  0.00     0.091 C 
HETATM    8  C9  UNL     1     -20.314 -40.222  -9.710  1.00  0.00     0.050 C 
HETATM    9  N2  UNL     1     -18.247 -38.939  -9.430  1.00  0.00    -0.325 N 
HETATM   10  C10 UNL     1     -18.038 -37.725 -10.123  1.00  0.00     0.319 C 
HETATM   11  O2  UNL     1     -18.411 -37.634 -11.341  1.00  0.00    -0.247 OA
HETATM   12  N3  UNL     1     -17.428 -36.611  -9.500  1.00  0.00    -0.338 N 
ATOM     13  H3  UNL     1     -17.139 -36.706  -8.527  1.00  0.00     0.164 HD
ENDROOT
BRANCH   1  14
HETATM   14  N1  UNL     1     -21.565 -41.754  -8.311  1.00  0.00    -0.338 N 
HETATM   15  C1  UNL     1     -22.930 -41.922  -8.634  1.00  0.00     0.318 C 
HETATM   16  O1  UNL     1     -23.550 -40.866  -9.002  1.00  0.00    -0.247 OA
HETATM   17  N4  UNL     1     -23.592 -43.180  -8.562  1.00  0.00    -0.334 N 
HETATM   18  C16 UNL     1     -24.993 -43.225  -8.917  1.00  0.00     0.127 C 
HETATM   19  C20 UNL     1     -22.813 -44.310  -8.140  1.00  0.00     0.127 C 
HETATM   20  C17 UNL     1     -25.657 -44.521  -8.609  1.00  0.00     0.020 C 
HETATM   21  C18 UNL     1     -24.687 -45.630  -9.039  1.00  0.00     0.003 C 
HETATM   22  C19 UNL     1     -23.558 -45.599  -8.059  1.00  0.00     0.020 C 
ATOM     23  H1  UNL     1     -21.034 -42.572  -8.013  1.00  0.00     0.164 HD
ENDBRANCH   1  14
BRANCH  12  24
HETATM   24  C11 UNL     1     -17.191 -35.355 -10.153  1.00  0.00     0.090 C 
HETATM   25  C12 UNL     1     -17.260 -34.276  -9.064  1.00  0.00     0.051 C 
HETATM   26  C13 UNL     1     -17.364 -32.950  -9.761  1.00  0.00     0.169 C 
HETATM   27  O3  UNL     1     -16.431 -32.894 -10.766  1.00  0.00    -0.391 OA
HETATM   28  C14 UNL     1     -15.383 -33.791 -10.619  1.00  0.00     0.169 C 
HETATM   29  C15 UNL     1     -15.855 -35.239 -10.801  1.00  0.00     0.051 C 
ENDBRANCH  12  24
TORSDOF 2
ENDMDL
