MODEL 1
REMARK VINA RESULT: -9.159926118      0.000      0.000
REMARK  16 active torsions:
REMARK  status: ('A' for Active; 'I' for Inactive)
REMARK    1  A    between atoms: C2_2  and  O1_3 
REMARK    2  A    between atoms: C2_2  and  C3_5 
REMARK    3  A    between atoms: C6_9  and  O3_10 
REMARK    4  A    between atoms: O3_10  and  C7_11 
REMARK    5  A    between atoms: C7_11  and  C8_13 
REMARK    6  A    between atoms: C8_13  and  N1_14 
REMARK    7  A    between atoms: N1_14  and  C9_15 
REMARK    8  A    between atoms: N1_14  and  C16_34 
REMARK    9  A    between atoms: C9_15  and  C10_16 
REMARK   10  A    between atoms: C13_23  and  N4_24 
REMARK   11  A    between atoms: C16_34  and  C17_35 
REMARK   12  A    between atoms: C18_36  and  N7_37 
REMARK   13  A    between atoms: C21_43  and  N10_44 
REMARK   14  A    between atoms: C24_52  and  O7_53 
REMARK   15  A    between atoms: C24_52  and  C25_55 
REMARK   16  A    between atoms: C25_55  and  O8_56 
ROOT
HETATM    1  N7  UNL     1      23.452  42.153  20.167  1.00  0.00    -0.274 N 
HETATM    2  C19 UNL     1      23.561  41.712  18.798  1.00  0.00     0.170 C 
HETATM    3  C20 UNL     1      22.561  43.176  20.486  1.00  0.00     0.185 C 
HETATM    4  N8  UNL     1      21.807  44.023  20.737  1.00  0.00    -0.172 NA
ENDROOT
BRANCH   1   5
HETATM    5  C18 UNL     1      24.256  41.531  21.149  1.00  0.00     0.144 A 
HETATM    6  C17 UNL     1      25.639  41.816  21.211  1.00  0.00     0.069 A 
HETATM    7  C22 UNL     1      26.331  41.165  22.197  1.00  0.00     0.270 A 
HETATM    8  N11 UNL     1      25.718  40.293  23.061  1.00  0.00    -0.156 N 
HETATM    9  O6  UNL     1      27.562  41.298  22.410  1.00  0.00    -0.267 OA
HETATM   10  C21 UNL     1      24.401  40.050  22.966  1.00  0.00     0.680 A 
ATOM     11  H11 UNL     1      26.269  39.826  23.782  1.00  0.00     0.187 HD
HETATM   12  N9  UNL     1      23.693  40.679  22.006  1.00  0.00    -0.175 N 
ATOM     13  H9  UNL     1      22.692  40.496  21.933  1.00  0.00     0.186 HD
BRANCH   6  14
HETATM   14  C16 UNL     1      26.192  42.810  20.283  1.00  0.00     0.143 C 
BRANCH  14  15
HETATM   15  N1  UNL     1      25.548  44.087  20.400  1.00  0.00    -0.277 NA
BRANCH  15  16
HETATM   16  C8  UNL     1      25.995  45.026  19.400  1.00  0.00     0.143 C 
BRANCH  16  17
HETATM   17  C7  UNL     1      25.111  46.097  18.999  1.00  0.00     0.298 C 
HETATM   18  O4  UNL     1      25.389  47.300  19.120  1.00  0.00    -0.259 OA
BRANCH  17  19
HETATM   19  O3  UNL     1      23.838  45.861  18.431  1.00  0.00    -0.279 OA
BRANCH  19  20
HETATM   20  C6  UNL     1      23.650  45.927  17.056  1.00  0.00     0.063 C 
HETATM   21  C5  UNL     1      23.737  44.741  16.429  1.00  0.00     0.083 C 
HETATM   22  C4  UNL     1      23.554  44.712  14.987  1.00  0.00     0.161 C 
HETATM   23  C3  UNL     1      23.698  46.000  14.268  1.00  0.00     0.125 C 
HETATM   24  O2  UNL     1      23.290  43.657  14.381  1.00  0.00    -0.293 OA
HETATM   25  C24 UNL     1      22.871  47.017  14.963  1.00  0.00     0.098 C 
HETATM   26  C23 UNL     1      23.383  47.195  16.375  1.00  0.00     0.106 C 
BRANCH  23  27
HETATM   27  C2  UNL     1      23.380  45.779  12.827  1.00  0.00     0.128 C 
HETATM   28  C1  UNL     1      24.551  45.518  11.944  1.00  0.00     0.040 C 
BRANCH  27  29
HETATM   29  O1  UNL     1      22.588  46.771  12.278  1.00  0.00    -0.395 OA
ATOM     30  H1  UNL     1      21.723  46.426  12.088  1.00  0.00     0.210 HD
ENDBRANCH  27  29
ENDBRANCH  23  27
BRANCH  25  31
HETATM   31  O7  UNL     1      22.973  48.293  14.368  1.00  0.00    -0.386 OA
ATOM     32  H7  UNL     1      22.983  48.993  15.011  1.00  0.00     0.210 HD
ENDBRANCH  25  31
BRANCH  25  33
HETATM   33  C25 UNL     1      21.400  46.689  15.010  1.00  0.00     0.203 C 
BRANCH  33  34
HETATM   34  O8  UNL     1      20.703  47.633  14.225  1.00  0.00    -0.398 OA
ATOM     35  H8  UNL     1      20.126  47.167  13.631  1.00  0.00     0.209 HD
ENDBRANCH  33  34
ENDBRANCH  25  33
ENDBRANCH  19  20
ENDBRANCH  17  19
ENDBRANCH  16  17
ENDBRANCH  15  16
BRANCH  15  36
HETATM   36  C9  UNL     1      25.867  44.657  21.734  1.00  0.00     0.153 C 
BRANCH  36  37
HETATM   37  C10 UNL     1      24.753  44.690  22.647  1.00  0.00     0.039 A 
HETATM   38  C11 UNL     1      23.839  45.744  22.579  1.00  0.00     0.116 A 
HETATM   39  N2  UNL     1      22.786  45.801  23.422  1.00  0.00    -0.348 N 
HETATM   40  C12 UNL     1      22.594  44.836  24.351  1.00  0.00     0.153 A 
ATOM     41  H2  UNL     1      22.130  46.580  23.359  1.00  0.00     0.167 HD
HETATM   42  N3  UNL     1      21.536  44.897  25.194  1.00  0.00    -0.174 N 
HETATM   43  C15 UNL     1      23.487  43.795  24.423  1.00  0.00     0.147 A 
HETATM   44  C13 UNL     1      21.377  43.918  26.106  1.00  0.00     0.680 A 
ATOM     45  H3  UNL     1      20.872  45.669  25.140  1.00  0.00     0.186 HD
HETATM   46  N5  UNL     1      22.250  42.892  26.186  1.00  0.00    -0.154 N 
HETATM   47  C14 UNL     1      23.312  42.783  25.377  1.00  0.00     0.290 A 
ATOM     48  H5  UNL     1      22.094  42.170  26.890  1.00  0.00     0.187 HD
HETATM   49  O5  UNL     1      24.145  41.843  25.420  1.00  0.00    -0.265 OA
HETATM   50  N6  UNL     1      24.521  43.769  23.574  1.00  0.00    -0.350 N 
ATOM     51  H6  UNL     1      25.175  42.990  23.643  1.00  0.00     0.166 HD
BRANCH  44  52
HETATM   52  N4  UNL     1      20.385  43.929  26.934  1.00  0.00    -0.234 N 
ATOM     53  H42 UNL     1      19.533  44.410  26.647  1.00  0.00     0.174 HD
ATOM     54  H41 UNL     1      20.452  43.472  27.844  1.00  0.00     0.174 HD
ENDBRANCH  44  52
ENDBRANCH  36  37
ENDBRANCH  15  36
ENDBRANCH  14  15
ENDBRANCH   6  14
BRANCH  10  55
HETATM   55  N10 UNL     1      23.819  39.228  23.782  1.00  0.00    -0.234 N 
ATOM     56 2H10 UNL     1      23.875  38.220  23.634  1.00  0.00     0.174 HD
ATOM     57 1H10 UNL     1      23.297  39.578  24.586  1.00  0.00     0.174 HD
ENDBRANCH  10  55
ENDBRANCH   1   5
TORSDOF 16
ENDMDL
MODEL 2
REMARK VINA RESULT: -8.776098904      0.861      2.012
REMARK  16 active torsions:
REMARK  status: ('A' for Active; 'I' for Inactive)
REMARK    1  A    between atoms: C2_2  and  O1_3 
REMARK    2  A    between atoms: C2_2  and  C3_5 
REMARK    3  A    between atoms: C6_9  and  O3_10 
REMARK    4  A    between atoms: O3_10  and  C7_11 
REMARK    5  A    between atoms: C7_11  and  C8_13 
REMARK    6  A    between atoms: C8_13  and  N1_14 
REMARK    7  A    between atoms: N1_14  and  C9_15 
REMARK    8  A    between atoms: N1_14  and  C16_34 
REMARK    9  A    between atoms: C9_15  and  C10_16 
REMARK   10  A    between atoms: C13_23  and  N4_24 
REMARK   11  A    between atoms: C16_34  and  C17_35 
REMARK   12  A    between atoms: C18_36  and  N7_37 
REMARK   13  A    between atoms: C21_43  and  N10_44 
REMARK   14  A    between atoms: C24_52  and  O7_53 
REMARK   15  A    between atoms: C24_52  and  C25_55 
REMARK   16  A    between atoms: C25_55  and  O8_56 
ROOT
HETATM    1  N7  UNL     1      23.452  42.110  20.199  1.00  0.00    -0.274 N 
HETATM    2  C19 UNL     1      23.544  41.650  18.835  1.00  0.00     0.170 C 
HETATM    3  C20 UNL     1      22.576  43.149  20.512  1.00  0.00     0.185 C 
HETATM    4  N8  UNL     1      21.835  44.008  20.758  1.00  0.00    -0.172 NA
ENDROOT
BRANCH   1   5
HETATM    5  C18 UNL     1      24.256  41.490  21.183  1.00  0.00     0.144 A 
HETATM    6  C17 UNL     1      25.640  41.770  21.240  1.00  0.00     0.069 A 
HETATM    7  C22 UNL     1      26.331  41.122  22.228  1.00  0.00     0.270 A 
HETATM    8  N11 UNL     1      25.717  40.258  23.099  1.00  0.00    -0.156 N 
HETATM    9  O6  UNL     1      27.564  41.250  22.437  1.00  0.00    -0.267 OA
HETATM   10  C21 UNL     1      24.399  40.019  23.008  1.00  0.00     0.680 A 
ATOM     11  H11 UNL     1      26.267  39.792  23.821  1.00  0.00     0.187 HD
HETATM   12  N9  UNL     1      23.691  40.645  22.046  1.00  0.00    -0.175 N 
ATOM     13  H9  UNL     1      22.689  40.467  21.976  1.00  0.00     0.186 HD
BRANCH   6  14
HETATM   14  C16 UNL     1      26.195  42.756  20.304  1.00  0.00     0.143 C 
BRANCH  14  15
HETATM   15  N1  UNL     1      25.656  44.070  20.510  1.00  0.00    -0.277 NA
BRANCH  15  16
HETATM   16  C8  UNL     1      26.215  45.045  19.605  1.00  0.00     0.143 C 
BRANCH  16  17
HETATM   17  C7  UNL     1      25.349  46.060  19.048  1.00  0.00     0.298 C 
HETATM   18  O4  UNL     1      24.513  46.692  19.714  1.00  0.00    -0.259 OA
BRANCH  17  19
HETATM   19  O3  UNL     1      25.381  46.421  17.682  1.00  0.00    -0.279 OA
BRANCH  19  20
HETATM   20  C6  UNL     1      24.254  46.274  16.881  1.00  0.00     0.063 C 
HETATM   21  C5  UNL     1      23.733  47.433  16.442  1.00  0.00     0.083 C 
HETATM   22  C4  UNL     1      22.551  47.377  15.598  1.00  0.00     0.161 C 
HETATM   23  C3  UNL     1      21.773  46.117  15.618  1.00  0.00     0.125 C 
HETATM   24  O2  UNL     1      22.205  48.342  14.891  1.00  0.00    -0.293 OA
HETATM   25  C24 UNL     1      22.712  44.985  15.420  1.00  0.00     0.098 C 
HETATM   26  C23 UNL     1      23.704  44.956  16.561  1.00  0.00     0.106 C 
BRANCH  23  27
HETATM   27  C2  UNL     1      20.667  46.224  14.622  1.00  0.00     0.128 C 
HETATM   28  C1  UNL     1      19.584  47.187  14.966  1.00  0.00     0.040 C 
BRANCH  27  29
HETATM   29  O1  UNL     1      20.118  45.004  14.273  1.00  0.00    -0.395 OA
ATOM     30  H1  UNL     1      20.803  44.348  14.210  1.00  0.00     0.210 HD
ENDBRANCH  27  29
ENDBRANCH  23  27
BRANCH  25  31
HETATM   31  O7  UNL     1      22.063  43.732  15.461  1.00  0.00    -0.386 OA
ATOM     32  H7  UNL     1      22.631  43.040  15.779  1.00  0.00     0.210 HD
ENDBRANCH  25  31
BRANCH  25  33
HETATM   33  C25 UNL     1      23.465  45.029  14.114  1.00  0.00     0.203 C 
BRANCH  33  34
HETATM   34  O8  UNL     1      24.568  44.151  14.201  1.00  0.00    -0.398 OA
ATOM     35  H8  UNL     1      25.331  44.649  14.469  1.00  0.00     0.209 HD
ENDBRANCH  33  34
ENDBRANCH  25  33
ENDBRANCH  19  20
ENDBRANCH  17  19
ENDBRANCH  16  17
ENDBRANCH  15  16
BRANCH  15  36
HETATM   36  C9  UNL     1      25.974  44.500  21.896  1.00  0.00     0.153 C 
BRANCH  36  37
HETATM   37  C10 UNL     1      24.832  44.572  22.772  1.00  0.00     0.039 A 
HETATM   38  C11 UNL     1      23.954  45.653  22.669  1.00  0.00     0.116 A 
HETATM   39  N2  UNL     1      22.877  45.747  23.478  1.00  0.00    -0.348 N 
HETATM   40  C12 UNL     1      22.625  44.793  24.404  1.00  0.00     0.153 A 
ATOM     41  H2  UNL     1      22.247  46.545  23.390  1.00  0.00     0.167 HD
HETATM   42  N3  UNL     1      21.543  44.891  25.212  1.00  0.00    -0.174 N 
HETATM   43  C15 UNL     1      23.484  43.726  24.510  1.00  0.00     0.147 A 
HETATM   44  C13 UNL     1      21.325  43.922  26.123  1.00  0.00     0.680 A 
ATOM     45  H3  UNL     1      20.905  45.682  25.133  1.00  0.00     0.186 HD
HETATM   46  N5  UNL     1      22.163  42.871  26.236  1.00  0.00    -0.154 N 
HETATM   47  C14 UNL     1      23.247  42.725  25.462  1.00  0.00     0.290 A 
ATOM     48  H5  UNL     1      21.962  42.158  26.938  1.00  0.00     0.187 HD
HETATM   49  O5  UNL     1      24.049  41.760  25.537  1.00  0.00    -0.265 OA
HETATM   50  N6  UNL     1      24.544  43.664  23.695  1.00  0.00    -0.350 N 
ATOM     51  H6  UNL     1      25.170  42.866  23.789  1.00  0.00     0.166 HD
BRANCH  44  52
HETATM   52  N4  UNL     1      20.307  43.968  26.918  1.00  0.00    -0.234 N 
ATOM     53  H42 UNL     1      20.404  44.502  27.782  1.00  0.00     0.174 HD
ATOM     54  H41 UNL     1      19.438  43.486  26.691  1.00  0.00     0.174 HD
ENDBRANCH  44  52
ENDBRANCH  36  37
ENDBRANCH  15  36
ENDBRANCH  14  15
ENDBRANCH   6  14
BRANCH  10  55
HETATM   55  N10 UNL     1      23.815  39.205  23.830  1.00  0.00    -0.234 N 
ATOM     56 2H10 UNL     1      23.072  39.531  24.448  1.00  0.00     0.174 HD
ATOM     57 1H10 UNL     1      24.091  38.223  23.870  1.00  0.00     0.174 HD
ENDBRANCH  10  55
ENDBRANCH   1   5
TORSDOF 16
ENDMDL
MODEL 3
REMARK VINA RESULT: -8.570057701      1.487      2.615
REMARK  16 active torsions:
REMARK  status: ('A' for Active; 'I' for Inactive)
REMARK    1  A    between atoms: C2_2  and  O1_3 
REMARK    2  A    between atoms: C2_2  and  C3_5 
REMARK    3  A    between atoms: C6_9  and  O3_10 
REMARK    4  A    between atoms: O3_10  and  C7_11 
REMARK    5  A    between atoms: C7_11  and  C8_13 
REMARK    6  A    between atoms: C8_13  and  N1_14 
REMARK    7  A    between atoms: N1_14  and  C9_15 
REMARK    8  A    between atoms: N1_14  and  C16_34 
REMARK    9  A    between atoms: C9_15  and  C10_16 
REMARK   10  A    between atoms: C13_23  and  N4_24 
REMARK   11  A    between atoms: C16_34  and  C17_35 
REMARK   12  A    between atoms: C18_36  and  N7_37 
REMARK   13  A    between atoms: C21_43  and  N10_44 
REMARK   14  A    between atoms: C24_52  and  O7_53 
REMARK   15  A    between atoms: C24_52  and  C25_55 
REMARK   16  A    between atoms: C25_55  and  O8_56 
ROOT
HETATM    1  N7  UNL     1      25.021  40.454  21.999  1.00  0.00    -0.274 N 
HETATM    2  C19 UNL     1      24.129  40.011  23.042  1.00  0.00     0.170 C 
HETATM    3  C20 UNL     1      26.287  40.929  22.340  1.00  0.00     0.185 C 
HETATM    4  N8  UNL     1      27.342  41.313  22.639  1.00  0.00    -0.172 NA
ENDROOT
BRANCH   1   5
HETATM    5  C18 UNL     1      24.584  40.392  20.656  1.00  0.00     0.144 A 
HETATM    6  C17 UNL     1      24.425  41.584  19.913  1.00  0.00     0.069 A 
HETATM    7  C22 UNL     1      23.999  41.420  18.622  1.00  0.00     0.270 A 
HETATM    8  N11 UNL     1      23.742  40.181  18.093  1.00  0.00    -0.156 N 
HETATM    9  O6  UNL     1      23.809  42.360  17.810  1.00  0.00    -0.267 OA
HETATM   10  C21 UNL     1      23.906  39.074  18.836  1.00  0.00     0.680 A 
ATOM     11  H11 UNL     1      23.424  40.099  17.127  1.00  0.00     0.187 HD
HETATM   12  N9  UNL     1      24.327  39.204  20.111  1.00  0.00    -0.175 N 
ATOM     13  H9  UNL     1      24.452  38.364  20.676  1.00  0.00     0.186 HD
BRANCH   6  14
HETATM   14  C16 UNL     1      24.784  42.859  20.546  1.00  0.00     0.143 C 
BRANCH  14  15
HETATM   15  N1  UNL     1      23.636  43.582  21.012  1.00  0.00    -0.277 NA
BRANCH  15  16
HETATM   16  C8  UNL     1      23.086  44.456  20.006  1.00  0.00     0.143 C 
BRANCH  16  17
HETATM   17  C7  UNL     1      23.985  45.266  19.214  1.00  0.00     0.298 C 
HETATM   18  O4  UNL     1      25.207  45.064  19.140  1.00  0.00    -0.259 OA
BRANCH  17  19
HETATM   19  O3  UNL     1      23.542  46.370  18.451  1.00  0.00    -0.279 OA
BRANCH  19  20
HETATM   20  C6  UNL     1      23.409  46.272  17.071  1.00  0.00     0.063 C 
HETATM   21  C5  UNL     1      23.403  45.011  16.604  1.00  0.00     0.083 C 
HETATM   22  C4  UNL     1      23.268  44.810  15.171  1.00  0.00     0.161 C 
HETATM   23  C3  UNL     1      23.559  45.974  14.302  1.00  0.00     0.125 C 
HETATM   24  O2  UNL     1      22.925  43.713  14.693  1.00  0.00    -0.293 OA
HETATM   25  C24 UNL     1      22.810  47.144  14.822  1.00  0.00     0.098 C 
HETATM   26  C23 UNL     1      23.288  47.459  16.222  1.00  0.00     0.106 C 
BRANCH  23  27
HETATM   27  C2  UNL     1      23.271  45.595  12.888  1.00  0.00     0.128 C 
HETATM   28  C1  UNL     1      24.430  45.070  12.114  1.00  0.00     0.040 C 
BRANCH  27  29
HETATM   29  O1  UNL     1      22.638  46.593  12.168  1.00  0.00    -0.395 OA
ATOM     30  H1  UNL     1      22.861  47.443  12.528  1.00  0.00     0.210 HD
ENDBRANCH  27  29
ENDBRANCH  23  27
BRANCH  25  31
HETATM   31  O7  UNL     1      23.054  48.317  14.075  1.00  0.00    -0.386 OA
ATOM     32  H7  UNL     1      22.647  49.084  14.460  1.00  0.00     0.210 HD
ENDBRANCH  25  31
BRANCH  25  33
HETATM   33  C25 UNL     1      21.314  46.961  14.842  1.00  0.00     0.203 C 
BRANCH  33  34
HETATM   34  O8  UNL     1      20.727  47.949  14.022  1.00  0.00    -0.398 OA
ATOM     35  H8  UNL     1      21.386  48.273  13.419  1.00  0.00     0.209 HD
ENDBRANCH  33  34
ENDBRANCH  25  33
ENDBRANCH  19  20
ENDBRANCH  17  19
ENDBRANCH  16  17
ENDBRANCH  15  16
BRANCH  15  36
HETATM   36  C9  UNL     1      24.043  44.420  22.170  1.00  0.00     0.153 C 
BRANCH  36  37
HETATM   37  C10 UNL     1      23.241  44.229  23.352  1.00  0.00     0.039 A 
HETATM   38  C11 UNL     1      22.240  45.152  23.661  1.00  0.00     0.116 A 
HETATM   39  N2  UNL     1      21.474  44.999  24.762  1.00  0.00    -0.348 N 
HETATM   40  C12 UNL     1      21.661  43.944  25.589  1.00  0.00     0.153 A 
ATOM     41  H2  UNL     1      20.749  45.684  24.972  1.00  0.00     0.167 HD
HETATM   42  N3  UNL     1      20.890  43.794  26.693  1.00  0.00    -0.174 N 
HETATM   43  C15 UNL     1      22.643  43.031  25.293  1.00  0.00     0.147 A 
HETATM   44  C13 UNL     1      21.106  42.732  27.494  1.00  0.00     0.680 A 
ATOM     45  H3  UNL     1      20.160  44.471  26.913  1.00  0.00     0.186 HD
HETATM   46  N5  UNL     1      22.068  41.830  27.211  1.00  0.00    -0.154 N 
HETATM   47  C14 UNL     1      22.858  41.931  26.134  1.00  0.00     0.290 A 
ATOM     48  H5  UNL     1      22.199  41.040  27.843  1.00  0.00     0.187 HD
HETATM   49  O5  UNL     1      23.763  41.112  25.837  1.00  0.00    -0.265 OA
HETATM   50  N6  UNL     1      23.386  43.214  24.194  1.00  0.00    -0.350 N 
ATOM     51  H6  UNL     1      24.111  42.526  23.990  1.00  0.00     0.166 HD
BRANCH  44  52
HETATM   52  N4  UNL     1      20.398  42.543  28.559  1.00  0.00    -0.234 N 
ATOM     53  H42 UNL     1      20.776  42.877  29.445  1.00  0.00     0.174 HD
ATOM     54  H41 UNL     1      19.493  42.074  28.515  1.00  0.00     0.174 HD
ENDBRANCH  44  52
ENDBRANCH  36  37
ENDBRANCH  15  36
ENDBRANCH  14  15
ENDBRANCH   6  14
BRANCH  10  55
HETATM   55  N10 UNL     1      23.665  37.901  18.339  1.00  0.00    -0.234 N 
ATOM     56 2H10 UNL     1      22.722  37.642  18.049  1.00  0.00     0.174 HD
ATOM     57 1H10 UNL     1      24.417  37.220  18.229  1.00  0.00     0.174 HD
ENDBRANCH  10  55
ENDBRANCH   1   5
TORSDOF 16
ENDMDL
MODEL 4
REMARK VINA RESULT: -8.464829647      6.745     10.118
REMARK  16 active torsions:
REMARK  status: ('A' for Active; 'I' for Inactive)
REMARK    1  A    between atoms: C2_2  and  O1_3 
REMARK    2  A    between atoms: C2_2  and  C3_5 
REMARK    3  A    between atoms: C6_9  and  O3_10 
REMARK    4  A    between atoms: O3_10  and  C7_11 
REMARK    5  A    between atoms: C7_11  and  C8_13 
REMARK    6  A    between atoms: C8_13  and  N1_14 
REMARK    7  A    between atoms: N1_14  and  C9_15 
REMARK    8  A    between atoms: N1_14  and  C16_34 
REMARK    9  A    between atoms: C9_15  and  C10_16 
REMARK   10  A    between atoms: C13_23  and  N4_24 
REMARK   11  A    between atoms: C16_34  and  C17_35 
REMARK   12  A    between atoms: C18_36  and  N7_37 
REMARK   13  A    between atoms: C21_43  and  N10_44 
REMARK   14  A    between atoms: C24_52  and  O7_53 
REMARK   15  A    between atoms: C24_52  and  C25_55 
REMARK   16  A    between atoms: C25_55  and  O8_56 
ROOT
HETATM    1  N7  UNL     1      19.563  38.017   9.704  1.00  0.00    -0.274 N 
HETATM    2  C19 UNL     1      20.709  37.174   9.473  1.00  0.00     0.170 C 
HETATM    3  C20 UNL     1      18.828  38.485   8.615  1.00  0.00     0.185 C 
HETATM    4  N8  UNL     1      18.222  38.858   7.697  1.00  0.00    -0.172 NA
ENDROOT
BRANCH   1   5
HETATM    5  C18 UNL     1      19.215  38.346  11.034  1.00  0.00     0.144 A 
HETATM    6  C17 UNL     1      19.750  39.508  11.635  1.00  0.00     0.069 A 
HETATM    7  C22 UNL     1      19.353  39.741  12.924  1.00  0.00     0.270 A 
HETATM    8  N11 UNL     1      18.496  38.897  13.584  1.00  0.00    -0.156 N 
HETATM    9  O6  UNL     1      19.717  40.724  13.616  1.00  0.00    -0.267 OA
HETATM   10  C21 UNL     1      18.012  37.802  12.976  1.00  0.00     0.680 A 
ATOM     11  H11 UNL     1      18.224  39.103  14.546  1.00  0.00     0.187 HD
HETATM   12  N9  UNL     1      18.384  37.548  11.704  1.00  0.00    -0.175 N 
ATOM     13  H9  UNL     1      18.016  36.718  11.240  1.00  0.00     0.186 HD
BRANCH   6  14
HETATM   14  C16 UNL     1      20.610  40.382  10.828  1.00  0.00     0.143 C 
BRANCH  14  15
HETATM   15  N1  UNL     1      21.788  40.798  11.535  1.00  0.00    -0.277 NA
BRANCH  15  16
HETATM   16  C8  UNL     1      22.211  42.128  11.172  1.00  0.00     0.143 C 
BRANCH  16  17
HETATM   17  C7  UNL     1      23.205  42.792  11.983  1.00  0.00     0.298 C 
HETATM   18  O4  UNL     1      24.242  43.298  11.524  1.00  0.00    -0.259 OA
BRANCH  17  19
HETATM   19  O3  UNL     1      23.081  42.922  13.386  1.00  0.00    -0.279 OA
BRANCH  19  20
HETATM   20  C6  UNL     1      22.778  44.150  13.962  1.00  0.00     0.063 C 
HETATM   21  C5  UNL     1      21.475  44.477  13.912  1.00  0.00     0.083 C 
HETATM   22  C4  UNL     1      21.064  45.746  14.490  1.00  0.00     0.161 C 
HETATM   23  C3  UNL     1      22.125  46.755  14.714  1.00  0.00     0.125 C 
HETATM   24  O2  UNL     1      19.876  45.977  14.784  1.00  0.00    -0.293 OA
HETATM   25  C24 UNL     1      23.249  46.101  15.428  1.00  0.00     0.098 C 
HETATM   26  C23 UNL     1      23.811  44.995  14.563  1.00  0.00     0.106 C 
BRANCH  23  27
HETATM   27  C2  UNL     1      21.522  47.937  15.397  1.00  0.00     0.128 C 
HETATM   28  C1  UNL     1      20.955  48.980  14.497  1.00  0.00     0.040 C 
BRANCH  27  29
HETATM   29  O1  UNL     1      22.360  48.523  16.327  1.00  0.00    -0.395 OA
ATOM     30  H1  UNL     1      22.425  47.971  17.098  1.00  0.00     0.210 HD
ENDBRANCH  27  29
ENDBRANCH  23  27
BRANCH  25  31
HETATM   31  O7  UNL     1      24.329  46.980  15.654  1.00  0.00    -0.386 OA
ATOM     32  H7  UNL     1      25.145  46.653  15.293  1.00  0.00     0.210 HD
ENDBRANCH  25  31
BRANCH  25  33
HETATM   33  C25 UNL     1      22.877  45.533  16.774  1.00  0.00     0.203 C 
BRANCH  33  34
HETATM   34  O8  UNL     1      23.509  46.300  17.777  1.00  0.00    -0.398 OA
ATOM     35  H8  UNL     1      23.232  45.976  18.626  1.00  0.00     0.209 HD
ENDBRANCH  33  34
ENDBRANCH  25  33
ENDBRANCH  19  20
ENDBRANCH  17  19
ENDBRANCH  16  17
ENDBRANCH  15  16
BRANCH  15  36
HETATM   36  C9  UNL     1      22.893  39.862  11.204  1.00  0.00     0.153 C 
BRANCH  36  37
HETATM   37  C10 UNL     1      23.064  38.787  12.149  1.00  0.00     0.039 A 
HETATM   38  C11 UNL     1      23.955  37.752  11.859  1.00  0.00     0.116 A 
HETATM   39  N2  UNL     1      24.134  36.732  12.725  1.00  0.00    -0.348 N 
HETATM   40  C12 UNL     1      23.454  36.694  13.894  1.00  0.00     0.153 A 
ATOM     41  H2  UNL     1      24.788  35.983  12.496  1.00  0.00     0.167 HD
HETATM   42  N3  UNL     1      23.637  35.669  14.761  1.00  0.00    -0.174 N 
HETATM   43  C15 UNL     1      22.576  37.709  14.188  1.00  0.00     0.147 A 
HETATM   44  C13 UNL     1      22.942  35.664  15.915  1.00  0.00     0.680 A 
ATOM     45  H3  UNL     1      24.289  34.915  14.544  1.00  0.00     0.186 HD
HETATM   46  N5  UNL     1      22.077  36.656  16.212  1.00  0.00    -0.154 N 
HETATM   47  C14 UNL     1      21.858  37.692  15.391  1.00  0.00     0.290 A 
ATOM     48  H5  UNL     1      21.570  36.616  17.096  1.00  0.00     0.187 HD
HETATM   49  O5  UNL     1      21.063  38.635  15.633  1.00  0.00    -0.265 OA
HETATM   50  N6  UNL     1      22.421  38.704  13.306  1.00  0.00    -0.350 N 
ATOM     51  H6  UNL     1      21.764  39.448  13.540  1.00  0.00     0.166 HD
BRANCH  44  52
HETATM   52  N4  UNL     1      23.080  34.710  16.776  1.00  0.00    -0.234 N 
ATOM     53  H42 UNL     1      23.155  34.966  17.760  1.00  0.00     0.174 HD
ATOM     54  H41 UNL     1      23.113  33.734  16.481  1.00  0.00     0.174 HD
ENDBRANCH  44  52
ENDBRANCH  36  37
ENDBRANCH  15  36
ENDBRANCH  14  15
ENDBRANCH   6  14
BRANCH  10  55
HETATM   55  N10 UNL     1      17.201  37.003  13.596  1.00  0.00    -0.234 N 
ATOM     56 2H10 UNL     1      17.173  36.009  13.369  1.00  0.00     0.174 HD
ATOM     57 1H10 UNL     1      16.579  37.359  14.323  1.00  0.00     0.174 HD
ENDBRANCH  10  55
ENDBRANCH   1   5
TORSDOF 16
ENDMDL
MODEL 5
REMARK VINA RESULT: -8.330554291      4.346      7.997
REMARK  16 active torsions:
REMARK  status: ('A' for Active; 'I' for Inactive)
REMARK    1  A    between atoms: C2_2  and  O1_3 
REMARK    2  A    between atoms: C2_2  and  C3_5 
REMARK    3  A    between atoms: C6_9  and  O3_10 
REMARK    4  A    between atoms: O3_10  and  C7_11 
REMARK    5  A    between atoms: C7_11  and  C8_13 
REMARK    6  A    between atoms: C8_13  and  N1_14 
REMARK    7  A    between atoms: N1_14  and  C9_15 
REMARK    8  A    between atoms: N1_14  and  C16_34 
REMARK    9  A    between atoms: C9_15  and  C10_16 
REMARK   10  A    between atoms: C13_23  and  N4_24 
REMARK   11  A    between atoms: C16_34  and  C17_35 
REMARK   12  A    between atoms: C18_36  and  N7_37 
REMARK   13  A    between atoms: C21_43  and  N10_44 
REMARK   14  A    between atoms: C24_52  and  O7_53 
REMARK   15  A    between atoms: C24_52  and  C25_55 
REMARK   16  A    between atoms: C25_55  and  O8_56 
ROOT
HETATM    1  N7  UNL     1      24.991  41.420  23.553  1.00  0.00    -0.274 N 
HETATM    2  C19 UNL     1      24.669  40.297  24.399  1.00  0.00     0.170 C 
HETATM    3  C20 UNL     1      26.195  41.422  22.850  1.00  0.00     0.185 C 
HETATM    4  N8  UNL     1      27.198  41.405  22.264  1.00  0.00    -0.172 NA
ENDROOT
BRANCH   1   5
HETATM    5  C18 UNL     1      24.071  42.489  23.459  1.00  0.00     0.144 A 
HETATM    6  C17 UNL     1      23.306  42.658  22.283  1.00  0.00     0.069 A 
HETATM    7  C22 UNL     1      22.443  43.721  22.290  1.00  0.00     0.270 A 
HETATM    8  N11 UNL     1      22.335  44.563  23.367  1.00  0.00    -0.156 N 
HETATM    9  O6  UNL     1      21.678  44.024  21.340  1.00  0.00    -0.267 OA
HETATM   10  C21 UNL     1      23.083  44.366  24.466  1.00  0.00     0.680 A 
ATOM     11  H11 UNL     1      21.682  45.346  23.334  1.00  0.00     0.187 HD
HETATM   12  N9  UNL     1      23.940  43.326  24.488  1.00  0.00    -0.175 N 
ATOM     13  H9  UNL     1      24.508  43.174  25.322  1.00  0.00     0.186 HD
BRANCH   6  14
HETATM   14  C16 UNL     1      23.446  41.669  21.207  1.00  0.00     0.143 C 
BRANCH  14  15
HETATM   15  N1  UNL     1      23.490  42.275  19.907  1.00  0.00    -0.277 NA
BRANCH  15  16
HETATM   16  C8  UNL     1      23.849  41.338  18.871  1.00  0.00     0.143 C 
BRANCH  16  17
HETATM   17  C7  UNL     1      24.692  40.213  19.206  1.00  0.00     0.298 C 
HETATM   18  O4  UNL     1      25.919  40.299  19.373  1.00  0.00    -0.259 OA
BRANCH  17  19
HETATM   19  O3  UNL     1      24.184  38.904  19.373  1.00  0.00    -0.279 OA
BRANCH  19  20
HETATM   20  C6  UNL     1      24.295  37.964  18.355  1.00  0.00     0.063 C 
HETATM   21  C5  UNL     1      25.142  36.956  18.624  1.00  0.00     0.083 C 
HETATM   22  C4  UNL     1      25.322  35.924  17.616  1.00  0.00     0.161 C 
HETATM   23  C3  UNL     1      24.900  36.256  16.235  1.00  0.00     0.125 C 
HETATM   24  O2  UNL     1      25.808  34.813  17.895  1.00  0.00    -0.293 OA
HETATM   25  C24 UNL     1      23.527  36.817  16.288  1.00  0.00     0.098 C 
HETATM   26  C23 UNL     1      23.541  38.089  17.106  1.00  0.00     0.106 C 
BRANCH  23  27
HETATM   27  C2  UNL     1      25.074  35.046  15.380  1.00  0.00     0.128 C 
HETATM   28  C1  UNL     1      26.213  35.095  14.421  1.00  0.00     0.040 C 
BRANCH  27  29
HETATM   29  O1  UNL     1      23.919  34.666  14.720  1.00  0.00    -0.395 OA
ATOM     30  H1  UNL     1      23.397  35.433  14.515  1.00  0.00     0.210 HD
ENDBRANCH  27  29
ENDBRANCH  23  27
BRANCH  25  31
HETATM   31  O7  UNL     1      23.051  37.199  15.016  1.00  0.00    -0.386 OA
ATOM     32  H7  UNL     1      22.203  36.819  14.816  1.00  0.00     0.210 HD
ENDBRANCH  25  31
BRANCH  25  33
HETATM   33  C25 UNL     1      22.498  35.875  16.860  1.00  0.00     0.203 C 
BRANCH  33  34
HETATM   34  O8  UNL     1      21.218  36.296  16.436  1.00  0.00    -0.398 OA
ATOM     35  H8  UNL     1      20.916  35.708  15.753  1.00  0.00     0.209 HD
ENDBRANCH  33  34
ENDBRANCH  25  33
ENDBRANCH  19  20
ENDBRANCH  17  19
ENDBRANCH  16  17
ENDBRANCH  15  16
BRANCH  15  36
HETATM   36  C9  UNL     1      24.512  43.353  19.922  1.00  0.00     0.153 C 
BRANCH  36  37
HETATM   37  C10 UNL     1      24.299  44.388  18.942  1.00  0.00     0.039 A 
HETATM   38  C11 UNL     1      24.744  45.685  19.204  1.00  0.00     0.116 A 
HETATM   39  N2  UNL     1      24.556  46.675  18.305  1.00  0.00    -0.348 N 
HETATM   40  C12 UNL     1      23.933  46.428  17.129  1.00  0.00     0.153 A 
ATOM     41  H2  UNL     1      24.886  47.617  18.514  1.00  0.00     0.167 HD
HETATM   42  N3  UNL     1      23.747  47.424  16.229  1.00  0.00    -0.174 N 
HETATM   43  C15 UNL     1      23.493  45.154  16.863  1.00  0.00     0.147 A 
HETATM   44  C13 UNL     1      23.122  47.141  15.070  1.00  0.00     0.680 A 
ATOM     45  H3  UNL     1      24.075  48.369  16.426  1.00  0.00     0.186 HD
HETATM   46  N5  UNL     1      22.686  45.893  14.800  1.00  0.00    -0.154 N 
HETATM   47  C14 UNL     1      22.844  44.873  15.654  1.00  0.00     0.290 A 
ATOM     48  H5  UNL     1      22.218  45.720  13.911  1.00  0.00     0.187 HD
HETATM   49  O5  UNL     1      22.452  43.698  15.438  1.00  0.00    -0.265 OA
HETATM   50  N6  UNL     1      23.694  44.197  17.777  1.00  0.00    -0.350 N 
ATOM     51  H6  UNL     1      23.359  43.258  17.563  1.00  0.00     0.166 HD
BRANCH  44  52
HETATM   52  N4  UNL     1      22.920  48.054  14.179  1.00  0.00    -0.234 N 
ATOM     53  H42 UNL     1      23.680  48.709  13.989  1.00  0.00     0.174 HD
ATOM     54  H41 UNL     1      22.032  48.119  13.681  1.00  0.00     0.174 HD
ENDBRANCH  44  52
ENDBRANCH  36  37
ENDBRANCH  15  36
ENDBRANCH  14  15
ENDBRANCH   6  14
BRANCH  10  55
HETATM   55  N10 UNL     1      22.983  45.160  25.486  1.00  0.00    -0.234 N 
ATOM     56 2H10 UNL     1      22.100  45.625  25.699  1.00  0.00     0.174 HD
ATOM     57 1H10 UNL     1      23.786  45.329  26.092  1.00  0.00     0.174 HD
ENDBRANCH  10  55
ENDBRANCH   1   5
TORSDOF 16
ENDMDL
