MODEL 1
REMARK VINA RESULT: -8.821060494      0.000      0.000
REMARK  14 active torsions:
REMARK  status: ('A' for Active; 'I' for Inactive)
REMARK    1  A    between atoms: C6_11  and  C7_12 
REMARK       I    between atoms: C7_12  and  N3_14 
REMARK    2  A    between atoms: N3_14  and  S1_16 
REMARK    3  A    between atoms: S1_16  and  C8_19 
REMARK    4  A    between atoms: C10_21  and  N4_22 
REMARK       I    between atoms: N6_30  and  C12_31 
REMARK    5  A    between atoms: C12_31  and  C13_33 
REMARK    6  A    between atoms: C13_33  and  C14_35 
REMARK    7  A    between atoms: C14_35  and  O8_36 
REMARK    8  A    between atoms: C14_35  and  N7_38 
REMARK    9  A    between atoms: N7_38  and  O9_39 
REMARK   10  A    between atoms: O9_39  and  C15_40 
REMARK   11  A    between atoms: C15_40  and  C16_41 
REMARK   12  A    between atoms: C15_40  and  C17_44 
REMARK   13  A    between atoms: C17_44  and  O12_45 
REMARK   14  A    between atoms: C17_44  and  O13_47 
ROOT
HETATM    1  C1  UNL     1      24.855  45.068  25.004  1.00  0.00     0.089 C 
HETATM    2  C2  UNL     1      24.606  43.841  24.195  1.00  0.00     0.080 A 
HETATM    3  N1  UNL     1      24.892  42.665  24.807  1.00  0.00    -0.312 N 
ATOM      4  H1  UNL     1      25.253  42.654  25.761  1.00  0.00     0.170 HD
HETATM    5  C3  UNL     1      24.695  41.520  24.145  1.00  0.00     0.267 A 
HETATM    6  O1  UNL     1      24.962  40.440  24.717  1.00  0.00    -0.267 OA
HETATM    7  C4  UNL     1      24.207  41.595  22.860  1.00  0.00     0.115 A 
HETATM    8  C5  UNL     1      23.914  42.772  22.232  1.00  0.00     0.068 A 
HETATM    9  N2  UNL     1      24.126  43.916  22.934  1.00  0.00    -0.346 N 
ATOM     10  H2  UNL     1      23.924  44.823  22.513  1.00  0.00     0.167 HD
HETATM   11  C6  UNL     1      23.374  42.612  20.852  1.00  0.00     0.244 C 
HETATM   12  N6  UNL     1      23.942  41.450  20.246  1.00  0.00    -0.260 N 
HETATM   13  C12 UNL     1      24.435  41.014  19.034  1.00  0.00     0.305 C 
HETATM   14  O6  UNL     1      24.455  41.730  18.010  1.00  0.00    -0.263 OA
HETATM   15  S3  UNL     1      23.855  40.310  21.666  1.00  0.00    -0.001 SA
ENDROOT
BRANCH  11  16
HETATM   16  C7  UNL     1      23.462  43.876  20.145  1.00  0.00     0.261 C 
HETATM   17  O2  UNL     1      22.495  44.624  19.971  1.00  0.00    -0.270 OA
HETATM   18  N3  UNL     1      24.723  44.287  19.622  1.00  0.00    -0.248 N 
ATOM     19  H3  UNL     1      25.538  43.687  19.752  1.00  0.00     0.182 HD
BRANCH  18  20
HETATM   20  S1  UNL     1      24.898  45.774  18.779  1.00  0.00     0.272 S 
HETATM   21  O3  UNL     1      24.421  46.936  19.602  1.00  0.00    -0.200 OA
HETATM   22  O4  UNL     1      26.368  45.975  18.478  1.00  0.00    -0.200 OA
BRANCH  20  23
HETATM   23  C8  UNL     1      24.029  45.758  17.261  1.00  0.00     0.129 A 
HETATM   24  C9  UNL     1      23.753  46.925  16.598  1.00  0.00     0.081 A 
HETATM   25  C10 UNL     1      23.089  47.013  15.414  1.00  0.00     0.103 A 
HETATM   26  N5  UNL     1      22.594  46.007  14.691  1.00  0.00    -0.304 N 
HETATM   27  C11 UNL     1      22.657  44.704  14.998  1.00  0.00     0.290 A 
ATOM     28  H5  UNL     1      22.122  46.254  13.821  1.00  0.00     0.171 HD
HETATM   29  O5  UNL     1      22.169  43.793  14.276  1.00  0.00    -0.260 OA
HETATM   30  S2  UNL     1      23.466  44.357  16.478  1.00  0.00    -0.015 SA
BRANCH  25  31
HETATM   31  N4  UNL     1      22.918  48.221  14.929  1.00  0.00    -0.385 N 
ATOM     32  H42 UNL     1      23.412  48.976  15.406  1.00  0.00     0.157 HD
ATOM     33  H41 UNL     1      22.306  48.301  14.117  1.00  0.00     0.157 HD
ENDBRANCH  25  31
ENDBRANCH  20  23
ENDBRANCH  18  20
ENDBRANCH  11  16
BRANCH  13  34
HETATM   34  C13 UNL     1      24.972  39.670  18.867  1.00  0.00     0.263 C 
HETATM   35  O7  UNL     1      26.020  39.367  19.489  1.00  0.00    -0.283 OA
BRANCH  34  36
HETATM   36  C14 UNL     1      24.337  38.638  17.991  1.00  0.00     0.319 C 
BRANCH  36  37
HETATM   37  O8  UNL     1      23.145  39.064  17.452  1.00  0.00    -0.370 OA
ATOM     38  H8  UNL     1      23.240  39.857  16.937  1.00  0.00     0.212 HD
ENDBRANCH  36  37
BRANCH  36  39
HETATM   39  N7  UNL     1      24.135  37.462  18.806  1.00  0.00    -0.059 NA
BRANCH  39  40
HETATM   40  O9  UNL     1      23.843  36.374  18.055  1.00  0.00    -0.262 OA
BRANCH  40  41
HETATM   41  C15 UNL     1      24.569  35.266  18.423  1.00  0.00     0.302 C 
BRANCH  41  42
HETATM   42  C16 UNL     1      25.629  35.001  17.445  1.00  0.00     0.210 C 
HETATM   43  O10 UNL     1      26.444  34.036  17.587  1.00  0.00    -0.646 OA
HETATM   44  O11 UNL     1      25.782  35.796  16.328  1.00  0.00    -0.646 OA
ENDBRANCH  41  42
BRANCH  41  45
HETATM   45  C17 UNL     1      25.203  35.442  19.806  1.00  0.00     0.295 C 
BRANCH  45  46
HETATM   46  O12 UNL     1      26.389  36.141  19.748  1.00  0.00    -0.368 OA
ATOM     47  H12 UNL     1      27.125  35.623  20.050  1.00  0.00     0.212 HD
ENDBRANCH  45  46
BRANCH  45  48
HETATM   48  O13 UNL     1      25.380  34.215  20.418  1.00  0.00    -0.368 OA
ATOM     49  H13 UNL     1      25.515  34.326  21.352  1.00  0.00     0.212 HD
ENDBRANCH  45  48
ENDBRANCH  41  45
ENDBRANCH  40  41
ENDBRANCH  39  40
ENDBRANCH  36  39
ENDBRANCH  34  36
ENDBRANCH  13  34
TORSDOF 14
ENDMDL
MODEL 2
REMARK VINA RESULT: -8.677964946      0.450      1.295
REMARK  14 active torsions:
REMARK  status: ('A' for Active; 'I' for Inactive)
REMARK    1  A    between atoms: C6_11  and  C7_12 
REMARK       I    between atoms: C7_12  and  N3_14 
REMARK    2  A    between atoms: N3_14  and  S1_16 
REMARK    3  A    between atoms: S1_16  and  C8_19 
REMARK    4  A    between atoms: C10_21  and  N4_22 
REMARK       I    between atoms: N6_30  and  C12_31 
REMARK    5  A    between atoms: C12_31  and  C13_33 
REMARK    6  A    between atoms: C13_33  and  C14_35 
REMARK    7  A    between atoms: C14_35  and  O8_36 
REMARK    8  A    between atoms: C14_35  and  N7_38 
REMARK    9  A    between atoms: N7_38  and  O9_39 
REMARK   10  A    between atoms: O9_39  and  C15_40 
REMARK   11  A    between atoms: C15_40  and  C16_41 
REMARK   12  A    between atoms: C15_40  and  C17_44 
REMARK   13  A    between atoms: C17_44  and  O12_45 
REMARK   14  A    between atoms: C17_44  and  O13_47 
ROOT
HETATM    1  C1  UNL     1      24.889  45.092  25.002  1.00  0.00     0.089 C 
HETATM    2  C2  UNL     1      24.615  43.878  24.182  1.00  0.00     0.080 A 
HETATM    3  N1  UNL     1      24.889  42.691  24.778  1.00  0.00    -0.312 N 
ATOM      4  H1  UNL     1      25.260  42.665  25.728  1.00  0.00     0.170 HD
HETATM    5  C3  UNL     1      24.669  41.556  24.105  1.00  0.00     0.267 A 
HETATM    6  O1  UNL     1      24.927  40.466  24.663  1.00  0.00    -0.267 OA
HETATM    7  C4  UNL     1      24.171  41.653  22.826  1.00  0.00     0.115 A 
HETATM    8  C5  UNL     1      23.888  42.840  22.214  1.00  0.00     0.068 A 
HETATM    9  N2  UNL     1      24.123  43.973  22.927  1.00  0.00    -0.346 N 
ATOM     10  H2  UNL     1      23.930  44.887  22.517  1.00  0.00     0.167 HD
HETATM   11  C6  UNL     1      23.333  42.703  20.838  1.00  0.00     0.244 C 
HETATM   12  N6  UNL     1      23.878  41.540  20.214  1.00  0.00    -0.260 N 
HETATM   13  C12 UNL     1      24.353  41.109  18.992  1.00  0.00     0.305 C 
HETATM   14  O6  UNL     1      24.373  41.837  17.975  1.00  0.00    -0.263 OA
HETATM   15  S3  UNL     1      23.788  40.386  21.622  1.00  0.00    -0.001 SA
ENDROOT
BRANCH  11  16
HETATM   16  C7  UNL     1      23.432  43.973  20.143  1.00  0.00     0.261 C 
HETATM   17  O2  UNL     1      22.476  44.741  19.994  1.00  0.00    -0.270 OA
HETATM   18  N3  UNL     1      24.692  44.368  19.605  1.00  0.00    -0.248 N 
ATOM     19  H3  UNL     1      25.497  43.752  19.714  1.00  0.00     0.182 HD
BRANCH  18  20
HETATM   20  S1  UNL     1      24.880  45.860  18.776  1.00  0.00     0.272 S 
HETATM   21  O3  UNL     1      24.438  47.022  19.619  1.00  0.00    -0.200 OA
HETATM   22  O4  UNL     1      26.348  46.038  18.452  1.00  0.00    -0.200 OA
BRANCH  20  23
HETATM   23  C8  UNL     1      23.986  45.878  17.272  1.00  0.00     0.129 A 
HETATM   24  C9  UNL     1      23.712  47.057  16.632  1.00  0.00     0.081 A 
HETATM   25  C10 UNL     1      23.030  47.171  15.461  1.00  0.00     0.103 A 
HETATM   26  N5  UNL     1      22.512  46.183  14.731  1.00  0.00    -0.304 N 
HETATM   27  C11 UNL     1      22.565  44.874  15.016  1.00  0.00     0.290 A 
ATOM     28  H5  UNL     1      22.028  46.448  13.872  1.00  0.00     0.171 HD
HETATM   29  O5  UNL     1      22.056  43.980  14.288  1.00  0.00    -0.260 OA
HETATM   30  S2  UNL     1      23.395  44.495  16.477  1.00  0.00    -0.015 SA
BRANCH  25  31
HETATM   31  N4  UNL     1      22.864  48.389  14.997  1.00  0.00    -0.385 N 
ATOM     32  H42 UNL     1      23.566  48.722  14.336  1.00  0.00     0.157 HD
ATOM     33  H41 UNL     1      22.048  48.897  15.338  1.00  0.00     0.157 HD
ENDBRANCH  25  31
ENDBRANCH  20  23
ENDBRANCH  18  20
ENDBRANCH  11  16
BRANCH  13  34
HETATM   34  C13 UNL     1      24.869  39.760  18.806  1.00  0.00     0.263 C 
HETATM   35  O7  UNL     1      25.928  39.441  19.400  1.00  0.00    -0.283 OA
BRANCH  34  36
HETATM   36  C14 UNL     1      24.200  38.741  17.940  1.00  0.00     0.319 C 
BRANCH  36  37
HETATM   37  O8  UNL     1      23.065  39.227  17.333  1.00  0.00    -0.370 OA
ATOM     38  H8  UNL     1      22.268  38.887  17.722  1.00  0.00     0.212 HD
ENDBRANCH  36  37
BRANCH  36  39
HETATM   39  N7  UNL     1      23.880  37.615  18.788  1.00  0.00    -0.059 NA
BRANCH  39  40
HETATM   40  O9  UNL     1      24.062  36.436  18.149  1.00  0.00    -0.262 OA
BRANCH  40  41
HETATM   41  C15 UNL     1      25.320  35.917  18.342  1.00  0.00     0.302 C 
BRANCH  41  42
HETATM   42  C16 UNL     1      25.440  35.355  19.691  1.00  0.00     0.210 C 
HETATM   43  O10 UNL     1      26.284  35.804  20.529  1.00  0.00    -0.646 OA
HETATM   44  O11 UNL     1      24.639  34.311  20.102  1.00  0.00    -0.646 OA
ENDBRANCH  41  42
BRANCH  41  45
HETATM   45  C17 UNL     1      25.641  34.822  17.319  1.00  0.00     0.295 C 
BRANCH  45  46
HETATM   46  O12 UNL     1      24.520  34.110  16.953  1.00  0.00    -0.368 OA
ATOM     47  H12 UNL     1      24.619  33.179  17.115  1.00  0.00     0.212 HD
ENDBRANCH  45  46
BRANCH  45  48
HETATM   48  O13 UNL     1      26.627  33.983  17.800  1.00  0.00    -0.368 OA
ATOM     49  H13 UNL     1      27.124  34.413  18.486  1.00  0.00     0.212 HD
ENDBRANCH  45  48
ENDBRANCH  41  45
ENDBRANCH  40  41
ENDBRANCH  39  40
ENDBRANCH  36  39
ENDBRANCH  34  36
ENDBRANCH  13  34
TORSDOF 14
ENDMDL
MODEL 3
REMARK VINA RESULT: -8.455635973      1.461      2.395
REMARK  14 active torsions:
REMARK  status: ('A' for Active; 'I' for Inactive)
REMARK    1  A    between atoms: C6_11  and  C7_12 
REMARK       I    between atoms: C7_12  and  N3_14 
REMARK    2  A    between atoms: N3_14  and  S1_16 
REMARK    3  A    between atoms: S1_16  and  C8_19 
REMARK    4  A    between atoms: C10_21  and  N4_22 
REMARK       I    between atoms: N6_30  and  C12_31 
REMARK    5  A    between atoms: C12_31  and  C13_33 
REMARK    6  A    between atoms: C13_33  and  C14_35 
REMARK    7  A    between atoms: C14_35  and  O8_36 
REMARK    8  A    between atoms: C14_35  and  N7_38 
REMARK    9  A    between atoms: N7_38  and  O9_39 
REMARK   10  A    between atoms: O9_39  and  C15_40 
REMARK   11  A    between atoms: C15_40  and  C16_41 
REMARK   12  A    between atoms: C15_40  and  C17_44 
REMARK   13  A    between atoms: C17_44  and  O12_45 
REMARK   14  A    between atoms: C17_44  and  O13_47 
ROOT
HETATM    1  C1  UNL     1      24.930  45.205  25.001  1.00  0.00     0.089 C 
HETATM    2  C2  UNL     1      24.643  43.967  24.224  1.00  0.00     0.080 A 
HETATM    3  N1  UNL     1      24.907  42.798  24.859  1.00  0.00    -0.312 N 
ATOM      4  H1  UNL     1      25.279  42.801  25.809  1.00  0.00     0.170 HD
HETATM    5  C3  UNL     1      24.674  41.644  24.226  1.00  0.00     0.267 A 
HETATM    6  O1  UNL     1      24.922  40.571  24.820  1.00  0.00    -0.267 OA
HETATM    7  C4  UNL     1      24.174  41.701  22.946  1.00  0.00     0.115 A 
HETATM    8  C5  UNL     1      23.901  42.870  22.294  1.00  0.00     0.068 A 
HETATM    9  N2  UNL     1      24.149  44.024  22.967  1.00  0.00    -0.346 N 
ATOM     10  H2  UNL     1      23.965  44.926  22.527  1.00  0.00     0.167 HD
HETATM   11  C6  UNL     1      23.342  42.692  20.924  1.00  0.00     0.244 C 
HETATM   12  N6  UNL     1      23.874  41.502  20.339  1.00  0.00    -0.260 N 
HETATM   13  C12 UNL     1      24.342  41.026  19.132  1.00  0.00     0.305 C 
HETATM   14  O6  UNL     1      24.367  41.717  18.091  1.00  0.00    -0.263 OA
HETATM   15  S3  UNL     1      23.776  40.398  21.786  1.00  0.00    -0.001 SA
ENDROOT
BRANCH  11  16
HETATM   16  C7  UNL     1      23.453  43.936  20.186  1.00  0.00     0.261 C 
HETATM   17  O2  UNL     1      22.485  44.660  19.931  1.00  0.00    -0.270 OA
HETATM   18  N3  UNL     1      24.737  44.356  19.732  1.00  0.00    -0.248 N 
ATOM     19  H3  UNL     1      25.552  43.776  19.930  1.00  0.00     0.182 HD
BRANCH  18  20
HETATM   20  S1  UNL     1      24.938  45.821  18.858  1.00  0.00     0.272 S 
HETATM   21  O3  UNL     1      24.543  47.015  19.679  1.00  0.00    -0.200 OA
HETATM   22  O4  UNL     1      26.402  45.956  18.495  1.00  0.00    -0.200 OA
BRANCH  20  23
HETATM   23  C8  UNL     1      24.009  45.819  17.376  1.00  0.00     0.129 A 
HETATM   24  C9  UNL     1      23.462  46.976  16.888  1.00  0.00     0.081 A 
HETATM   25  C10 UNL     1      22.730  47.075  15.746  1.00  0.00     0.103 A 
HETATM   26  N5  UNL     1      22.413  46.090  14.904  1.00  0.00    -0.304 N 
HETATM   27  C11 UNL     1      22.760  44.801  15.026  1.00  0.00     0.290 A 
ATOM     28  H5  UNL     1      21.853  46.342  14.090  1.00  0.00     0.171 HD
HETATM   29  O5  UNL     1      22.432  43.908  14.198  1.00  0.00    -0.260 OA
HETATM   30  S2  UNL     1      23.704  44.444  16.421  1.00  0.00    -0.015 SA
BRANCH  25  31
HETATM   31  N4  UNL     1      22.286  48.272  15.438  1.00  0.00    -0.385 N 
ATOM     32  H42 UNL     1      22.851  49.060  15.755  1.00  0.00     0.157 HD
ATOM     33  H41 UNL     1      21.416  48.310  14.907  1.00  0.00     0.157 HD
ENDBRANCH  25  31
ENDBRANCH  20  23
ENDBRANCH  18  20
ENDBRANCH  11  16
BRANCH  13  34
HETATM   34  C13 UNL     1      24.845  39.666  18.991  1.00  0.00     0.263 C 
HETATM   35  O7  UNL     1      26.070  39.463  19.169  1.00  0.00    -0.283 OA
BRANCH  34  36
HETATM   36  C14 UNL     1      23.971  38.503  18.642  1.00  0.00     0.319 C 
BRANCH  36  37
HETATM   37  O8  UNL     1      24.504  37.302  19.048  1.00  0.00    -0.370 OA
ATOM     38  H8  UNL     1      24.761  36.751  18.317  1.00  0.00     0.212 HD
ENDBRANCH  36  37
BRANCH  36  39
HETATM   39  N7  UNL     1      23.797  38.524  17.207  1.00  0.00    -0.059 NA
BRANCH  39  40
HETATM   40  O9  UNL     1      24.075  37.323  16.649  1.00  0.00    -0.262 OA
BRANCH  40  41
HETATM   41  C15 UNL     1      23.048  36.852  15.867  1.00  0.00     0.302 C 
BRANCH  41  42
HETATM   42  C16 UNL     1      22.374  35.731  16.529  1.00  0.00     0.210 C 
HETATM   43  O10 UNL     1      21.965  34.717  15.879  1.00  0.00    -0.646 OA
HETATM   44  O11 UNL     1      22.154  35.735  17.891  1.00  0.00    -0.646 OA
ENDBRANCH  41  42
BRANCH  41  45
HETATM   45  C17 UNL     1      22.017  37.946  15.572  1.00  0.00     0.295 C 
BRANCH  45  46
HETATM   46  O12 UNL     1      20.727  37.463  15.593  1.00  0.00    -0.368 OA
ATOM     47  H12 UNL     1      20.432  37.191  14.732  1.00  0.00     0.212 HD
ENDBRANCH  45  46
BRANCH  45  48
HETATM   48  O13 UNL     1      22.296  38.562  14.366  1.00  0.00    -0.368 OA
ATOM     49  H13 UNL     1      21.866  39.408  14.318  1.00  0.00     0.212 HD
ENDBRANCH  45  48
ENDBRANCH  41  45
ENDBRANCH  40  41
ENDBRANCH  39  40
ENDBRANCH  36  39
ENDBRANCH  34  36
ENDBRANCH  13  34
TORSDOF 14
ENDMDL
MODEL 4
REMARK VINA RESULT: -8.344654974      4.027      9.328
REMARK  14 active torsions:
REMARK  status: ('A' for Active; 'I' for Inactive)
REMARK    1  A    between atoms: C6_11  and  C7_12 
REMARK       I    between atoms: C7_12  and  N3_14 
REMARK    2  A    between atoms: N3_14  and  S1_16 
REMARK    3  A    between atoms: S1_16  and  C8_19 
REMARK    4  A    between atoms: C10_21  and  N4_22 
REMARK       I    between atoms: N6_30  and  C12_31 
REMARK    5  A    between atoms: C12_31  and  C13_33 
REMARK    6  A    between atoms: C13_33  and  C14_35 
REMARK    7  A    between atoms: C14_35  and  O8_36 
REMARK    8  A    between atoms: C14_35  and  N7_38 
REMARK    9  A    between atoms: N7_38  and  O9_39 
REMARK   10  A    between atoms: O9_39  and  C15_40 
REMARK   11  A    between atoms: C15_40  and  C16_41 
REMARK   12  A    between atoms: C15_40  and  C17_44 
REMARK   13  A    between atoms: C17_44  and  O12_45 
REMARK   14  A    between atoms: C17_44  and  O13_47 
ROOT
HETATM    1  C1  UNL     1      27.288  40.777  25.953  1.00  0.00     0.089 C 
HETATM    2  C2  UNL     1      26.616  41.025  24.646  1.00  0.00     0.080 A 
HETATM    3  N1  UNL     1      27.198  40.448  23.567  1.00  0.00    -0.312 N 
ATOM      4  H1  UNL     1      28.043  39.886  23.675  1.00  0.00     0.170 HD
HETATM    5  C3  UNL     1      26.653  40.625  22.358  1.00  0.00     0.267 A 
HETATM    6  O1  UNL     1      27.197  40.089  21.368  1.00  0.00    -0.267 OA
HETATM    7  C4  UNL     1      25.515  41.395  22.272  1.00  0.00     0.115 A 
HETATM    8  C5  UNL     1      24.918  41.980  23.351  1.00  0.00     0.068 A 
HETATM    9  N2  UNL     1      25.498  41.780  24.563  1.00  0.00    -0.346 N 
ATOM     10  H2  UNL     1      25.093  42.195  25.402  1.00  0.00     0.167 HD
HETATM   11  C6  UNL     1      23.682  42.748  23.025  1.00  0.00     0.244 C 
HETATM   12  N6  UNL     1      23.794  43.305  21.715  1.00  0.00    -0.260 N 
HETATM   13  C12 UNL     1      23.499  44.460  21.020  1.00  0.00     0.305 C 
HETATM   14  O6  UNL     1      22.928  45.442  21.542  1.00  0.00    -0.263 OA
HETATM   15  S3  UNL     1      24.536  41.880  20.855  1.00  0.00    -0.001 SA
ENDROOT
BRANCH  11  16
HETATM   16  C7  UNL     1      23.351  43.630  24.128  1.00  0.00     0.261 C 
HETATM   17  O2  UNL     1      24.101  44.527  24.527  1.00  0.00    -0.270 OA
HETATM   18  N3  UNL     1      22.098  43.468  24.789  1.00  0.00    -0.248 N 
ATOM     19  H3  UNL     1      21.461  42.735  24.479  1.00  0.00     0.182 HD
BRANCH  18  20
HETATM   20  S1  UNL     1      21.642  44.482  26.098  1.00  0.00     0.272 S 
HETATM   21  O3  UNL     1      22.807  45.275  26.616  1.00  0.00    -0.200 OA
HETATM   22  O4  UNL     1      20.591  45.452  25.599  1.00  0.00    -0.200 OA
BRANCH  20  23
HETATM   23  C8  UNL     1      20.950  43.562  27.415  1.00  0.00     0.129 A 
HETATM   24  C9  UNL     1      20.894  42.195  27.363  1.00  0.00     0.081 A 
HETATM   25  C10 UNL     1      20.380  41.396  28.336  1.00  0.00     0.103 A 
HETATM   26  N5  UNL     1      19.847  41.780  29.497  1.00  0.00    -0.304 N 
HETATM   27  C11 UNL     1      19.714  43.042  29.929  1.00  0.00     0.290 A 
ATOM     28  H5  UNL     1      19.507  41.043  30.115  1.00  0.00     0.171 HD
HETATM   29  O5  UNL     1      19.200  43.349  31.038  1.00  0.00    -0.260 OA
HETATM   30  S2  UNL     1      20.307  44.236  28.839  1.00  0.00    -0.015 SA
BRANCH  25  31
HETATM   31  N4  UNL     1      20.414  40.103  28.109  1.00  0.00    -0.385 N 
ATOM     32  H42 UNL     1      21.105  39.779  27.432  1.00  0.00     0.157 HD
ATOM     33  H41 UNL     1      19.746  39.533  28.628  1.00  0.00     0.157 HD
ENDBRANCH  25  31
ENDBRANCH  20  23
ENDBRANCH  18  20
ENDBRANCH  11  16
BRANCH  13  34
HETATM   34  C13 UNL     1      23.839  44.611  19.611  1.00  0.00     0.263 C 
HETATM   35  O7  UNL     1      23.176  43.961  18.767  1.00  0.00    -0.283 OA
BRANCH  34  36
HETATM   36  C14 UNL     1      24.939  45.501  19.126  1.00  0.00     0.319 C 
BRANCH  36  37
HETATM   37  O8  UNL     1      24.799  46.798  19.560  1.00  0.00    -0.370 OA
ATOM     38  H8  UNL     1      25.606  47.295  19.494  1.00  0.00     0.212 HD
ENDBRANCH  36  37
BRANCH  36  39
HETATM   39  N7  UNL     1      24.919  45.442  17.682  1.00  0.00    -0.059 NA
BRANCH  39  40
HETATM   40  O9  UNL     1      24.410  46.574  17.139  1.00  0.00    -0.262 OA
BRANCH  40  41
HETATM   41  C15 UNL     1      23.243  46.352  16.448  1.00  0.00     0.302 C 
BRANCH  41  42
HETATM   42  C16 UNL     1      22.704  47.616  15.936  1.00  0.00     0.210 C 
HETATM   43  O10 UNL     1      23.054  48.084  14.807  1.00  0.00    -0.646 OA
HETATM   44  O11 UNL     1      21.793  48.350  16.666  1.00  0.00    -0.646 OA
ENDBRANCH  41  42
BRANCH  41  45
HETATM   45  C17 UNL     1      23.459  45.392  15.273  1.00  0.00     0.295 C 
BRANCH  45  46
HETATM   46  O12 UNL     1      23.430  44.073  15.669  1.00  0.00    -0.368 OA
ATOM     47  H12 UNL     1      23.968  43.918  16.436  1.00  0.00     0.212 HD
ENDBRANCH  45  46
BRANCH  45  48
HETATM   48  O13 UNL     1      24.639  45.688  14.616  1.00  0.00    -0.368 OA
ATOM     49  H13 UNL     1      24.529  45.592  13.677  1.00  0.00     0.212 HD
ENDBRANCH  45  48
ENDBRANCH  41  45
ENDBRANCH  40  41
ENDBRANCH  39  40
ENDBRANCH  36  39
ENDBRANCH  34  36
ENDBRANCH  13  34
TORSDOF 14
ENDMDL
MODEL 5
REMARK VINA RESULT: -8.314230385      1.532      2.074
REMARK  14 active torsions:
REMARK  status: ('A' for Active; 'I' for Inactive)
REMARK    1  A    between atoms: C6_11  and  C7_12 
REMARK       I    between atoms: C7_12  and  N3_14 
REMARK    2  A    between atoms: N3_14  and  S1_16 
REMARK    3  A    between atoms: S1_16  and  C8_19 
REMARK    4  A    between atoms: C10_21  and  N4_22 
REMARK       I    between atoms: N6_30  and  C12_31 
REMARK    5  A    between atoms: C12_31  and  C13_33 
REMARK    6  A    between atoms: C13_33  and  C14_35 
REMARK    7  A    between atoms: C14_35  and  O8_36 
REMARK    8  A    between atoms: C14_35  and  N7_38 
REMARK    9  A    between atoms: N7_38  and  O9_39 
REMARK   10  A    between atoms: O9_39  and  C15_40 
REMARK   11  A    between atoms: C15_40  and  C16_41 
REMARK   12  A    between atoms: C15_40  and  C17_44 
REMARK   13  A    between atoms: C17_44  and  O12_45 
REMARK   14  A    between atoms: C17_44  and  O13_47 
ROOT
HETATM    1  C1  UNL     1      24.919  45.195  25.006  1.00  0.00     0.089 C 
HETATM    2  C2  UNL     1      24.619  43.965  24.220  1.00  0.00     0.080 A 
HETATM    3  N1  UNL     1      24.877  42.790  24.845  1.00  0.00    -0.312 N 
ATOM      4  H1  UNL     1      25.252  42.781  25.793  1.00  0.00     0.170 HD
HETATM    5  C3  UNL     1      24.633  41.642  24.203  1.00  0.00     0.267 A 
HETATM    6  O1  UNL     1      24.874  40.563  24.787  1.00  0.00    -0.267 OA
HETATM    7  C4  UNL     1      24.128  41.715  22.924  1.00  0.00     0.115 A 
HETATM    8  C5  UNL     1      23.863  42.890  22.284  1.00  0.00     0.068 A 
HETATM    9  N2  UNL     1      24.122  44.038  22.965  1.00  0.00    -0.346 N 
ATOM     10  H2  UNL     1      23.942  44.944  22.533  1.00  0.00     0.167 HD
HETATM   11  C6  UNL     1      23.297  42.728  20.914  1.00  0.00     0.244 C 
HETATM   12  N6  UNL     1      23.818  41.540  20.317  1.00  0.00    -0.260 N 
HETATM   13  C12 UNL     1      24.278  41.070  19.105  1.00  0.00     0.305 C 
HETATM   14  O6  UNL     1      24.305  41.771  18.069  1.00  0.00    -0.263 OA
HETATM   15  S3  UNL     1      23.716  40.424  21.755  1.00  0.00    -0.001 SA
ENDROOT
BRANCH  11  16
HETATM   16  C7  UNL     1      23.414  43.978  20.187  1.00  0.00     0.261 C 
HETATM   17  O2  UNL     1      22.467  44.751  20.010  1.00  0.00    -0.270 OA
HETATM   18  N3  UNL     1      24.682  44.346  19.648  1.00  0.00    -0.248 N 
ATOM     19  H3  UNL     1      25.480  43.726  19.780  1.00  0.00     0.182 HD
BRANCH  18  20
HETATM   20  S1  UNL     1      24.890  45.814  18.781  1.00  0.00     0.272 S 
HETATM   21  O3  UNL     1      24.437  47.000  19.582  1.00  0.00    -0.200 OA
HETATM   22  O4  UNL     1      26.366  45.978  18.480  1.00  0.00    -0.200 OA
BRANCH  20  23
HETATM   23  C8  UNL     1      24.026  45.792  17.260  1.00  0.00     0.129 A 
HETATM   24  C9  UNL     1      23.761  46.954  16.586  1.00  0.00     0.081 A 
HETATM   25  C10 UNL     1      23.101  47.037  15.400  1.00  0.00     0.103 A 
HETATM   26  N5  UNL     1      22.598  46.029  14.685  1.00  0.00    -0.304 N 
HETATM   27  C11 UNL     1      22.649  44.728  15.004  1.00  0.00     0.290 A 
ATOM     28  H5  UNL     1      22.131  46.272  13.811  1.00  0.00     0.171 HD
HETATM   29  O5  UNL     1      22.156  43.815  14.289  1.00  0.00    -0.260 OA
HETATM   30  S2  UNL     1      23.452  44.388  16.489  1.00  0.00    -0.015 SA
BRANCH  25  31
HETATM   31  N4  UNL     1      22.941  48.242  14.903  1.00  0.00    -0.385 N 
ATOM     32  H42 UNL     1      22.016  48.658  15.011  1.00  0.00     0.157 HD
ATOM     33  H41 UNL     1      23.755  48.659  14.452  1.00  0.00     0.157 HD
ENDBRANCH  25  31
ENDBRANCH  20  23
ENDBRANCH  18  20
ENDBRANCH  11  16
BRANCH  13  34
HETATM   34  C13 UNL     1      24.770  39.708  18.950  1.00  0.00     0.263 C 
HETATM   35  O7  UNL     1      25.993  39.493  19.133  1.00  0.00    -0.283 OA
BRANCH  34  36
HETATM   36  C14 UNL     1      23.888  38.557  18.582  1.00  0.00     0.319 C 
BRANCH  36  37
HETATM   37  O8  UNL     1      24.452  37.341  18.889  1.00  0.00    -0.370 OA
ATOM     38  H8  UNL     1      25.017  37.382  19.652  1.00  0.00     0.212 HD
ENDBRANCH  36  37
BRANCH  36  39
HETATM   39  N7  UNL     1      23.638  38.658  17.161  1.00  0.00    -0.059 NA
BRANCH  39  40
HETATM   40  O9  UNL     1      23.706  37.451  16.551  1.00  0.00    -0.262 OA
BRANCH  40  41
HETATM   41  C15 UNL     1      22.530  37.103  15.932  1.00  0.00     0.302 C 
BRANCH  41  42
HETATM   42  C16 UNL     1      22.764  36.810  14.515  1.00  0.00     0.210 C 
HETATM   43  O10 UNL     1      23.937  36.659  14.049  1.00  0.00    -0.646 OA
HETATM   44  O11 UNL     1      21.714  36.690  13.629  1.00  0.00    -0.646 OA
ENDBRANCH  41  42
BRANCH  41  45
HETATM   45  C17 UNL     1      21.887  35.879  16.592  1.00  0.00     0.295 C 
BRANCH  45  46
HETATM   46  O12 UNL     1      22.094  35.855  17.954  1.00  0.00    -0.368 OA
ATOM     47  H12 UNL     1      22.153  34.969  18.291  1.00  0.00     0.212 HD
ENDBRANCH  45  46
BRANCH  45  48
HETATM   48  O13 UNL     1      22.342  34.715  16.000  1.00  0.00    -0.368 OA
ATOM     49  H13 UNL     1      22.034  34.656  15.104  1.00  0.00     0.212 HD
ENDBRANCH  45  48
ENDBRANCH  41  45
ENDBRANCH  40  41
ENDBRANCH  39  40
ENDBRANCH  36  39
ENDBRANCH  34  36
ENDBRANCH  13  34
TORSDOF 14
ENDMDL
