MODEL 1
REMARK VINA RESULT: -9.784335284      0.000      0.000
REMARK  17 active torsions:
REMARK  status: ('A' for Active; 'I' for Inactive)
REMARK    1  A    between atoms: C2_2  and  O1_3 
REMARK    2  A    between atoms: O1_3  and  C3_4 
REMARK    3  A    between atoms: C3_4  and  C4_6 
REMARK    4  A    between atoms: C9_13  and  C10_14 
REMARK    5  A    between atoms: C10_14  and  N2_15 
REMARK    6  A    between atoms: C10_14  and  C19_44 
REMARK    7  A    between atoms: N2_15  and  C11_17 
REMARK    8  A    between atoms: C11_17  and  C12_18 
REMARK    9  A    between atoms: C12_18  and  N3_20 
REMARK   10  A    between atoms: N3_20  and  N4_22 
REMARK       I    between atoms: N4_22  and  C13_24 
REMARK   11  A    between atoms: C13_24  and  C14_26 
REMARK   12  A    between atoms: C17_38  and  C18_39 
REMARK   13  A    between atoms: C18_39  and  N8_40 
REMARK   14  A    between atoms: N8_40  and  N9_41 
REMARK   15  A    between atoms: C19_44  and  O8_46 
REMARK   16  A    between atoms: C21_48  and  O9_49 
REMARK   17  A    between atoms: C21_48  and  O10_51 
ROOT
HETATM    1  C11 UNL     1      23.643  45.434  18.392  1.00  0.00     0.219 A 
HETATM    2  O6  UNL     1      24.816  44.939  17.697  1.00  0.00    -0.340 OA
HETATM    3  C17 UNL     1      24.993  45.910  18.679  1.00  0.00     0.204 A 
ENDROOT
BRANCH   1   4
HETATM    4  N2  UNL     1      22.696  45.902  17.456  1.00  0.00    -0.345 N 
ATOM      5  H2  UNL     1      21.728  46.005  17.760  1.00  0.00     0.163 HD
BRANCH   4   6
HETATM    6  C10 UNL     1      23.009  46.227  16.160  1.00  0.00     0.120 C 
BRANCH   6   7
HETATM    7  C9  UNL     1      22.713  45.448  14.979  1.00  0.00     0.059 A 
HETATM    8  C7  UNL     1      21.492  45.368  14.471  1.00  0.00     0.019 A 
HETATM    9  N1  UNL     1      21.211  44.607  13.322  1.00  0.00    -0.365 N 
HETATM   10  C8  UNL     1      20.400  46.151  15.103  1.00  0.00     0.069 C 
HETATM   11  C5  UNL     1      22.056  43.955  12.680  1.00  0.00     0.002 A 
ATOM     12  H1  UNL     1      20.247  44.589  12.991  1.00  0.00     0.165 HD
HETATM   13  C4  UNL     1      23.476  43.941  13.108  1.00  0.00     0.198 A 
HETATM   14  C6  UNL     1      21.660  43.169  11.464  1.00  0.00     0.064 C 
HETATM   15  C21 UNL     1      23.830  44.773  14.262  1.00  0.00     0.211 A 
BRANCH  13  16
HETATM   16  C3  UNL     1      24.379  44.154  11.959  1.00  0.00     0.274 C 
HETATM   17  O2  UNL     1      25.410  43.492  11.801  1.00  0.00    -0.264 OA
BRANCH  16  18
HETATM   18  O1  UNL     1      24.084  45.133  11.003  1.00  0.00    -0.321 OA
BRANCH  18  19
HETATM   19  C2  UNL     1      25.110  46.064  10.640  1.00  0.00     0.174 C 
HETATM   20  C1  UNL     1      24.582  47.072   9.666  1.00  0.00     0.034 C 
ENDBRANCH  18  19
ENDBRANCH  16  18
ENDBRANCH  13  16
BRANCH  15  21
HETATM   21  O9  UNL     1      24.909  45.626  14.015  1.00  0.00    -0.361 OA
ATOM     22  H9  UNL     1      25.721  45.324  14.406  1.00  0.00     0.213 HD
ENDBRANCH  15  21
BRANCH  15  23
HETATM   23  O10 UNL     1      24.376  43.906  15.290  1.00  0.00    -0.361 OA
ATOM     24  H10 UNL     1      24.001  43.040  15.174  1.00  0.00     0.213 HD
ENDBRANCH  15  23
ENDBRANCH   6   7
BRANCH   6  25
HETATM   25  C19 UNL     1      22.815  47.674  15.902  1.00  0.00     0.310 C 
HETATM   26  O7  UNL     1      22.195  48.417  16.728  1.00  0.00    -0.258 OA
BRANCH  25  27
HETATM   27  O8  UNL     1      23.300  48.265  14.760  1.00  0.00    -0.321 OA
HETATM   28  C20 UNL     1      22.452  48.639  13.702  1.00  0.00     0.213 C 
ENDBRANCH  25  27
ENDBRANCH   6  25
ENDBRANCH   4   6
ENDBRANCH   1   4
BRANCH   1  29
HETATM   29  C12 UNL     1      23.135  44.406  19.402  1.00  0.00     0.151 C 
HETATM   30  S1  UNL     1      22.212  44.915  20.597  1.00  0.00    -0.058 SA
BRANCH  29  31
HETATM   31  N3  UNL     1      23.510  43.074  19.282  1.00  0.00    -0.287 N 
ATOM     32  H3  UNL     1      23.509  42.667  18.347  1.00  0.00     0.188 HD
BRANCH  31  33
HETATM   33  N4  UNL     1      23.889  42.251  20.344  1.00  0.00    -0.262 N 
HETATM   34  C13 UNL     1      25.141  42.460  20.958  1.00  0.00     0.305 C 
HETATM   35  O3  UNL     1      25.885  43.377  20.542  1.00  0.00    -0.263 OA
ATOM     36  H4  UNL     1      23.270  41.509  20.671  1.00  0.00     0.190 HD
BRANCH  34  37
HETATM   37  C14 UNL     1      25.622  41.650  22.068  1.00  0.00     0.194 A 
HETATM   38  N5  UNL     1      24.701  41.010  22.821  1.00  0.00    -0.299 N 
HETATM   39  C15 UNL     1      25.075  40.251  23.853  1.00  0.00     0.316 A 
ATOM     40  H5  UNL     1      23.710  41.107  22.597  1.00  0.00     0.171 HD
HETATM   41  O4  UNL     1      24.209  39.644  24.566  1.00  0.00    -0.262 OA
HETATM   42  C16 UNL     1      26.420  40.120  24.154  1.00  0.00     0.328 A 
HETATM   43  O5  UNL     1      26.771  39.404  25.125  1.00  0.00    -0.261 OA
HETATM   44  N6  UNL     1      27.299  40.775  23.378  1.00  0.00    -0.260 N 
HETATM   45  N7  UNL     1      26.913  41.518  22.367  1.00  0.00    -0.278 N 
ATOM     46  H6  UNL     1      28.295  40.693  23.581  1.00  0.00     0.190 HD
ATOM     47  H7  UNL     1      27.613  42.000  21.802  1.00  0.00     0.189 HD
ENDBRANCH  34  37
ENDBRANCH  31  33
ENDBRANCH  29  31
ENDBRANCH   1  29
BRANCH   3  48
HETATM   48  C18 UNL     1      25.623  47.202  18.327  1.00  0.00     0.171 C 
BRANCH  48  49
HETATM   49  N8  UNL     1      27.076  47.179  18.437  1.00  0.00    -0.146 NA
BRANCH  49  50
HETATM   50  N9  UNL     1      27.433  45.960  19.021  1.00  0.00    -0.348 N 
ATOM     51  H92 UNL     1      27.080  45.603  19.908  1.00  0.00     0.172 HD
ATOM     52  H91 UNL     1      28.102  45.507  18.399  1.00  0.00     0.172 HD
ENDBRANCH  49  50
ENDBRANCH  48  49
ENDBRANCH   3  48
TORSDOF 17
ENDMDL
MODEL 2
REMARK VINA RESULT: -9.635157236      2.542      2.823
REMARK  17 active torsions:
REMARK  status: ('A' for Active; 'I' for Inactive)
REMARK    1  A    between atoms: C2_2  and  O1_3 
REMARK    2  A    between atoms: O1_3  and  C3_4 
REMARK    3  A    between atoms: C3_4  and  C4_6 
REMARK    4  A    between atoms: C9_13  and  C10_14 
REMARK    5  A    between atoms: C10_14  and  N2_15 
REMARK    6  A    between atoms: C10_14  and  C19_44 
REMARK    7  A    between atoms: N2_15  and  C11_17 
REMARK    8  A    between atoms: C11_17  and  C12_18 
REMARK    9  A    between atoms: C12_18  and  N3_20 
REMARK   10  A    between atoms: N3_20  and  N4_22 
REMARK       I    between atoms: N4_22  and  C13_24 
REMARK   11  A    between atoms: C13_24  and  C14_26 
REMARK   12  A    between atoms: C17_38  and  C18_39 
REMARK   13  A    between atoms: C18_39  and  N8_40 
REMARK   14  A    between atoms: N8_40  and  N9_41 
REMARK   15  A    between atoms: C19_44  and  O8_46 
REMARK   16  A    between atoms: C21_48  and  O9_49 
REMARK   17  A    between atoms: C21_48  and  O10_51 
ROOT
HETATM    1  C11 UNL     1      23.642  45.556  18.418  1.00  0.00     0.219 A 
HETATM    2  O6  UNL     1      24.795  44.979  17.753  1.00  0.00    -0.340 OA
HETATM    3  C17 UNL     1      25.003  46.039  18.631  1.00  0.00     0.204 A 
ENDROOT
BRANCH   1   4
HETATM    4  N2  UNL     1      22.681  45.943  17.460  1.00  0.00    -0.345 N 
ATOM      5  H2  UNL     1      21.705  45.995  17.749  1.00  0.00     0.163 HD
BRANCH   4   6
HETATM    6  C10 UNL     1      22.992  46.254  16.159  1.00  0.00     0.120 C 
BRANCH   6   7
HETATM    7  C9  UNL     1      22.699  45.461  14.988  1.00  0.00     0.059 A 
HETATM    8  C7  UNL     1      21.479  45.373  14.479  1.00  0.00     0.019 A 
HETATM    9  N1  UNL     1      21.201  44.597  13.339  1.00  0.00    -0.365 N 
HETATM   10  C8  UNL     1      20.385  46.161  15.100  1.00  0.00     0.069 C 
HETATM   11  C5  UNL     1      22.049  43.938  12.706  1.00  0.00     0.002 A 
ATOM     12  H1  UNL     1      20.238  44.573  13.006  1.00  0.00     0.165 HD
HETATM   13  C4  UNL     1      23.468  43.932  13.137  1.00  0.00     0.198 A 
HETATM   14  C6  UNL     1      21.656  43.137  11.500  1.00  0.00     0.064 C 
HETATM   15  C21 UNL     1      23.819  44.779  14.281  1.00  0.00     0.211 A 
BRANCH  13  16
HETATM   16  C3  UNL     1      24.372  44.133  11.987  1.00  0.00     0.274 C 
HETATM   17  O2  UNL     1      25.402  43.467  11.836  1.00  0.00    -0.264 OA
BRANCH  16  18
HETATM   18  O1  UNL     1      24.080  45.104  11.021  1.00  0.00    -0.321 OA
BRANCH  18  19
HETATM   19  C2  UNL     1      25.097  46.053  10.680  1.00  0.00     0.174 C 
HETATM   20  C1  UNL     1      24.560  47.072   9.721  1.00  0.00     0.034 C 
ENDBRANCH  18  19
ENDBRANCH  16  18
ENDBRANCH  13  16
BRANCH  15  21
HETATM   21  O9  UNL     1      24.897  45.631  14.025  1.00  0.00    -0.361 OA
ATOM     22  H9  UNL     1      24.834  46.461  14.483  1.00  0.00     0.213 HD
ENDBRANCH  15  21
BRANCH  15  23
HETATM   23  O10 UNL     1      24.364  43.926  15.321  1.00  0.00    -0.361 OA
ATOM     24  H10 UNL     1      24.028  44.229  16.156  1.00  0.00     0.213 HD
ENDBRANCH  15  23
ENDBRANCH   6   7
BRANCH   6  25
HETATM   25  C19 UNL     1      22.790  47.698  15.885  1.00  0.00     0.310 C 
HETATM   26  O7  UNL     1      22.207  48.456  16.723  1.00  0.00    -0.258 OA
BRANCH  25  27
HETATM   27  O8  UNL     1      23.229  48.267  14.714  1.00  0.00    -0.321 OA
HETATM   28  C20 UNL     1      22.336  48.656  13.699  1.00  0.00     0.213 C 
ENDBRANCH  25  27
ENDBRANCH   6  25
ENDBRANCH   4   6
ENDBRANCH   1   4
BRANCH   1  29
HETATM   29  C12 UNL     1      23.142  44.637  19.533  1.00  0.00     0.151 C 
HETATM   30  S1  UNL     1      23.612  43.115  19.523  1.00  0.00    -0.058 SA
BRANCH  29  31
HETATM   31  N3  UNL     1      22.273  45.130  20.497  1.00  0.00    -0.287 N 
ATOM     32  H3  UNL     1      21.857  46.047  20.333  1.00  0.00     0.188 HD
BRANCH  31  33
HETATM   33  N4  UNL     1      21.925  44.466  21.676  1.00  0.00    -0.262 N 
HETATM   34  C13 UNL     1      22.599  44.795  22.870  1.00  0.00     0.305 C 
HETATM   35  O3  UNL     1      23.491  45.673  22.852  1.00  0.00    -0.263 OA
ATOM     36  H4  UNL     1      21.194  43.754  21.672  1.00  0.00     0.190 HD
BRANCH  34  37
HETATM   37  C14 UNL     1      22.306  44.153  24.144  1.00  0.00     0.194 A 
HETATM   38  N5  UNL     1      21.412  44.756  24.957  1.00  0.00    -0.299 N 
HETATM   39  C15 UNL     1      21.099  44.220  26.139  1.00  0.00     0.316 A 
ATOM     40  H5  UNL     1      20.972  45.629  24.665  1.00  0.00     0.171 HD
HETATM   41  O4  UNL     1      20.255  44.785  26.910  1.00  0.00    -0.262 OA
HETATM   42  C16 UNL     1      21.698  43.036  26.533  1.00  0.00     0.328 A 
HETATM   43  O5  UNL     1      21.402  42.531  27.646  1.00  0.00    -0.261 OA
HETATM   44  N6  UNL     1      22.580  42.473  25.691  1.00  0.00    -0.260 N 
HETATM   45  N7  UNL     1      22.877  43.014  24.533  1.00  0.00    -0.278 N 
ATOM     46  H6  UNL     1      23.034  41.600  25.961  1.00  0.00     0.190 HD
ATOM     47  H7  UNL     1      23.553  42.556  23.922  1.00  0.00     0.189 HD
ENDBRANCH  34  37
ENDBRANCH  31  33
ENDBRANCH  29  31
ENDBRANCH   1  29
BRANCH   3  48
HETATM   48  C18 UNL     1      25.640  47.282  18.144  1.00  0.00     0.171 C 
BRANCH  48  49
HETATM   49  N8  UNL     1      27.094  47.256  18.242  1.00  0.00    -0.146 NA
BRANCH  49  50
HETATM   50  N9  UNL     1      27.445  46.110  18.960  1.00  0.00    -0.348 N 
ATOM     51  H92 UNL     1      26.795  45.492  19.445  1.00  0.00     0.172 HD
ATOM     52  H91 UNL     1      28.459  46.013  18.905  1.00  0.00     0.172 HD
ENDBRANCH  49  50
ENDBRANCH  48  49
ENDBRANCH   3  48
TORSDOF 17
ENDMDL
MODEL 3
REMARK VINA RESULT: -8.877817677      3.477      6.546
REMARK  17 active torsions:
REMARK  status: ('A' for Active; 'I' for Inactive)
REMARK    1  A    between atoms: C2_2  and  O1_3 
REMARK    2  A    between atoms: O1_3  and  C3_4 
REMARK    3  A    between atoms: C3_4  and  C4_6 
REMARK    4  A    between atoms: C9_13  and  C10_14 
REMARK    5  A    between atoms: C10_14  and  N2_15 
REMARK    6  A    between atoms: C10_14  and  C19_44 
REMARK    7  A    between atoms: N2_15  and  C11_17 
REMARK    8  A    between atoms: C11_17  and  C12_18 
REMARK    9  A    between atoms: C12_18  and  N3_20 
REMARK   10  A    between atoms: N3_20  and  N4_22 
REMARK       I    between atoms: N4_22  and  C13_24 
REMARK   11  A    between atoms: C13_24  and  C14_26 
REMARK   12  A    between atoms: C17_38  and  C18_39 
REMARK   13  A    between atoms: C18_39  and  N8_40 
REMARK   14  A    between atoms: N8_40  and  N9_41 
REMARK   15  A    between atoms: C19_44  and  O8_46 
REMARK   16  A    between atoms: C21_48  and  O9_49 
REMARK   17  A    between atoms: C21_48  and  O10_51 
ROOT
HETATM    1  C11 UNL     1      24.236  40.856  21.032  1.00  0.00     0.219 A 
HETATM    2  O6  UNL     1      23.397  39.746  20.620  1.00  0.00    -0.340 OA
HETATM    3  C17 UNL     1      24.572  39.983  19.911  1.00  0.00     0.204 A 
ENDROOT
BRANCH   1   4
HETATM    4  N2  UNL     1      23.477  42.045  21.060  1.00  0.00    -0.345 N 
ATOM      5  H2  UNL     1      22.473  41.979  20.895  1.00  0.00     0.163 HD
BRANCH   4   6
HETATM    6  C10 UNL     1      24.018  43.284  21.297  1.00  0.00     0.120 C 
BRANCH   6   7
HETATM    7  C9  UNL     1      24.377  44.273  20.307  1.00  0.00     0.059 A 
HETATM    8  C7  UNL     1      25.512  44.953  20.365  1.00  0.00     0.019 A 
HETATM    9  N1  UNL     1      25.854  45.916  19.398  1.00  0.00    -0.365 N 
HETATM   10  C8  UNL     1      26.476  44.649  21.453  1.00  0.00     0.069 C 
HETATM   11  C5  UNL     1      25.150  46.215  18.414  1.00  0.00     0.002 A 
ATOM     12  H1  UNL     1      26.743  46.404  19.509  1.00  0.00     0.165 HD
HETATM   13  C4  UNL     1      23.846  45.541  18.193  1.00  0.00     0.198 A 
HETATM   14  C6  UNL     1      25.598  47.259  17.435  1.00  0.00     0.064 C 
HETATM   15  C21 UNL     1      23.477  44.483  19.139  1.00  0.00     0.211 A 
BRANCH  13  16
HETATM   16  C3  UNL     1      23.699  45.119  16.786  1.00  0.00     0.274 C 
HETATM   17  O2  UNL     1      24.460  44.298  16.262  1.00  0.00    -0.264 OA
BRANCH  16  18
HETATM   18  O1  UNL     1      22.675  45.652  15.994  1.00  0.00    -0.321 OA
BRANCH  18  19
HETATM   19  C2  UNL     1      23.022  46.597  14.976  1.00  0.00     0.174 C 
HETATM   20  C1  UNL     1      22.597  47.977  15.378  1.00  0.00     0.034 C 
ENDBRANCH  18  19
ENDBRANCH  16  18
ENDBRANCH  13  16
BRANCH  15  21
HETATM   21  O9  UNL     1      23.116  43.287  18.512  1.00  0.00    -0.361 OA
ATOM     22  H9  UNL     1      23.772  42.973  17.900  1.00  0.00     0.213 HD
ENDBRANCH  15  21
BRANCH  15  23
HETATM   23  O10 UNL     1      22.230  44.864  19.775  1.00  0.00    -0.361 OA
ATOM     24  H10 UNL     1      22.408  45.029  20.694  1.00  0.00     0.213 HD
ENDBRANCH  15  23
ENDBRANCH   6   7
BRANCH   6  25
HETATM   25  C19 UNL     1      23.407  43.922  22.487  1.00  0.00     0.310 C 
HETATM   26  O7  UNL     1      24.114  44.296  23.476  1.00  0.00    -0.258 OA
BRANCH  25  27
HETATM   27  O8  UNL     1      22.050  44.134  22.563  1.00  0.00    -0.321 OA
HETATM   28  C20 UNL     1      21.512  45.406  22.828  1.00  0.00     0.213 C 
ENDBRANCH  25  27
ENDBRANCH   6  25
ENDBRANCH   4   6
ENDBRANCH   1   4
BRANCH   1  29
HETATM   29  C12 UNL     1      24.995  40.516  22.314  1.00  0.00     0.151 C 
HETATM   30  S1  UNL     1      26.548  40.865  22.387  1.00  0.00    -0.058 SA
BRANCH  29  31
HETATM   31  N3  UNL     1      24.335  39.886  23.362  1.00  0.00    -0.287 N 
ATOM     32  H3  UNL     1      24.620  38.934  23.594  1.00  0.00     0.188 HD
BRANCH  31  33
HETATM   33  N4  UNL     1      23.311  40.456  24.121  1.00  0.00    -0.262 N 
HETATM   34  C13 UNL     1      23.649  41.303  25.197  1.00  0.00     0.305 C 
HETATM   35  O3  UNL     1      24.854  41.530  25.448  1.00  0.00    -0.263 OA
ATOM     36  H4  UNL     1      22.334  40.262  23.901  1.00  0.00     0.190 HD
BRANCH  34  37
HETATM   37  C14 UNL     1      22.650  41.939  26.045  1.00  0.00     0.194 A 
HETATM   38  N5  UNL     1      22.231  43.176  25.699  1.00  0.00    -0.299 N 
HETATM   39  C15 UNL     1      21.317  43.814  26.434  1.00  0.00     0.316 A 
ATOM     40  H5  UNL     1      22.616  43.626  24.868  1.00  0.00     0.171 HD
HETATM   41  O4  UNL     1      20.918  44.981  26.111  1.00  0.00    -0.262 OA
HETATM   42  C16 UNL     1      20.796  43.201  27.560  1.00  0.00     0.328 A 
HETATM   43  O5  UNL     1      19.935  43.802  28.251  1.00  0.00    -0.261 OA
HETATM   44  N6  UNL     1      21.244  41.972  27.864  1.00  0.00    -0.260 N 
HETATM   45  N7  UNL     1      22.143  41.359  27.131  1.00  0.00    -0.278 N 
ATOM     46  H6  UNL     1      20.874  41.501  28.690  1.00  0.00     0.190 HD
ATOM     47  H7  UNL     1      22.457  40.425  27.397  1.00  0.00     0.189 HD
ENDBRANCH  34  37
ENDBRANCH  31  33
ENDBRANCH  29  31
ENDBRANCH   1  29
BRANCH   3  48
HETATM   48  C18 UNL     1      24.510  40.260  18.459  1.00  0.00     0.171 C 
BRANCH  48  49
HETATM   49  N8  UNL     1      23.679  39.311  17.730  1.00  0.00    -0.146 NA
BRANCH  49  50
HETATM   50  N9  UNL     1      23.780  38.078  18.382  1.00  0.00    -0.348 N 
ATOM     51  H92 UNL     1      23.358  37.848  19.281  1.00  0.00     0.172 HD
ATOM     52  H91 UNL     1      24.346  37.467  17.794  1.00  0.00     0.172 HD
ENDBRANCH  49  50
ENDBRANCH  48  49
ENDBRANCH   3  48
TORSDOF 17
ENDMDL
MODEL 4
REMARK VINA RESULT: -8.664255951      2.638      3.158
REMARK  17 active torsions:
REMARK  status: ('A' for Active; 'I' for Inactive)
REMARK    1  A    between atoms: C2_2  and  O1_3 
REMARK    2  A    between atoms: O1_3  and  C3_4 
REMARK    3  A    between atoms: C3_4  and  C4_6 
REMARK    4  A    between atoms: C9_13  and  C10_14 
REMARK    5  A    between atoms: C10_14  and  N2_15 
REMARK    6  A    between atoms: C10_14  and  C19_44 
REMARK    7  A    between atoms: N2_15  and  C11_17 
REMARK    8  A    between atoms: C11_17  and  C12_18 
REMARK    9  A    between atoms: C12_18  and  N3_20 
REMARK   10  A    between atoms: N3_20  and  N4_22 
REMARK       I    between atoms: N4_22  and  C13_24 
REMARK   11  A    between atoms: C13_24  and  C14_26 
REMARK   12  A    between atoms: C17_38  and  C18_39 
REMARK   13  A    between atoms: C18_39  and  N8_40 
REMARK   14  A    between atoms: N8_40  and  N9_41 
REMARK   15  A    between atoms: C19_44  and  O8_46 
REMARK   16  A    between atoms: C21_48  and  O9_49 
REMARK   17  A    between atoms: C21_48  and  O10_51 
ROOT
HETATM    1  C11 UNL     1      23.759  45.342  18.486  1.00  0.00     0.219 A 
HETATM    2  O6  UNL     1      24.941  44.867  17.792  1.00  0.00    -0.340 OA
HETATM    3  C17 UNL     1      25.090  45.897  18.718  1.00  0.00     0.204 A 
ENDROOT
BRANCH   1   4
HETATM    4  N2  UNL     1      22.773  45.714  17.548  1.00  0.00    -0.345 N 
ATOM      5  H2  UNL     1      21.795  45.686  17.839  1.00  0.00     0.163 HD
BRANCH   4   6
HETATM    6  C10 UNL     1      23.058  46.110  16.265  1.00  0.00     0.120 C 
BRANCH   6   7
HETATM    7  C9  UNL     1      22.776  45.378  15.052  1.00  0.00     0.059 A 
HETATM    8  C7  UNL     1      21.557  45.293  14.543  1.00  0.00     0.019 A 
HETATM    9  N1  UNL     1      21.290  44.577  13.362  1.00  0.00    -0.365 N 
HETATM   10  C8  UNL     1      20.448  46.022  15.211  1.00  0.00     0.069 C 
HETATM   11  C5  UNL     1      22.148  43.973  12.690  1.00  0.00     0.002 A 
ATOM     12  H1  UNL     1      20.325  44.551  13.032  1.00  0.00     0.165 HD
HETATM   13  C4  UNL     1      23.569  43.973  13.115  1.00  0.00     0.198 A 
HETATM   14  C6  UNL     1      21.766  43.233  11.442  1.00  0.00     0.064 C 
HETATM   15  C21 UNL     1      23.907  44.761  14.304  1.00  0.00     0.211 A 
BRANCH  13  16
HETATM   16  C3  UNL     1      24.463  44.257  11.975  1.00  0.00     0.274 C 
HETATM   17  O2  UNL     1      25.549  43.685  11.831  1.00  0.00    -0.264 OA
BRANCH  16  18
HETATM   18  O1  UNL     1      24.097  45.204  11.010  1.00  0.00    -0.321 OA
BRANCH  18  19
HETATM   19  C2  UNL     1      24.895  46.385  10.876  1.00  0.00     0.174 C 
HETATM   20  C1  UNL     1      24.609  47.065   9.572  1.00  0.00     0.034 C 
ENDBRANCH  18  19
ENDBRANCH  16  18
ENDBRANCH  13  16
BRANCH  15  21
HETATM   21  O9  UNL     1      24.966  45.649  14.093  1.00  0.00    -0.361 OA
ATOM     22  H9  UNL     1      25.103  46.245  14.820  1.00  0.00     0.213 HD
ENDBRANCH  15  21
BRANCH  15  23
HETATM   23  O10 UNL     1      24.475  43.863  15.292  1.00  0.00    -0.361 OA
ATOM     24  H10 UNL     1      25.273  44.258  15.624  1.00  0.00     0.213 HD
ENDBRANCH  15  23
ENDBRANCH   6   7
BRANCH   6  25
HETATM   25  C19 UNL     1      22.808  47.560  16.079  1.00  0.00     0.310 C 
HETATM   26  O7  UNL     1      22.149  48.234  16.933  1.00  0.00    -0.258 OA
BRANCH  25  27
HETATM   27  O8  UNL     1      23.283  48.228  14.975  1.00  0.00    -0.321 OA
HETATM   28  C20 UNL     1      22.424  48.681  13.957  1.00  0.00     0.213 C 
ENDBRANCH  25  27
ENDBRANCH   6  25
ENDBRANCH   4   6
ENDBRANCH   1   4
BRANCH   1  29
HETATM   29  C12 UNL     1      23.321  44.346  19.559  1.00  0.00     0.151 C 
HETATM   30  S1  UNL     1      22.134  44.763  20.536  1.00  0.00    -0.058 SA
BRANCH  29  31
HETATM   31  N3  UNL     1      23.980  43.130  19.684  1.00  0.00    -0.287 N 
ATOM     32  H3  UNL     1      24.814  43.104  20.272  1.00  0.00     0.188 HD
BRANCH  31  33
HETATM   33  N4  UNL     1      23.589  41.940  19.066  1.00  0.00    -0.262 N 
HETATM   34  C13 UNL     1      24.476  40.844  19.071  1.00  0.00     0.305 C 
HETATM   35  O3  UNL     1      25.592  40.957  19.629  1.00  0.00    -0.263 OA
ATOM     36  H4  UNL     1      22.676  41.865  18.618  1.00  0.00     0.190 HD
BRANCH  34  37
HETATM   37  C14 UNL     1      24.157  39.566  18.450  1.00  0.00     0.194 A 
HETATM   38  N5  UNL     1      24.913  38.499  18.788  1.00  0.00    -0.299 N 
HETATM   39  C15 UNL     1      24.673  37.300  18.255  1.00  0.00     0.316 A 
ATOM     40  H5  UNL     1      25.675  38.612  19.457  1.00  0.00     0.171 HD
HETATM   41  O4  UNL     1      25.384  36.290  18.570  1.00  0.00    -0.262 OA
HETATM   42  C16 UNL     1      23.638  37.149  17.347  1.00  0.00     0.328 A 
HETATM   43  O5  UNL     1      23.412  36.019  16.846  1.00  0.00    -0.261 OA
HETATM   44  N6  UNL     1      22.914  38.239  17.042  1.00  0.00    -0.260 N 
HETATM   45  N7  UNL     1      23.164  39.411  17.575  1.00  0.00    -0.278 N 
ATOM     46  H6  UNL     1      22.146  38.152  16.376  1.00  0.00     0.190 HD
ATOM     47  H7  UNL     1      22.591  40.214  17.317  1.00  0.00     0.189 HD
ENDBRANCH  34  37
ENDBRANCH  31  33
ENDBRANCH  29  31
ENDBRANCH   1  29
BRANCH   3  48
HETATM   48  C18 UNL     1      25.649  47.196  18.285  1.00  0.00     0.171 C 
BRANCH  48  49
HETATM   49  N8  UNL     1      27.105  47.236  18.330  1.00  0.00    -0.146 NA
BRANCH  49  50
HETATM   50  N9  UNL     1      27.536  46.085  18.995  1.00  0.00    -0.348 N 
ATOM     51  H92 UNL     1      28.322  45.499  18.715  1.00  0.00     0.172 HD
ATOM     52  H91 UNL     1      26.922  45.947  19.798  1.00  0.00     0.172 HD
ENDBRANCH  49  50
ENDBRANCH  48  49
ENDBRANCH   3  48
TORSDOF 17
ENDMDL
MODEL 5
REMARK VINA RESULT: -8.436109525      2.516     10.009
REMARK  17 active torsions:
REMARK  status: ('A' for Active; 'I' for Inactive)
REMARK    1  A    between atoms: C2_2  and  O1_3 
REMARK    2  A    between atoms: O1_3  and  C3_4 
REMARK    3  A    between atoms: C3_4  and  C4_6 
REMARK    4  A    between atoms: C9_13  and  C10_14 
REMARK    5  A    between atoms: C10_14  and  N2_15 
REMARK    6  A    between atoms: C10_14  and  C19_44 
REMARK    7  A    between atoms: N2_15  and  C11_17 
REMARK    8  A    between atoms: C11_17  and  C12_18 
REMARK    9  A    between atoms: C12_18  and  N3_20 
REMARK   10  A    between atoms: N3_20  and  N4_22 
REMARK       I    between atoms: N4_22  and  C13_24 
REMARK   11  A    between atoms: C13_24  and  C14_26 
REMARK   12  A    between atoms: C17_38  and  C18_39 
REMARK   13  A    between atoms: C18_39  and  N8_40 
REMARK   14  A    between atoms: N8_40  and  N9_41 
REMARK   15  A    between atoms: C19_44  and  O8_46 
REMARK   16  A    between atoms: C21_48  and  O9_49 
REMARK   17  A    between atoms: C21_48  and  O10_51 
ROOT
HETATM    1  C11 UNL     1      23.191  44.315  19.989  1.00  0.00     0.219 A 
HETATM    2  O6  UNL     1      21.828  44.644  20.364  1.00  0.00    -0.340 OA
HETATM    3  C17 UNL     1      22.854  44.977  21.245  1.00  0.00     0.204 A 
ENDROOT
BRANCH   1   4
HETATM    4  N2  UNL     1      23.283  42.940  19.684  1.00  0.00    -0.345 N 
ATOM      5  H2  UNL     1      22.468  42.480  19.280  1.00  0.00     0.163 HD
BRANCH   4   6
HETATM    6  C10 UNL     1      24.412  42.190  19.903  1.00  0.00     0.120 C 
BRANCH   6   7
HETATM    7  C9  UNL     1      24.970  41.822  21.183  1.00  0.00     0.059 A 
HETATM    8  C7  UNL     1      25.963  42.495  21.743  1.00  0.00     0.019 A 
HETATM    9  N1  UNL     1      26.501  42.131  22.991  1.00  0.00    -0.365 N 
HETATM   10  C8  UNL     1      26.485  43.705  21.058  1.00  0.00     0.069 C 
HETATM   11  C5  UNL     1      26.108  41.169  23.679  1.00  0.00     0.002 A 
ATOM     12  H1  UNL     1      27.268  42.693  23.358  1.00  0.00     0.165 HD
HETATM   13  C4  UNL     1      24.995  40.312  23.202  1.00  0.00     0.198 A 
HETATM   14  C6  UNL     1      26.748  40.855  24.999  1.00  0.00     0.064 C 
HETATM   15  C21 UNL     1      24.358  40.693  21.938  1.00  0.00     0.211 A 
BRANCH  13  16
HETATM   16  C3  UNL     1      24.015  40.068  24.279  1.00  0.00     0.274 C 
HETATM   17  O2  UNL     1      24.008  39.023  24.938  1.00  0.00    -0.264 OA
BRANCH  16  18
HETATM   18  O1  UNL     1      23.047  41.033  24.584  1.00  0.00    -0.321 OA
BRANCH  18  19
HETATM   19  C2  UNL     1      23.273  41.893  25.707  1.00  0.00     0.174 C 
HETATM   20  C1  UNL     1      22.323  41.562  26.818  1.00  0.00     0.034 C 
ENDBRANCH  18  19
ENDBRANCH  16  18
ENDBRANCH  13  16
BRANCH  15  21
HETATM   21  O9  UNL     1      22.967  40.795  22.032  1.00  0.00    -0.361 OA
ATOM     22  H9  UNL     1      22.541  40.882  21.187  1.00  0.00     0.213 HD
ENDBRANCH  15  21
BRANCH  15  23
HETATM   23  O10 UNL     1      24.504  39.587  21.010  1.00  0.00    -0.361 OA
ATOM     24  H10 UNL     1      24.196  39.876  20.158  1.00  0.00     0.213 HD
ENDBRANCH  15  23
ENDBRANCH   6   7
BRANCH   6  25
HETATM   25  C19 UNL     1      24.511  41.067  18.939  1.00  0.00     0.310 C 
HETATM   26  O7  UNL     1      25.637  40.649  18.522  1.00  0.00    -0.258 OA
BRANCH  25  27
HETATM   27  O8  UNL     1      23.385  40.438  18.462  1.00  0.00    -0.321 OA
HETATM   28  C20 UNL     1      23.446  39.173  17.853  1.00  0.00     0.213 C 
ENDBRANCH  25  27
ENDBRANCH   6  25
ENDBRANCH   4   6
ENDBRANCH   1   4
BRANCH   1  29
HETATM   29  C12 UNL     1      23.706  45.274  18.916  1.00  0.00     0.151 C 
HETATM   30  S1  UNL     1      25.126  45.961  19.137  1.00  0.00    -0.058 SA
BRANCH  29  31
HETATM   31  N3  UNL     1      22.922  45.553  17.804  1.00  0.00    -0.287 N 
ATOM     32  H3  UNL     1      21.910  45.482  17.910  1.00  0.00     0.188 HD
BRANCH  31  33
HETATM   33  N4  UNL     1      23.414  45.924  16.551  1.00  0.00    -0.262 N 
HETATM   34  C13 UNL     1      23.293  45.021  15.475  1.00  0.00     0.305 C 
HETATM   35  O3  UNL     1      22.747  43.910  15.662  1.00  0.00    -0.263 OA
ATOM     36  H4  UNL     1      23.854  46.835  16.416  1.00  0.00     0.190 HD
BRANCH  34  37
HETATM   37  C14 UNL     1      23.779  45.319  14.135  1.00  0.00     0.194 A 
HETATM   38  N5  UNL     1      24.657  44.456  13.581  1.00  0.00    -0.299 N 
HETATM   39  C15 UNL     1      25.141  44.670  12.356  1.00  0.00     0.316 A 
ATOM     40  H5  UNL     1      24.954  43.631  14.104  1.00  0.00     0.171 HD
HETATM   41  O4  UNL     1      25.970  43.858  11.828  1.00  0.00    -0.262 OA
HETATM   42  C16 UNL     1      24.738  45.789  11.647  1.00  0.00     0.328 A 
HETATM   43  O5  UNL     1      25.193  45.990  10.493  1.00  0.00    -0.261 OA
HETATM   44  N6  UNL     1      23.863  46.619  12.239  1.00  0.00    -0.260 N 
HETATM   45  N7  UNL     1      23.398  46.393  13.445  1.00  0.00    -0.278 N 
ATOM     46  H6  UNL     1      23.552  47.451  11.736  1.00  0.00     0.190 HD
ATOM     47  H7  UNL     1      22.735  47.049  13.860  1.00  0.00     0.189 HD
ENDBRANCH  34  37
ENDBRANCH  31  33
ENDBRANCH  29  31
ENDBRANCH   1  29
BRANCH   3  48
HETATM   48  C18 UNL     1      22.847  44.427  22.619  1.00  0.00     0.171 C 
BRANCH  48  49
HETATM   49  N8  UNL     1      21.528  44.444  23.236  1.00  0.00    -0.146 NA
BRANCH  49  50
HETATM   50  N9  UNL     1      21.692  44.845  24.565  1.00  0.00    -0.348 N 
ATOM     51  H92 UNL     1      22.583  45.052  25.015  1.00  0.00     0.172 HD
ATOM     52  H91 UNL     1      20.765  44.889  24.988  1.00  0.00     0.172 HD
ENDBRANCH  49  50
ENDBRANCH  48  49
ENDBRANCH   3  48
TORSDOF 17
ENDMDL
