MODEL 1
REMARK VINA RESULT: -9.258189589      0.000      0.000
REMARK  17 active torsions:
REMARK  status: ('A' for Active; 'I' for Inactive)
REMARK    1  A    between atoms: C2_2  and  O1_4 
REMARK    2  A    between atoms: C2_2  and  C4_6 
REMARK    3  A    between atoms: C4_6  and  N1_7 
REMARK       I    between atoms: N1_7  and  C5_9 
REMARK    4  A    between atoms: C5_9  and  C6_11 
REMARK    5  A    between atoms: C6_11  and  O3_12 
REMARK    6  A    between atoms: C6_11  and  N2_14 
REMARK    7  A    between atoms: N2_14  and  O4_15 
REMARK    8  A    between atoms: O4_15  and  C7_16 
REMARK    9  A    between atoms: C7_16  and  C8_18 
REMARK   10  A    between atoms: C8_18  and  C9_19 
REMARK   11  A    between atoms: C8_18  and  N6_36 
REMARK   12  A    between atoms: C9_19  and  C10_20 
REMARK   13  A    between atoms: C9_19  and  C11_23 
REMARK   14  A    between atoms: C13_26  and  N4_27 
REMARK   15  A    between atoms: C16_30  and  O8_31 
REMARK   16  A    between atoms: N7_41  and  O10_42 
REMARK   17  A    between atoms: C23_47  and  O12_48 
ROOT
HETATM    1  C8  UNL     1      24.322  43.313  20.895  1.00  0.00     0.138 C 
ENDROOT
BRANCH   1   2
HETATM    2  C7  UNL     1      23.111  42.676  20.340  1.00  0.00     0.330 C 
HETATM    3  O5  UNL     1      21.979  42.973  20.727  1.00  0.00    -0.256 OA
BRANCH   2   4
HETATM    4  O4  UNL     1      23.234  41.725  19.356  1.00  0.00    -0.199 OA
BRANCH   4   5
HETATM    5  N2  UNL     1      23.593  40.415  19.634  1.00  0.00    -0.049 NA
BRANCH   5   6
HETATM    6  C6  UNL     1      24.555  39.914  18.711  1.00  0.00     0.331 C 
BRANCH   6   7
HETATM    7  C5  UNL     1      24.056  38.685  18.058  1.00  0.00     0.264 C 
HETATM    8  N1  UNL     1      24.392  37.378  18.498  1.00  0.00    -0.355 N 
ATOM      9  H1  UNL     1      25.006  37.262  19.305  1.00  0.00     0.162 HD
HETATM   10  O2  UNL     1      23.297  38.782  17.063  1.00  0.00    -0.269 OA
BRANCH   8  11
HETATM   11  C4  UNL     1      23.881  36.217  17.825  1.00  0.00     0.159 C 
BRANCH  11  12
HETATM   12  C2  UNL     1      24.959  35.552  17.035  1.00  0.00     0.066 C 
HETATM   13  C1  UNL     1      24.941  34.040  17.232  1.00  0.00     0.047 C 
HETATM   14  C3  UNL     1      24.674  35.810  15.562  1.00  0.00     0.047 C 
BRANCH  12  15
HETATM   15  O1  UNL     1      26.233  35.986  17.314  1.00  0.00    -0.389 OA
ATOM     16  H1  UNL     1      26.418  35.758  18.217  1.00  0.00     0.210 HD
ENDBRANCH  12  15
ENDBRANCH  11  12
ENDBRANCH   8  11
ENDBRANCH   6   7
BRANCH   6  17
HETATM   17  O3  UNL     1      25.822  39.680  19.245  1.00  0.00    -0.369 OA
ATOM     18  H3  UNL     1      25.739  39.289  20.106  1.00  0.00     0.212 HD
ENDBRANCH   6  17
ENDBRANCH   5   6
ENDBRANCH   4   5
ENDBRANCH   2   4
ENDBRANCH   1   2
BRANCH   1  19
HETATM   19  C9  UNL     1      24.469  44.749  20.775  1.00  0.00     0.091 C 
BRANCH  19  20
HETATM   20  C10 UNL     1      23.750  45.459  21.868  1.00  0.00     0.269 C 
HETATM   21  N3  UNL     1      24.493  46.048  22.909  1.00  0.00    -0.057 NA
HETATM   22  O6  UNL     1      22.503  45.579  21.939  1.00  0.00    -0.271 OA
ENDBRANCH  19  20
BRANCH  19  23
HETATM   23  C11 UNL     1      24.335  45.472  19.518  1.00  0.00     0.075 A 
HETATM   24  C12 UNL     1      25.331  46.402  19.150  1.00  0.00     0.176 A 
HETATM   25  O7  UNL     1      24.995  46.897  18.005  1.00  0.00    -0.289 OA
HETATM   26  C13 UNL     1      23.869  46.383  17.578  1.00  0.00     0.226 A 
HETATM   27  N5  UNL     1      23.469  45.512  18.505  1.00  0.00    -0.319 N 
ATOM     28  H5  UNL     1      22.618  44.953  18.447  1.00  0.00     0.169 HD
BRANCH  26  29
HETATM   29  N4  UNL     1      23.210  46.697  16.363  1.00  0.00    -0.344 N 
HETATM   30  C14 UNL     1      22.492  45.813  15.483  1.00  0.00     0.129 C 
HETATM   31  C15 UNL     1      21.229  46.646  15.214  1.00  0.00     0.053 C 
HETATM   32  C16 UNL     1      21.646  48.089  15.436  1.00  0.00     0.137 C 
HETATM   33  C17 UNL     1      23.137  48.001  15.741  1.00  0.00     0.158 C 
BRANCH  32  34
HETATM   34  O8  UNL     1      21.041  48.631  16.573  1.00  0.00    -0.394 OA
ATOM     35  H8  UNL     1      21.392  49.489  16.782  1.00  0.00     0.210 HD
ENDBRANCH  32  34
ENDBRANCH  26  29
ENDBRANCH  19  23
ENDBRANCH   1  19
BRANCH   1  36
HETATM   36  N6  UNL     1      24.959  42.567  21.960  1.00  0.00    -0.258 N 
HETATM   37  C18 UNL     1      24.486  42.494  23.232  1.00  0.00     0.036 A 
HETATM   38  C19 UNL     1      25.191  41.770  24.179  1.00  0.00     0.038 A 
HETATM   39  C24 UNL     1      23.275  43.011  23.902  1.00  0.00     0.090 C 
HETATM   40  C20 UNL     1      26.357  41.122  23.850  1.00  0.00     0.284 A 
HETATM   41  C22 UNL     1      24.509  41.853  25.495  1.00  0.00     0.078 C 
HETATM   42  O9  UNL     1      27.035  40.447  24.694  1.00  0.00    -0.265 OA
HETATM   43  N7  UNL     1      26.831  41.188  22.594  1.00  0.00    -0.133 N 
HETATM   44  C21 UNL     1      26.134  41.888  21.722  1.00  0.00     0.361 A 
HETATM   45  O11 UNL     1      26.621  41.919  20.533  1.00  0.00    -0.243 OA
HETATM   46  C23 UNL     1      23.082  41.979  25.033  1.00  0.00     0.128 C 
BRANCH  43  47
HETATM   47  O10 UNL     1      28.008  40.551  22.226  1.00  0.00    -0.276 OA
ATOM     48  H10 UNL     1      28.050  39.981  21.467  1.00  0.00     0.245 HD
ENDBRANCH  43  47
BRANCH  46  49
HETATM   49  O12 UNL     1      22.312  42.585  26.029  1.00  0.00    -0.395 OA
ATOM     50  H12 UNL     1      21.453  42.182  26.064  1.00  0.00     0.210 HD
ENDBRANCH  46  49
ENDBRANCH   1  36
TORSDOF 17
ENDMDL
MODEL 2
REMARK VINA RESULT: -9.212123255      0.984      1.137
REMARK  17 active torsions:
REMARK  status: ('A' for Active; 'I' for Inactive)
REMARK    1  A    between atoms: C2_2  and  O1_4 
REMARK    2  A    between atoms: C2_2  and  C4_6 
REMARK    3  A    between atoms: C4_6  and  N1_7 
REMARK       I    between atoms: N1_7  and  C5_9 
REMARK    4  A    between atoms: C5_9  and  C6_11 
REMARK    5  A    between atoms: C6_11  and  O3_12 
REMARK    6  A    between atoms: C6_11  and  N2_14 
REMARK    7  A    between atoms: N2_14  and  O4_15 
REMARK    8  A    between atoms: O4_15  and  C7_16 
REMARK    9  A    between atoms: C7_16  and  C8_18 
REMARK   10  A    between atoms: C8_18  and  C9_19 
REMARK   11  A    between atoms: C8_18  and  N6_36 
REMARK   12  A    between atoms: C9_19  and  C10_20 
REMARK   13  A    between atoms: C9_19  and  C11_23 
REMARK   14  A    between atoms: C13_26  and  N4_27 
REMARK   15  A    between atoms: C16_30  and  O8_31 
REMARK   16  A    between atoms: N7_41  and  O10_42 
REMARK   17  A    between atoms: C23_47  and  O12_48 
ROOT
HETATM    1  C8  UNL     1      24.289  43.228  20.960  1.00  0.00     0.138 C 
ENDROOT
BRANCH   1   2
HETATM    2  C7  UNL     1      23.018  42.657  20.470  1.00  0.00     0.330 C 
HETATM    3  O5  UNL     1      21.953  43.274  20.542  1.00  0.00    -0.256 OA
BRANCH   2   4
HETATM    4  O4  UNL     1      23.008  41.404  19.909  1.00  0.00    -0.199 OA
BRANCH   4   5
HETATM    5  N2  UNL     1      23.763  41.087  18.791  1.00  0.00    -0.049 NA
BRANCH   5   6
HETATM    6  C6  UNL     1      24.390  39.813  18.907  1.00  0.00     0.331 C 
BRANCH   6   7
HETATM    7  C5  UNL     1      23.753  38.837  17.998  1.00  0.00     0.264 C 
HETATM    8  N1  UNL     1      23.869  37.432  18.161  1.00  0.00    -0.355 N 
ATOM      9  H1  UNL     1      24.413  37.059  18.939  1.00  0.00     0.162 HD
HETATM   10  O2  UNL     1      23.073  39.252  17.028  1.00  0.00    -0.269 OA
BRANCH   8  11
HETATM   11  C4  UNL     1      23.232  36.527  17.245  1.00  0.00     0.159 C 
BRANCH  11  12
HETATM   12  C2  UNL     1      22.735  35.317  17.964  1.00  0.00     0.066 C 
HETATM   13  C1  UNL     1      22.310  34.225  16.989  1.00  0.00     0.047 C 
HETATM   14  C3  UNL     1      23.894  34.758  18.778  1.00  0.00     0.047 C 
BRANCH  12  15
HETATM   15  O1  UNL     1      21.676  35.542  18.813  1.00  0.00    -0.389 OA
ATOM     16  H1  UNL     1      20.935  35.800  18.278  1.00  0.00     0.210 HD
ENDBRANCH  12  15
ENDBRANCH  11  12
ENDBRANCH   8  11
ENDBRANCH   6   7
BRANCH   6  17
HETATM   17  O3  UNL     1      24.435  39.293  20.200  1.00  0.00    -0.369 OA
ATOM     18  H3  UNL     1      25.301  38.945  20.375  1.00  0.00     0.212 HD
ENDBRANCH   6  17
ENDBRANCH   5   6
ENDBRANCH   4   5
ENDBRANCH   2   4
ENDBRANCH   1   2
BRANCH   1  19
HETATM   19  C9  UNL     1      24.499  44.656  20.846  1.00  0.00     0.091 C 
BRANCH  19  20
HETATM   20  C10 UNL     1      23.868  45.387  21.979  1.00  0.00     0.269 C 
HETATM   21  N3  UNL     1      24.680  45.854  23.031  1.00  0.00    -0.057 NA
HETATM   22  O6  UNL     1      22.641  45.627  22.075  1.00  0.00    -0.271 OA
ENDBRANCH  19  20
BRANCH  19  23
HETATM   23  C11 UNL     1      24.340  45.400  19.603  1.00  0.00     0.075 A 
HETATM   24  C12 UNL     1      25.274  46.407  19.281  1.00  0.00     0.176 A 
HETATM   25  O7  UNL     1      24.928  46.905  18.140  1.00  0.00    -0.289 OA
HETATM   26  C13 UNL     1      23.851  46.324  17.675  1.00  0.00     0.226 A 
HETATM   27  N5  UNL     1      23.495  45.403  18.572  1.00  0.00    -0.319 N 
ATOM     28  H5  UNL     1      22.688  44.786  18.481  1.00  0.00     0.169 HD
BRANCH  26  29
HETATM   29  N4  UNL     1      23.197  46.620  16.453  1.00  0.00    -0.344 N 
HETATM   30  C14 UNL     1      22.461  45.729  15.596  1.00  0.00     0.129 C 
HETATM   31  C15 UNL     1      21.214  46.580  15.307  1.00  0.00     0.053 C 
HETATM   32  C16 UNL     1      21.660  48.020  15.494  1.00  0.00     0.137 C 
HETATM   33  C17 UNL     1      23.150  47.910  15.799  1.00  0.00     0.158 C 
BRANCH  32  34
HETATM   34  O8  UNL     1      21.067  48.602  16.617  1.00  0.00    -0.394 OA
ATOM     35  H8  UNL     1      21.689  49.124  17.110  1.00  0.00     0.210 HD
ENDBRANCH  32  34
ENDBRANCH  26  29
ENDBRANCH  19  23
ENDBRANCH   1  19
BRANCH   1  36
HETATM   36  N6  UNL     1      24.950  42.437  21.977  1.00  0.00    -0.258 N 
HETATM   37  C18 UNL     1      24.508  42.313  23.257  1.00  0.00     0.036 A 
HETATM   38  C19 UNL     1      25.234  41.550  24.155  1.00  0.00     0.038 A 
HETATM   39  C24 UNL     1      23.316  42.805  23.976  1.00  0.00     0.090 C 
HETATM   40  C20 UNL     1      26.390  40.914  23.772  1.00  0.00     0.284 A 
HETATM   41  C22 UNL     1      24.585  41.581  25.490  1.00  0.00     0.078 C 
HETATM   42  O9  UNL     1      27.086  40.203  24.570  1.00  0.00    -0.265 OA
HETATM   43  N7  UNL     1      26.833  41.030  22.508  1.00  0.00    -0.133 N 
HETATM   44  C21 UNL     1      26.117  41.766  21.682  1.00  0.00     0.361 A 
HETATM   45  O11 UNL     1      26.575  41.845  20.484  1.00  0.00    -0.243 OA
HETATM   46  C23 UNL     1      23.147  41.729  25.070  1.00  0.00     0.128 C 
BRANCH  43  47
HETATM   47  O10 UNL     1      27.998  40.406  22.086  1.00  0.00    -0.276 OA
ATOM     48  H10 UNL     1      27.982  39.687  21.465  1.00  0.00     0.245 HD
ENDBRANCH  43  47
BRANCH  46  49
HETATM   49  O12 UNL     1      22.404  42.295  26.108  1.00  0.00    -0.395 OA
ATOM     50  H12 UNL     1      22.018  43.114  25.819  1.00  0.00     0.210 HD
ENDBRANCH  46  49
ENDBRANCH   1  36
TORSDOF 17
ENDMDL
MODEL 3
REMARK VINA RESULT: -9.201727407      1.250      1.704
REMARK  17 active torsions:
REMARK  status: ('A' for Active; 'I' for Inactive)
REMARK    1  A    between atoms: C2_2  and  O1_4 
REMARK    2  A    between atoms: C2_2  and  C4_6 
REMARK    3  A    between atoms: C4_6  and  N1_7 
REMARK       I    between atoms: N1_7  and  C5_9 
REMARK    4  A    between atoms: C5_9  and  C6_11 
REMARK    5  A    between atoms: C6_11  and  O3_12 
REMARK    6  A    between atoms: C6_11  and  N2_14 
REMARK    7  A    between atoms: N2_14  and  O4_15 
REMARK    8  A    between atoms: O4_15  and  C7_16 
REMARK    9  A    between atoms: C7_16  and  C8_18 
REMARK   10  A    between atoms: C8_18  and  C9_19 
REMARK   11  A    between atoms: C8_18  and  N6_36 
REMARK   12  A    between atoms: C9_19  and  C10_20 
REMARK   13  A    between atoms: C9_19  and  C11_23 
REMARK   14  A    between atoms: C13_26  and  N4_27 
REMARK   15  A    between atoms: C16_30  and  O8_31 
REMARK   16  A    between atoms: N7_41  and  O10_42 
REMARK   17  A    between atoms: C23_47  and  O12_48 
ROOT
HETATM    1  C8  UNL     1      24.275  43.034  21.138  1.00  0.00     0.138 C 
ENDROOT
BRANCH   1   2
HETATM    2  C7  UNL     1      22.931  42.528  20.794  1.00  0.00     0.330 C 
HETATM    3  O5  UNL     1      21.969  43.281  20.637  1.00  0.00    -0.256 OA
BRANCH   2   4
HETATM    4  O4  UNL     1      22.735  41.178  20.635  1.00  0.00    -0.199 OA
BRANCH   4   5
HETATM    5  N2  UNL     1      23.754  40.323  20.243  1.00  0.00    -0.049 NA
BRANCH   5   6
HETATM    6  C6  UNL     1      23.817  40.173  18.828  1.00  0.00     0.331 C 
BRANCH   6   7
HETATM    7  C5  UNL     1      24.183  38.787  18.469  1.00  0.00     0.264 C 
HETATM    8  N1  UNL     1      23.308  37.904  17.783  1.00  0.00    -0.355 N 
ATOM      9  H1  UNL     1      22.378  38.225  17.516  1.00  0.00     0.162 HD
HETATM   10  O2  UNL     1      25.318  38.351  18.778  1.00  0.00    -0.269 OA
BRANCH   8  11
HETATM   11  C4  UNL     1      23.713  36.564  17.462  1.00  0.00     0.159 C 
BRANCH  11  12
HETATM   12  C2  UNL     1      22.544  35.637  17.506  1.00  0.00     0.066 C 
HETATM   13  C1  UNL     1      21.655  35.804  16.280  1.00  0.00     0.047 C 
HETATM   14  C3  UNL     1      23.086  34.214  17.471  1.00  0.00     0.047 C 
BRANCH  12  15
HETATM   15  O1  UNL     1      21.742  35.769  18.615  1.00  0.00    -0.389 OA
ATOM     16  H1  UNL     1      21.780  36.679  18.885  1.00  0.00     0.210 HD
ENDBRANCH  12  15
ENDBRANCH  11  12
ENDBRANCH   8  11
ENDBRANCH   6   7
BRANCH   6  17
HETATM   17  O3  UNL     1      24.665  41.067  18.176  1.00  0.00    -0.369 OA
ATOM     18  H3  UNL     1      24.863  41.797  18.750  1.00  0.00     0.212 HD
ENDBRANCH   6  17
ENDBRANCH   5   6
ENDBRANCH   4   5
ENDBRANCH   2   4
ENDBRANCH   1   2
BRANCH   1  19
HETATM   19  C9  UNL     1      24.549  44.446  20.972  1.00  0.00     0.091 C 
BRANCH  19  20
HETATM   20  C10 UNL     1      24.077  45.231  22.146  1.00  0.00     0.269 C 
HETATM   21  N3  UNL     1      24.979  45.514  23.189  1.00  0.00    -0.057 NA
HETATM   22  O6  UNL     1      22.911  45.672  22.284  1.00  0.00    -0.271 OA
ENDBRANCH  19  20
BRANCH  19  23
HETATM   23  C11 UNL     1      24.305  45.177  19.735  1.00  0.00     0.075 A 
HETATM   24  C12 UNL     1      25.103  46.301  19.431  1.00  0.00     0.176 A 
HETATM   25  O7  UNL     1      24.704  46.762  18.292  1.00  0.00    -0.289 OA
HETATM   26  C13 UNL     1      23.716  46.050  17.811  1.00  0.00     0.226 A 
HETATM   27  N5  UNL     1      23.476  45.080  18.695  1.00  0.00    -0.319 N 
ATOM     28  H5  UNL     1      22.757  44.365  18.591  1.00  0.00     0.169 HD
BRANCH  26  29
HETATM   29  N4  UNL     1      23.040  46.272  16.586  1.00  0.00    -0.344 N 
HETATM   30  C14 UNL     1      22.460  47.494  16.095  1.00  0.00     0.129 C 
HETATM   31  C15 UNL     1      22.981  47.494  14.649  1.00  0.00     0.053 C 
HETATM   32  C16 UNL     1      23.240  46.035  14.317  1.00  0.00     0.137 C 
HETATM   33  C17 UNL     1      22.779  45.284  15.561  1.00  0.00     0.158 C 
BRANCH  32  34
HETATM   34  O8  UNL     1      24.606  45.773  14.180  1.00  0.00    -0.394 OA
ATOM     35  H8  UNL     1      24.938  45.256  14.905  1.00  0.00     0.210 HD
ENDBRANCH  32  34
ENDBRANCH  26  29
ENDBRANCH  19  23
ENDBRANCH   1  19
BRANCH   1  36
HETATM   36  N6  UNL     1      24.994  42.225  22.100  1.00  0.00    -0.258 N 
HETATM   37  C18 UNL     1      24.607  42.046  23.390  1.00  0.00     0.036 A 
HETATM   38  C19 UNL     1      25.386  41.270  24.232  1.00  0.00     0.038 A 
HETATM   39  C24 UNL     1      23.433  42.483  24.173  1.00  0.00     0.090 C 
HETATM   40  C20 UNL     1      26.539  40.676  23.782  1.00  0.00     0.284 A 
HETATM   41  C22 UNL     1      24.790  41.238  25.592  1.00  0.00     0.078 C 
HETATM   42  O9  UNL     1      27.283  39.955  24.526  1.00  0.00    -0.265 OA
HETATM   43  N7  UNL     1      26.929  40.847  22.506  1.00  0.00    -0.133 N 
HETATM   44  C21 UNL     1      26.164  41.593  21.736  1.00  0.00     0.361 A 
HETATM   45  O11 UNL     1      26.572  41.725  20.525  1.00  0.00    -0.243 OA
HETATM   46  C23 UNL     1      23.333  41.365  25.233  1.00  0.00     0.128 C 
BRANCH  43  47
HETATM   47  O10 UNL     1      28.091  40.267  22.017  1.00  0.00    -0.276 OA
ATOM     48  H10 UNL     1      28.508  40.580  21.223  1.00  0.00     0.245 HD
ENDBRANCH  43  47
BRANCH  46  49
HETATM   49  O12 UNL     1      22.619  41.877  26.319  1.00  0.00    -0.395 OA
ATOM     50  H12 UNL     1      22.211  41.168  26.801  1.00  0.00     0.210 HD
ENDBRANCH  46  49
ENDBRANCH   1  36
TORSDOF 17
ENDMDL
MODEL 4
REMARK VINA RESULT: -8.931803034      2.179      7.791
REMARK  17 active torsions:
REMARK  status: ('A' for Active; 'I' for Inactive)
REMARK    1  A    between atoms: C2_2  and  O1_4 
REMARK    2  A    between atoms: C2_2  and  C4_6 
REMARK    3  A    between atoms: C4_6  and  N1_7 
REMARK       I    between atoms: N1_7  and  C5_9 
REMARK    4  A    between atoms: C5_9  and  C6_11 
REMARK    5  A    between atoms: C6_11  and  O3_12 
REMARK    6  A    between atoms: C6_11  and  N2_14 
REMARK    7  A    between atoms: N2_14  and  O4_15 
REMARK    8  A    between atoms: O4_15  and  C7_16 
REMARK    9  A    between atoms: C7_16  and  C8_18 
REMARK   10  A    between atoms: C8_18  and  C9_19 
REMARK   11  A    between atoms: C8_18  and  N6_36 
REMARK   12  A    between atoms: C9_19  and  C10_20 
REMARK   13  A    between atoms: C9_19  and  C11_23 
REMARK   14  A    between atoms: C13_26  and  N4_27 
REMARK   15  A    between atoms: C16_30  and  O8_31 
REMARK   16  A    between atoms: N7_41  and  O10_42 
REMARK   17  A    between atoms: C23_47  and  O12_48 
ROOT
HETATM    1  C8  UNL     1      23.093  45.293  17.074  1.00  0.00     0.138 C 
ENDROOT
BRANCH   1   2
HETATM    2  C7  UNL     1      23.124  43.833  16.855  1.00  0.00     0.330 C 
HETATM    3  O5  UNL     1      22.503  43.295  15.937  1.00  0.00    -0.256 OA
BRANCH   2   4
HETATM    4  O4  UNL     1      23.870  43.038  17.691  1.00  0.00    -0.199 OA
BRANCH   4   5
HETATM    5  N2  UNL     1      23.432  41.793  18.115  1.00  0.00    -0.049 NA
BRANCH   5   6
HETATM    6  C6  UNL     1      24.045  41.394  19.337  1.00  0.00     0.331 C 
BRANCH   6   7
HETATM    7  C5  UNL     1      24.825  40.153  19.145  1.00  0.00     0.264 C 
HETATM    8  N1  UNL     1      24.340  39.033  18.420  1.00  0.00    -0.355 N 
ATOM      9  H1  UNL     1      23.410  39.070  18.002  1.00  0.00     0.162 HD
HETATM   10  O2  UNL     1      25.975  40.066  19.641  1.00  0.00    -0.269 OA
BRANCH   8  11
HETATM   11  C4  UNL     1      25.138  37.850  18.266  1.00  0.00     0.159 C 
BRANCH  11  12
HETATM   12  C2  UNL     1      24.292  36.697  17.840  1.00  0.00     0.066 C 
HETATM   13  C1  UNL     1      24.624  36.258  16.419  1.00  0.00     0.047 C 
HETATM   14  C3  UNL     1      24.619  35.524  18.755  1.00  0.00     0.047 C 
BRANCH  12  15
HETATM   15  O1  UNL     1      22.936  36.923  17.892  1.00  0.00    -0.389 OA
ATOM     16  H1  UNL     1      22.590  36.400  18.605  1.00  0.00     0.210 HD
ENDBRANCH  12  15
ENDBRANCH  11  12
ENDBRANCH   8  11
ENDBRANCH   6   7
BRANCH   6  17
HETATM   17  O3  UNL     1      23.173  41.239  20.413  1.00  0.00    -0.369 OA
ATOM     18  H3  UNL     1      22.321  40.962  20.097  1.00  0.00     0.212 HD
ENDBRANCH   6  17
ENDBRANCH   5   6
ENDBRANCH   4   5
ENDBRANCH   2   4
ENDBRANCH   1   2
BRANCH   1  19
HETATM   19  C9  UNL     1      23.718  45.832  18.263  1.00  0.00     0.091 C 
BRANCH  19  20
HETATM   20  C10 UNL     1      25.120  46.254  17.993  1.00  0.00     0.269 C 
HETATM   21  N3  UNL     1      26.179  45.437  18.431  1.00  0.00    -0.057 NA
HETATM   22  O6  UNL     1      25.442  47.306  17.389  1.00  0.00    -0.271 OA
ENDBRANCH  19  20
BRANCH  19  23
HETATM   23  C11 UNL     1      23.611  45.219  19.581  1.00  0.00     0.075 A 
HETATM   24  C12 UNL     1      22.332  44.933  20.105  1.00  0.00     0.176 A 
HETATM   25  O7  UNL     1      22.503  44.390  21.265  1.00  0.00    -0.289 OA
HETATM   26  C13 UNL     1      23.774  44.289  21.560  1.00  0.00     0.226 A 
HETATM   27  N5  UNL     1      24.449  44.795  20.528  1.00  0.00    -0.319 N 
ATOM     28  H5  UNL     1      25.466  44.852  20.470  1.00  0.00     0.169 HD
BRANCH  26  29
HETATM   29  N4  UNL     1      24.319  43.743  22.749  1.00  0.00    -0.344 N 
HETATM   30  C14 UNL     1      24.206  44.243  24.094  1.00  0.00     0.129 C 
HETATM   31  C15 UNL     1      23.867  42.948  24.850  1.00  0.00     0.053 C 
HETATM   32  C16 UNL     1      24.435  41.826  23.997  1.00  0.00     0.137 C 
HETATM   33  C17 UNL     1      25.131  42.549  22.849  1.00  0.00     0.158 C 
BRANCH  32  34
HETATM   34  O8  UNL     1      23.422  41.054  23.422  1.00  0.00    -0.394 OA
ATOM     35  H8  UNL     1      23.758  40.232  23.083  1.00  0.00     0.210 HD
ENDBRANCH  32  34
ENDBRANCH  26  29
ENDBRANCH  19  23
ENDBRANCH   1  19
BRANCH   1  36
HETATM   36  N6  UNL     1      22.947  46.078  15.866  1.00  0.00    -0.258 N 
HETATM   37  C18 UNL     1      23.553  45.785  14.685  1.00  0.00     0.036 A 
HETATM   38  C19 UNL     1      23.364  46.621  13.598  1.00  0.00     0.038 A 
HETATM   39  C24 UNL     1      24.411  44.673  14.227  1.00  0.00     0.090 C 
HETATM   40  C20 UNL     1      22.569  47.737  13.693  1.00  0.00     0.284 A 
HETATM   41  C22 UNL     1      24.140  46.126  12.433  1.00  0.00     0.078 C 
HETATM   42  O9  UNL     1      22.369  48.531  12.715  1.00  0.00    -0.265 OA
HETATM   43  N7  UNL     1      21.963  48.033  14.856  1.00  0.00    -0.133 N 
HETATM   44  C21 UNL     1      22.169  47.216  15.869  1.00  0.00     0.361 A 
HETATM   45  O11 UNL     1      21.568  47.535  16.959  1.00  0.00    -0.243 OA
HETATM   46  C23 UNL     1      24.104  44.647  12.714  1.00  0.00     0.128 C 
BRANCH  43  47
HETATM   47  O10 UNL     1      21.157  49.154  14.992  1.00  0.00    -0.276 OA
ATOM     48  H10 UNL     1      21.434  49.909  15.499  1.00  0.00     0.245 HD
ENDBRANCH  43  47
BRANCH  46  49
HETATM   49  O12 UNL     1      25.175  44.016  12.078  1.00  0.00    -0.395 OA
ATOM     50  H12 UNL     1      24.968  43.101  11.928  1.00  0.00     0.210 HD
ENDBRANCH  46  49
ENDBRANCH   1  36
TORSDOF 17
ENDMDL
MODEL 5
REMARK VINA RESULT: -8.780859814      2.591      7.833
REMARK  17 active torsions:
REMARK  status: ('A' for Active; 'I' for Inactive)
REMARK    1  A    between atoms: C2_2  and  O1_4 
REMARK    2  A    between atoms: C2_2  and  C4_6 
REMARK    3  A    between atoms: C4_6  and  N1_7 
REMARK       I    between atoms: N1_7  and  C5_9 
REMARK    4  A    between atoms: C5_9  and  C6_11 
REMARK    5  A    between atoms: C6_11  and  O3_12 
REMARK    6  A    between atoms: C6_11  and  N2_14 
REMARK    7  A    between atoms: N2_14  and  O4_15 
REMARK    8  A    between atoms: O4_15  and  C7_16 
REMARK    9  A    between atoms: C7_16  and  C8_18 
REMARK   10  A    between atoms: C8_18  and  C9_19 
REMARK   11  A    between atoms: C8_18  and  N6_36 
REMARK   12  A    between atoms: C9_19  and  C10_20 
REMARK   13  A    between atoms: C9_19  and  C11_23 
REMARK   14  A    between atoms: C13_26  and  N4_27 
REMARK   15  A    between atoms: C16_30  and  O8_31 
REMARK   16  A    between atoms: N7_41  and  O10_42 
REMARK   17  A    between atoms: C23_47  and  O12_48 
ROOT
HETATM    1  C8  UNL     1      23.215  44.868  17.239  1.00  0.00     0.138 C 
ENDROOT
BRANCH   1   2
HETATM    2  C7  UNL     1      23.206  43.391  17.272  1.00  0.00     0.330 C 
HETATM    3  O5  UNL     1      22.637  42.720  16.408  1.00  0.00    -0.256 OA
BRANCH   2   4
HETATM    4  O4  UNL     1      23.854  42.731  18.287  1.00  0.00    -0.199 OA
BRANCH   4   5
HETATM    5  N2  UNL     1      24.210  41.394  18.193  1.00  0.00    -0.049 NA
BRANCH   5   6
HETATM    6  C6  UNL     1      23.912  40.673  19.384  1.00  0.00     0.331 C 
BRANCH   6   7
HETATM    7  C5  UNL     1      25.027  40.780  20.348  1.00  0.00     0.264 C 
HETATM    8  N1  UNL     1      24.881  41.328  21.650  1.00  0.00    -0.355 N 
ATOM      9  H1  UNL     1      23.967  41.667  21.952  1.00  0.00     0.162 HD
HETATM   10  O2  UNL     1      26.168  40.374  20.018  1.00  0.00    -0.269 OA
BRANCH   8  11
HETATM   11  C4  UNL     1      25.999  41.413  22.546  1.00  0.00     0.159 C 
BRANCH  11  12
HETATM   12  C2  UNL     1      26.016  40.246  23.476  1.00  0.00     0.066 C 
HETATM   13  C1  UNL     1      26.910  40.507  24.683  1.00  0.00     0.047 C 
HETATM   14  C3  UNL     1      24.600  40.061  24.005  1.00  0.00     0.047 C 
BRANCH  12  15
HETATM   15  O1  UNL     1      26.427  39.061  22.912  1.00  0.00    -0.389 OA
ATOM     16  H1  UNL     1      26.669  39.246  22.012  1.00  0.00     0.210 HD
ENDBRANCH  12  15
ENDBRANCH  11  12
ENDBRANCH   8  11
ENDBRANCH   6   7
BRANCH   6  17
HETATM   17  O3  UNL     1      23.581  39.331  19.196  1.00  0.00    -0.369 OA
ATOM     18  H3  UNL     1      23.580  39.129  18.268  1.00  0.00     0.212 HD
ENDBRANCH   6  17
ENDBRANCH   5   6
ENDBRANCH   4   5
ENDBRANCH   2   4
ENDBRANCH   1   2
BRANCH   1  19
HETATM   19  C9  UNL     1      23.717  45.585  18.392  1.00  0.00     0.091 C 
BRANCH  19  20
HETATM   20  C10 UNL     1      25.158  45.926  18.230  1.00  0.00     0.269 C 
HETATM   21  N3  UNL     1      25.513  47.219  17.801  1.00  0.00    -0.057 NA
HETATM   22  O6  UNL     1      26.105  45.134  18.453  1.00  0.00    -0.271 OA
ENDBRANCH  19  20
BRANCH  19  23
HETATM   23  C11 UNL     1      23.431  45.205  19.769  1.00  0.00     0.075 A 
HETATM   24  C12 UNL     1      22.087  45.080  20.183  1.00  0.00     0.176 A 
HETATM   25  O7  UNL     1      22.097  44.728  21.425  1.00  0.00    -0.289 OA
HETATM   26  C13 UNL     1      23.320  44.608  21.876  1.00  0.00     0.226 A 
HETATM   27  N5  UNL     1      24.134  44.899  20.860  1.00  0.00    -0.319 N 
ATOM     28  H5  UNL     1      25.152  44.889  20.911  1.00  0.00     0.169 HD
BRANCH  26  29
HETATM   29  N4  UNL     1      23.699  44.237  23.191  1.00  0.00    -0.344 N 
HETATM   30  C14 UNL     1      24.854  44.657  23.939  1.00  0.00     0.129 C 
HETATM   31  C15 UNL     1      24.210  44.981  25.296  1.00  0.00     0.053 C 
HETATM   32  C16 UNL     1      22.947  44.139  25.352  1.00  0.00     0.137 C 
HETATM   33  C17 UNL     1      22.986  43.327  24.061  1.00  0.00     0.158 C 
BRANCH  32  34
HETATM   34  O8  UNL     1      21.797  44.930  25.287  1.00  0.00    -0.394 OA
ATOM     35  H8  UNL     1      21.225  44.777  26.030  1.00  0.00     0.210 HD
ENDBRANCH  32  34
ENDBRANCH  26  29
ENDBRANCH  19  23
ENDBRANCH   1  19
BRANCH   1  36
HETATM   36  N6  UNL     1      23.250  45.438  15.909  1.00  0.00    -0.258 N 
HETATM   37  C18 UNL     1      22.459  46.463  15.495  1.00  0.00     0.036 A 
HETATM   38  C19 UNL     1      22.559  46.915  14.190  1.00  0.00     0.038 A 
HETATM   39  C24 UNL     1      21.458  47.315  16.169  1.00  0.00     0.090 C 
HETATM   40  C20 UNL     1      23.447  46.346  13.310  1.00  0.00     0.284 A 
HETATM   41  C22 UNL     1      21.586  48.012  13.955  1.00  0.00     0.078 C 
HETATM   42  O9  UNL     1      23.568  46.734  12.101  1.00  0.00    -0.265 OA
HETATM   43  N7  UNL     1      24.234  45.333  13.712  1.00  0.00    -0.133 N 
HETATM   44  C21 UNL     1      24.110  44.929  14.960  1.00  0.00     0.361 A 
HETATM   45  O11 UNL     1      24.884  43.962  15.301  1.00  0.00    -0.243 OA
HETATM   46  C23 UNL     1      21.542  48.612  15.336  1.00  0.00     0.128 C 
BRANCH  43  47
HETATM   47  O10 UNL     1      25.140  44.731  12.850  1.00  0.00    -0.276 OA
ATOM     48  H10 UNL     1      25.849  44.187  13.173  1.00  0.00     0.245 HD
ENDBRANCH  43  47
BRANCH  46  49
HETATM   49  O12 UNL     1      20.343  49.306  15.514  1.00  0.00    -0.395 OA
ATOM     50  H12 UNL     1      20.506  50.117  15.981  1.00  0.00     0.210 HD
ENDBRANCH  46  49
ENDBRANCH   1  36
TORSDOF 17
ENDMDL
