MODEL 1
REMARK VINA RESULT: -6.914959321      0.000      0.000
REMARK  16 active torsions:
REMARK  status: ('A' for Active; 'I' for Inactive)
REMARK    1  A    between atoms: N2_4  and  C1_6 
REMARK    2  A    between atoms: C1_6  and  C2_7 
REMARK    3  A    between atoms: C2_7  and  O1_8 
REMARK    4  A    between atoms: O1_8  and  C3_9 
REMARK    5  A    between atoms: C5_11  and  N3_12 
REMARK    6  A    between atoms: C9_18  and  O2_19 
REMARK    7  A    between atoms: C10_21  and  O3_22 
REMARK    8  A    between atoms: C10_21  and  S1_24 
REMARK    9  A    between atoms: S1_24  and  S2_25 
REMARK   10  A    between atoms: S2_25  and  C11_26 
REMARK   11  A    between atoms: C11_26  and  C12_27 
REMARK   12  A    between atoms: C12_27  and  N5_28 
REMARK   13  A    between atoms: C14_33  and  O4_34 
REMARK   14  A    between atoms: C15_36  and  O5_37 
REMARK   15  A    between atoms: C16_39  and  N8_40 
REMARK   16  A    between atoms: C18_46  and  N11_47 
ROOT
HETATM    1  C1  UNL     1      23.876  38.206   9.795  1.00  0.00     0.119 C 
HETATM    2  C14 UNL     1      24.715  36.952   9.587  1.00  0.00     0.182 C 
HETATM    3  C15 UNL     1      24.260  36.897   8.135  1.00  0.00     0.177 C 
HETATM    4  C16 UNL     1      23.198  37.882   8.500  1.00  0.00     0.177 C 
ENDROOT
BRANCH   1   5
HETATM    5  N2  UNL     1      24.640  39.407   9.852  1.00  0.00    -0.326 N 
HETATM    6  N1  UNL     1      25.342  39.575  10.878  1.00  0.00    -0.348 N 
ATOM      7  H12 UNL     1      25.355  38.878  11.622  1.00  0.00     0.176 HD
ATOM      8  H11 UNL     1      25.890  40.435  10.919  1.00  0.00     0.176 HD
ATOM      9  H2  UNL     1      24.616  40.094   9.099  1.00  0.00     0.180 HD
ENDBRANCH   1   5
BRANCH   1  10
HETATM   10  C2  UNL     1      22.984  38.061  11.019  1.00  0.00     0.206 C 
BRANCH  10  11
HETATM   11  O1  UNL     1      22.159  39.172  11.175  1.00  0.00    -0.379 OA
BRANCH  11  12
HETATM   12  C3  UNL     1      22.168  39.666  12.458  1.00  0.00     0.172 C 
HETATM   13  C4  UNL     1      21.544  38.600  13.367  1.00  0.00     0.066 C 
HETATM   14  C5  UNL     1      20.115  38.977  13.577  1.00  0.00     0.142 C 
HETATM   15  C9  UNL     1      19.881  40.103  12.573  1.00  0.00     0.191 C 
HETATM   16  C10 UNL     1      21.213  40.812  12.688  1.00  0.00     0.169 C 
BRANCH  14  17
HETATM   17  N3  UNL     1      19.194  37.893  13.416  1.00  0.00    -0.296 N 
HETATM   18  C6  UNL     1      19.413  36.568  13.393  1.00  0.00     0.112 A 
HETATM   19  C7  UNL     1      18.201  35.946  13.212  1.00  0.00     0.037 A 
HETATM   20  C8  UNL     1      17.241  36.932  13.125  1.00  0.00     0.108 A 
HETATM   21  N4  UNL     1      17.876  38.093  13.252  1.00  0.00    -0.310 N 
ATOM     22  H4  UNL     1      17.425  39.008  13.228  1.00  0.00     0.186 HD
ENDBRANCH  14  17
BRANCH  15  23
HETATM   23  O2  UNL     1      19.764  39.499  11.328  1.00  0.00    -0.389 OA
ATOM     24  H2  UNL     1      20.594  39.068  11.161  1.00  0.00     0.210 HD
ENDBRANCH  15  23
BRANCH  16  25
HETATM   25  O3  UNL     1      21.354  41.190  14.029  1.00  0.00    -0.373 OA
ATOM     26  H3  UNL     1      21.804  42.027  14.030  1.00  0.00     0.212 HD
ENDBRANCH  16  25
BRANCH  16  27
HETATM   27  S1  UNL     1      21.416  42.182  11.582  1.00  0.00    -0.054 SA
BRANCH  27  28
HETATM   28  S2  UNL     1      23.449  42.855  11.749  1.00  0.00    -0.093 SA
BRANCH  28  29
HETATM   29  C11 UNL     1      23.534  44.661  11.728  1.00  0.00     0.106 C 
BRANCH  29  30
HETATM   30  C12 UNL     1      23.411  45.265  13.109  1.00  0.00     0.133 C 
BRANCH  30  31
HETATM   31  N5  UNL     1      22.009  45.543  13.333  1.00  0.00    -0.366 N 
HETATM   32  C13 UNL     1      21.350  44.903  14.236  1.00  0.00     0.196 C 
HETATM   33  N6  UNL     1      22.002  43.930  15.003  1.00  0.00    -0.067 NA
HETATM   34  N7  UNL     1      19.975  45.178  14.454  1.00  0.00    -0.067 NA
ATOM     35  H5  UNL     1      21.539  46.252  12.772  1.00  0.00     0.161 HD
ENDBRANCH  30  31
ENDBRANCH  29  30
ENDBRANCH  28  29
ENDBRANCH  27  28
ENDBRANCH  16  27
ENDBRANCH  11  12
ENDBRANCH  10  11
ENDBRANCH   1  10
BRANCH   2  36
HETATM   36  O4  UNL     1      26.063  37.096   9.783  1.00  0.00    -0.390 OA
ATOM     37  H4  UNL     1      26.559  37.408   9.036  1.00  0.00     0.210 HD
ENDBRANCH   2  36
BRANCH   4  38
HETATM   38  N8  UNL     1      22.933  38.964   7.605  1.00  0.00    -0.250 N 
HETATM   39  N9  UNL     1      23.712  39.321   6.570  1.00  0.00    -0.238 N 
HETATM   40  N10 UNL     1      23.208  40.354   5.933  1.00  0.00    -0.279 N 
ATOM     41  H9  UNL     1      24.582  38.852   6.314  1.00  0.00     0.208 HD
HETATM   42  C17 UNL     1      22.056  40.733   6.526  1.00  0.00     0.139 A 
ATOM     43  H10 UNL     1      23.623  40.801   5.115  1.00  0.00     0.189 HD
HETATM   44  C18 UNL     1      21.132  41.725   6.292  1.00  0.00     0.132 A 
HETATM   45  C20 UNL     1      21.909  39.828   7.587  1.00  0.00     0.157 A 
HETATM   46  N12 UNL     1      20.078  41.806   7.109  1.00  0.00    -0.337 N 
HETATM   47  C19 UNL     1      19.932  40.938   8.132  1.00  0.00     0.183 A 
ATOM     48  H12 UNL     1      19.377  42.531   6.958  1.00  0.00     0.168 HD
HETATM   49  N13 UNL     1      20.838  39.973   8.353  1.00  0.00    -0.335 N 
ATOM     50  H13 UNL     1      20.698  39.333   9.135  1.00  0.00     0.168 HD
BRANCH  44  51
HETATM   51  N11 UNL     1      21.260  42.555   5.323  1.00  0.00    -0.383 N 
ATOM     52 2H11 UNL     1      21.901  43.344   5.408  1.00  0.00     0.157 HD
ATOM     53 1H11 UNL     1      20.735  42.456   4.454  1.00  0.00     0.157 HD
ENDBRANCH  44  51
ENDBRANCH   4  38
BRANCH   3  54
HETATM   54  O5  UNL     1      23.772  35.612   7.791  1.00  0.00    -0.391 OA
ATOM     55  H5  UNL     1      23.378  35.608   6.926  1.00  0.00     0.210 HD
ENDBRANCH   3  54
TORSDOF 16
ENDMDL
MODEL 2
REMARK VINA RESULT: -6.399385031      3.722      7.682
REMARK  16 active torsions:
REMARK  status: ('A' for Active; 'I' for Inactive)
REMARK    1  A    between atoms: N2_4  and  C1_6 
REMARK    2  A    between atoms: C1_6  and  C2_7 
REMARK    3  A    between atoms: C2_7  and  O1_8 
REMARK    4  A    between atoms: O1_8  and  C3_9 
REMARK    5  A    between atoms: C5_11  and  N3_12 
REMARK    6  A    between atoms: C9_18  and  O2_19 
REMARK    7  A    between atoms: C10_21  and  O3_22 
REMARK    8  A    between atoms: C10_21  and  S1_24 
REMARK    9  A    between atoms: S1_24  and  S2_25 
REMARK   10  A    between atoms: S2_25  and  C11_26 
REMARK   11  A    between atoms: C11_26  and  C12_27 
REMARK   12  A    between atoms: C12_27  and  N5_28 
REMARK   13  A    between atoms: C14_33  and  O4_34 
REMARK   14  A    between atoms: C15_36  and  O5_37 
REMARK   15  A    between atoms: C16_39  and  N8_40 
REMARK   16  A    between atoms: C18_46  and  N11_47 
ROOT
HETATM    1  C1  UNL     1      20.728  36.902  14.807  1.00  0.00     0.119 C 
HETATM    2  C14 UNL     1      19.314  36.336  14.827  1.00  0.00     0.182 C 
HETATM    3  C15 UNL     1      19.771  35.245  15.784  1.00  0.00     0.177 C 
HETATM    4  C16 UNL     1      21.175  35.618  15.435  1.00  0.00     0.177 C 
ENDROOT
BRANCH   1   5
HETATM    5  N2  UNL     1      20.882  38.093  15.572  1.00  0.00    -0.326 N 
HETATM    6  N1  UNL     1      19.966  38.945  15.474  1.00  0.00    -0.348 N 
ATOM      7  H12 UNL     1      19.160  38.777  14.872  1.00  0.00     0.176 HD
ATOM      8  H11 UNL     1      20.076  39.798  16.022  1.00  0.00     0.176 HD
ATOM      9  H2  UNL     1      21.694  38.246  16.169  1.00  0.00     0.180 HD
ENDBRANCH   1   5
BRANCH   1  10
HETATM   10  C2  UNL     1      21.211  37.098  13.378  1.00  0.00     0.206 C 
BRANCH  10  11
HETATM   11  O1  UNL     1      21.307  38.450  13.061  1.00  0.00    -0.379 OA
BRANCH  11  12
HETATM   12  C3  UNL     1      21.069  38.703  11.730  1.00  0.00     0.172 C 
HETATM   13  C4  UNL     1      21.950  37.748  10.915  1.00  0.00     0.066 C 
HETATM   14  C5  UNL     1      23.170  38.506  10.509  1.00  0.00     0.142 C 
HETATM   15  C9  UNL     1      23.087  39.797  11.320  1.00  0.00     0.191 C 
HETATM   16  C10 UNL     1      21.594  40.035  11.248  1.00  0.00     0.169 C 
BRANCH  14  17
HETATM   17  N3  UNL     1      24.396  37.799  10.720  1.00  0.00    -0.296 N 
HETATM   18  C6  UNL     1      25.558  37.863  10.048  1.00  0.00     0.112 A 
HETATM   19  C7  UNL     1      26.433  36.984  10.640  1.00  0.00     0.037 A 
HETATM   20  C8  UNL     1      25.768  36.387  11.690  1.00  0.00     0.108 A 
HETATM   21  N4  UNL     1      24.543  36.902  11.707  1.00  0.00    -0.310 N 
ATOM     22  H4  UNL     1      23.816  36.650  12.378  1.00  0.00     0.186 HD
ENDBRANCH  14  17
BRANCH  15  23
HETATM   23  O2  UNL     1      23.460  39.468  12.617  1.00  0.00    -0.389 OA
ATOM     24  H2  UNL     1      22.669  39.179  13.057  1.00  0.00     0.210 HD
ENDBRANCH  15  23
BRANCH  16  25
HETATM   25  O3  UNL     1      21.265  40.129   9.891  1.00  0.00    -0.373 OA
ATOM     26  H3  UNL     1      21.852  40.773   9.512  1.00  0.00     0.212 HD
ENDBRANCH  16  25
BRANCH  16  27
HETATM   27  S1  UNL     1      21.026  41.436  12.173  1.00  0.00    -0.054 SA
BRANCH  27  28
HETATM   28  S2  UNL     1      21.794  43.199  11.215  1.00  0.00    -0.093 SA
BRANCH  28  29
HETATM   29  C11 UNL     1      23.471  43.563  11.783  1.00  0.00     0.106 C 
BRANCH  29  30
HETATM   30  C12 UNL     1      23.495  44.537  12.940  1.00  0.00     0.133 C 
BRANCH  30  31
HETATM   31  N5  UNL     1      22.137  44.989  13.150  1.00  0.00    -0.366 N 
HETATM   32  C13 UNL     1      21.503  44.683  14.228  1.00  0.00     0.196 C 
HETATM   33  N6  UNL     1      22.140  43.903  15.202  1.00  0.00    -0.067 NA
HETATM   34  N7  UNL     1      20.171  45.128  14.432  1.00  0.00    -0.067 NA
ATOM     35  H5  UNL     1      21.678  45.556  12.437  1.00  0.00     0.161 HD
ENDBRANCH  30  31
ENDBRANCH  29  30
ENDBRANCH  28  29
ENDBRANCH  27  28
ENDBRANCH  16  27
ENDBRANCH  11  12
ENDBRANCH  10  11
ENDBRANCH   1  10
BRANCH   2  36
HETATM   36  O4  UNL     1      18.341  37.175  15.301  1.00  0.00    -0.390 OA
ATOM     37  H4  UNL     1      18.551  38.102  15.287  1.00  0.00     0.210 HD
ENDBRANCH   2  36
BRANCH   4  38
HETATM   38  N8  UNL     1      22.142  35.697  16.483  1.00  0.00    -0.250 N 
HETATM   39  N9  UNL     1      21.859  35.865  17.786  1.00  0.00    -0.238 N 
HETATM   40  N10 UNL     1      22.957  35.900  18.508  1.00  0.00    -0.279 N 
ATOM     41  H9  UNL     1      20.916  35.953  18.166  1.00  0.00     0.208 HD
HETATM   42  C17 UNL     1      24.032  35.757  17.703  1.00  0.00     0.139 A 
ATOM     43  H10 UNL     1      22.992  36.018  19.520  1.00  0.00     0.189 HD
HETATM   44  C18 UNL     1      25.391  35.722  17.908  1.00  0.00     0.132 A 
HETATM   45  C20 UNL     1      23.478  35.630  16.421  1.00  0.00     0.157 A 
HETATM   46  N12 UNL     1      26.182  35.560  16.843  1.00  0.00    -0.337 N 
HETATM   47  C19 UNL     1      25.655  35.438  15.607  1.00  0.00     0.183 A 
ATOM     48  H12 UNL     1      27.194  35.529  16.965  1.00  0.00     0.168 HD
HETATM   49  N13 UNL     1      24.328  35.474  15.416  1.00  0.00    -0.335 N 
ATOM     50  H13 UNL     1      23.962  35.378  14.469  1.00  0.00     0.168 HD
BRANCH  44  51
HETATM   51  N11 UNL     1      25.903  35.837  19.078  1.00  0.00    -0.383 N 
ATOM     52 2H11 UNL     1      25.488  35.344  19.869  1.00  0.00     0.157 HD
ATOM     53 1H11 UNL     1      26.726  36.415  19.252  1.00  0.00     0.157 HD
ENDBRANCH  44  51
ENDBRANCH   4  38
BRANCH   3  54
HETATM   54  O5  UNL     1      19.378  33.960  15.335  1.00  0.00    -0.391 OA
ATOM     55  H5  UNL     1      19.034  33.989  14.450  1.00  0.00     0.210 HD
ENDBRANCH   3  54
TORSDOF 16
ENDMDL
MODEL 3
REMARK VINA RESULT: -6.346137523      3.731      7.731
REMARK  16 active torsions:
REMARK  status: ('A' for Active; 'I' for Inactive)
REMARK    1  A    between atoms: N2_4  and  C1_6 
REMARK    2  A    between atoms: C1_6  and  C2_7 
REMARK    3  A    between atoms: C2_7  and  O1_8 
REMARK    4  A    between atoms: O1_8  and  C3_9 
REMARK    5  A    between atoms: C5_11  and  N3_12 
REMARK    6  A    between atoms: C9_18  and  O2_19 
REMARK    7  A    between atoms: C10_21  and  O3_22 
REMARK    8  A    between atoms: C10_21  and  S1_24 
REMARK    9  A    between atoms: S1_24  and  S2_25 
REMARK   10  A    between atoms: S2_25  and  C11_26 
REMARK   11  A    between atoms: C11_26  and  C12_27 
REMARK   12  A    between atoms: C12_27  and  N5_28 
REMARK   13  A    between atoms: C14_33  and  O4_34 
REMARK   14  A    between atoms: C15_36  and  O5_37 
REMARK   15  A    between atoms: C16_39  and  N8_40 
REMARK   16  A    between atoms: C18_46  and  N11_47 
ROOT
HETATM    1  C1  UNL     1      20.691  36.899  14.795  1.00  0.00     0.119 C 
HETATM    2  C14 UNL     1      19.285  36.314  14.820  1.00  0.00     0.182 C 
HETATM    3  C15 UNL     1      19.761  35.229  15.775  1.00  0.00     0.177 C 
HETATM    4  C16 UNL     1      21.158  35.621  15.421  1.00  0.00     0.177 C 
ENDROOT
BRANCH   1   5
HETATM    5  N2  UNL     1      20.832  38.093  15.560  1.00  0.00    -0.326 N 
HETATM    6  N1  UNL     1      19.946  38.966  15.403  1.00  0.00    -0.348 N 
ATOM      7  H12 UNL     1      19.171  38.814  14.758  1.00  0.00     0.176 HD
ATOM      8  H11 UNL     1      20.046  39.821  15.951  1.00  0.00     0.176 HD
ATOM      9  H2  UNL     1      21.613  38.229  16.202  1.00  0.00     0.180 HD
ENDBRANCH   1   5
BRANCH   1  10
HETATM   10  C2  UNL     1      21.167  37.103  13.364  1.00  0.00     0.206 C 
BRANCH  10  11
HETATM   11  O1  UNL     1      21.493  38.435  13.127  1.00  0.00    -0.379 OA
BRANCH  11  12
HETATM   12  C3  UNL     1      21.217  38.830  11.839  1.00  0.00     0.172 C 
HETATM   13  C4  UNL     1      21.915  37.843  10.895  1.00  0.00     0.066 C 
HETATM   14  C5  UNL     1      23.201  38.471  10.469  1.00  0.00     0.142 C 
HETATM   15  C9  UNL     1      23.336  39.688  11.382  1.00  0.00     0.191 C 
HETATM   16  C10 UNL     1      21.886  40.120  11.428  1.00  0.00     0.169 C 
BRANCH  14  17
HETATM   17  N3  UNL     1      24.332  37.598  10.541  1.00  0.00    -0.296 N 
HETATM   18  C6  UNL     1      24.402  36.261  10.418  1.00  0.00     0.112 A 
HETATM   19  C7  UNL     1      25.718  35.895  10.568  1.00  0.00     0.037 A 
HETATM   20  C8  UNL     1      26.443  37.048  10.785  1.00  0.00     0.108 A 
HETATM   21  N4  UNL     1      25.575  38.054  10.762  1.00  0.00    -0.310 N 
ATOM     22  H4  UNL     1      25.819  39.036  10.895  1.00  0.00     0.186 HD
ENDBRANCH  14  17
BRANCH  15  23
HETATM   23  O2  UNL     1      23.734  39.203  12.621  1.00  0.00    -0.389 OA
ATOM     24  H2  UNL     1      23.347  39.778  13.270  1.00  0.00     0.210 HD
ENDBRANCH  15  23
BRANCH  16  25
HETATM   25  O3  UNL     1      21.497  40.371  10.108  1.00  0.00    -0.373 OA
ATOM     26  H3  UNL     1      20.610  40.708  10.144  1.00  0.00     0.212 HD
ENDBRANCH  16  25
BRANCH  16  27
HETATM   27  S1  UNL     1      21.563  41.497  12.495  1.00  0.00    -0.054 SA
BRANCH  27  28
HETATM   28  S2  UNL     1      21.879  43.290  11.355  1.00  0.00    -0.093 SA
BRANCH  28  29
HETATM   29  C11 UNL     1      23.337  44.181  11.945  1.00  0.00     0.106 C 
BRANCH  29  30
HETATM   30  C12 UNL     1      23.008  45.175  13.037  1.00  0.00     0.133 C 
BRANCH  30  31
HETATM   31  N5  UNL     1      23.910  44.917  14.138  1.00  0.00    -0.366 N 
HETATM   32  C13 UNL     1      23.502  44.292  15.187  1.00  0.00     0.196 C 
HETATM   33  N6  UNL     1      22.171  43.860  15.256  1.00  0.00    -0.067 NA
HETATM   34  N7  UNL     1      24.388  44.040  16.267  1.00  0.00    -0.067 NA
ATOM     35  H5  UNL     1      24.877  45.234  14.084  1.00  0.00     0.161 HD
ENDBRANCH  30  31
ENDBRANCH  29  30
ENDBRANCH  28  29
ENDBRANCH  27  28
ENDBRANCH  16  27
ENDBRANCH  11  12
ENDBRANCH  10  11
ENDBRANCH   1  10
BRANCH   2  36
HETATM   36  O4  UNL     1      18.303  37.140  15.298  1.00  0.00    -0.390 OA
ATOM     37  H4  UNL     1      17.999  36.955  16.179  1.00  0.00     0.210 HD
ENDBRANCH   2  36
BRANCH   4  38
HETATM   38  N8  UNL     1      22.128  35.714  16.466  1.00  0.00    -0.250 N 
HETATM   39  N9  UNL     1      21.849  35.896  17.767  1.00  0.00    -0.238 N 
HETATM   40  N10 UNL     1      22.949  35.941  18.485  1.00  0.00    -0.279 N 
ATOM     41  H9  UNL     1      20.907  35.988  18.148  1.00  0.00     0.208 HD
HETATM   42  C17 UNL     1      24.021  35.789  17.679  1.00  0.00     0.139 A 
ATOM     43  H10 UNL     1      22.987  36.071  19.496  1.00  0.00     0.189 HD
HETATM   44  C18 UNL     1      25.381  35.757  17.881  1.00  0.00     0.132 A 
HETATM   45  C20 UNL     1      23.465  35.647  16.400  1.00  0.00     0.157 A 
HETATM   46  N12 UNL     1      26.170  35.584  16.816  1.00  0.00    -0.337 N 
HETATM   47  C19 UNL     1      25.639  35.446  15.583  1.00  0.00     0.183 A 
ATOM     48  H12 UNL     1      27.182  35.555  16.936  1.00  0.00     0.168 HD
HETATM   49  N13 UNL     1      24.312  35.479  15.395  1.00  0.00    -0.335 N 
ATOM     50  H13 UNL     1      23.943  35.372  14.450  1.00  0.00     0.168 HD
BRANCH  44  51
HETATM   51  N11 UNL     1      25.897  35.887  19.048  1.00  0.00    -0.383 N 
ATOM     52 2H11 UNL     1      25.362  36.326  19.797  1.00  0.00     0.157 HD
ATOM     53 1H11 UNL     1      26.840  35.562  19.260  1.00  0.00     0.157 HD
ENDBRANCH  44  51
ENDBRANCH   4  38
BRANCH   3  54
HETATM   54  O5  UNL     1      19.385  33.939  15.328  1.00  0.00    -0.391 OA
ATOM     55  H5  UNL     1      20.032  33.284  15.563  1.00  0.00     0.210 HD
ENDBRANCH   3  54
TORSDOF 16
ENDMDL
MODEL 4
REMARK VINA RESULT: -6.289450658      4.641      9.260
REMARK  16 active torsions:
REMARK  status: ('A' for Active; 'I' for Inactive)
REMARK    1  A    between atoms: N2_4  and  C1_6 
REMARK    2  A    between atoms: C1_6  and  C2_7 
REMARK    3  A    between atoms: C2_7  and  O1_8 
REMARK    4  A    between atoms: O1_8  and  C3_9 
REMARK    5  A    between atoms: C5_11  and  N3_12 
REMARK    6  A    between atoms: C9_18  and  O2_19 
REMARK    7  A    between atoms: C10_21  and  O3_22 
REMARK    8  A    between atoms: C10_21  and  S1_24 
REMARK    9  A    between atoms: S1_24  and  S2_25 
REMARK   10  A    between atoms: S2_25  and  C11_26 
REMARK   11  A    between atoms: C11_26  and  C12_27 
REMARK   12  A    between atoms: C12_27  and  N5_28 
REMARK   13  A    between atoms: C14_33  and  O4_34 
REMARK   14  A    between atoms: C15_36  and  O5_37 
REMARK   15  A    between atoms: C16_39  and  N8_40 
REMARK   16  A    between atoms: C18_46  and  N11_47 
ROOT
HETATM    1  C1  UNL     1      20.893  36.964  14.873  1.00  0.00     0.119 C 
HETATM    2  C14 UNL     1      19.464  36.438  14.836  1.00  0.00     0.182 C 
HETATM    3  C15 UNL     1      19.859  35.317  15.787  1.00  0.00     0.177 C 
HETATM    4  C16 UNL     1      21.283  35.657  15.490  1.00  0.00     0.177 C 
ENDROOT
BRANCH   1   5
HETATM    5  N2  UNL     1      21.054  38.137  15.665  1.00  0.00    -0.326 N 
HETATM    6  N1  UNL     1      20.154  39.006  15.569  1.00  0.00    -0.348 N 
ATOM      7  H12 UNL     1      19.356  38.864  14.950  1.00  0.00     0.176 HD
ATOM      8  H11 UNL     1      20.269  39.846  16.136  1.00  0.00     0.176 HD
ATOM      9  H2  UNL     1      21.859  38.263  16.278  1.00  0.00     0.180 HD
ENDBRANCH   1   5
BRANCH   1  10
HETATM   10  C2  UNL     1      21.429  37.172  13.464  1.00  0.00     0.206 C 
BRANCH  10  11
HETATM   11  O1  UNL     1      21.249  38.488  13.048  1.00  0.00    -0.379 OA
BRANCH  11  12
HETATM   12  C3  UNL     1      21.160  38.606  11.680  1.00  0.00     0.172 C 
HETATM   13  C4  UNL     1      22.118  39.724  11.251  1.00  0.00     0.066 C 
HETATM   14  C5  UNL     1      21.306  40.966  11.087  1.00  0.00     0.142 C 
HETATM   15  C9  UNL     1      19.948  40.598  11.679  1.00  0.00     0.191 C 
HETATM   16  C10 UNL     1      19.848  39.169  11.190  1.00  0.00     0.169 C 
BRANCH  14  17
HETATM   17  N3  UNL     1      21.879  42.126  11.698  1.00  0.00    -0.296 N 
HETATM   18  C6  UNL     1      23.168  42.470  11.862  1.00  0.00     0.112 A 
HETATM   19  C7  UNL     1      23.199  43.681  12.510  1.00  0.00     0.037 A 
HETATM   20  C8  UNL     1      21.893  44.061  12.735  1.00  0.00     0.108 A 
HETATM   21  N4  UNL     1      21.125  43.100  12.232  1.00  0.00    -0.310 N 
ATOM     22  H4  UNL     1      20.105  43.102  12.250  1.00  0.00     0.186 HD
ENDBRANCH  14  17
BRANCH  15  23
HETATM   23  O2  UNL     1      20.104  40.623  13.060  1.00  0.00    -0.389 OA
ATOM     24  H2  UNL     1      20.954  41.013  13.225  1.00  0.00     0.210 HD
ENDBRANCH  15  23
BRANCH  16  25
HETATM   25  O3  UNL     1      19.927  39.215   9.793  1.00  0.00    -0.373 OA
ATOM     26  H3  UNL     1      19.053  39.411   9.477  1.00  0.00     0.212 HD
ENDBRANCH  16  25
BRANCH  16  27
HETATM   27  S1  UNL     1      18.410  38.298  11.750  1.00  0.00    -0.054 SA
BRANCH  27  28
HETATM   28  S2  UNL     1      17.148  37.963  10.044  1.00  0.00    -0.093 SA
BRANCH  28  29
HETATM   29  C11 UNL     1      17.587  36.422   9.209  1.00  0.00     0.106 C 
BRANCH  29  30
HETATM   30  C12 UNL     1      16.415  35.474   9.083  1.00  0.00     0.133 C 
BRANCH  30  31
HETATM   31  N5  UNL     1      15.384  36.163   8.337  1.00  0.00    -0.366 N 
HETATM   32  C13 UNL     1      14.330  35.536   7.942  1.00  0.00     0.196 C 
HETATM   33  N6  UNL     1      14.188  34.175   8.240  1.00  0.00    -0.067 NA
HETATM   34  N7  UNL     1      13.320  36.213   7.211  1.00  0.00    -0.067 NA
ATOM     35  H5  UNL     1      15.492  37.154   8.122  1.00  0.00     0.161 HD
ENDBRANCH  30  31
ENDBRANCH  29  30
ENDBRANCH  28  29
ENDBRANCH  27  28
ENDBRANCH  16  27
ENDBRANCH  11  12
ENDBRANCH  10  11
ENDBRANCH   1  10
BRANCH   2  36
HETATM   36  O4  UNL     1      18.500  37.295  15.293  1.00  0.00    -0.390 OA
ATOM     37  H4  UNL     1      18.241  37.182  16.201  1.00  0.00     0.210 HD
ENDBRANCH   2  36
BRANCH   4  38
HETATM   38  N8  UNL     1      22.217  35.690  16.571  1.00  0.00    -0.250 N 
HETATM   39  N9  UNL     1      21.894  35.824  17.869  1.00  0.00    -0.238 N 
HETATM   40  N10 UNL     1      22.969  35.822  18.626  1.00  0.00    -0.279 N 
ATOM     41  H9  UNL     1      20.941  35.916  18.220  1.00  0.00     0.208 HD
HETATM   42  C17 UNL     1      24.067  35.685  17.852  1.00  0.00     0.139 A 
ATOM     43  H10 UNL     1      22.973  35.910  19.643  1.00  0.00     0.189 HD
HETATM   44  C18 UNL     1      25.418  35.622  18.100  1.00  0.00     0.132 A 
HETATM   45  C20 UNL     1      23.554  35.604  16.550  1.00  0.00     0.157 A 
HETATM   46  N12 UNL     1      26.241  35.480  17.056  1.00  0.00    -0.337 N 
HETATM   47  C19 UNL     1      25.753  35.401  15.801  1.00  0.00     0.183 A 
ATOM     48  H12 UNL     1      27.248  35.429  17.210  1.00  0.00     0.168 HD
HETATM   49  N13 UNL     1      24.433  35.464  15.569  1.00  0.00    -0.335 N 
ATOM     50  H13 UNL     1      24.097  35.401  14.608  1.00  0.00     0.168 HD
BRANCH  44  51
HETATM   51  N11 UNL     1      25.894  35.695  19.288  1.00  0.00    -0.383 N 
ATOM     52 2H11 UNL     1      25.691  36.508  19.871  1.00  0.00     0.157 HD
ATOM     53 1H11 UNL     1      26.480  34.959  19.682  1.00  0.00     0.157 HD
ENDBRANCH  44  51
ENDBRANCH   4  38
BRANCH   3  54
HETATM   54  O5  UNL     1      19.447  34.052  15.302  1.00  0.00    -0.391 OA
ATOM     55  H5  UNL     1      18.572  34.087  14.931  1.00  0.00     0.210 HD
ENDBRANCH   3  54
TORSDOF 16
ENDMDL
MODEL 5
REMARK VINA RESULT: -6.283860254      3.868      7.873
REMARK  16 active torsions:
REMARK  status: ('A' for Active; 'I' for Inactive)
REMARK    1  A    between atoms: N2_4  and  C1_6 
REMARK    2  A    between atoms: C1_6  and  C2_7 
REMARK    3  A    between atoms: C2_7  and  O1_8 
REMARK    4  A    between atoms: O1_8  and  C3_9 
REMARK    5  A    between atoms: C5_11  and  N3_12 
REMARK    6  A    between atoms: C9_18  and  O2_19 
REMARK    7  A    between atoms: C10_21  and  O3_22 
REMARK    8  A    between atoms: C10_21  and  S1_24 
REMARK    9  A    between atoms: S1_24  and  S2_25 
REMARK   10  A    between atoms: S2_25  and  C11_26 
REMARK   11  A    between atoms: C11_26  and  C12_27 
REMARK   12  A    between atoms: C12_27  and  N5_28 
REMARK   13  A    between atoms: C14_33  and  O4_34 
REMARK   14  A    between atoms: C15_36  and  O5_37 
REMARK   15  A    between atoms: C16_39  and  N8_40 
REMARK   16  A    between atoms: C18_46  and  N11_47 
ROOT
HETATM    1  C1  UNL     1      20.741  36.853  14.777  1.00  0.00     0.119 C 
HETATM    2  C14 UNL     1      19.331  36.278  14.789  1.00  0.00     0.182 C 
HETATM    3  C15 UNL     1      19.788  35.192  15.752  1.00  0.00     0.177 C 
HETATM    4  C16 UNL     1      21.192  35.574  15.411  1.00  0.00     0.177 C 
ENDROOT
BRANCH   1   5
HETATM    5  N2  UNL     1      20.882  38.048  15.540  1.00  0.00    -0.326 N 
HETATM    6  N1  UNL     1      19.973  38.903  15.415  1.00  0.00    -0.348 N 
ATOM      7  H12 UNL     1      19.181  38.736  14.794  1.00  0.00     0.176 HD
ATOM      8  H11 UNL     1      20.073  39.759  15.962  1.00  0.00     0.176 HD
ATOM      9  H2  UNL     1      21.680  38.199  16.157  1.00  0.00     0.180 HD
ENDBRANCH   1   5
BRANCH   1  10
HETATM   10  C2  UNL     1      21.233  37.050  13.350  1.00  0.00     0.206 C 
BRANCH  10  11
HETATM   11  O1  UNL     1      21.413  38.399  13.062  1.00  0.00    -0.379 OA
BRANCH  11  12
HETATM   12  C3  UNL     1      21.060  38.720  11.772  1.00  0.00     0.172 C 
HETATM   13  C4  UNL     1      21.918  37.863  10.833  1.00  0.00     0.066 C 
HETATM   14  C5  UNL     1      23.065  38.708  10.386  1.00  0.00     0.142 C 
HETATM   15  C9  UNL     1      22.985  39.941  11.282  1.00  0.00     0.191 C 
HETATM   16  C10 UNL     1      21.481  40.103  11.339  1.00  0.00     0.169 C 
BRANCH  14  17
HETATM   17  N3  UNL     1      24.336  38.055  10.457  1.00  0.00    -0.296 N 
HETATM   18  C6  UNL     1      25.452  38.252   9.735  1.00  0.00     0.112 A 
HETATM   19  C7  UNL     1      26.405  37.370  10.187  1.00  0.00     0.037 A 
HETATM   20  C8  UNL     1      25.835  36.633  11.203  1.00  0.00     0.108 A 
HETATM   21  N4  UNL     1      24.587  37.073  11.338  1.00  0.00    -0.310 N 
ATOM     22  H4  UNL     1      23.915  36.714  12.017  1.00  0.00     0.186 HD
ENDBRANCH  14  17
BRANCH  15  23
HETATM   23  O2  UNL     1      23.474  39.554  12.524  1.00  0.00    -0.389 OA
ATOM     24  H2  UNL     1      22.899  38.864  12.834  1.00  0.00     0.210 HD
ENDBRANCH  15  23
BRANCH  16  25
HETATM   25  O3  UNL     1      21.043  40.262  10.019  1.00  0.00    -0.373 OA
ATOM     26  H3  UNL     1      20.907  39.389   9.670  1.00  0.00     0.212 HD
ENDBRANCH  16  25
BRANCH  16  27
HETATM   27  S1  UNL     1      20.921  41.414  12.392  1.00  0.00    -0.054 SA
BRANCH  27  28
HETATM   28  S2  UNL     1      21.728  43.252  11.626  1.00  0.00    -0.093 SA
BRANCH  28  29
HETATM   29  C11 UNL     1      22.073  44.413  12.967  1.00  0.00     0.106 C 
BRANCH  29  30
HETATM   30  C12 UNL     1      23.316  45.238  12.718  1.00  0.00     0.133 C 
BRANCH  30  31
HETATM   31  N5  UNL     1      24.445  44.334  12.755  1.00  0.00    -0.366 N 
HETATM   32  C13 UNL     1      25.436  44.489  11.947  1.00  0.00     0.196 C 
HETATM   33  N6  UNL     1      25.413  45.544  11.025  1.00  0.00    -0.067 NA
HETATM   34  N7  UNL     1      26.543  43.602  11.985  1.00  0.00    -0.067 NA
ATOM     35  H5  UNL     1      24.457  43.567  13.427  1.00  0.00     0.161 HD
ENDBRANCH  30  31
ENDBRANCH  29  30
ENDBRANCH  28  29
ENDBRANCH  27  28
ENDBRANCH  16  27
ENDBRANCH  11  12
ENDBRANCH  10  11
ENDBRANCH   1  10
BRANCH   2  36
HETATM   36  O4  UNL     1      18.349  37.112  15.254  1.00  0.00    -0.390 OA
ATOM     37  H4  UNL     1      18.231  37.128  16.197  1.00  0.00     0.210 HD
ENDBRANCH   2  36
BRANCH   4  38
HETATM   38  N8  UNL     1      22.152  35.662  16.466  1.00  0.00    -0.250 N 
HETATM   39  N9  UNL     1      21.859  35.830  17.767  1.00  0.00    -0.238 N 
HETATM   40  N10 UNL     1      22.952  35.875  18.496  1.00  0.00    -0.279 N 
ATOM     41  H9  UNL     1      20.912  35.911  18.140  1.00  0.00     0.208 HD
HETATM   42  C17 UNL     1      24.033  35.739  17.698  1.00  0.00     0.139 A 
ATOM     43  H10 UNL     1      22.979  35.995  19.508  1.00  0.00     0.189 HD
HETATM   44  C18 UNL     1      25.391  35.715  17.913  1.00  0.00     0.132 A 
HETATM   45  C20 UNL     1      23.489  35.606  16.413  1.00  0.00     0.157 A 
HETATM   46  N12 UNL     1      26.190  35.558  16.853  1.00  0.00    -0.337 N 
HETATM   47  C19 UNL     1      25.673  35.429  15.613  1.00  0.00     0.183 A 
ATOM     48  H12 UNL     1      27.202  35.534  16.982  1.00  0.00     0.168 HD
HETATM   49  N13 UNL     1      24.347  35.454  15.413  1.00  0.00    -0.335 N 
ATOM     50  H13 UNL     1      23.988  35.354  14.464  1.00  0.00     0.168 HD
BRANCH  44  51
HETATM   51  N11 UNL     1      25.895  35.836  19.085  1.00  0.00    -0.383 N 
ATOM     52 2H11 UNL     1      26.081  36.763  19.469  1.00  0.00     0.157 HD
ATOM     53 1H11 UNL     1      26.122  35.025  19.662  1.00  0.00     0.157 HD
ENDBRANCH  44  51
ENDBRANCH   4  38
BRANCH   3  54
HETATM   54  O5  UNL     1      19.408  33.904  15.304  1.00  0.00    -0.391 OA
ATOM     55  H5  UNL     1      19.043  33.932  14.427  1.00  0.00     0.210 HD
ENDBRANCH   3  54
TORSDOF 16
ENDMDL
