MODEL 1
REMARK VINA RESULT: -9.200220766      0.000      0.000
REMARK  5 active torsions:
REMARK  status: ('A' for Active; 'I' for Inactive)
REMARK    1  A    between atoms: C1_2  and  C2_3 
REMARK    2  A    between atoms: C1_2  and  C14_18 
REMARK    3  A    between atoms: C5_6  and  S1_7 
REMARK    4  A    between atoms: S1_7  and  C6_10 
REMARK    5  A    between atoms: C18_25  and  O5_26 
ROOT
HETATM    1  C2  UNL     1      22.656 -13.601   6.446  1.00  0.00     0.015 A 
HETATM    2  C3  UNL     1      22.360 -14.398   7.527  1.00  0.00     0.017 A 
HETATM    3  C4  UNL     1      21.069 -14.828   7.785  1.00  0.00     0.025 A 
HETATM    4  C5  UNL     1      20.013 -14.483   6.979  1.00  0.00     0.064 A 
HETATM    5  C12 UNL     1      20.312 -13.686   5.896  1.00  0.00     0.025 A 
HETATM    6  C13 UNL     1      21.576 -13.246   5.615  1.00  0.00     0.017 A 
ENDROOT
BRANCH   1   7
HETATM    7  C1  UNL     1      23.976 -13.082   6.132  1.00  0.00     0.196 C 
HETATM    8  O1  UNL     1      24.719 -13.821   5.376  1.00  0.00    -0.286 OA
BRANCH   7   9
HETATM    9  C14 UNL     1      24.571 -11.844   6.554  1.00  0.00     0.066 A 
HETATM   10  C15 UNL     1      23.908 -10.658   6.435  1.00  0.00     0.025 A 
HETATM   11  C16 UNL     1      24.530  -9.481   6.806  1.00  0.00     0.075 A 
HETATM   12  C17 UNL     1      25.813  -9.496   7.293  1.00  0.00     0.247 A 
HETATM   13  O4  UNL     1      26.397  -8.416   7.638  1.00  0.00    -0.268 OA
HETATM   14  N1  UNL     1      26.480 -10.653   7.415  1.00  0.00    -0.303 N 
HETATM   15  C18 UNL     1      25.869 -11.788   7.054  1.00  0.00     0.157 A 
ATOM     16  H1  UNL     1      27.435 -10.668   7.776  1.00  0.00     0.171 HD
BRANCH  15  17
HETATM   17  O5  UNL     1      26.540 -13.014   7.171  1.00  0.00    -0.345 OA
ATOM     18  H5  UNL     1      27.461 -13.010   6.941  1.00  0.00     0.219 HD
ENDBRANCH  15  17
ENDBRANCH   7   9
ENDBRANCH   1   7
BRANCH   4  19
HETATM   19  S1  UNL     1      18.364 -14.967   7.211  1.00  0.00     0.206 S 
HETATM   20  O2  UNL     1      17.808 -15.416   5.867  1.00  0.00    -0.217 OA
HETATM   21  O3  UNL     1      18.377 -16.225   8.067  1.00  0.00    -0.217 OA
BRANCH  19  22
HETATM   22  C6  UNL     1      17.381 -13.731   7.902  1.00  0.00     0.064 A 
HETATM   23  C7  UNL     1      16.193 -14.063   8.514  1.00  0.00     0.024 A 
HETATM   24  C8  UNL     1      15.372 -13.092   9.084  1.00  0.00     0.002 A 
HETATM   25  C9  UNL     1      15.727 -11.762   9.053  1.00  0.00     0.000 A 
HETATM   26  C10 UNL     1      16.913 -11.424   8.443  1.00  0.00     0.002 A 
HETATM   27  C11 UNL     1      17.726 -12.399   7.876  1.00  0.00     0.024 A 
ENDBRANCH  19  22
ENDBRANCH   4  19
TORSDOF 5
ENDMDL
MODEL 2
REMARK VINA RESULT: -8.930638625      0.387      1.017
REMARK  5 active torsions:
REMARK  status: ('A' for Active; 'I' for Inactive)
REMARK    1  A    between atoms: C1_2  and  C2_3 
REMARK    2  A    between atoms: C1_2  and  C14_18 
REMARK    3  A    between atoms: C5_6  and  S1_7 
REMARK    4  A    between atoms: S1_7  and  C6_10 
REMARK    5  A    between atoms: C18_25  and  O5_26 
ROOT
HETATM    1  C2  UNL     1      22.651 -13.551   6.370  1.00  0.00     0.015 A 
HETATM    2  C3  UNL     1      21.557 -13.275   5.584  1.00  0.00     0.017 A 
HETATM    3  C4  UNL     1      20.309 -13.813   5.855  1.00  0.00     0.025 A 
HETATM    4  C5  UNL     1      20.094 -14.649   6.921  1.00  0.00     0.064 A 
HETATM    5  C12 UNL     1      21.192 -14.923   7.709  1.00  0.00     0.025 A 
HETATM    6  C13 UNL     1      22.435 -14.407   7.467  1.00  0.00     0.017 A 
ENDROOT
BRANCH   1   7
HETATM    7  C1  UNL     1      23.995 -13.054   6.129  1.00  0.00     0.196 C 
HETATM    8  O1  UNL     1      24.776 -13.820   5.442  1.00  0.00    -0.286 OA
BRANCH   7   9
HETATM    9  C14 UNL     1      24.576 -11.813   6.559  1.00  0.00     0.066 A 
HETATM   10  C15 UNL     1      23.905 -10.631   6.437  1.00  0.00     0.025 A 
HETATM   11  C16 UNL     1      24.514  -9.450   6.815  1.00  0.00     0.075 A 
HETATM   12  C17 UNL     1      25.794  -9.456   7.311  1.00  0.00     0.247 A 
HETATM   13  O4  UNL     1      26.366  -8.372   7.663  1.00  0.00    -0.268 OA
HETATM   14  N1  UNL     1      26.470 -10.608   7.437  1.00  0.00    -0.303 N 
HETATM   15  C18 UNL     1      25.870 -11.747   7.068  1.00  0.00     0.157 A 
ATOM     16  H1  UNL     1      27.421 -10.615   7.804  1.00  0.00     0.171 HD
BRANCH  15  17
HETATM   17  O5  UNL     1      26.550 -12.967   7.187  1.00  0.00    -0.345 OA
ATOM     18  H5  UNL     1      26.149 -13.616   7.753  1.00  0.00     0.219 HD
ENDBRANCH  15  17
ENDBRANCH   7   9
ENDBRANCH   1   7
BRANCH   4  19
HETATM   19  S1  UNL     1      18.577 -15.374   7.348  1.00  0.00     0.206 S 
HETATM   20  O2  UNL     1      18.059 -16.135   6.136  1.00  0.00    -0.217 OA
HETATM   21  O3  UNL     1      18.864 -16.447   8.388  1.00  0.00    -0.217 OA
BRANCH  19  22
HETATM   22  C6  UNL     1      17.410 -14.235   7.905  1.00  0.00     0.064 A 
HETATM   23  C7  UNL     1      16.199 -14.677   8.388  1.00  0.00     0.024 A 
HETATM   24  C8  UNL     1      15.230 -13.787   8.848  1.00  0.00     0.002 A 
HETATM   25  C9  UNL     1      15.457 -12.429   8.833  1.00  0.00     0.000 A 
HETATM   26  C10 UNL     1      16.666 -11.981   8.351  1.00  0.00     0.002 A 
HETATM   27  C11 UNL     1      17.626 -12.876   7.894  1.00  0.00     0.024 A 
ENDBRANCH  19  22
ENDBRANCH   4  19
TORSDOF 5
ENDMDL
MODEL 3
REMARK VINA RESULT: -8.904367882      2.152      2.807
REMARK  5 active torsions:
REMARK  status: ('A' for Active; 'I' for Inactive)
REMARK    1  A    between atoms: C1_2  and  C2_3 
REMARK    2  A    between atoms: C1_2  and  C14_18 
REMARK    3  A    between atoms: C5_6  and  S1_7 
REMARK    4  A    between atoms: S1_7  and  C6_10 
REMARK    5  A    between atoms: C18_25  and  O5_26 
ROOT
HETATM    1  C2  UNL     1      22.833 -13.584   6.448  1.00  0.00     0.015 A 
HETATM    2  C3  UNL     1      22.558 -14.426   7.500  1.00  0.00     0.017 A 
HETATM    3  C4  UNL     1      21.277 -14.896   7.742  1.00  0.00     0.025 A 
HETATM    4  C5  UNL     1      20.214 -14.551   6.947  1.00  0.00     0.064 A 
HETATM    5  C12 UNL     1      20.493 -13.709   5.893  1.00  0.00     0.025 A 
HETATM    6  C13 UNL     1      21.745 -13.228   5.629  1.00  0.00     0.017 A 
ENDROOT
BRANCH   1   7
HETATM    7  C1  UNL     1      24.139 -13.021   6.153  1.00  0.00     0.196 C 
HETATM    8  O1  UNL     1      24.918 -13.734   5.407  1.00  0.00    -0.286 OA
BRANCH   7   9
HETATM    9  C14 UNL     1      24.687 -11.765   6.585  1.00  0.00     0.066 A 
HETATM   10  C15 UNL     1      23.995 -10.598   6.439  1.00  0.00     0.025 A 
HETATM   11  C16 UNL     1      24.572  -9.402   6.820  1.00  0.00     0.075 A 
HETATM   12  C17 UNL     1      25.841  -9.379   7.345  1.00  0.00     0.247 A 
HETATM   13  O4  UNL     1      26.383  -8.281   7.700  1.00  0.00    -0.268 OA
HETATM   14  N1  UNL     1      26.536 -10.516   7.495  1.00  0.00    -0.303 N 
HETATM   15  C18 UNL     1      25.968 -11.670   7.123  1.00  0.00     0.157 A 
ATOM     16  H1  UNL     1      27.479 -10.502   7.884  1.00  0.00     0.171 HD
BRANCH  15  17
HETATM   17  O5  UNL     1      26.669 -12.875   7.267  1.00  0.00    -0.345 OA
ATOM     18  H5  UNL     1      27.565 -12.804   7.574  1.00  0.00     0.219 HD
ENDBRANCH  15  17
ENDBRANCH   7   9
ENDBRANCH   1   7
BRANCH   4  19
HETATM   19  S1  UNL     1      18.577 -15.084   7.161  1.00  0.00     0.206 S 
HETATM   20  O2  UNL     1      18.574 -16.195   8.202  1.00  0.00    -0.217 OA
HETATM   21  O3  UNL     1      17.809 -13.941   7.811  1.00  0.00    -0.217 OA
BRANCH  19  22
HETATM   22  C6  UNL     1      17.833 -15.608   5.698  1.00  0.00     0.064 A 
HETATM   23  C7  UNL     1      17.812 -16.948   5.383  1.00  0.00     0.024 A 
HETATM   24  C8  UNL     1      17.219 -17.411   4.209  1.00  0.00     0.002 A 
HETATM   25  C9  UNL     1      16.632 -16.535   3.324  1.00  0.00     0.000 A 
HETATM   26  C10 UNL     1      16.649 -15.194   3.634  1.00  0.00     0.002 A 
HETATM   27  C11 UNL     1      17.243 -14.741   4.806  1.00  0.00     0.024 A 
ENDBRANCH  19  22
ENDBRANCH   4  19
TORSDOF 5
ENDMDL
MODEL 4
REMARK VINA RESULT: -8.652566209      2.307      3.275
REMARK  5 active torsions:
REMARK  status: ('A' for Active; 'I' for Inactive)
REMARK    1  A    between atoms: C1_2  and  C2_3 
REMARK    2  A    between atoms: C1_2  and  C14_18 
REMARK    3  A    between atoms: C5_6  and  S1_7 
REMARK    4  A    between atoms: S1_7  and  C6_10 
REMARK    5  A    between atoms: C18_25  and  O5_26 
ROOT
HETATM    1  C2  UNL     1      22.823 -13.524   6.394  1.00  0.00     0.015 A 
HETATM    2  C3  UNL     1      21.687 -13.209   5.686  1.00  0.00     0.017 A 
HETATM    3  C4  UNL     1      20.466 -13.800   5.965  1.00  0.00     0.025 A 
HETATM    4  C5  UNL     1      20.320 -14.731   6.963  1.00  0.00     0.064 A 
HETATM    5  C12 UNL     1      21.460 -15.043   7.672  1.00  0.00     0.025 A 
HETATM    6  C13 UNL     1      22.678 -14.477   7.420  1.00  0.00     0.017 A 
ENDROOT
BRANCH   1   7
HETATM    7  C1  UNL     1      24.143 -12.974   6.136  1.00  0.00     0.196 C 
HETATM    8  O1  UNL     1      24.937 -13.697   5.417  1.00  0.00    -0.286 OA
BRANCH   7   9
HETATM    9  C14 UNL     1      24.689 -11.721   6.581  1.00  0.00     0.066 A 
HETATM   10  C15 UNL     1      24.000 -10.553   6.437  1.00  0.00     0.025 A 
HETATM   11  C16 UNL     1      24.576  -9.360   6.830  1.00  0.00     0.075 A 
HETATM   12  C17 UNL     1      25.841  -9.342   7.364  1.00  0.00     0.247 A 
HETATM   13  O4  UNL     1      26.382  -8.247   7.730  1.00  0.00    -0.268 OA
HETATM   14  N1  UNL     1      26.533 -10.481   7.511  1.00  0.00    -0.303 N 
HETATM   15  C18 UNL     1      25.966 -11.631   7.128  1.00  0.00     0.157 A 
ATOM     16  H1  UNL     1      27.474 -10.471   7.907  1.00  0.00     0.171 HD
BRANCH  15  17
HETATM   17  O5  UNL     1      26.665 -12.839   7.269  1.00  0.00    -0.345 OA
ATOM     18  H5  UNL     1      27.588 -12.766   7.479  1.00  0.00     0.219 HD
ENDBRANCH  15  17
ENDBRANCH   7   9
ENDBRANCH   1   7
BRANCH   4  19
HETATM   19  S1  UNL     1      18.841 -15.528   7.393  1.00  0.00     0.206 S 
HETATM   20  O2  UNL     1      19.108 -16.392   8.618  1.00  0.00    -0.217 OA
HETATM   21  O3  UNL     1      17.873 -14.457   7.876  1.00  0.00    -0.217 OA
BRANCH  19  22
HETATM   22  C6  UNL     1      18.173 -16.466   6.111  1.00  0.00     0.064 A 
HETATM   23  C7  UNL     1      17.577 -15.837   5.041  1.00  0.00     0.024 A 
HETATM   24  C8  UNL     1      17.026 -16.561   3.985  1.00  0.00     0.002 A 
HETATM   25  C9  UNL     1      17.063 -17.937   3.980  1.00  0.00     0.000 A 
HETATM   26  C10 UNL     1      17.658 -18.572   5.047  1.00  0.00     0.002 A 
HETATM   27  C11 UNL     1      18.204 -17.842   6.096  1.00  0.00     0.024 A 
ENDBRANCH  19  22
ENDBRANCH   4  19
TORSDOF 5
ENDMDL
MODEL 5
REMARK VINA RESULT: -8.448997727      2.233      3.130
REMARK  5 active torsions:
REMARK  status: ('A' for Active; 'I' for Inactive)
REMARK    1  A    between atoms: C1_2  and  C2_3 
REMARK    2  A    between atoms: C1_2  and  C14_18 
REMARK    3  A    between atoms: C5_6  and  S1_7 
REMARK    4  A    between atoms: S1_7  and  C6_10 
REMARK    5  A    between atoms: C18_25  and  O5_26 
ROOT
HETATM    1  C2  UNL     1      22.863 -13.531   6.397  1.00  0.00     0.015 A 
HETATM    2  C3  UNL     1      22.579 -14.371   7.448  1.00  0.00     0.017 A 
HETATM    3  C4  UNL     1      21.302 -14.863   7.664  1.00  0.00     0.025 A 
HETATM    4  C5  UNL     1      20.251 -14.543   6.841  1.00  0.00     0.064 A 
HETATM    5  C12 UNL     1      20.539 -13.703   5.788  1.00  0.00     0.025 A 
HETATM    6  C13 UNL     1      21.789 -13.201   5.550  1.00  0.00     0.017 A 
ENDROOT
BRANCH   1   7
HETATM    7  C1  UNL     1      24.166 -12.947   6.128  1.00  0.00     0.196 C 
HETATM    8  O1  UNL     1      24.964 -13.638   5.383  1.00  0.00    -0.286 OA
BRANCH   7   9
HETATM    9  C14 UNL     1      24.691 -11.691   6.587  1.00  0.00     0.066 A 
HETATM   10  C15 UNL     1      23.980 -10.533   6.461  1.00  0.00     0.025 A 
HETATM   11  C16 UNL     1      24.535  -9.335   6.868  1.00  0.00     0.075 A 
HETATM   12  C17 UNL     1      25.802  -9.301   7.397  1.00  0.00     0.247 A 
HETATM   13  O4  UNL     1      26.324  -8.201   7.776  1.00  0.00    -0.268 OA
HETATM   14  N1  UNL     1      26.516 -10.429   7.527  1.00  0.00    -0.303 N 
HETATM   15  C18 UNL     1      25.968 -11.584   7.131  1.00  0.00     0.157 A 
ATOM     16  H1  UNL     1      27.457 -10.406   7.919  1.00  0.00     0.171 HD
BRANCH  15  17
HETATM   17  O5  UNL     1      26.689 -12.780   7.253  1.00  0.00    -0.345 OA
ATOM     18  H5  UNL     1      27.578 -12.702   7.579  1.00  0.00     0.219 HD
ENDBRANCH  15  17
ENDBRANCH   7   9
ENDBRANCH   1   7
BRANCH   4  19
HETATM   19  S1  UNL     1      18.620 -15.104   7.021  1.00  0.00     0.206 S 
HETATM   20  O2  UNL     1      17.956 -14.284   8.119  1.00  0.00    -0.217 OA
HETATM   21  O3  UNL     1      17.869 -14.731   5.750  1.00  0.00    -0.217 OA
BRANCH  19  22
HETATM   22  C6  UNL     1      18.511 -16.790   7.360  1.00  0.00     0.064 A 
HETATM   23  C7  UNL     1      17.840 -17.621   6.492  1.00  0.00     0.024 A 
HETATM   24  C8  UNL     1      17.731 -18.990   6.731  1.00  0.00     0.002 A 
HETATM   25  C9  UNL     1      18.297 -19.556   7.852  1.00  0.00     0.000 A 
HETATM   26  C10 UNL     1      18.970 -18.730   8.724  1.00  0.00     0.002 A 
HETATM   27  C11 UNL     1      19.073 -17.366   8.477  1.00  0.00     0.024 A 
ENDBRANCH  19  22
ENDBRANCH   4  19
TORSDOF 5
ENDMDL
