MODEL 1
REMARK VINA RESULT: -8.533422332      0.000      0.000
REMARK  4 active torsions:
REMARK  status: ('A' for Active; 'I' for Inactive)
REMARK    1  A    between atoms: N2_6  and  C3_7 
REMARK    2  A    between atoms: C8_12  and  O2_13 
REMARK    3  A    between atoms: O2_13  and  S1_14 
REMARK    4  A    between atoms: S1_14  and  C9_17 
ROOT
HETATM    1  C3  UNL     1      20.219 -13.843   7.322  1.00  0.00     0.075 A 
HETATM    2  C4  UNL     1      19.721 -14.962   8.011  1.00  0.00     0.033 A 
HETATM    3  C5  UNL     1      20.534 -16.007   8.367  1.00  0.00     0.002 A 
HETATM    4  C6  UNL     1      21.871 -16.000   8.064  1.00  0.00     0.003 A 
HETATM    5  C7  UNL     1      22.381 -14.922   7.396  1.00  0.00     0.040 A 
HETATM    6  C8  UNL     1      21.558 -13.848   7.027  1.00  0.00     0.116 A 
ENDROOT
BRANCH   1   7
HETATM    7  N2  UNL     1      19.324 -12.820   6.969  1.00  0.00    -0.280 N 
HETATM    8  C2  UNL     1      18.377 -13.052   5.913  1.00  0.00     0.261 C 
HETATM    9  N1  UNL     1      17.264 -12.125   5.958  1.00  0.00    -0.326 N 
HETATM   10  C1  UNL     1      17.264 -10.892   6.637  1.00  0.00     0.325 C 
ATOM     11  H1  UNL     1      16.413 -12.386   5.459  1.00  0.00     0.165 HD
HETATM   12  O1  UNL     1      16.308 -10.069   6.442  1.00  0.00    -0.247 OA
HETATM   13  N3  UNL     1      18.334 -10.601   7.523  1.00  0.00    -0.260 N 
HETATM   14  C15 UNL     1      19.364 -11.594   7.672  1.00  0.00     0.332 C 
ATOM     15  H3  UNL     1      18.371  -9.720   8.035  1.00  0.00     0.175 HD
HETATM   16  O5  UNL     1      20.300 -11.307   8.465  1.00  0.00    -0.246 OA
ENDBRANCH   1   7
BRANCH   6  17
HETATM   17  O2  UNL     1      22.124 -12.801   6.359  1.00  0.00    -0.227 OA
BRANCH  17  18
HETATM   18  S1  UNL     1      23.719 -12.571   5.934  1.00  0.00     0.303 S 
HETATM   19  O3  UNL     1      23.800 -12.565   4.409  1.00  0.00    -0.193 OA
HETATM   20  O4  UNL     1      24.599 -13.708   6.440  1.00  0.00    -0.193 OA
BRANCH  18  21
HETATM   21  C9  UNL     1      24.455 -11.107   6.487  1.00  0.00     0.086 A 
HETATM   22  C10 UNL     1      23.665  -9.990   6.649  1.00  0.00     0.026 A 
HETATM   23  C11 UNL     1      24.152  -8.772   7.105  1.00  0.00     0.002 A 
HETATM   24  C12 UNL     1      25.491  -8.664   7.413  1.00  0.00     0.000 A 
HETATM   25  C13 UNL     1      26.310  -9.769   7.259  1.00  0.00     0.002 A 
HETATM   26  C14 UNL     1      25.794 -10.985   6.797  1.00  0.00     0.026 A 
ENDBRANCH  18  21
ENDBRANCH  17  18
ENDBRANCH   6  17
TORSDOF 4
ENDMDL
MODEL 2
REMARK VINA RESULT: -8.499217237      2.745      4.027
REMARK  4 active torsions:
REMARK  status: ('A' for Active; 'I' for Inactive)
REMARK    1  A    between atoms: N2_6  and  C3_7 
REMARK    2  A    between atoms: C8_12  and  O2_13 
REMARK    3  A    between atoms: O2_13  and  S1_14 
REMARK    4  A    between atoms: S1_14  and  C9_17 
ROOT
HETATM    1  C3  UNL     1      17.912 -14.207   7.492  1.00  0.00     0.075 A 
HETATM    2  C4  UNL     1      17.031 -14.994   8.253  1.00  0.00     0.033 A 
HETATM    3  C5  UNL     1      17.213 -16.346   8.391  1.00  0.00     0.002 A 
HETATM    4  C6  UNL     1      18.266 -16.985   7.789  1.00  0.00     0.003 A 
HETATM    5  C7  UNL     1      19.138 -16.242   7.044  1.00  0.00     0.040 A 
HETATM    6  C8  UNL     1      18.962 -14.858   6.896  1.00  0.00     0.116 A 
ENDROOT
BRANCH   1   7
HETATM    7  N2  UNL     1      17.652 -12.832   7.376  1.00  0.00    -0.280 N 
HETATM    8  C2  UNL     1      18.231 -11.928   8.332  1.00  0.00     0.261 C 
HETATM    9  N1  UNL     1      18.257 -10.561   7.851  1.00  0.00    -0.326 N 
HETATM   10  C1  UNL     1      17.463 -10.056   6.804  1.00  0.00     0.325 C 
ATOM     11  H1  UNL     1      18.900  -9.913   8.307  1.00  0.00     0.165 HD
HETATM   12  O1  UNL     1      17.422  -8.796   6.600  1.00  0.00    -0.247 OA
HETATM   13  N3  UNL     1      16.730 -10.969   6.002  1.00  0.00    -0.260 N 
HETATM   14  C15 UNL     1      16.843 -12.369   6.313  1.00  0.00     0.332 C 
ATOM     15  H3  UNL     1      16.145 -10.645   5.232  1.00  0.00     0.175 HD
HETATM   16  O5  UNL     1      16.181 -13.155   5.584  1.00  0.00    -0.246 OA
ENDBRANCH   1   7
BRANCH   6  17
HETATM   17  O2  UNL     1      19.864 -14.170   6.138  1.00  0.00    -0.227 OA
BRANCH  17  18
HETATM   18  S1  UNL     1      21.309 -13.482   6.602  1.00  0.00     0.303 S 
HETATM   19  O3  UNL     1      21.006 -12.419   7.655  1.00  0.00    -0.193 OA
HETATM   20  O4  UNL     1      21.997 -12.790   5.430  1.00  0.00    -0.193 OA
BRANCH  18  21
HETATM   21  C9  UNL     1      22.482 -14.554   7.286  1.00  0.00     0.086 A 
HETATM   22  C10 UNL     1      23.819 -14.266   7.117  1.00  0.00     0.026 A 
HETATM   23  C11 UNL     1      24.838 -15.050   7.642  1.00  0.00     0.002 A 
HETATM   24  C12 UNL     1      24.508 -16.173   8.368  1.00  0.00     0.000 A 
HETATM   25  C13 UNL     1      23.173 -16.489   8.554  1.00  0.00     0.002 A 
HETATM   26  C14 UNL     1      22.164 -15.682   8.015  1.00  0.00     0.026 A 
ENDBRANCH  18  21
ENDBRANCH  17  18
ENDBRANCH   6  17
TORSDOF 4
ENDMDL
MODEL 3
REMARK VINA RESULT: -8.410426420      0.944      1.401
REMARK  4 active torsions:
REMARK  status: ('A' for Active; 'I' for Inactive)
REMARK    1  A    between atoms: N2_6  and  C3_7 
REMARK    2  A    between atoms: C8_12  and  O2_13 
REMARK    3  A    between atoms: O2_13  and  S1_14 
REMARK    4  A    between atoms: S1_14  and  C9_17 
ROOT
HETATM    1  C3  UNL     1      20.119 -13.720   7.537  1.00  0.00     0.075 A 
HETATM    2  C4  UNL     1      19.613 -14.915   8.075  1.00  0.00     0.033 A 
HETATM    3  C5  UNL     1      20.404 -16.023   8.235  1.00  0.00     0.002 A 
HETATM    4  C6  UNL     1      21.728 -16.007   7.874  1.00  0.00     0.003 A 
HETATM    5  C7  UNL     1      22.245 -14.856   7.350  1.00  0.00     0.040 A 
HETATM    6  C8  UNL     1      21.444 -13.717   7.182  1.00  0.00     0.116 A 
ENDROOT
BRANCH   1   7
HETATM    7  N2  UNL     1      19.245 -12.631   7.382  1.00  0.00    -0.280 N 
HETATM    8  C2  UNL     1      19.373 -11.501   8.260  1.00  0.00     0.261 C 
HETATM    9  N1  UNL     1      18.741 -10.313   7.722  1.00  0.00    -0.326 N 
HETATM   10  C1  UNL     1      17.765 -10.302   6.709  1.00  0.00     0.325 C 
ATOM     11  H1  UNL     1      19.027  -9.412   8.109  1.00  0.00     0.165 HD
HETATM   12  O1  UNL     1      17.135  -9.221   6.457  1.00  0.00    -0.247 OA
HETATM   13  N3  UNL     1      17.511 -11.502   5.994  1.00  0.00    -0.260 N 
HETATM   14  C15 UNL     1      18.274 -12.666   6.355  1.00  0.00     0.332 C 
ATOM     15  H3  UNL     1      16.813 -11.537   5.251  1.00  0.00     0.175 HD
HETATM   16  O5  UNL     1      18.026 -13.716   5.703  1.00  0.00    -0.246 OA
ENDBRANCH   1   7
BRANCH   6  17
HETATM   17  O2  UNL     1      22.016 -12.597   6.652  1.00  0.00    -0.227 OA
BRANCH  17  18
HETATM   18  S1  UNL     1      23.570 -12.384   6.088  1.00  0.00     0.303 S 
HETATM   19  O3  UNL     1      23.519 -12.388   4.562  1.00  0.00    -0.193 OA
HETATM   20  O4  UNL     1      24.482 -13.526   6.524  1.00  0.00    -0.193 OA
BRANCH  18  21
HETATM   21  C9  UNL     1      24.363 -10.923   6.565  1.00  0.00     0.086 A 
HETATM   22  C10 UNL     1      23.604  -9.788   6.747  1.00  0.00     0.026 A 
HETATM   23  C11 UNL     1      24.139  -8.570   7.147  1.00  0.00     0.002 A 
HETATM   24  C12 UNL     1      25.496  -8.481   7.375  1.00  0.00     0.000 A 
HETATM   25  C13 UNL     1      26.284  -9.605   7.199  1.00  0.00     0.002 A 
HETATM   26  C14 UNL     1      25.721 -10.821   6.796  1.00  0.00     0.026 A 
ENDBRANCH  18  21
ENDBRANCH  17  18
ENDBRANCH   6  17
TORSDOF 4
ENDMDL
MODEL 4
REMARK VINA RESULT: -8.102175685      3.336      5.332
REMARK  4 active torsions:
REMARK  status: ('A' for Active; 'I' for Inactive)
REMARK    1  A    between atoms: N2_6  and  C3_7 
REMARK    2  A    between atoms: C8_12  and  O2_13 
REMARK    3  A    between atoms: O2_13  and  S1_14 
REMARK    4  A    between atoms: S1_14  and  C9_17 
ROOT
HETATM    1  C3  UNL     1      16.480 -12.361   7.185  1.00  0.00     0.075 A 
HETATM    2  C4  UNL     1      15.547 -11.376   6.819  1.00  0.00     0.033 A 
HETATM    3  C5  UNL     1      15.912 -10.064   6.661  1.00  0.00     0.002 A 
HETATM    4  C6  UNL     1      17.209  -9.661   6.854  1.00  0.00     0.003 A 
HETATM    5  C7  UNL     1      18.136 -10.599   7.209  1.00  0.00     0.040 A 
HETATM    6  C8  UNL     1      17.773 -11.944   7.374  1.00  0.00     0.116 A 
ENDROOT
BRANCH   1   7
HETATM    7  N2  UNL     1      16.031 -13.681   7.350  1.00  0.00    -0.280 N 
HETATM    8  C2  UNL     1      15.841 -14.506   6.189  1.00  0.00     0.261 C 
HETATM    9  N1  UNL     1      15.817 -15.918   6.515  1.00  0.00    -0.326 N 
HETATM   10  C1  UNL     1      15.577 -16.450   7.796  1.00  0.00     0.325 C 
ATOM     11  H1  UNL     1      15.989 -16.579   5.757  1.00  0.00     0.165 HD
HETATM   12  O1  UNL     1      15.380 -17.704   7.927  1.00  0.00    -0.247 OA
HETATM   13  N3  UNL     1      15.563 -15.569   8.908  1.00  0.00    -0.260 N 
HETATM   14  C15 UNL     1      15.795 -14.172   8.655  1.00  0.00     0.332 C 
ATOM     15  H3  UNL     1      15.393 -15.913   9.853  1.00  0.00     0.175 HD
HETATM   16  O5  UNL     1      15.775 -13.415   9.662  1.00  0.00    -0.246 OA
ENDBRANCH   1   7
BRANCH   6  17
HETATM   17  O2  UNL     1      18.743 -12.836   7.731  1.00  0.00    -0.227 OA
BRANCH  17  18
HETATM   18  S1  UNL     1      19.463 -14.023   6.810  1.00  0.00     0.303 S 
HETATM   19  O3  UNL     1      18.979 -13.858   5.371  1.00  0.00    -0.193 OA
HETATM   20  O4  UNL     1      19.055 -15.415   7.279  1.00  0.00    -0.193 OA
BRANCH  18  21
HETATM   21  C9  UNL     1      21.192 -14.015   6.766  1.00  0.00     0.086 A 
HETATM   22  C10 UNL     1      21.825 -13.256   5.807  1.00  0.00     0.026 A 
HETATM   23  C11 UNL     1      23.207 -13.165   5.697  1.00  0.00     0.002 A 
HETATM   24  C12 UNL     1      23.993 -13.865   6.587  1.00  0.00     0.000 A 
HETATM   25  C13 UNL     1      23.385 -14.638   7.561  1.00  0.00     0.002 A 
HETATM   26  C14 UNL     1      21.990 -14.712   7.650  1.00  0.00     0.026 A 
ENDBRANCH  18  21
ENDBRANCH  17  18
ENDBRANCH   6  17
TORSDOF 4
ENDMDL
MODEL 5
REMARK VINA RESULT: -8.059199035      3.914      5.626
REMARK  4 active torsions:
REMARK  status: ('A' for Active; 'I' for Inactive)
REMARK    1  A    between atoms: N2_6  and  C3_7 
REMARK    2  A    between atoms: C8_12  and  O2_13 
REMARK    3  A    between atoms: O2_13  and  S1_14 
REMARK    4  A    between atoms: S1_14  and  C9_17 
ROOT
HETATM    1  C3  UNL     1      15.790 -12.562   8.665  1.00  0.00     0.075 A 
HETATM    2  C4  UNL     1      15.226 -12.121   9.874  1.00  0.00     0.033 A 
HETATM    3  C5  UNL     1      14.770 -13.003  10.819  1.00  0.00     0.002 A 
HETATM    4  C6  UNL     1      14.848 -14.358  10.619  1.00  0.00     0.003 A 
HETATM    5  C7  UNL     1      15.393 -14.814   9.452  1.00  0.00     0.040 A 
HETATM    6  C8  UNL     1      15.863 -13.919   8.479  1.00  0.00     0.116 A 
ENDROOT
BRANCH   1   7
HETATM    7  N2  UNL     1      16.216 -11.602   7.733  1.00  0.00    -0.280 N 
HETATM    8  C2  UNL     1      15.303 -11.166   6.712  1.00  0.00     0.261 C 
HETATM    9  N1  UNL     1      15.696  -9.899   6.127  1.00  0.00    -0.326 N 
HETATM   10  C1  UNL     1      16.987  -9.342   6.194  1.00  0.00     0.325 C 
ATOM     11  H1  UNL     1      14.981  -9.369   5.627  1.00  0.00     0.165 HD
HETATM   12  O1  UNL     1      17.269  -8.326   5.475  1.00  0.00    -0.247 OA
HETATM   13  N3  UNL     1      17.940  -9.932   7.066  1.00  0.00    -0.260 N 
HETATM   14  C15 UNL     1      17.523 -11.075   7.833  1.00  0.00     0.332 C 
ATOM     15  H3  UNL     1      18.886  -9.558   7.145  1.00  0.00     0.175 HD
HETATM   16  O5  UNL     1      18.391 -11.576   8.597  1.00  0.00    -0.246 OA
ENDBRANCH   1   7
BRANCH   6  17
HETATM   17  O2  UNL     1      16.395 -14.434   7.333  1.00  0.00    -0.227 OA
BRANCH  17  18
HETATM   18  S1  UNL     1      17.637 -15.531   7.158  1.00  0.00     0.303 S 
HETATM   19  O3  UNL     1      17.388 -16.320   5.874  1.00  0.00    -0.193 OA
HETATM   20  O4  UNL     1      17.668 -16.525   8.314  1.00  0.00    -0.193 OA
BRANCH  18  21
HETATM   21  C9  UNL     1      19.232 -14.871   7.044  1.00  0.00     0.086 A 
HETATM   22  C10 UNL     1      20.213 -15.366   7.875  1.00  0.00     0.026 A 
HETATM   23  C11 UNL     1      21.527 -14.919   7.852  1.00  0.00     0.002 A 
HETATM   24  C12 UNL     1      21.879 -13.931   6.957  1.00  0.00     0.000 A 
HETATM   25  C13 UNL     1      20.914 -13.413   6.110  1.00  0.00     0.002 A 
HETATM   26  C14 UNL     1      19.596 -13.881   6.154  1.00  0.00     0.026 A 
ENDBRANCH  18  21
ENDBRANCH  17  18
ENDBRANCH   6  17
TORSDOF 4
ENDMDL
