MODEL 1
REMARK VINA RESULT: -7.203403399      0.000      0.000
REMARK  5 active torsions:
REMARK  status: ('A' for Active; 'I' for Inactive)
REMARK    1  A    between atoms: N1_1  and  S1_4 
REMARK    2  A    between atoms: S1_4  and  C1_7 
REMARK    3  A    between atoms: C4_10  and  C5_11 
REMARK    4  A    between atoms: C8_14  and  C9_15 
REMARK    5  A    between atoms: C13_23  and  N4_24 
ROOT
HETATM    1  C5  UNL     1      19.178 -13.093   6.993  1.00  0.00     0.007 A 
HETATM    2  C6  UNL     1      19.012 -11.793   7.487  1.00  0.00     0.016 A 
HETATM    3  C7  UNL     1      17.877 -11.052   7.318  1.00  0.00     0.015 A 
HETATM    4  C8  UNL     1      16.819 -11.600   6.621  1.00  0.00    -0.006 A 
HETATM    5  C12 UNL     1      16.953 -12.870   6.126  1.00  0.00     0.050 A 
HETATM    6  C13 UNL     1      18.122 -13.638   6.299  1.00  0.00     0.114 A 
ENDROOT
BRANCH   1   7
HETATM    7  C4  UNL     1      20.461 -13.753   7.206  1.00  0.00    -0.023 A 
HETATM    8  C3  UNL     1      20.622 -14.819   8.075  1.00  0.00     0.014 A 
HETATM    9  C2  UNL     1      21.842 -15.415   8.298  1.00  0.00     0.026 A 
HETATM   10  C1  UNL     1      22.957 -14.959   7.649  1.00  0.00     0.079 A 
HETATM   11  C15 UNL     1      22.831 -13.907   6.783  1.00  0.00     0.026 A 
HETATM   12  C14 UNL     1      21.596 -13.318   6.570  1.00  0.00     0.014 A 
BRANCH  10  13
HETATM   13  S1  UNL     1      24.556 -15.645   7.858  1.00  0.00     0.256 S 
HETATM   14  O1  UNL     1      24.916 -15.665   9.335  1.00  0.00    -0.201 OA
HETATM   15  O2  UNL     1      25.534 -14.810   7.117  1.00  0.00    -0.201 OA
BRANCH  13  16
HETATM   16  N1  UNL     1      24.511 -17.276   7.324  1.00  0.00    -0.324 N 
ATOM     17  H12 UNL     1      23.678 -17.862   7.276  1.00  0.00     0.169 HD
ATOM     18  H11 UNL     1      25.464 -17.537   7.071  1.00  0.00     0.169 HD
ENDBRANCH  13  16
ENDBRANCH  10  13
ENDBRANCH   1   7
BRANCH   6  19
HETATM   19  N4  UNL     1      18.156 -14.944   5.763  1.00  0.00    -0.115 N 
HETATM   20  O3  UNL     1      18.088 -15.952   6.465  1.00  0.00    -0.532 OA
HETATM   21  O4  UNL     1      18.239 -15.091   4.402  1.00  0.00    -0.532 OA
ENDBRANCH   6  19
BRANCH   4  22
HETATM   22  C9  UNL     1      15.608 -10.810   6.441  1.00  0.00     0.059 A 
HETATM   23  C10 UNL     1      14.301 -11.269   6.529  1.00  0.00     0.050 A 
HETATM   24  C11 UNL     1      13.474 -10.194   6.290  1.00  0.00     0.109 A 
HETATM   25  N2  UNL     1      14.262  -9.120   6.065  1.00  0.00    -0.311 N 
HETATM   26  N3  UNL     1      15.507  -9.501   6.158  1.00  0.00    -0.300 N 
ATOM     27  H2  UNL     1      13.941  -8.175   5.858  1.00  0.00     0.186 HD
ATOM     28  H3  UNL     1      16.306  -8.879   6.031  1.00  0.00     0.187 HD
ENDBRANCH   4  22
TORSDOF 5
ENDMDL
MODEL 2
REMARK VINA RESULT: -6.876758562      2.265      2.757
REMARK  5 active torsions:
REMARK  status: ('A' for Active; 'I' for Inactive)
REMARK    1  A    between atoms: N1_1  and  S1_4 
REMARK    2  A    between atoms: S1_4  and  C1_7 
REMARK    3  A    between atoms: C4_10  and  C5_11 
REMARK    4  A    between atoms: C8_14  and  C9_15 
REMARK    5  A    between atoms: C13_23  and  N4_24 
ROOT
HETATM    1  C5  UNL     1      19.058 -13.608   6.370  1.00  0.00     0.007 A 
HETATM    2  C6  UNL     1      18.415 -14.369   5.387  1.00  0.00     0.016 A 
HETATM    3  C7  UNL     1      17.126 -14.163   4.984  1.00  0.00     0.015 A 
HETATM    4  C8  UNL     1      16.397 -13.148   5.570  1.00  0.00    -0.006 A 
HETATM    5  C12 UNL     1      17.001 -12.386   6.536  1.00  0.00     0.050 A 
HETATM    6  C13 UNL     1      18.331 -12.595   6.953  1.00  0.00     0.114 A 
ENDROOT
BRANCH   1   7
HETATM    7  C4  UNL     1      20.423 -13.966   6.737  1.00  0.00    -0.023 A 
HETATM    8  C3  UNL     1      21.535 -13.410   6.129  1.00  0.00     0.014 A 
HETATM    9  C2  UNL     1      22.821 -13.778   6.456  1.00  0.00     0.026 A 
HETATM   10  C1  UNL     1      23.039 -14.728   7.416  1.00  0.00     0.079 A 
HETATM   11  C15 UNL     1      21.960 -15.297   8.037  1.00  0.00     0.026 A 
HETATM   12  C14 UNL     1      20.674 -14.915   7.696  1.00  0.00     0.014 A 
BRANCH  10  13
HETATM   13  S1  UNL     1      24.631 -15.269   7.909  1.00  0.00     0.256 S 
HETATM   14  O1  UNL     1      24.706 -15.326   9.427  1.00  0.00    -0.201 OA
HETATM   15  O2  UNL     1      25.641 -14.311   7.395  1.00  0.00    -0.201 OA
BRANCH  13  16
HETATM   16  N1  UNL     1      24.854 -16.869   7.330  1.00  0.00    -0.324 N 
ATOM     17  H12 UNL     1      24.127 -17.464   6.933  1.00  0.00     0.169 HD
ATOM     18  H11 UNL     1      25.839 -17.103   7.459  1.00  0.00     0.169 HD
ENDBRANCH  13  16
ENDBRANCH  10  13
ENDBRANCH   1   7
BRANCH   6  19
HETATM   19  N4  UNL     1      18.867 -11.746   7.946  1.00  0.00    -0.115 N 
HETATM   20  O3  UNL     1      20.072 -11.517   8.043  1.00  0.00    -0.532 OA
HETATM   21  O4  UNL     1      18.005 -11.130   8.815  1.00  0.00    -0.532 OA
ENDBRANCH   6  19
BRANCH   4  22
HETATM   22  C9  UNL     1      15.023 -12.927   5.140  1.00  0.00     0.059 A 
HETATM   23  C10 UNL     1      14.050 -13.898   4.951  1.00  0.00     0.050 A 
HETATM   24  C11 UNL     1      12.903 -13.254   4.543  1.00  0.00     0.109 A 
HETATM   25  N2  UNL     1      13.180 -11.933   4.488  1.00  0.00    -0.311 N 
HETATM   26  N3  UNL     1      14.425 -11.762   4.841  1.00  0.00    -0.300 N 
ATOM     27  H2  UNL     1      12.530 -11.196   4.218  1.00  0.00     0.186 HD
ATOM     28  H3  UNL     1      14.887 -10.854   4.885  1.00  0.00     0.187 HD
ENDBRANCH   4  22
TORSDOF 5
ENDMDL
MODEL 3
REMARK VINA RESULT: -6.845229672      2.867      3.918
REMARK  5 active torsions:
REMARK  status: ('A' for Active; 'I' for Inactive)
REMARK    1  A    between atoms: N1_1  and  S1_4 
REMARK    2  A    between atoms: S1_4  and  C1_7 
REMARK    3  A    between atoms: C4_10  and  C5_11 
REMARK    4  A    between atoms: C8_14  and  C9_15 
REMARK    5  A    between atoms: C13_23  and  N4_24 
ROOT
HETATM    1  C5  UNL     1      20.941 -15.529   7.807  1.00  0.00     0.007 A 
HETATM    2  C6  UNL     1      21.537 -14.263   7.753  1.00  0.00     0.016 A 
HETATM    3  C7  UNL     1      20.844 -13.101   7.571  1.00  0.00     0.015 A 
HETATM    4  C8  UNL     1      19.472 -13.155   7.431  1.00  0.00    -0.006 A 
HETATM    5  C12 UNL     1      18.861 -14.380   7.480  1.00  0.00     0.050 A 
HETATM    6  C13 UNL     1      19.573 -15.582   7.668  1.00  0.00     0.114 A 
ENDROOT
BRANCH   1   7
HETATM    7  C4  UNL     1      21.806 -16.693   7.959  1.00  0.00    -0.023 A 
HETATM    8  C3  UNL     1      23.180 -16.598   8.085  1.00  0.00     0.014 A 
HETATM    9  C2  UNL     1      23.994 -17.703   8.193  1.00  0.00     0.026 A 
HETATM   10  C1  UNL     1      23.450 -18.958   8.180  1.00  0.00     0.079 A 
HETATM   11  C15 UNL     1      22.094 -19.087   8.057  1.00  0.00     0.026 A 
HETATM   12  C14 UNL     1      21.290 -17.965   7.949  1.00  0.00     0.014 A 
BRANCH  10  13
HETATM   13  S1  UNL     1      24.392 -20.430   8.312  1.00  0.00     0.256 S 
HETATM   14  O1  UNL     1      23.503 -21.633   8.039  1.00  0.00    -0.201 OA
HETATM   15  O2  UNL     1      24.945 -20.520   9.686  1.00  0.00    -0.201 OA
BRANCH  13  16
HETATM   16  N1  UNL     1      25.599 -20.403   7.092  1.00  0.00    -0.324 N 
ATOM     17  H12 UNL     1      25.439 -20.220   6.102  1.00  0.00     0.169 HD
ATOM     18  H11 UNL     1      26.491 -20.601   7.546  1.00  0.00     0.169 HD
ENDBRANCH  13  16
ENDBRANCH  10  13
ENDBRANCH   1   7
BRANCH   6  19
HETATM   19  N4  UNL     1      18.849 -16.794   7.719  1.00  0.00    -0.115 N 
HETATM   20  O3  UNL     1      18.409 -17.261   8.769  1.00  0.00    -0.532 OA
HETATM   21  O4  UNL     1      18.601 -17.458   6.546  1.00  0.00    -0.532 OA
ENDBRANCH   6  19
BRANCH   4  22
HETATM   22  C9  UNL     1      18.733 -11.915   7.238  1.00  0.00     0.059 A 
HETATM   23  C10 UNL     1      17.518 -11.770   6.584  1.00  0.00     0.050 A 
HETATM   24  C11 UNL     1      17.183 -10.435   6.633  1.00  0.00     0.109 A 
HETATM   25  N2  UNL     1      18.170  -9.797   7.299  1.00  0.00    -0.311 N 
HETATM   26  N3  UNL     1      19.067 -10.679   7.645  1.00  0.00    -0.300 N 
ATOM     27  H2  UNL     1      18.209  -8.797   7.497  1.00  0.00     0.186 HD
ATOM     28  H3  UNL     1      19.918 -10.457   8.161  1.00  0.00     0.187 HD
ENDBRANCH   4  22
TORSDOF 5
ENDMDL
MODEL 4
REMARK VINA RESULT: -6.698981421      3.433      4.538
REMARK  5 active torsions:
REMARK  status: ('A' for Active; 'I' for Inactive)
REMARK    1  A    between atoms: N1_1  and  S1_4 
REMARK    2  A    between atoms: S1_4  and  C1_7 
REMARK    3  A    between atoms: C4_10  and  C5_11 
REMARK    4  A    between atoms: C8_14  and  C9_15 
REMARK    5  A    between atoms: C13_23  and  N4_24 
ROOT
HETATM    1  C5  UNL     1      18.914 -14.898   7.315  1.00  0.00     0.007 A 
HETATM    2  C6  UNL     1      18.695 -16.275   7.440  1.00  0.00     0.016 A 
HETATM    3  C7  UNL     1      17.478 -16.832   7.714  1.00  0.00     0.015 A 
HETATM    4  C8  UNL     1      16.386 -16.004   7.880  1.00  0.00    -0.006 A 
HETATM    5  C12 UNL     1      16.571 -14.651   7.762  1.00  0.00     0.050 A 
HETATM    6  C13 UNL     1      17.825 -14.073   7.479  1.00  0.00     0.114 A 
ENDROOT
BRANCH   1   7
HETATM    7  C4  UNL     1      20.275 -14.435   7.067  1.00  0.00    -0.023 A 
HETATM    8  C3  UNL     1      20.607 -13.613   6.004  1.00  0.00     0.014 A 
HETATM    9  C2  UNL     1      21.899 -13.209   5.755  1.00  0.00     0.026 A 
HETATM   10  C1  UNL     1      22.916 -13.619   6.573  1.00  0.00     0.079 A 
HETATM   11  C15 UNL     1      22.620 -14.432   7.633  1.00  0.00     0.026 A 
HETATM   12  C14 UNL     1      21.315 -14.830   7.869  1.00  0.00     0.014 A 
BRANCH  10  13
HETATM   13  S1  UNL     1      24.593 -13.163   6.349  1.00  0.00     0.256 S 
HETATM   14  O1  UNL     1      25.027 -13.490   4.929  1.00  0.00    -0.201 OA
HETATM   15  O2  UNL     1      25.427 -13.922   7.313  1.00  0.00    -0.201 OA
BRANCH  13  16
HETATM   16  N1  UNL     1      24.712 -11.461   6.537  1.00  0.00    -0.324 N 
ATOM     17  H12 UNL     1      25.563 -10.909   6.425  1.00  0.00     0.169 HD
ATOM     18  H11 UNL     1      23.783 -11.118   6.779  1.00  0.00     0.169 HD
ENDBRANCH  13  16
ENDBRANCH  10  13
ENDBRANCH   1   7
BRANCH   6  19
HETATM   19  N4  UNL     1      17.908 -12.668   7.364  1.00  0.00    -0.115 N 
HETATM   20  O3  UNL     1      18.312 -11.949   8.278  1.00  0.00    -0.532 OA
HETATM   21  O4  UNL     1      17.554 -12.087   6.174  1.00  0.00    -0.532 OA
ENDBRANCH   6  19
BRANCH   4  22
HETATM   22  C9  UNL     1      15.088 -16.598   8.170  1.00  0.00     0.059 A 
HETATM   23  C10 UNL     1      13.910 -15.917   8.441  1.00  0.00     0.050 A 
HETATM   24  C11 UNL     1      12.932 -16.863   8.658  1.00  0.00     0.109 A 
HETATM   25  N2  UNL     1      13.508 -18.077   8.522  1.00  0.00    -0.311 N 
HETATM   26  N3  UNL     1      14.769 -17.901   8.236  1.00  0.00    -0.300 N 
ATOM     27  H2  UNL     1      13.039 -18.976   8.625  1.00  0.00     0.186 HD
ATOM     28  H3  UNL     1      15.432 -18.661   8.082  1.00  0.00     0.187 HD
ENDBRANCH   4  22
TORSDOF 5
ENDMDL
MODEL 5
REMARK VINA RESULT: -6.621597981      4.547      7.543
REMARK  5 active torsions:
REMARK  status: ('A' for Active; 'I' for Inactive)
REMARK    1  A    between atoms: N1_1  and  S1_4 
REMARK    2  A    between atoms: S1_4  and  C1_7 
REMARK    3  A    between atoms: C4_10  and  C5_11 
REMARK    4  A    between atoms: C8_14  and  C9_15 
REMARK    5  A    between atoms: C13_23  and  N4_24 
ROOT
HETATM    1  C5  UNL     1      18.906 -14.987   7.091  1.00  0.00     0.007 A 
HETATM    2  C6  UNL     1      20.066 -15.466   7.710  1.00  0.00     0.016 A 
HETATM    3  C7  UNL     1      21.306 -14.921   7.535  1.00  0.00     0.015 A 
HETATM    4  C8  UNL     1      21.444 -13.829   6.701  1.00  0.00    -0.006 A 
HETATM    5  C12 UNL     1      20.324 -13.338   6.081  1.00  0.00     0.050 A 
HETATM    6  C13 UNL     1      19.044 -13.899   6.261  1.00  0.00     0.114 A 
ENDROOT
BRANCH   1   7
HETATM    7  C4  UNL     1      17.653 -15.695   7.330  1.00  0.00    -0.023 A 
HETATM    8  C3  UNL     1      17.365 -16.925   6.766  1.00  0.00     0.014 A 
HETATM    9  C2  UNL     1      16.166 -17.571   6.968  1.00  0.00     0.026 A 
HETATM   10  C1  UNL     1      15.203 -16.999   7.753  1.00  0.00     0.079 A 
HETATM   11  C15 UNL     1      15.457 -15.782   8.326  1.00  0.00     0.026 A 
HETATM   12  C14 UNL     1      16.668 -15.146   8.113  1.00  0.00     0.014 A 
BRANCH  10  13
HETATM   13  S1  UNL     1      13.645 -17.733   8.077  1.00  0.00     0.256 S 
HETATM   14  O1  UNL     1      12.875 -17.896   6.776  1.00  0.00    -0.201 OA
HETATM   15  O2  UNL     1      12.886 -16.855   9.000  1.00  0.00    -0.201 OA
BRANCH  13  16
HETATM   16  N1  UNL     1      13.918 -19.307   8.705  1.00  0.00    -0.324 N 
ATOM     17  H12 UNL     1      14.542 -19.539   9.478  1.00  0.00     0.169 HD
ATOM     18  H11 UNL     1      13.345 -19.953   8.161  1.00  0.00     0.169 HD
ENDBRANCH  13  16
ENDBRANCH  10  13
ENDBRANCH   1   7
BRANCH   6  19
HETATM   19  N4  UNL     1      17.950 -13.310   5.588  1.00  0.00    -0.115 N 
HETATM   20  O3  UNL     1      17.436 -13.814   4.590  1.00  0.00    -0.532 OA
HETATM   21  O4  UNL     1      17.424 -12.147   6.087  1.00  0.00    -0.532 OA
ENDBRANCH   6  19
BRANCH   4  22
HETATM   22  C9  UNL     1      22.765 -13.246   6.515  1.00  0.00     0.059 A 
HETATM   23  C10 UNL     1      23.983 -13.861   6.768  1.00  0.00     0.050 A 
HETATM   24  C11 UNL     1      24.972 -12.954   6.457  1.00  0.00     0.109 A 
HETATM   25  N2  UNL     1      24.363 -11.825   6.030  1.00  0.00    -0.311 N 
HETATM   26  N3  UNL     1      23.073 -12.016   6.071  1.00  0.00    -0.300 N 
ATOM     27  H2  UNL     1      24.832 -10.971   5.728  1.00  0.00     0.186 HD
ATOM     28  H3  UNL     1      22.383 -11.316   5.799  1.00  0.00     0.187 HD
ENDBRANCH   4  22
TORSDOF 5
ENDMDL
