MODEL 1
REMARK VINA RESULT: -7.961227579      0.000      0.000
REMARK  5 active torsions:
REMARK  status: ('A' for Active; 'I' for Inactive)
REMARK    1  A    between atoms: O1_2  and  C2_3 
REMARK    2  A    between atoms: C9_10  and  C10_11 
REMARK    3  A    between atoms: C13_14  and  O2_15 
REMARK    4  A    between atoms: O2_15  and  S1_16 
REMARK    5  A    between atoms: S1_16  and  N1_17 
ROOT
HETATM    1  C2  UNL     1      24.893 -13.910   7.182  1.00  0.00     0.069 A 
HETATM    2  C3  UNL     1      25.197 -15.085   7.848  1.00  0.00     0.039 A 
HETATM    3  C4  UNL     1      24.248 -15.979   8.285  1.00  0.00     0.033 A 
HETATM    4  C5  UNL     1      22.908 -15.661   8.028  1.00  0.00     0.046 A 
HETATM    5  C6  UNL     1      22.586 -14.495   7.366  1.00  0.00     0.009 A 
HETATM    6  C7  UNL     1      23.572 -13.627   6.946  1.00  0.00     0.051 A 
HETATM    7  C8  UNL     1      21.115 -14.387   7.217  1.00  0.00     0.045 A 
HETATM    8  C9  UNL     1      20.489 -13.385   6.668  1.00  0.00     0.029 C 
HETATM    9  C16 UNL     1      20.606 -15.585   7.849  1.00  0.00     0.257 A 
HETATM   10  O5  UNL     1      19.417 -15.949   7.982  1.00  0.00    -0.267 OA
HETATM   11  N2  UNL     1      21.731 -16.356   8.341  1.00  0.00    -0.322 N 
ATOM     12  H2  UNL     1      21.675 -17.249   8.831  1.00  0.00     0.169 HD
ENDROOT
BRANCH   8  13
HETATM   13  C10 UNL     1      19.070 -13.237   6.497  1.00  0.00    -0.035 A 
HETATM   14  C11 UNL     1      18.360 -13.756   5.440  1.00  0.00     0.014 A 
HETATM   15  C12 UNL     1      16.994 -13.588   5.378  1.00  0.00     0.039 A 
HETATM   16  C13 UNL     1      16.301 -12.912   6.345  1.00  0.00     0.091 A 
HETATM   17  C14 UNL     1      17.002 -12.389   7.403  1.00  0.00     0.039 A 
HETATM   18  C15 UNL     1      18.361 -12.543   7.486  1.00  0.00     0.014 A 
BRANCH  16  19
HETATM   19  O2  UNL     1      14.921 -12.731   6.304  1.00  0.00    -0.217 OA
BRANCH  19  20
HETATM   20  S1  UNL     1      14.288 -11.148   6.331  1.00  0.00     0.360 S 
HETATM   21  O3  UNL     1      12.995 -11.171   5.560  1.00  0.00    -0.176 OA
HETATM   22  O4  UNL     1      13.977 -10.689   7.731  1.00  0.00    -0.176 OA
BRANCH  20  23
HETATM   23  N1  UNL     1      15.345 -10.012   5.593  1.00  0.00    -0.305 N 
ATOM     24  H12 UNL     1      16.158  -9.621   6.067  1.00  0.00     0.171 HD
ATOM     25  H11 UNL     1      15.061  -9.783   4.641  1.00  0.00     0.171 HD
ENDBRANCH  20  23
ENDBRANCH  19  20
ENDBRANCH  16  19
ENDBRANCH   8  13
BRANCH   1  26
HETATM   26  O1  UNL     1      25.929 -13.048   6.768  1.00  0.00    -0.356 OA
HETATM   27  C1  UNL     1      25.671 -11.661   6.857  1.00  0.00     0.210 C 
ENDBRANCH   1  26
TORSDOF 5
ENDMDL
MODEL 2
REMARK VINA RESULT: -7.830461091      1.087      1.140
REMARK  5 active torsions:
REMARK  status: ('A' for Active; 'I' for Inactive)
REMARK    1  A    between atoms: O1_2  and  C2_3 
REMARK    2  A    between atoms: C9_10  and  C10_11 
REMARK    3  A    between atoms: C13_14  and  O2_15 
REMARK    4  A    between atoms: O2_15  and  S1_16 
REMARK    5  A    between atoms: S1_16  and  N1_17 
ROOT
HETATM    1  C2  UNL     1      24.632 -14.053   7.000  1.00  0.00     0.069 A 
HETATM    2  C3  UNL     1      24.858 -15.201   7.739  1.00  0.00     0.039 A 
HETATM    3  C4  UNL     1      23.852 -15.992   8.242  1.00  0.00     0.033 A 
HETATM    4  C5  UNL     1      22.535 -15.592   7.978  1.00  0.00     0.046 A 
HETATM    5  C6  UNL     1      22.291 -14.451   7.244  1.00  0.00     0.009 A 
HETATM    6  C7  UNL     1      23.332 -13.688   6.758  1.00  0.00     0.051 A 
HETATM    7  C8  UNL     1      20.830 -14.243   7.103  1.00  0.00     0.045 A 
HETATM    8  C9  UNL     1      20.271 -13.234   6.495  1.00  0.00     0.029 C 
HETATM    9  C16 UNL     1      20.243 -15.356   7.817  1.00  0.00     0.257 A 
HETATM   10  O5  UNL     1      19.032 -15.621   7.986  1.00  0.00    -0.267 OA
HETATM   11  N2  UNL     1      21.314 -16.175   8.348  1.00  0.00    -0.322 N 
ATOM     12  H2  UNL     1      21.200 -17.028   8.896  1.00  0.00     0.169 HD
ENDROOT
BRANCH   8  13
HETATM   13  C10 UNL     1      18.865 -12.992   6.329  1.00  0.00    -0.035 A 
HETATM   14  C11 UNL     1      18.050 -13.714   5.489  1.00  0.00     0.014 A 
HETATM   15  C12 UNL     1      16.704 -13.428   5.420  1.00  0.00     0.039 A 
HETATM   16  C13 UNL     1      16.134 -12.433   6.168  1.00  0.00     0.091 A 
HETATM   17  C14 UNL     1      16.940 -11.706   7.008  1.00  0.00     0.039 A 
HETATM   18  C15 UNL     1      18.281 -11.973   7.093  1.00  0.00     0.014 A 
BRANCH  16  19
HETATM   19  O2  UNL     1      14.777 -12.127   6.115  1.00  0.00    -0.217 OA
BRANCH  19  20
HETATM   20  S1  UNL     1      13.830 -12.299   7.523  1.00  0.00     0.360 S 
HETATM   21  O3  UNL     1      12.430 -12.635   7.080  1.00  0.00    -0.176 OA
HETATM   22  O4  UNL     1      14.316 -13.426   8.394  1.00  0.00    -0.176 OA
BRANCH  20  23
HETATM   23  N1  UNL     1      13.778 -10.856   8.452  1.00  0.00    -0.305 N 
ATOM     24  H12 UNL     1      13.194 -10.750   9.281  1.00  0.00     0.171 HD
ATOM     25  H11 UNL     1      14.392 -10.133   8.078  1.00  0.00     0.171 HD
ENDBRANCH  20  23
ENDBRANCH  19  20
ENDBRANCH  16  19
ENDBRANCH   8  13
BRANCH   1  26
HETATM   26  O1  UNL     1      25.722 -13.299   6.520  1.00  0.00    -0.356 OA
HETATM   27  C1  UNL     1      25.791 -11.950   6.936  1.00  0.00     0.210 C 
ENDBRANCH   1  26
TORSDOF 5
ENDMDL
MODEL 3
REMARK VINA RESULT: -7.824488383      0.312      1.014
REMARK  5 active torsions:
REMARK  status: ('A' for Active; 'I' for Inactive)
REMARK    1  A    between atoms: O1_2  and  C2_3 
REMARK    2  A    between atoms: C9_10  and  C10_11 
REMARK    3  A    between atoms: C13_14  and  O2_15 
REMARK    4  A    between atoms: O2_15  and  S1_16 
REMARK    5  A    between atoms: S1_16  and  N1_17 
ROOT
HETATM    1  C2  UNL     1      24.659 -13.988   6.995  1.00  0.00     0.069 A 
HETATM    2  C3  UNL     1      24.950 -15.157   7.677  1.00  0.00     0.039 A 
HETATM    3  C4  UNL     1      23.989 -16.005   8.175  1.00  0.00     0.033 A 
HETATM    4  C5  UNL     1      22.651 -15.646   7.966  1.00  0.00     0.046 A 
HETATM    5  C6  UNL     1      22.343 -14.485   7.289  1.00  0.00     0.009 A 
HETATM    6  C7  UNL     1      23.341 -13.663   6.807  1.00  0.00     0.051 A 
HETATM    7  C8  UNL     1      20.872 -14.327   7.199  1.00  0.00     0.045 A 
HETATM    8  C9  UNL     1      20.258 -13.316   6.651  1.00  0.00     0.029 C 
HETATM    9  C16 UNL     1      20.349 -15.490   7.881  1.00  0.00     0.257 A 
HETATM   10  O5  UNL     1      19.154 -15.809   8.073  1.00  0.00    -0.267 OA
HETATM   11  N2  UNL     1      21.465 -16.289   8.345  1.00  0.00    -0.322 N 
ATOM     12  H2  UNL     1      21.399 -17.168   8.859  1.00  0.00     0.169 HD
ENDROOT
BRANCH   8  13
HETATM   13  C10 UNL     1      18.840 -13.121   6.535  1.00  0.00    -0.035 A 
HETATM   14  C11 UNL     1      18.086 -12.380   7.414  1.00  0.00     0.014 A 
HETATM   15  C12 UNL     1      16.734 -12.224   7.202  1.00  0.00     0.039 A 
HETATM   16  C13 UNL     1      16.097 -12.790   6.130  1.00  0.00     0.091 A 
HETATM   17  C14 UNL     1      16.842 -13.531   5.247  1.00  0.00     0.039 A 
HETATM   18  C15 UNL     1      18.188 -13.701   5.438  1.00  0.00     0.014 A 
BRANCH  16  19
HETATM   19  O2  UNL     1      14.733 -12.644   5.895  1.00  0.00    -0.217 OA
BRANCH  19  20
HETATM   20  S1  UNL     1      14.020 -11.103   6.054  1.00  0.00     0.360 S 
HETATM   21  O3  UNL     1      12.678 -11.160   5.375  1.00  0.00    -0.176 OA
HETATM   22  O4  UNL     1      13.788 -10.736   7.495  1.00  0.00    -0.176 OA
BRANCH  20  23
HETATM   23  N1  UNL     1      14.959  -9.873   5.308  1.00  0.00    -0.305 N 
ATOM     24  H12 UNL     1      15.961  -9.766   5.466  1.00  0.00     0.171 HD
ATOM     25  H11 UNL     1      14.399  -9.275   4.701  1.00  0.00     0.171 HD
ENDBRANCH  20  23
ENDBRANCH  19  20
ENDBRANCH  16  19
ENDBRANCH   8  13
BRANCH   1  26
HETATM   26  O1  UNL     1      25.707 -13.174   6.517  1.00  0.00    -0.356 OA
HETATM   27  C1  UNL     1      25.695 -11.822   6.929  1.00  0.00     0.210 C 
ENDBRANCH   1  26
TORSDOF 5
ENDMDL
MODEL 4
REMARK VINA RESULT: -7.580126285      1.699      2.123
REMARK  5 active torsions:
REMARK  status: ('A' for Active; 'I' for Inactive)
REMARK    1  A    between atoms: O1_2  and  C2_3 
REMARK    2  A    between atoms: C9_10  and  C10_11 
REMARK    3  A    between atoms: C13_14  and  O2_15 
REMARK    4  A    between atoms: O2_15  and  S1_16 
REMARK    5  A    between atoms: S1_16  and  N1_17 
ROOT
HETATM    1  C2  UNL     1      24.596 -13.728   6.887  1.00  0.00     0.069 A 
HETATM    2  C3  UNL     1      24.938 -14.727   7.783  1.00  0.00     0.039 A 
HETATM    3  C4  UNL     1      24.024 -15.578   8.358  1.00  0.00     0.033 A 
HETATM    4  C5  UNL     1      22.680 -15.405   8.001  1.00  0.00     0.046 A 
HETATM    5  C6  UNL     1      22.321 -14.415   7.111  1.00  0.00     0.009 A 
HETATM    6  C7  UNL     1      23.272 -13.584   6.558  1.00  0.00     0.051 A 
HETATM    7  C8  UNL     1      20.854 -14.435   6.898  1.00  0.00     0.045 A 
HETATM    8  C9  UNL     1      20.195 -13.603   6.141  1.00  0.00     0.029 C 
HETATM    9  C16 UNL     1      20.388 -15.516   7.738  1.00  0.00     0.257 A 
HETATM   10  O5  UNL     1      19.217 -15.925   7.904  1.00  0.00    -0.267 OA
HETATM   11  N2  UNL     1      21.532 -16.100   8.409  1.00  0.00    -0.322 N 
ATOM     12  H2  UNL     1      21.507 -16.881   9.064  1.00  0.00     0.169 HD
ENDROOT
BRANCH   8  13
HETATM   13  C10 UNL     1      18.779 -13.585   5.899  1.00  0.00    -0.035 A 
HETATM   14  C11 UNL     1      17.921 -12.634   6.399  1.00  0.00     0.014 A 
HETATM   15  C12 UNL     1      16.580 -12.682   6.086  1.00  0.00     0.039 A 
HETATM   16  C13 UNL     1      16.057 -13.659   5.282  1.00  0.00     0.091 A 
HETATM   17  C14 UNL     1      16.906 -14.613   4.779  1.00  0.00     0.039 A 
HETATM   18  C15 UNL     1      18.243 -14.586   5.077  1.00  0.00     0.014 A 
BRANCH  16  19
HETATM   19  O2  UNL     1      14.706 -13.727   4.951  1.00  0.00    -0.217 OA
BRANCH  19  20
HETATM   20  S1  UNL     1      14.219 -13.353   3.360  1.00  0.00     0.360 S 
HETATM   21  O3  UNL     1      13.316 -14.465   2.897  1.00  0.00    -0.176 OA
HETATM   22  O4  UNL     1      13.433 -12.071   3.298  1.00  0.00    -0.176 OA
BRANCH  20  23
HETATM   23  N1  UNL     1      15.551 -13.244   2.281  1.00  0.00    -0.305 N 
ATOM     24  H12 UNL     1      16.388 -13.819   2.372  1.00  0.00     0.171 HD
ATOM     25  H11 UNL     1      15.402 -12.545   1.553  1.00  0.00     0.171 HD
ENDBRANCH  20  23
ENDBRANCH  19  20
ENDBRANCH  16  19
ENDBRANCH   8  13
BRANCH   1  26
HETATM   26  O1  UNL     1      25.597 -12.898   6.343  1.00  0.00    -0.356 OA
HETATM   27  C1  UNL     1      25.716 -11.603   6.898  1.00  0.00     0.210 C 
ENDBRANCH   1  26
TORSDOF 5
ENDMDL
MODEL 5
REMARK VINA RESULT: -7.566892790      1.463      1.657
REMARK  5 active torsions:
REMARK  status: ('A' for Active; 'I' for Inactive)
REMARK    1  A    between atoms: O1_2  and  C2_3 
REMARK    2  A    between atoms: C9_10  and  C10_11 
REMARK    3  A    between atoms: C13_14  and  O2_15 
REMARK    4  A    between atoms: O2_15  and  S1_16 
REMARK    5  A    between atoms: S1_16  and  N1_17 
ROOT
HETATM    1  C2  UNL     1      24.681 -13.928   7.011  1.00  0.00     0.069 A 
HETATM    2  C3  UNL     1      24.957 -15.033   7.797  1.00  0.00     0.039 A 
HETATM    3  C4  UNL     1      23.988 -15.863   8.309  1.00  0.00     0.033 A 
HETATM    4  C5  UNL     1      22.656 -15.552   8.003  1.00  0.00     0.046 A 
HETATM    5  C6  UNL     1      22.362 -14.455   7.221  1.00  0.00     0.009 A 
HETATM    6  C7  UNL     1      23.368 -13.650   6.729  1.00  0.00     0.051 A 
HETATM    7  C8  UNL     1      20.895 -14.339   7.042  1.00  0.00     0.045 A 
HETATM    8  C9  UNL     1      20.292 -13.389   6.385  1.00  0.00     0.029 C 
HETATM    9  C16 UNL     1      20.359 -15.459   7.785  1.00  0.00     0.257 A 
HETATM   10  O5  UNL     1      19.162 -15.789   7.939  1.00  0.00    -0.267 OA
HETATM   11  N2  UNL     1      21.464 -16.193   8.369  1.00  0.00    -0.322 N 
ATOM     12  H2  UNL     1      21.387 -17.030   8.947  1.00  0.00     0.169 HD
ENDROOT
BRANCH   8  13
HETATM   13  C10 UNL     1      18.879 -13.238   6.180  1.00  0.00    -0.035 A 
HETATM   14  C11 UNL     1      18.145 -13.971   5.278  1.00  0.00     0.014 A 
HETATM   15  C12 UNL     1      16.785 -13.776   5.175  1.00  0.00     0.039 A 
HETATM   16  C13 UNL     1      16.122 -12.862   5.948  1.00  0.00     0.091 A 
HETATM   17  C14 UNL     1      16.846 -12.124   6.851  1.00  0.00     0.039 A 
HETATM   18  C15 UNL     1      18.200 -12.301   6.971  1.00  0.00     0.014 A 
BRANCH  16  19
HETATM   19  O2  UNL     1      14.749 -12.649   5.862  1.00  0.00    -0.217 OA
BRANCH  19  20
HETATM   20  S1  UNL     1      13.684 -13.798   6.535  1.00  0.00     0.360 S 
HETATM   21  O3  UNL     1      12.485 -13.048   7.050  1.00  0.00    -0.176 OA
HETATM   22  O4  UNL     1      13.198 -14.786   5.508  1.00  0.00    -0.176 OA
BRANCH  20  23
HETATM   23  N1  UNL     1      14.395 -14.657   7.841  1.00  0.00    -0.305 N 
ATOM     24  H12 UNL     1      15.153 -14.277   8.408  1.00  0.00     0.171 HD
ATOM     25  H11 UNL     1      13.973 -15.575   7.976  1.00  0.00     0.171 HD
ENDBRANCH  20  23
ENDBRANCH  19  20
ENDBRANCH  16  19
ENDBRANCH   8  13
BRANCH   1  26
HETATM   26  O1  UNL     1      25.736 -13.128   6.525  1.00  0.00    -0.356 OA
HETATM   27  C1  UNL     1      25.716 -11.764   6.891  1.00  0.00     0.210 C 
ENDBRANCH   1  26
TORSDOF 5
ENDMDL
