MODEL 1
REMARK VINA RESULT: -7.703865535      0.000      0.000
REMARK  9 active torsions:
REMARK  status: ('A' for Active; 'I' for Inactive)
REMARK    1  A    between atoms: N1_2  and  O3_4 
REMARK    2  A    between atoms: O3_4  and  C1_5 
REMARK    3  A    between atoms: C1_5  and  C2_6 
REMARK    4  A    between atoms: C2_6  and  S1_7 
REMARK    5  A    between atoms: S1_7  and  C3_8 
REMARK    6  A    between atoms: C3_8  and  C4_9 
REMARK    7  A    between atoms: N2_10  and  N3_12 
REMARK    8  A    between atoms: N3_12  and  C5_14 
REMARK    9  A    between atoms: C6_15  and  N4_16 
ROOT
HETATM    1  C5  UNL     1       3.272  33.546  25.433  1.00  0.00     0.089 A 
HETATM    2  C6  UNL     1       2.216  32.643  25.276  1.00  0.00     0.075 A 
HETATM    3  C12 UNL     1       2.381  31.411  24.679  1.00  0.00     0.120 A 
HETATM    4  N5  UNL     1       3.597  31.076  24.238  1.00  0.00    -0.357 N 
ATOM      5  H5  UNL     1       3.737  30.168  23.793  1.00  0.00     0.166 HD
HETATM    6  C13 UNL     1       4.658  31.933  24.373  1.00  0.00     0.086 A 
HETATM    7  S2  UNL     1       6.309  31.849  23.942  1.00  0.00    -0.083 SA
HETATM    8  C14 UNL     1       6.825  33.364  24.506  1.00  0.00     0.053 A 
HETATM    9  C15 UNL     1       5.678  33.907  25.025  1.00  0.00     0.024 A 
HETATM   10  C16 UNL     1       4.549  33.165  24.957  1.00  0.00     0.029 A 
ENDROOT
BRANCH   1  11
HETATM   11  N3  UNL     1       3.006  34.631  25.970  1.00  0.00    -0.298 N 
ATOM     12  H3  UNL     1       3.019  34.531  26.984  1.00  0.00     0.187 HD
BRANCH  11  13
HETATM   13  N2  UNL     1       2.709  35.884  25.641  1.00  0.00    -0.315 N 
HETATM   14  C4  UNL     1       1.563  36.399  25.384  1.00  0.00     0.090 C 
ATOM     15  H2  UNL     1       3.501  36.524  25.586  1.00  0.00     0.185 HD
BRANCH  14  16
HETATM   16  C3  UNL     1       1.471  37.821  25.039  1.00  0.00     0.120 C 
BRANCH  16  17
HETATM   17  S1  UNL     1       3.035  38.492  24.423  1.00  0.00    -0.162 SA
BRANCH  17  18
HETATM   18  C2  UNL     1       3.794  39.622  25.609  1.00  0.00     0.103 C 
BRANCH  18  19
HETATM   19  C1  UNL     1       4.710  38.860  26.562  1.00  0.00     0.218 C 
BRANCH  19  20
HETATM   20  O3  UNL     1       3.919  38.224  27.553  1.00  0.00    -0.221 OA
BRANCH  20  21
HETATM   21  N1  UNL     1       4.412  37.147  28.248  1.00  0.00     0.004 N 
HETATM   22  O1  UNL     1       5.061  36.287  27.584  1.00  0.00    -0.511 OA
HETATM   23  O2  UNL     1       4.214  37.004  29.597  1.00  0.00    -0.511 OA
ENDBRANCH  20  21
ENDBRANCH  19  20
ENDBRANCH  18  19
ENDBRANCH  17  18
ENDBRANCH  16  17
ENDBRANCH  14  16
ENDBRANCH  11  13
ENDBRANCH   1  11
BRANCH   2  24
HETATM   24  N4  UNL     1       0.890  32.931  25.766  1.00  0.00    -0.378 N 
HETATM   25  C7  UNL     1      -0.116  33.234  24.731  1.00  0.00     0.129 C 
HETATM   26  C8  UNL     1      -1.234  34.073  25.310  1.00  0.00     0.099 C 
HETATM   27  C9  UNL     1      -1.907  33.235  26.342  1.00  0.00     0.246 C 
HETATM   28  F1  UNL     1      -2.557  32.189  25.699  1.00  0.00    -0.206 F 
HETATM   29  F2  UNL     1      -2.908  33.991  26.924  1.00  0.00    -0.206 F 
HETATM   30  C10 UNL     1      -0.986  32.704  27.373  1.00  0.00     0.099 C 
HETATM   31  C11 UNL     1       0.485  32.920  27.129  1.00  0.00     0.129 C 
ENDBRANCH   2  24
TORSDOF 9
ENDMDL
MODEL 2
REMARK VINA RESULT: -7.687529356      3.593      5.578
REMARK  9 active torsions:
REMARK  status: ('A' for Active; 'I' for Inactive)
REMARK    1  A    between atoms: N1_2  and  O3_4 
REMARK    2  A    between atoms: O3_4  and  C1_5 
REMARK    3  A    between atoms: C1_5  and  C2_6 
REMARK    4  A    between atoms: C2_6  and  S1_7 
REMARK    5  A    between atoms: S1_7  and  C3_8 
REMARK    6  A    between atoms: C3_8  and  C4_9 
REMARK    7  A    between atoms: N2_10  and  N3_12 
REMARK    8  A    between atoms: N3_12  and  C5_14 
REMARK    9  A    between atoms: C6_15  and  N4_16 
ROOT
HETATM    1  C5  UNL     1       4.205  33.733  25.269  1.00  0.00     0.089 A 
HETATM    2  C6  UNL     1       5.270  34.611  25.488  1.00  0.00     0.075 A 
HETATM    3  C12 UNL     1       6.571  34.290  25.163  1.00  0.00     0.120 A 
HETATM    4  N5  UNL     1       6.814  33.093  24.619  1.00  0.00    -0.357 N 
ATOM      5  H5  UNL     1       7.770  32.838  24.373  1.00  0.00     0.166 HD
HETATM    6  C13 UNL     1       5.797  32.203  24.389  1.00  0.00     0.086 A 
HETATM    7  S2  UNL     1       5.729  30.629  23.729  1.00  0.00    -0.083 SA
HETATM    8  C14 UNL     1       4.060  30.344  23.848  1.00  0.00     0.053 A 
HETATM    9  C15 UNL     1       3.589  31.503  24.409  1.00  0.00     0.024 A 
HETATM   10  C16 UNL     1       4.490  32.472  24.691  1.00  0.00     0.029 A 
ENDROOT
BRANCH   1  11
HETATM   11  N3  UNL     1       3.079  34.120  25.614  1.00  0.00    -0.298 N 
ATOM     12  H3  UNL     1       2.928  33.916  26.601  1.00  0.00     0.187 HD
BRANCH  11  13
HETATM   13  N2  UNL     1       2.007  34.718  25.105  1.00  0.00    -0.315 N 
HETATM   14  C4  UNL     1       1.547  35.890  25.348  1.00  0.00     0.090 C 
ATOM     15  H2  UNL     1       1.478  34.169  24.427  1.00  0.00     0.185 HD
BRANCH  14  16
HETATM   16  C3  UNL     1       0.335  36.346  24.663  1.00  0.00     0.120 C 
BRANCH  16  17
HETATM   17  S1  UNL     1      -0.601  34.987  23.920  1.00  0.00    -0.162 SA
BRANCH  17  18
HETATM   18  C2  UNL     1      -2.162  34.698  24.779  1.00  0.00     0.103 C 
BRANCH  18  19
HETATM   19  C1  UNL     1      -2.081  33.430  25.624  1.00  0.00     0.218 C 
BRANCH  19  20
HETATM   20  O3  UNL     1      -0.722  33.161  25.923  1.00  0.00    -0.221 OA
BRANCH  20  21
HETATM   21  N1  UNL     1      -0.316  33.003  27.225  1.00  0.00     0.004 N 
HETATM   22  O1  UNL     1       0.905  33.222  27.475  1.00  0.00    -0.511 OA
HETATM   23  O2  UNL     1      -1.188  32.625  28.214  1.00  0.00    -0.511 OA
ENDBRANCH  20  21
ENDBRANCH  19  20
ENDBRANCH  18  19
ENDBRANCH  17  18
ENDBRANCH  16  17
ENDBRANCH  14  16
ENDBRANCH  11  13
ENDBRANCH   1  11
BRANCH   2  24
HETATM   24  N4  UNL     1       5.068  35.930  26.035  1.00  0.00    -0.378 N 
HETATM   25  C7  UNL     1       5.002  37.024  25.047  1.00  0.00     0.129 C 
HETATM   26  C8  UNL     1       5.388  38.338  25.688  1.00  0.00     0.099 C 
HETATM   27  C9  UNL     1       4.359  38.627  26.726  1.00  0.00     0.246 C 
HETATM   28  F1  UNL     1       3.155  38.893  26.086  1.00  0.00    -0.206 F 
HETATM   29  F2  UNL     1       4.709  39.803  27.364  1.00  0.00    -0.206 F 
HETATM   30  C10 UNL     1       4.181  37.532  27.708  1.00  0.00     0.099 C 
HETATM   31  C11 UNL     1       4.904  36.244  27.412  1.00  0.00     0.129 C 
ENDBRANCH   2  24
TORSDOF 9
ENDMDL
MODEL 3
REMARK VINA RESULT: -7.457724298      3.663      5.823
REMARK  9 active torsions:
REMARK  status: ('A' for Active; 'I' for Inactive)
REMARK    1  A    between atoms: N1_2  and  O3_4 
REMARK    2  A    between atoms: O3_4  and  C1_5 
REMARK    3  A    between atoms: C1_5  and  C2_6 
REMARK    4  A    between atoms: C2_6  and  S1_7 
REMARK    5  A    between atoms: S1_7  and  C3_8 
REMARK    6  A    between atoms: C3_8  and  C4_9 
REMARK    7  A    between atoms: N2_10  and  N3_12 
REMARK    8  A    between atoms: N3_12  and  C5_14 
REMARK    9  A    between atoms: C6_15  and  N4_16 
ROOT
HETATM    1  C5  UNL     1       3.878  34.412  25.409  1.00  0.00     0.089 A 
HETATM    2  C6  UNL     1       2.868  35.334  25.698  1.00  0.00     0.075 A 
HETATM    3  C12 UNL     1       3.135  36.578  26.230  1.00  0.00     0.120 A 
HETATM    4  N5  UNL     1       4.408  36.906  26.475  1.00  0.00    -0.357 N 
ATOM      5  H5  UNL     1       4.624  37.822  26.868  1.00  0.00     0.166 HD
HETATM    6  C13 UNL     1       5.426  36.030  26.205  1.00  0.00     0.086 A 
HETATM    7  S2  UNL     1       7.124  36.099  26.380  1.00  0.00    -0.083 SA
HETATM    8  C14 UNL     1       7.532  34.563  25.785  1.00  0.00     0.053 A 
HETATM    9  C15 UNL     1       6.314  34.024  25.460  1.00  0.00     0.024 A 
HETATM   10  C16 UNL     1       5.217  34.785  25.676  1.00  0.00     0.029 A 
ENDROOT
BRANCH   1  11
HETATM   11  N3  UNL     1       3.522  33.318  24.948  1.00  0.00    -0.298 N 
ATOM     12  H3  UNL     1       2.505  33.246  24.966  1.00  0.00     0.187 HD
BRANCH  11  13
HETATM   13  N2  UNL     1       4.045  32.209  24.437  1.00  0.00    -0.315 N 
HETATM   14  C4  UNL     1       3.455  31.123  24.095  1.00  0.00     0.090 C 
ATOM     15  H2  UNL     1       5.056  32.223  24.297  1.00  0.00     0.185 HD
BRANCH  14  16
HETATM   16  C3  UNL     1       4.243  30.015  23.547  1.00  0.00     0.120 C 
BRANCH  16  17
HETATM   17  S1  UNL     1       6.026  30.292  23.681  1.00  0.00    -0.162 SA
BRANCH  17  18
HETATM   18  C2  UNL     1       6.687  31.123  22.220  1.00  0.00     0.103 C 
BRANCH  18  19
HETATM   19  C1  UNL     1       7.886  31.990  22.595  1.00  0.00     0.218 C 
BRANCH  19  20
HETATM   20  O3  UNL     1       8.693  31.285  23.523  1.00  0.00    -0.221 OA
BRANCH  20  21
HETATM   21  N1  UNL     1       9.881  30.725  23.122  1.00  0.00     0.004 N 
HETATM   22  O1  UNL     1      10.942  31.319  23.473  1.00  0.00    -0.511 OA
HETATM   23  O2  UNL     1       9.924  29.575  22.376  1.00  0.00    -0.511 OA
ENDBRANCH  20  21
ENDBRANCH  19  20
ENDBRANCH  18  19
ENDBRANCH  17  18
ENDBRANCH  16  17
ENDBRANCH  14  16
ENDBRANCH  11  13
ENDBRANCH   1  11
BRANCH   2  24
HETATM   24  N4  UNL     1       1.480  35.054  25.422  1.00  0.00    -0.378 N 
HETATM   25  C7  UNL     1       0.847  35.923  24.412  1.00  0.00     0.129 C 
HETATM   26  C8  UNL     1      -0.650  35.971  24.621  1.00  0.00     0.099 C 
HETATM   27  C9  UNL     1      -1.159  34.590  24.388  1.00  0.00     0.246 C 
HETATM   28  F1  UNL     1      -1.007  34.290  23.041  1.00  0.00    -0.206 F 
HETATM   29  F2  UNL     1      -2.523  34.590  24.616  1.00  0.00    -0.206 F 
HETATM   30  C10 UNL     1      -0.490  33.562  25.218  1.00  0.00     0.099 C 
HETATM   31  C11 UNL     1       0.706  34.018  26.012  1.00  0.00     0.129 C 
ENDBRANCH   2  24
TORSDOF 9
ENDMDL
MODEL 4
REMARK VINA RESULT: -7.448776248      1.620      1.899
REMARK  9 active torsions:
REMARK  status: ('A' for Active; 'I' for Inactive)
REMARK    1  A    between atoms: N1_2  and  O3_4 
REMARK    2  A    between atoms: O3_4  and  C1_5 
REMARK    3  A    between atoms: C1_5  and  C2_6 
REMARK    4  A    between atoms: C2_6  and  S1_7 
REMARK    5  A    between atoms: S1_7  and  C3_8 
REMARK    6  A    between atoms: C3_8  and  C4_9 
REMARK    7  A    between atoms: N2_10  and  N3_12 
REMARK    8  A    between atoms: N3_12  and  C5_14 
REMARK    9  A    between atoms: C6_15  and  N4_16 
ROOT
HETATM    1  C5  UNL     1       3.847  34.690  25.802  1.00  0.00     0.089 A 
HETATM    2  C6  UNL     1       2.939  33.788  25.241  1.00  0.00     0.075 A 
HETATM    3  C12 UNL     1       3.344  32.639  24.594  1.00  0.00     0.120 A 
HETATM    4  N5  UNL     1       4.653  32.387  24.505  1.00  0.00    -0.357 N 
ATOM      5  H5  UNL     1       4.971  31.542  24.030  1.00  0.00     0.166 HD
HETATM    6  C13 UNL     1       5.575  33.246  25.043  1.00  0.00     0.086 A 
HETATM    7  S2  UNL     1       7.282  33.252  25.121  1.00  0.00    -0.083 SA
HETATM    8  C14 UNL     1       7.521  34.701  25.972  1.00  0.00     0.053 A 
HETATM    9  C15 UNL     1       6.242  35.153  26.177  1.00  0.00     0.024 A 
HETATM   10  C16 UNL     1       5.228  34.398  25.695  1.00  0.00     0.029 A 
ENDROOT
BRANCH   1  11
HETATM   11  N3  UNL     1       3.373  35.698  26.346  1.00  0.00    -0.298 N 
ATOM     12  H3  UNL     1       3.003  35.456  27.265  1.00  0.00     0.187 HD
BRANCH  11  13
HETATM   13  N2  UNL     1       3.193  36.993  26.111  1.00  0.00    -0.315 N 
HETATM   14  C4  UNL     1       3.340  37.640  25.013  1.00  0.00     0.090 C 
ATOM     15  H2  UNL     1       2.899  37.549  26.913  1.00  0.00     0.185 HD
BRANCH  14  16
HETATM   16  C3  UNL     1       3.085  39.082  24.985  1.00  0.00     0.120 C 
BRANCH  16  17
HETATM   17  S1  UNL     1       2.163  39.656  26.433  1.00  0.00    -0.162 SA
BRANCH  17  18
HETATM   18  C2  UNL     1       3.084  40.899  27.365  1.00  0.00     0.103 C 
BRANCH  18  19
HETATM   19  C1  UNL     1       3.689  40.284  28.623  1.00  0.00     0.218 C 
BRANCH  19  20
HETATM   20  O3  UNL     1       4.035  38.935  28.357  1.00  0.00    -0.221 OA
BRANCH  20  21
HETATM   21  N1  UNL     1       4.174  38.039  29.388  1.00  0.00     0.004 N 
HETATM   22  O1  UNL     1       4.122  38.505  30.563  1.00  0.00    -0.511 OA
HETATM   23  O2  UNL     1       4.362  36.699  29.162  1.00  0.00    -0.511 OA
ENDBRANCH  20  21
ENDBRANCH  19  20
ENDBRANCH  18  19
ENDBRANCH  17  18
ENDBRANCH  16  17
ENDBRANCH  14  16
ENDBRANCH  11  13
ENDBRANCH   1  11
BRANCH   2  24
HETATM   24  N4  UNL     1       1.514  33.985  25.337  1.00  0.00    -0.378 N 
HETATM   25  C7  UNL     1       0.925  34.867  24.313  1.00  0.00     0.129 C 
HETATM   26  C8  UNL     1      -0.365  35.476  24.818  1.00  0.00     0.099 C 
HETATM   27  C9  UNL     1      -1.318  34.350  25.024  1.00  0.00     0.246 C 
HETATM   28  F1  UNL     1      -1.647  33.823  23.781  1.00  0.00    -0.206 F 
HETATM   29  F2  UNL     1      -2.495  34.869  25.529  1.00  0.00    -0.206 F 
HETATM   30  C10 UNL     1      -0.796  33.281  25.906  1.00  0.00     0.099 C 
HETATM   31  C11 UNL     1       0.654  33.390  26.301  1.00  0.00     0.129 C 
ENDBRANCH   2  24
TORSDOF 9
ENDMDL
MODEL 5
REMARK VINA RESULT: -7.394284375      3.967      5.842
REMARK  9 active torsions:
REMARK  status: ('A' for Active; 'I' for Inactive)
REMARK    1  A    between atoms: N1_2  and  O3_4 
REMARK    2  A    between atoms: O3_4  and  C1_5 
REMARK    3  A    between atoms: C1_5  and  C2_6 
REMARK    4  A    between atoms: C2_6  and  S1_7 
REMARK    5  A    between atoms: S1_7  and  C3_8 
REMARK    6  A    between atoms: C3_8  and  C4_9 
REMARK    7  A    between atoms: N2_10  and  N3_12 
REMARK    8  A    between atoms: N3_12  and  C5_14 
REMARK    9  A    between atoms: C6_15  and  N4_16 
ROOT
HETATM    1  C5  UNL     1       4.162  33.802  25.247  1.00  0.00     0.089 A 
HETATM    2  C6  UNL     1       5.239  34.649  25.522  1.00  0.00     0.075 A 
HETATM    3  C12 UNL     1       6.546  34.284  25.279  1.00  0.00     0.120 A 
HETATM    4  N5  UNL     1       6.783  33.074  24.760  1.00  0.00    -0.357 N 
ATOM      5  H5  UNL     1       7.743  32.787  24.574  1.00  0.00     0.166 HD
HETATM    6  C13 UNL     1       5.753  32.215  24.476  1.00  0.00     0.086 A 
HETATM    7  S2  UNL     1       5.675  30.637  23.826  1.00  0.00    -0.083 SA
HETATM    8  C14 UNL     1       3.994  30.406  23.847  1.00  0.00     0.053 A 
HETATM    9  C15 UNL     1       3.527  31.585  24.370  1.00  0.00     0.024 A 
HETATM   10  C16 UNL     1       4.440  32.528  24.697  1.00  0.00     0.029 A 
ENDROOT
BRANCH   1  11
HETATM   11  N3  UNL     1       3.030  34.228  25.521  1.00  0.00    -0.298 N 
ATOM     12  H3  UNL     1       2.767  33.938  26.462  1.00  0.00     0.187 HD
BRANCH  11  13
HETATM   13  N2  UNL     1       2.052  34.943  24.976  1.00  0.00    -0.315 N 
HETATM   14  C4  UNL     1       1.543  36.050  25.378  1.00  0.00     0.090 C 
ATOM     15  H2  UNL     1       1.650  34.559  24.121  1.00  0.00     0.185 HD
BRANCH  14  16
HETATM   16  C3  UNL     1       0.457  36.666  24.611  1.00  0.00     0.120 C 
BRANCH  16  17
HETATM   17  S1  UNL     1      -0.493  35.460  23.653  1.00  0.00    -0.162 SA
BRANCH  17  18
HETATM   18  C2  UNL     1      -2.012  34.976  24.500  1.00  0.00     0.103 C 
BRANCH  18  19
HETATM   19  C1  UNL     1      -1.788  33.705  25.314  1.00  0.00     0.218 C 
BRANCH  19  20
HETATM   20  O3  UNL     1      -2.535  33.789  26.516  1.00  0.00    -0.221 OA
BRANCH  20  21
HETATM   21  N1  UNL     1      -2.319  32.890  27.531  1.00  0.00     0.004 N 
HETATM   22  O1  UNL     1      -3.290  32.145  27.852  1.00  0.00    -0.511 OA
HETATM   23  O2  UNL     1      -1.109  32.799  28.171  1.00  0.00    -0.511 OA
ENDBRANCH  20  21
ENDBRANCH  19  20
ENDBRANCH  18  19
ENDBRANCH  17  18
ENDBRANCH  16  17
ENDBRANCH  14  16
ENDBRANCH  11  13
ENDBRANCH   1  11
BRANCH   2  24
HETATM   24  N4  UNL     1       5.046  35.979  26.046  1.00  0.00    -0.378 N 
HETATM   25  C7  UNL     1       5.059  37.063  25.046  1.00  0.00     0.129 C 
HETATM   26  C8  UNL     1       5.449  38.373  25.691  1.00  0.00     0.099 C 
HETATM   27  C9  UNL     1       4.379  38.701  26.675  1.00  0.00     0.246 C 
HETATM   28  F1  UNL     1       3.216  38.993  25.974  1.00  0.00    -0.206 F 
HETATM   29  F2  UNL     1       4.729  39.874  27.317  1.00  0.00    -0.206 F 
HETATM   30  C10 UNL     1       4.124  37.623  27.658  1.00  0.00     0.099 C 
HETATM   31  C11 UNL     1       4.825  36.313  27.410  1.00  0.00     0.129 C 
ENDBRANCH   2  24
TORSDOF 9
ENDMDL
