MODEL 1
REMARK VINA RESULT: -7.882983289      0.000      0.000
REMARK  9 active torsions:
REMARK  status: ('A' for Active; 'I' for Inactive)
REMARK    1  A    between atoms: C2_2  and  C3_3 
REMARK    2  A    between atoms: C3_3  and  C4_4 
REMARK    3  A    between atoms: C3_3  and  C20_31 
REMARK    4  A    between atoms: C4_4  and  N1_5 
REMARK    5  A    between atoms: N2_8  and  C7_9 
REMARK    6  A    between atoms: C7_9  and  C8_10 
REMARK    7  A    between atoms: C7_9  and  C14_23 
REMARK    8  A    between atoms: N6_17  and  C9_18 
REMARK    9  A    between atoms: C18_27  and  C19_28 
ROOT
HETATM    1  C7  UNL     1       4.050  38.783  25.629  1.00  0.00     0.162 C 
ENDROOT
BRANCH   1   2
HETATM    2  N2  UNL     1       2.925  38.253  24.939  1.00  0.00    -0.358 N 
HETATM    3  C6  UNL     1       3.029  37.786  23.641  1.00  0.00     0.094 C 
HETATM    4  C5  UNL     1       2.228  36.604  23.267  1.00  0.00     0.318 C 
HETATM    5  N1  UNL     1       0.998  36.350  23.953  1.00  0.00     0.109 N 
HETATM    6  C18 UNL     1       0.662  37.321  24.957  1.00  0.00     0.326 C 
HETATM    7  C17 UNL     1       1.815  37.914  25.713  1.00  0.00     0.105 C 
BRANCH   5   8
HETATM    8  C4  UNL     1       1.066  34.994  24.526  1.00  0.00     0.289 C 
BRANCH   8   9
HETATM    9  C3  UNL     1      -0.180  34.658  25.250  1.00  0.00     0.115 C 
BRANCH   9  10
HETATM   10  C2  UNL     1      -0.142  33.208  25.774  1.00  0.00     0.012 C 
HETATM   11  C1  UNL     1       1.136  32.513  25.414  1.00  0.00     0.006 C 
ENDBRANCH   9  10
BRANCH   9  12
HETATM   12  C20 UNL     1      -1.360  34.655  24.304  1.00  0.00     0.178 C 
HETATM   13  O1  UNL     1      -2.514  35.020  24.676  1.00  0.00    -0.648 OA
HETATM   14  O2  UNL     1      -1.203  34.250  23.005  1.00  0.00    -0.648 OA
ENDBRANCH   9  12
ENDBRANCH   8   9
ENDBRANCH   5   8
BRANCH   6  15
HETATM   15  C19 UNL     1      -0.349  38.354  24.500  1.00  0.00     0.391 C 
HETATM   16  F1  UNL     1      -0.722  38.261  23.204  1.00  0.00    -0.212 F 
HETATM   17  F2  UNL     1       0.275  39.600  24.665  1.00  0.00    -0.212 F 
ENDBRANCH   6  15
ENDBRANCH   1   2
BRANCH   1  18
HETATM   18  C8  UNL     1       4.296  38.094  26.908  1.00  0.00     0.139 A 
HETATM   19  N3  UNL     1       3.879  38.537  28.109  1.00  0.00    -0.270 N 
HETATM   20  N4  UNL     1       4.264  37.666  29.056  1.00  0.00    -0.227 N 
ATOM     21  H3  UNL     1       3.354  39.396  28.273  1.00  0.00     0.190 HD
HETATM   22  N5  UNL     1       4.908  36.705  28.430  1.00  0.00    -0.224 N 
ATOM     23  H4  UNL     1       4.092  37.735  30.058  1.00  0.00     0.210 HD
HETATM   24  N6  UNL     1       4.939  36.950  27.109  1.00  0.00    -0.257 N 
ATOM     25  H5  UNL     1       5.325  35.891  28.883  1.00  0.00     0.210 HD
BRANCH  24  26
HETATM   26  C9  UNL     1       5.552  36.106  26.139  1.00  0.00     0.111 C 
HETATM   27  C10 UNL     1       6.683  35.296  26.801  1.00  0.00     0.027 C 
HETATM   28  C11 UNL     1       6.928  34.124  25.894  1.00  0.00     0.002 C 
HETATM   29  C12 UNL     1       5.626  33.907  25.165  1.00  0.00     0.002 C 
HETATM   30  C13 UNL     1       4.659  34.948  25.702  1.00  0.00     0.027 C 
ENDBRANCH  24  26
ENDBRANCH   1  18
BRANCH   1  31
HETATM   31  C14 UNL     1       3.912  40.281  25.809  1.00  0.00     0.008 C 
HETATM   32  C15 UNL     1       3.396  40.978  24.572  1.00  0.00     0.012 C 
HETATM   33  C16 UNL     1       5.213  40.959  26.175  1.00  0.00     0.012 C 
ENDBRANCH   1  31
TORSDOF 9
ENDMDL
MODEL 2
REMARK VINA RESULT: -7.808823812      4.036      6.694
REMARK  9 active torsions:
REMARK  status: ('A' for Active; 'I' for Inactive)
REMARK    1  A    between atoms: C2_2  and  C3_3 
REMARK    2  A    between atoms: C3_3  and  C4_4 
REMARK    3  A    between atoms: C3_3  and  C20_31 
REMARK    4  A    between atoms: C4_4  and  N1_5 
REMARK    5  A    between atoms: N2_8  and  C7_9 
REMARK    6  A    between atoms: C7_9  and  C8_10 
REMARK    7  A    between atoms: C7_9  and  C14_23 
REMARK    8  A    between atoms: N6_17  and  C9_18 
REMARK    9  A    between atoms: C18_27  and  C19_28 
ROOT
HETATM    1  C7  UNL     1       2.952  36.293  25.481  1.00  0.00     0.162 C 
ENDROOT
BRANCH   1   2
HETATM    2  N2  UNL     1       3.839  35.181  25.510  1.00  0.00    -0.358 N 
HETATM    3  C6  UNL     1       3.386  33.905  25.796  1.00  0.00     0.094 C 
HETATM    4  C5  UNL     1       4.008  32.776  25.077  1.00  0.00     0.318 C 
HETATM    5  N1  UNL     1       5.358  32.900  24.618  1.00  0.00     0.109 N 
HETATM    6  C18 UNL     1       5.984  34.154  24.935  1.00  0.00     0.326 C 
HETATM    7  C17 UNL     1       5.090  35.359  24.922  1.00  0.00     0.105 C 
BRANCH   5   8
HETATM    8  C4  UNL     1       5.372  32.652  23.166  1.00  0.00     0.289 C 
BRANCH   8   9
HETATM    9  C3  UNL     1       6.125  31.420  22.842  1.00  0.00     0.115 C 
BRANCH   9  10
HETATM   10  C2  UNL     1       5.756  30.276  23.808  1.00  0.00     0.012 C 
HETATM   11  C1  UNL     1       4.467  29.613  23.428  1.00  0.00     0.006 C 
ENDBRANCH   9  10
BRANCH   9  12
HETATM   12  C20 UNL     1       7.604  31.620  23.089  1.00  0.00     0.178 C 
HETATM   13  O1  UNL     1       8.326  32.298  22.301  1.00  0.00    -0.648 OA
HETATM   14  O2  UNL     1       8.202  31.062  24.188  1.00  0.00    -0.648 OA
ENDBRANCH   9  12
ENDBRANCH   8   9
ENDBRANCH   5   8
BRANCH   6  15
HETATM   15  C19 UNL     1       6.895  34.097  26.146  1.00  0.00     0.391 C 
HETATM   16  F1  UNL     1       6.763  35.124  27.016  1.00  0.00    -0.212 F 
HETATM   17  F2  UNL     1       8.204  34.143  25.643  1.00  0.00    -0.212 F 
ENDBRANCH   6  15
ENDBRANCH   1   2
BRANCH   1  18
HETATM   18  C8  UNL     1       2.276  36.434  24.179  1.00  0.00     0.139 A 
HETATM   19  N3  UNL     1       2.851  36.930  23.068  1.00  0.00    -0.270 N 
HETATM   20  N4  UNL     1       1.959  36.907  22.065  1.00  0.00    -0.227 N 
ATOM     21  H3  UNL     1       3.811  37.268  22.999  1.00  0.00     0.190 HD
HETATM   22  N5  UNL     1       0.854  36.400  22.567  1.00  0.00    -0.224 N 
ATOM     23  H4  UNL     1       2.107  37.219  21.106  1.00  0.00     0.210 HD
HETATM   24  N6  UNL     1       1.029  36.103  23.867  1.00  0.00    -0.257 N 
ATOM     25  H5  UNL     1      -0.010  36.254  22.046  1.00  0.00     0.210 HD
BRANCH  24  26
HETATM   26  C9  UNL     1       0.034  35.532  24.712  1.00  0.00     0.111 C 
HETATM   27  C10 UNL     1      -1.357  35.739  24.084  1.00  0.00     0.027 C 
HETATM   28  C11 UNL     1      -2.252  34.723  24.733  1.00  0.00     0.002 C 
HETATM   29  C12 UNL     1      -1.335  33.607  25.168  1.00  0.00     0.002 C 
HETATM   30  C13 UNL     1       0.062  34.006  24.723  1.00  0.00     0.027 C 
ENDBRANCH  24  26
ENDBRANCH   1  18
BRANCH   1  31
HETATM   31  C14 UNL     1       3.671  37.563  25.887  1.00  0.00     0.008 C 
HETATM   32  C15 UNL     1       4.156  37.534  27.318  1.00  0.00     0.012 C 
HETATM   33  C16 UNL     1       2.815  38.802  25.747  1.00  0.00     0.012 C 
ENDBRANCH   1  31
TORSDOF 9
ENDMDL
MODEL 3
REMARK VINA RESULT: -7.801129999      1.289      1.788
REMARK  9 active torsions:
REMARK  status: ('A' for Active; 'I' for Inactive)
REMARK    1  A    between atoms: C2_2  and  C3_3 
REMARK    2  A    between atoms: C3_3  and  C4_4 
REMARK    3  A    between atoms: C3_3  and  C20_31 
REMARK    4  A    between atoms: C4_4  and  N1_5 
REMARK    5  A    between atoms: N2_8  and  C7_9 
REMARK    6  A    between atoms: C7_9  and  C8_10 
REMARK    7  A    between atoms: C7_9  and  C14_23 
REMARK    8  A    between atoms: N6_17  and  C9_18 
REMARK    9  A    between atoms: C18_27  and  C19_28 
ROOT
HETATM    1  C7  UNL     1       4.097  38.444  25.388  1.00  0.00     0.162 C 
ENDROOT
BRANCH   1   2
HETATM    2  N2  UNL     1       2.956  37.848  24.784  1.00  0.00    -0.358 N 
HETATM    3  C6  UNL     1       3.082  36.849  23.835  1.00  0.00     0.094 C 
HETATM    4  C5  UNL     1       2.082  35.763  23.840  1.00  0.00     0.318 C 
HETATM    5  N1  UNL     1       0.765  36.030  24.333  1.00  0.00     0.109 N 
HETATM    6  C18 UNL     1       0.553  37.382  24.770  1.00  0.00     0.326 C 
HETATM    7  C17 UNL     1       1.729  38.059  25.412  1.00  0.00     0.105 C 
BRANCH   5   8
HETATM    8  C4  UNL     1       0.479  35.071  25.414  1.00  0.00     0.289 C 
BRANCH   8   9
HETATM    9  C3  UNL     1      -0.090  33.815  24.877  1.00  0.00     0.115 C 
BRANCH   9  10
HETATM   10  C2  UNL     1      -1.608  33.738  25.138  1.00  0.00     0.012 C 
HETATM   11  C1  UNL     1      -2.375  34.699  24.282  1.00  0.00     0.006 C 
ENDBRANCH   9  10
BRANCH   9  12
HETATM   12  C20 UNL     1       0.453  32.620  25.630  1.00  0.00     0.178 C 
HETATM   13  O1  UNL     1       1.018  31.657  25.035  1.00  0.00    -0.648 OA
HETATM   14  O2  UNL     1       0.341  32.555  26.994  1.00  0.00    -0.648 OA
ENDBRANCH   9  12
ENDBRANCH   8   9
ENDBRANCH   5   8
BRANCH   6  15
HETATM   15  C19 UNL     1      -0.158  38.253  23.753  1.00  0.00     0.391 C 
HETATM   16  F1  UNL     1      -1.056  39.124  24.267  1.00  0.00    -0.212 F 
HETATM   17  F2  UNL     1      -0.863  37.371  22.920  1.00  0.00    -0.212 F 
ENDBRANCH   6  15
ENDBRANCH   1   2
BRANCH   1  18
HETATM   18  C8  UNL     1       4.386  37.878  26.717  1.00  0.00     0.139 A 
HETATM   19  N3  UNL     1       3.854  38.323  27.871  1.00  0.00    -0.270 N 
HETATM   20  N4  UNL     1       4.322  37.578  28.886  1.00  0.00    -0.227 N 
ATOM     21  H3  UNL     1       3.200  39.101  27.960  1.00  0.00     0.190 HD
HETATM   22  N5  UNL     1       5.129  36.690  28.348  1.00  0.00    -0.224 N 
ATOM     23  H4  UNL     1       4.097  37.681  29.875  1.00  0.00     0.210 HD
HETATM   24  N6  UNL     1       5.182  36.858  27.015  1.00  0.00    -0.257 N 
ATOM     25  H5  UNL     1       5.641  35.978  28.867  1.00  0.00     0.210 HD
BRANCH  24  26
HETATM   26  C9  UNL     1       5.956  36.060  26.124  1.00  0.00     0.111 C 
HETATM   27  C10 UNL     1       7.224  35.565  26.846  1.00  0.00     0.027 C 
HETATM   28  C11 UNL     1       7.704  34.381  26.057  1.00  0.00     0.002 C 
HETATM   29  C12 UNL     1       6.476  33.834  25.375  1.00  0.00     0.002 C 
HETATM   30  C13 UNL     1       5.316  34.709  25.821  1.00  0.00     0.027 C 
ENDBRANCH  24  26
ENDBRANCH   1  18
BRANCH   1  31
HETATM   31  C14 UNL     1       3.954  39.952  25.433  1.00  0.00     0.008 C 
HETATM   32  C15 UNL     1       3.704  40.561  24.073  1.00  0.00     0.012 C 
HETATM   33  C16 UNL     1       5.169  40.649  26.000  1.00  0.00     0.012 C 
ENDBRANCH   1  31
TORSDOF 9
ENDMDL
MODEL 4
REMARK VINA RESULT: -7.799900602      2.216      3.229
REMARK  9 active torsions:
REMARK  status: ('A' for Active; 'I' for Inactive)
REMARK    1  A    between atoms: C2_2  and  C3_3 
REMARK    2  A    between atoms: C3_3  and  C4_4 
REMARK    3  A    between atoms: C3_3  and  C20_31 
REMARK    4  A    between atoms: C4_4  and  N1_5 
REMARK    5  A    between atoms: N2_8  and  C7_9 
REMARK    6  A    between atoms: C7_9  and  C8_10 
REMARK    7  A    between atoms: C7_9  and  C14_23 
REMARK    8  A    between atoms: N6_17  and  C9_18 
REMARK    9  A    between atoms: C18_27  and  C19_28 
ROOT
HETATM    1  C7  UNL     1       4.318  37.106  25.003  1.00  0.00     0.162 C 
ENDROOT
BRANCH   1   2
HETATM    2  N2  UNL     1       2.949  36.761  25.181  1.00  0.00    -0.358 N 
HETATM    3  C6  UNL     1       2.099  37.551  25.935  1.00  0.00     0.094 C 
HETATM    4  C5  UNL     1       0.701  37.686  25.482  1.00  0.00     0.318 C 
HETATM    5  N1  UNL     1       0.106  36.624  24.729  1.00  0.00     0.109 N 
HETATM    6  C18 UNL     1       0.967  35.496  24.504  1.00  0.00     0.326 C 
HETATM    7  C17 UNL     1       2.423  35.806  24.313  1.00  0.00     0.105 C 
BRANCH   5   8
HETATM    8  C4  UNL     1      -0.381  37.183  23.456  1.00  0.00     0.289 C 
BRANCH   8   9
HETATM    9  C3  UNL     1      -0.310  36.179  22.371  1.00  0.00     0.115 C 
BRANCH   9  10
HETATM   10  C2  UNL     1      -0.149  36.859  20.997  1.00  0.00     0.012 C 
HETATM   11  C1  UNL     1       0.377  38.257  21.119  1.00  0.00     0.006 C 
ENDBRANCH   9  10
BRANCH   9  12
HETATM   12  C20 UNL     1      -1.625  35.442  22.242  1.00  0.00     0.178 C 
HETATM   13  O1  UNL     1      -2.336  35.525  21.198  1.00  0.00    -0.648 OA
HETATM   14  O2  UNL     1      -2.081  34.658  23.268  1.00  0.00    -0.648 OA
ENDBRANCH   9  12
ENDBRANCH   8   9
ENDBRANCH   5   8
BRANCH   6  15
HETATM   15  C19 UNL     1       0.721  34.336  25.449  1.00  0.00     0.391 C 
HETATM   16  F1  UNL     1       1.784  33.967  26.199  1.00  0.00    -0.212 F 
HETATM   17  F2  UNL     1       0.385  33.243  24.635  1.00  0.00    -0.212 F 
ENDBRANCH   6  15
ENDBRANCH   1   2
BRANCH   1  18
HETATM   18  C8  UNL     1       5.180  36.534  26.052  1.00  0.00     0.139 A 
HETATM   19  N3  UNL     1       5.380  37.085  27.264  1.00  0.00    -0.270 N 
HETATM   20  N4  UNL     1       6.209  36.300  27.971  1.00  0.00    -0.227 N 
ATOM     21  H3  UNL     1       4.967  37.958  27.592  1.00  0.00     0.190 HD
HETATM   22  N5  UNL     1       6.506  35.283  27.192  1.00  0.00    -0.224 N 
ATOM     23  H4  UNL     1       6.542  36.460  28.921  1.00  0.00     0.210 HD
HETATM   24  N6  UNL     1       5.882  35.408  26.007  1.00  0.00    -0.257 N 
ATOM     25  H5  UNL     1       7.121  34.511  27.449  1.00  0.00     0.210 HD
BRANCH  24  26
HETATM   26  C9  UNL     1       5.980  34.477  24.933  1.00  0.00     0.111 C 
HETATM   27  C10 UNL     1       7.266  33.643  25.090  1.00  0.00     0.027 C 
HETATM   28  C11 UNL     1       7.054  32.410  24.259  1.00  0.00     0.002 C 
HETATM   29  C12 UNL     1       5.559  32.226  24.197  1.00  0.00     0.002 C 
HETATM   30  C13 UNL     1       4.957  33.349  25.024  1.00  0.00     0.027 C 
ENDBRANCH  24  26
ENDBRANCH   1  18
BRANCH   1  31
HETATM   31  C14 UNL     1       4.482  38.609  24.893  1.00  0.00     0.008 C 
HETATM   32  C15 UNL     1       3.776  39.191  23.690  1.00  0.00     0.012 C 
HETATM   33  C16 UNL     1       5.926  39.044  24.797  1.00  0.00     0.012 C 
ENDBRANCH   1  31
TORSDOF 9
ENDMDL
MODEL 5
REMARK VINA RESULT: -7.765993717      2.449      3.263
REMARK  9 active torsions:
REMARK  status: ('A' for Active; 'I' for Inactive)
REMARK    1  A    between atoms: C2_2  and  C3_3 
REMARK    2  A    between atoms: C3_3  and  C4_4 
REMARK    3  A    between atoms: C3_3  and  C20_31 
REMARK    4  A    between atoms: C4_4  and  N1_5 
REMARK    5  A    between atoms: N2_8  and  C7_9 
REMARK    6  A    between atoms: C7_9  and  C8_10 
REMARK    7  A    between atoms: C7_9  and  C14_23 
REMARK    8  A    between atoms: N6_17  and  C9_18 
REMARK    9  A    between atoms: C18_27  and  C19_28 
ROOT
HETATM    1  C7  UNL     1       4.995  36.736  25.259  1.00  0.00     0.162 C 
ENDROOT
BRANCH   1   2
HETATM    2  N2  UNL     1       3.681  36.202  25.370  1.00  0.00    -0.358 N 
HETATM    3  C6  UNL     1       2.652  36.933  25.938  1.00  0.00     0.094 C 
HETATM    4  C5  UNL     1       1.302  36.788  25.357  1.00  0.00     0.318 C 
HETATM    5  N1  UNL     1       0.950  35.561  24.709  1.00  0.00     0.109 N 
HETATM    6  C18 UNL     1       1.986  34.565  24.711  1.00  0.00     0.326 C 
HETATM    7  C17 UNL     1       3.392  35.077  24.599  1.00  0.00     0.105 C 
BRANCH   5   8
HETATM    8  C4  UNL     1       0.519  35.877  23.336  1.00  0.00     0.289 C 
BRANCH   8   9
HETATM    9  C3  UNL     1      -0.955  35.832  23.216  1.00  0.00     0.115 C 
BRANCH   9  10
HETATM   10  C2  UNL     1      -1.507  34.470  23.683  1.00  0.00     0.012 C 
HETATM   11  C1  UNL     1      -2.283  34.585  24.959  1.00  0.00     0.006 C 
ENDBRANCH   9  10
BRANCH   9  12
HETATM   12  C20 UNL     1      -1.373  35.896  21.763  1.00  0.00     0.178 C 
HETATM   13  O1  UNL     1      -2.356  35.233  21.322  1.00  0.00    -0.648 OA
HETATM   14  O2  UNL     1      -0.683  36.685  20.881  1.00  0.00    -0.648 OA
ENDBRANCH   9  12
ENDBRANCH   8   9
ENDBRANCH   5   8
BRANCH   6  15
HETATM   15  C19 UNL     1       1.817  33.505  25.781  1.00  0.00     0.391 C 
HETATM   16  F1  UNL     1       1.654  32.243  25.322  1.00  0.00    -0.212 F 
HETATM   17  F2  UNL     1       0.650  33.848  26.479  1.00  0.00    -0.212 F 
ENDBRANCH   6  15
ENDBRANCH   1   2
BRANCH   1  18
HETATM   18  C8  UNL     1       5.907  36.194  26.282  1.00  0.00     0.139 A 
HETATM   19  N3  UNL     1       5.911  36.562  27.577  1.00  0.00    -0.270 N 
HETATM   20  N4  UNL     1       6.857  35.866  28.228  1.00  0.00    -0.227 N 
ATOM     21  H3  UNL     1       5.294  37.258  27.997  1.00  0.00     0.190 HD
HETATM   22  N5  UNL     1       7.419  35.083  27.332  1.00  0.00    -0.224 N 
ATOM     23  H4  UNL     1       7.094  35.931  29.218  1.00  0.00     0.210 HD
HETATM   24  N6  UNL     1       6.848  35.270  26.130  1.00  0.00    -0.257 N 
ATOM     25  H5  UNL     1       8.178  34.430  27.523  1.00  0.00     0.210 HD
BRANCH  24  26
HETATM   26  C9  UNL     1       7.212  34.577  24.939  1.00  0.00     0.111 C 
HETATM   27  C10 UNL     1       8.725  34.285  24.956  1.00  0.00     0.027 C 
HETATM   28  C11 UNL     1       8.934  33.168  23.973  1.00  0.00     0.002 C 
HETATM   29  C12 UNL     1       7.617  32.436  23.918  1.00  0.00     0.002 C 
HETATM   30  C13 UNL     1       6.697  33.141  24.901  1.00  0.00     0.027 C 
ENDBRANCH  24  26
ENDBRANCH   1  18
BRANCH   1  31
HETATM   31  C14 UNL     1       4.962  38.251  25.277  1.00  0.00     0.008 C 
HETATM   32  C15 UNL     1       4.185  38.836  24.119  1.00  0.00     0.012 C 
HETATM   33  C16 UNL     1       6.337  38.877  25.234  1.00  0.00     0.012 C 
ENDBRANCH   1  31
TORSDOF 9
ENDMDL
