MODEL 1
REMARK VINA RESULT: -10.003030197      0.000      0.000
REMARK  9 active torsions:
REMARK  status: ('A' for Active; 'I' for Inactive)
REMARK    1  A    between atoms: C1_2  and  C2_3 
REMARK       I    between atoms: C1_2  and  N3_21 
REMARK    2  A    between atoms: C2_3  and  S1_4 
REMARK    3  A    between atoms: S1_4  and  C3_5 
REMARK    4  A    between atoms: N2_10  and  C6_11 
REMARK    5  A    between atoms: C6_11  and  C7_12 
REMARK    6  A    between atoms: C10_15  and  C11_16 
REMARK    7  A    between atoms: N3_21  and  N4_23 
REMARK    8  A    between atoms: C14_25  and  C15_26 
REMARK    9  A    between atoms: C18_29  and  N5_30 
ROOT
HETATM    1  S1  UNL     1       2.429  36.964  25.697  1.00  0.00    -0.084 SA
ENDROOT
BRANCH   1   2
HETATM    2  C2  UNL     1       3.977  36.855  24.808  1.00  0.00     0.186 C 
BRANCH   2   3
HETATM    3  C1  UNL     1       5.093  36.791  25.760  1.00  0.00     0.245 C 
HETATM    4  O1  UNL     1       4.844  36.836  26.990  1.00  0.00    -0.271 OA
HETATM    5  N3  UNL     1       6.420  36.680  25.330  1.00  0.00    -0.270 N 
ATOM      6  H3  UNL     1       6.623  36.648  24.331  1.00  0.00     0.190 HD
BRANCH   5   7
HETATM    7  N4  UNL     1       7.463  36.614  26.241  1.00  0.00    -0.307 N 
HETATM    8  C14 UNL     1       8.322  35.664  26.271  1.00  0.00     0.144 C 
ATOM      9  H4  UNL     1       7.552  37.364  26.927  1.00  0.00     0.186 HD
BRANCH   8  10
HETATM   10  C15 UNL     1       8.319  34.536  25.359  1.00  0.00     0.095 A 
HETATM   11  C16 UNL     1       7.246  33.685  25.120  1.00  0.00     0.043 A 
HETATM   12  C17 UNL     1       7.700  32.773  24.191  1.00  0.00     0.065 A 
HETATM   13  C18 UNL     1       9.006  33.125  23.929  1.00  0.00     0.215 A 
HETATM   14  O4  UNL     1       9.345  34.173  24.636  1.00  0.00    -0.287 OA
BRANCH  13  15
HETATM   15  N5  UNL     1       9.844  32.407  22.997  1.00  0.00    -0.090 N 
HETATM   16  O2  UNL     1      10.680  31.572  23.396  1.00  0.00    -0.530 OA
HETATM   17  O3  UNL     1       9.748  32.616  21.646  1.00  0.00    -0.530 OA
ENDBRANCH  13  15
ENDBRANCH   8  10
ENDBRANCH   5   7
ENDBRANCH   2   3
ENDBRANCH   1   2
BRANCH   1  18
HETATM   18  C3  UNL     1       1.092  36.190  24.815  1.00  0.00     0.146 A 
HETATM   19  N1  UNL     1       0.323  36.687  23.832  1.00  0.00    -0.345 N 
HETATM   20  C4  UNL     1      -0.590  35.798  23.424  1.00  0.00     0.107 A 
ATOM     21  H1  UNL     1       0.423  37.626  23.444  1.00  0.00     0.167 HD
HETATM   22  C5  UNL     1      -0.369  34.684  24.204  1.00  0.00     0.110 A 
HETATM   23  N2  UNL     1       0.656  34.947  25.040  1.00  0.00    -0.332 N 
BRANCH  23  24
HETATM   24  C6  UNL     1       1.140  33.945  25.992  1.00  0.00     0.169 C 
BRANCH  24  25
HETATM   25  C7  UNL     1       2.140  33.075  25.377  1.00  0.00    -0.040 A 
HETATM   26  C8  UNL     1       1.742  31.819  24.962  1.00  0.00     0.009 A 
HETATM   27  C9  UNL     1       2.591  30.925  24.378  1.00  0.00     0.013 A 
HETATM   28  C10 UNL     1       3.916  31.269  24.181  1.00  0.00     0.006 A 
HETATM   29  C12 UNL     1       4.328  32.517  24.590  1.00  0.00     0.013 A 
HETATM   30  C13 UNL     1       3.450  33.428  25.188  1.00  0.00     0.009 A 
BRANCH  28  31
HETATM   31  C11 UNL     1       4.883  30.334  23.548  1.00  0.00     0.386 C 
HETATM   32  F1  UNL     1       4.207  29.200  23.101  1.00  0.00    -0.209 F 
HETATM   33  F2  UNL     1       5.864  29.899  24.405  1.00  0.00    -0.209 F 
ENDBRANCH  28  31
ENDBRANCH  24  25
ENDBRANCH  23  24
ENDBRANCH   1  18
TORSDOF 9
ENDMDL
MODEL 2
REMARK VINA RESULT: -9.678477721      3.216      5.136
REMARK  9 active torsions:
REMARK  status: ('A' for Active; 'I' for Inactive)
REMARK    1  A    between atoms: C1_2  and  C2_3 
REMARK       I    between atoms: C1_2  and  N3_21 
REMARK    2  A    between atoms: C2_3  and  S1_4 
REMARK    3  A    between atoms: S1_4  and  C3_5 
REMARK    4  A    between atoms: N2_10  and  C6_11 
REMARK    5  A    between atoms: C6_11  and  C7_12 
REMARK    6  A    between atoms: C10_15  and  C11_16 
REMARK    7  A    between atoms: N3_21  and  N4_23 
REMARK    8  A    between atoms: C14_25  and  C15_26 
REMARK    9  A    between atoms: C18_29  and  N5_30 
ROOT
HETATM    1  S1  UNL     1       0.359  35.592  23.379  1.00  0.00    -0.084 SA
ENDROOT
BRANCH   1   2
HETATM    2  C2  UNL     1      -0.743  36.917  22.898  1.00  0.00     0.186 C 
BRANCH   2   3
HETATM    3  C1  UNL     1      -0.399  38.140  23.633  1.00  0.00     0.245 C 
HETATM    4  O1  UNL     1      -0.441  39.242  23.031  1.00  0.00    -0.271 OA
HETATM    5  N3  UNL     1      -0.029  38.106  24.982  1.00  0.00    -0.270 N 
ATOM      6  H3  UNL     1       0.009  37.211  25.470  1.00  0.00     0.190 HD
BRANCH   5   7
HETATM    7  N4  UNL     1       0.287  39.271  25.666  1.00  0.00    -0.307 N 
HETATM    8  C14 UNL     1       1.433  39.498  26.192  1.00  0.00     0.144 C 
ATOM      9  H4  UNL     1      -0.434  39.987  25.754  1.00  0.00     0.186 HD
BRANCH   8  10
HETATM   10  C15 UNL     1       2.548  38.572  26.143  1.00  0.00     0.095 A 
HETATM   11  C16 UNL     1       3.110  38.035  24.992  1.00  0.00     0.043 A 
HETATM   12  C17 UNL     1       4.131  37.217  25.428  1.00  0.00     0.065 A 
HETATM   13  C18 UNL     1       4.122  37.309  26.803  1.00  0.00     0.215 A 
HETATM   14  O4  UNL     1       3.173  38.119  27.199  1.00  0.00    -0.287 OA
BRANCH  13  15
HETATM   15  N5  UNL     1       5.049  36.592  27.647  1.00  0.00    -0.090 N 
HETATM   16  O2  UNL     1       5.957  35.893  27.156  1.00  0.00    -0.530 OA
HETATM   17  O3  UNL     1       4.963  36.655  29.013  1.00  0.00    -0.530 OA
ENDBRANCH  13  15
ENDBRANCH   8  10
ENDBRANCH   5   7
ENDBRANCH   2   3
ENDBRANCH   1   2
BRANCH   1  18
HETATM   18  C3  UNL     1      -0.373  34.515  24.590  1.00  0.00     0.146 A 
HETATM   19  N1  UNL     1      -1.631  34.049  24.662  1.00  0.00    -0.345 N 
HETATM   20  C4  UNL     1      -1.805  33.264  25.732  1.00  0.00     0.107 A 
ATOM     21  H1  UNL     1      -2.363  34.267  23.984  1.00  0.00     0.167 HD
HETATM   22  C5  UNL     1      -0.578  33.246  26.358  1.00  0.00     0.110 A 
HETATM   23  N2  UNL     1       0.273  34.013  25.646  1.00  0.00    -0.332 N 
BRANCH  23  24
HETATM   24  C6  UNL     1       1.670  34.181  26.053  1.00  0.00     0.169 C 
BRANCH  24  25
HETATM   25  C7  UNL     1       2.529  33.189  25.412  1.00  0.00    -0.040 A 
HETATM   26  C8  UNL     1       3.874  33.477  25.288  1.00  0.00     0.009 A 
HETATM   27  C9  UNL     1       4.766  32.625  24.704  1.00  0.00     0.013 A 
HETATM   28  C10 UNL     1       4.328  31.411  24.208  1.00  0.00     0.006 A 
HETATM   29  C12 UNL     1       2.989  31.109  24.324  1.00  0.00     0.013 A 
HETATM   30  C13 UNL     1       2.082  31.989  24.923  1.00  0.00     0.009 A 
BRANCH  28  31
HETATM   31  C11 UNL     1       5.257  30.445  23.565  1.00  0.00     0.386 C 
HETATM   32  F1  UNL     1       4.608  29.225  23.382  1.00  0.00    -0.209 F 
HETATM   33  F2  UNL     1       6.380  30.187  24.314  1.00  0.00    -0.209 F 
ENDBRANCH  28  31
ENDBRANCH  24  25
ENDBRANCH  23  24
ENDBRANCH   1  18
TORSDOF 9
ENDMDL
MODEL 3
REMARK VINA RESULT: -9.655638646      3.773      7.142
REMARK  9 active torsions:
REMARK  status: ('A' for Active; 'I' for Inactive)
REMARK    1  A    between atoms: C1_2  and  C2_3 
REMARK       I    between atoms: C1_2  and  N3_21 
REMARK    2  A    between atoms: C2_3  and  S1_4 
REMARK    3  A    between atoms: S1_4  and  C3_5 
REMARK    4  A    between atoms: N2_10  and  C6_11 
REMARK    5  A    between atoms: C6_11  and  C7_12 
REMARK    6  A    between atoms: C10_15  and  C11_16 
REMARK    7  A    between atoms: N3_21  and  N4_23 
REMARK    8  A    between atoms: C14_25  and  C15_26 
REMARK    9  A    between atoms: C18_29  and  N5_30 
ROOT
HETATM    1  S1  UNL     1       3.151  38.337  25.266  1.00  0.00    -0.084 SA
ENDROOT
BRANCH   1   2
HETATM    2  C2  UNL     1       1.376  38.226  25.464  1.00  0.00     0.186 C 
BRANCH   2   3
HETATM    3  C1  UNL     1       0.795  37.497  24.330  1.00  0.00     0.245 C 
HETATM    4  O1  UNL     1       1.545  37.143  23.387  1.00  0.00    -0.271 OA
HETATM    5  N3  UNL     1      -0.569  37.188  24.278  1.00  0.00    -0.270 N 
ATOM      6  H3  UNL     1      -1.180  37.480  25.042  1.00  0.00     0.190 HD
BRANCH   5   7
HETATM    7  N4  UNL     1      -1.104  36.493  23.204  1.00  0.00    -0.307 N 
HETATM    8  C14 UNL     1      -1.334  35.232  23.217  1.00  0.00     0.144 C 
ATOM      9  H4  UNL     1      -1.327  37.014  22.356  1.00  0.00     0.186 HD
BRANCH   8  10
HETATM   10  C15 UNL     1      -1.068  34.369  24.351  1.00  0.00     0.095 A 
HETATM   11  C16 UNL     1       0.129  33.714  24.613  1.00  0.00     0.043 A 
HETATM   12  C17 UNL     1      -0.080  33.017  25.784  1.00  0.00     0.065 A 
HETATM   13  C18 UNL     1      -1.379  33.291  26.153  1.00  0.00     0.215 A 
HETATM   14  O4  UNL     1      -1.940  34.094  25.285  1.00  0.00    -0.287 OA
BRANCH  13  15
HETATM   15  N5  UNL     1      -1.992  32.742  27.341  1.00  0.00    -0.090 N 
HETATM   16  O2  UNL     1      -1.322  32.525  28.369  1.00  0.00    -0.530 OA
HETATM   17  O3  UNL     1      -3.330  32.444  27.378  1.00  0.00    -0.530 OA
ENDBRANCH  13  15
ENDBRANCH   8  10
ENDBRANCH   5   7
ENDBRANCH   2   3
ENDBRANCH   1   2
BRANCH   1  18
HETATM   18  C3  UNL     1       4.027  37.535  26.590  1.00  0.00     0.146 A 
HETATM   19  N1  UNL     1       3.861  37.662  27.917  1.00  0.00    -0.345 N 
HETATM   20  C4  UNL     1       4.722  36.894  28.596  1.00  0.00     0.107 A 
ATOM     21  H1  UNL     1       3.165  38.269  28.353  1.00  0.00     0.167 HD
HETATM   22  C5  UNL     1       5.462  36.254  27.627  1.00  0.00     0.110 A 
HETATM   23  N2  UNL     1       5.022  36.660  26.419  1.00  0.00    -0.332 N 
BRANCH  23  24
HETATM   24  C6  UNL     1       5.608  36.142  25.181  1.00  0.00     0.169 C 
BRANCH  24  25
HETATM   25  C7  UNL     1       5.191  34.762  24.938  1.00  0.00    -0.040 A 
HETATM   26  C8  UNL     1       6.174  33.806  24.776  1.00  0.00     0.009 A 
HETATM   27  C9  UNL     1       5.900  32.490  24.543  1.00  0.00     0.013 A 
HETATM   28  C10 UNL     1       4.584  32.069  24.463  1.00  0.00     0.006 A 
HETATM   29  C12 UNL     1       3.593  33.011  24.622  1.00  0.00     0.013 A 
HETATM   30  C13 UNL     1       3.884  34.359  24.861  1.00  0.00     0.009 A 
BRANCH  28  31
HETATM   31  C11 UNL     1       4.230  30.648  24.214  1.00  0.00     0.386 C 
HETATM   32  F1  UNL     1       5.391  29.878  24.182  1.00  0.00    -0.209 F 
HETATM   33  F2  UNL     1       3.589  30.446  23.015  1.00  0.00    -0.209 F 
ENDBRANCH  28  31
ENDBRANCH  24  25
ENDBRANCH  23  24
ENDBRANCH   1  18
TORSDOF 9
ENDMDL
MODEL 4
REMARK VINA RESULT: -9.604474321      3.809      6.572
REMARK  9 active torsions:
REMARK  status: ('A' for Active; 'I' for Inactive)
REMARK    1  A    between atoms: C1_2  and  C2_3 
REMARK       I    between atoms: C1_2  and  N3_21 
REMARK    2  A    between atoms: C2_3  and  S1_4 
REMARK    3  A    between atoms: S1_4  and  C3_5 
REMARK    4  A    between atoms: N2_10  and  C6_11 
REMARK    5  A    between atoms: C6_11  and  C7_12 
REMARK    6  A    between atoms: C10_15  and  C11_16 
REMARK    7  A    between atoms: N3_21  and  N4_23 
REMARK    8  A    between atoms: C14_25  and  C15_26 
REMARK    9  A    between atoms: C18_29  and  N5_30 
ROOT
HETATM    1  S1  UNL     1       3.401  38.215  24.796  1.00  0.00    -0.084 SA
ENDROOT
BRANCH   1   2
HETATM    2  C2  UNL     1       1.764  38.882  25.070  1.00  0.00     0.186 C 
BRANCH   2   3
HETATM    3  C1  UNL     1       0.869  38.465  23.983  1.00  0.00     0.245 C 
HETATM    4  O1  UNL     1       0.032  39.288  23.537  1.00  0.00    -0.271 OA
HETATM    5  N3  UNL     1       0.930  37.179  23.435  1.00  0.00    -0.270 N 
ATOM      6  H3  UNL     1       1.607  36.509  23.800  1.00  0.00     0.190 HD
BRANCH   5   7
HETATM    7  N4  UNL     1       0.083  36.801  22.404  1.00  0.00    -0.307 N 
HETATM    8  C14 UNL     1      -0.739  35.822  22.481  1.00  0.00     0.144 C 
ATOM      9  H4  UNL     1       0.117  37.334  21.534  1.00  0.00     0.186 HD
BRANCH   8  10
HETATM   10  C15 UNL     1      -0.894  34.981  23.653  1.00  0.00     0.095 A 
HETATM   11  C16 UNL     1      -2.080  34.751  24.339  1.00  0.00     0.043 A 
HETATM   12  C17 UNL     1      -1.750  33.899  25.371  1.00  0.00     0.065 A 
HETATM   13  C18 UNL     1      -0.397  33.670  25.247  1.00  0.00     0.215 A 
HETATM   14  O4  UNL     1       0.083  34.325  24.220  1.00  0.00    -0.287 OA
BRANCH  13  15
HETATM   15  N5  UNL     1       0.344  32.820  26.149  1.00  0.00    -0.090 N 
HETATM   16  O2  UNL     1       0.873  31.764  25.750  1.00  0.00    -0.530 OA
HETATM   17  O3  UNL     1       0.492  33.144  27.473  1.00  0.00    -0.530 OA
ENDBRANCH  13  15
ENDBRANCH   8  10
ENDBRANCH   5   7
ENDBRANCH   2   3
ENDBRANCH   1   2
BRANCH   1  18
HETATM   18  C3  UNL     1       4.085  37.488  26.268  1.00  0.00     0.146 A 
HETATM   19  N1  UNL     1       3.759  37.705  27.552  1.00  0.00    -0.345 N 
HETATM   20  C4  UNL     1       4.510  36.970  28.382  1.00  0.00     0.107 A 
ATOM     21  H1  UNL     1       3.030  38.351  27.858  1.00  0.00     0.167 HD
HETATM   22  C5  UNL     1       5.350  36.255  27.556  1.00  0.00     0.110 A 
HETATM   23  N2  UNL     1       5.073  36.588  26.278  1.00  0.00    -0.332 N 
BRANCH  23  24
HETATM   24  C6  UNL     1       5.795  35.979  25.159  1.00  0.00     0.169 C 
BRANCH  24  25
HETATM   25  C7  UNL     1       5.315  34.624  24.897  1.00  0.00    -0.040 A 
HETATM   26  C8  UNL     1       6.252  33.617  24.772  1.00  0.00     0.009 A 
HETATM   27  C9  UNL     1       5.917  32.317  24.526  1.00  0.00     0.013 A 
HETATM   28  C10 UNL     1       4.585  31.967  24.392  1.00  0.00     0.006 A 
HETATM   29  C12 UNL     1       3.640  32.961  24.514  1.00  0.00     0.013 A 
HETATM   30  C13 UNL     1       3.993  34.291  24.766  1.00  0.00     0.009 A 
BRANCH  28  31
HETATM   31  C11 UNL     1       4.166  30.567  24.126  1.00  0.00     0.386 C 
HETATM   32  F1  UNL     1       5.282  29.732  24.162  1.00  0.00    -0.209 F 
HETATM   33  F2  UNL     1       3.583  30.396  22.894  1.00  0.00    -0.209 F 
ENDBRANCH  28  31
ENDBRANCH  24  25
ENDBRANCH  23  24
ENDBRANCH   1  18
TORSDOF 9
ENDMDL
MODEL 5
REMARK VINA RESULT: -9.558755736      1.787      2.549
REMARK  9 active torsions:
REMARK  status: ('A' for Active; 'I' for Inactive)
REMARK    1  A    between atoms: C1_2  and  C2_3 
REMARK       I    between atoms: C1_2  and  N3_21 
REMARK    2  A    between atoms: C2_3  and  S1_4 
REMARK    3  A    between atoms: S1_4  and  C3_5 
REMARK    4  A    between atoms: N2_10  and  C6_11 
REMARK    5  A    between atoms: C6_11  and  C7_12 
REMARK    6  A    between atoms: C10_15  and  C11_16 
REMARK    7  A    between atoms: N3_21  and  N4_23 
REMARK    8  A    between atoms: C14_25  and  C15_26 
REMARK    9  A    between atoms: C18_29  and  N5_30 
ROOT
HETATM    1  S1  UNL     1       2.048  36.306  23.613  1.00  0.00    -0.084 SA
ENDROOT
BRANCH   1   2
HETATM    2  C2  UNL     1       2.025  37.984  24.231  1.00  0.00     0.186 C 
BRANCH   2   3
HETATM    3  C1  UNL     1       2.579  38.021  25.590  1.00  0.00     0.245 C 
HETATM    4  O1  UNL     1       2.464  39.074  26.264  1.00  0.00    -0.271 OA
HETATM    5  N3  UNL     1       3.228  36.913  26.148  1.00  0.00    -0.270 N 
ATOM      6  H3  UNL     1       3.326  36.059  25.599  1.00  0.00     0.190 HD
BRANCH   5   7
HETATM    7  N4  UNL     1       3.741  36.960  27.435  1.00  0.00    -0.307 N 
HETATM    8  C14 UNL     1       4.949  36.654  27.731  1.00  0.00     0.144 C 
ATOM      9  H4  UNL     1       3.120  37.254  28.190  1.00  0.00     0.186 HD
BRANCH   8  10
HETATM   10  C15 UNL     1       5.939  36.221  26.763  1.00  0.00     0.095 A 
HETATM   11  C16 UNL     1       6.611  37.039  25.864  1.00  0.00     0.043 A 
HETATM   12  C17 UNL     1       7.442  36.200  25.153  1.00  0.00     0.065 A 
HETATM   13  C18 UNL     1       7.222  34.938  25.661  1.00  0.00     0.215 A 
HETATM   14  O4  UNL     1       6.326  34.981  26.613  1.00  0.00    -0.287 OA
BRANCH  13  15
HETATM   15  N5  UNL     1       7.908  33.763  25.176  1.00  0.00    -0.090 N 
HETATM   16  O2  UNL     1       7.448  32.622  25.375  1.00  0.00    -0.530 OA
HETATM   17  O3  UNL     1       9.086  33.862  24.481  1.00  0.00    -0.530 OA
ENDBRANCH  13  15
ENDBRANCH   8  10
ENDBRANCH   5   7
ENDBRANCH   2   3
ENDBRANCH   1   2
BRANCH   1  18
HETATM   18  C3  UNL     1       0.525  35.447  23.941  1.00  0.00     0.146 A 
HETATM   19  N1  UNL     1      -0.658  35.549  23.313  1.00  0.00    -0.345 N 
HETATM   20  C4  UNL     1      -1.575  34.739  23.858  1.00  0.00     0.107 A 
ATOM     21  H1  UNL     1      -0.836  36.166  22.520  1.00  0.00     0.167 HD
HETATM   22  C5  UNL     1      -0.914  34.100  24.884  1.00  0.00     0.110 A 
HETATM   23  N2  UNL     1       0.358  34.547  24.914  1.00  0.00    -0.332 N 
BRANCH  23  24
HETATM   24  C6  UNL     1       1.321  34.041  25.894  1.00  0.00     0.169 C 
BRANCH  24  25
HETATM   25  C7  UNL     1       2.214  33.053  25.292  1.00  0.00    -0.040 A 
HETATM   26  C8  UNL     1       3.534  33.408  25.093  1.00  0.00     0.009 A 
HETATM   27  C9  UNL     1       4.455  32.566  24.538  1.00  0.00     0.013 A 
HETATM   28  C10 UNL     1       4.072  31.295  24.150  1.00  0.00     0.006 A 
HETATM   29  C12 UNL     1       2.759  30.927  24.342  1.00  0.00     0.013 A 
HETATM   30  C13 UNL     1       1.823  31.797  24.911  1.00  0.00     0.009 A 
BRANCH  28  31
HETATM   31  C11 UNL     1       5.034  30.338  23.544  1.00  0.00     0.386 C 
HETATM   32  F1  UNL     1       4.343  29.234  23.049  1.00  0.00    -0.209 F 
HETATM   33  F2  UNL     1       5.962  29.858  24.435  1.00  0.00    -0.209 F 
ENDBRANCH  28  31
ENDBRANCH  24  25
ENDBRANCH  23  24
ENDBRANCH   1  18
TORSDOF 9
ENDMDL
