MODEL 1
REMARK VINA RESULT: -8.823624932      0.000      0.000
REMARK  8 active torsions:
REMARK  status: ('A' for Active; 'I' for Inactive)
REMARK    1  A    between atoms: C2_2  and  O1_5 
REMARK    2  A    between atoms: O1_5  and  C3_6 
REMARK    3  A    between atoms: C6_9  and  N1_10 
REMARK    4  A    between atoms: C7_11  and  S1_12 
REMARK    5  A    between atoms: S1_12  and  C8_13 
REMARK    6  A    between atoms: C8_13  and  C9_14 
REMARK       I    between atoms: C9_14  and  N2_16 
REMARK    7  A    between atoms: N2_16  and  C10_18 
REMARK    8  A    between atoms: C10_18  and  C11_19 
ROOT
HETATM    1  N1  UNL     1       3.493  36.475  25.903  1.00  0.00    -0.260 N 
HETATM    2  C7  UNL     1       2.554  37.136  25.199  1.00  0.00     0.174 A 
HETATM    3  N3  UNL     1       2.288  38.248  25.916  1.00  0.00    -0.236 N 
ATOM      4  H3  UNL     1       1.614  38.969  25.658  1.00  0.00     0.197 HD
HETATM    5  O4  UNL     1       3.023  38.255  26.984  1.00  0.00    -0.205 OA
HETATM    6  C15 UNL     1       3.772  37.203  27.026  1.00  0.00     0.248 A 
HETATM    7  S2  UNL     1       4.852  36.792  28.184  1.00  0.00    -0.030 SA
ENDROOT
BRANCH   2   8
HETATM    8  S1  UNL     1       1.824  36.689  23.654  1.00  0.00    -0.082 SA
BRANCH   8   9
HETATM    9  C8  UNL     1       0.183  37.453  23.439  1.00  0.00     0.185 C 
BRANCH   9  10
HETATM   10  C9  UNL     1      -0.772  36.300  23.290  1.00  0.00     0.227 C 
HETATM   11  O2  UNL     1      -0.991  35.843  22.115  1.00  0.00    -0.273 OA
HETATM   12  N2  UNL     1      -1.379  35.768  24.423  1.00  0.00    -0.358 N 
ATOM     13  H2  UNL     1      -1.167  36.183  25.330  1.00  0.00     0.162 HD
BRANCH  12  14
HETATM   14  C10 UNL     1      -2.295  34.653  24.370  1.00  0.00     0.154 C 
BRANCH  14  15
HETATM   15  C11 UNL     1      -1.981  33.605  25.383  1.00  0.00     0.139 C 
HETATM   16  C12 UNL     1      -0.460  33.649  25.607  1.00  0.00     0.035 C 
HETATM   17  C13 UNL     1      -0.329  33.008  26.966  1.00  0.00     0.029 C 
HETATM   18  C14 UNL     1      -1.764  32.956  27.442  1.00  0.00     0.168 C 
HETATM   19  O3  UNL     1      -2.461  33.879  26.644  1.00  0.00    -0.384 OA
ENDBRANCH  14  15
ENDBRANCH  12  14
ENDBRANCH   9  10
ENDBRANCH   8   9
ENDBRANCH   2   8
BRANCH   1  20
HETATM   20  C6  UNL     1       4.062  35.220  25.532  1.00  0.00     0.044 A 
HETATM   21  C5  UNL     1       3.370  34.038  25.508  1.00  0.00     0.033 A 
HETATM   22  C4  UNL     1       3.960  32.840  25.127  1.00  0.00     0.039 A 
HETATM   23  C3  UNL     1       5.299  32.782  24.748  1.00  0.00     0.075 A 
HETATM   24  C17 UNL     1       5.994  33.971  24.775  1.00  0.00     0.039 A 
HETATM   25  C16 UNL     1       5.410  35.159  25.152  1.00  0.00     0.033 A 
BRANCH  23  26
HETATM   26  O1  UNL     1       5.882  31.577  24.366  1.00  0.00    -0.284 OA
BRANCH  26  27
HETATM   27  C2  UNL     1       5.529  30.907  23.182  1.00  0.00     0.355 C 
HETATM   28  C1  UNL     1       4.591  29.759  23.345  1.00  0.00     0.126 C 
HETATM   29  F1  UNL     1       5.065  31.795  22.232  1.00  0.00    -0.176 F 
HETATM   30  F2  UNL     1       6.724  30.378  22.664  1.00  0.00    -0.176 F 
ENDBRANCH  26  27
ENDBRANCH  23  26
ENDBRANCH   1  20
TORSDOF 8
ENDMDL
MODEL 2
REMARK VINA RESULT: -8.788614995      2.168      4.724
REMARK  8 active torsions:
REMARK  status: ('A' for Active; 'I' for Inactive)
REMARK    1  A    between atoms: C2_2  and  O1_5 
REMARK    2  A    between atoms: O1_5  and  C3_6 
REMARK    3  A    between atoms: C6_9  and  N1_10 
REMARK    4  A    between atoms: C7_11  and  S1_12 
REMARK    5  A    between atoms: S1_12  and  C8_13 
REMARK    6  A    between atoms: C8_13  and  C9_14 
REMARK       I    between atoms: C9_14  and  N2_16 
REMARK    7  A    between atoms: N2_16  and  C10_18 
REMARK    8  A    between atoms: C10_18  and  C11_19 
ROOT
HETATM    1  N1  UNL     1      -0.661  33.643  25.554  1.00  0.00    -0.260 N 
HETATM    2  C7  UNL     1      -1.366  34.400  24.692  1.00  0.00     0.174 A 
HETATM    3  N3  UNL     1      -2.562  34.595  25.286  1.00  0.00    -0.236 N 
ATOM      4  H3  UNL     1      -3.336  35.131  24.892  1.00  0.00     0.197 HD
HETATM    5  O4  UNL     1      -2.574  33.994  26.435  1.00  0.00    -0.205 OA
HETATM    6  C15 UNL     1      -1.445  33.401  26.647  1.00  0.00     0.248 A 
HETATM    7  S2  UNL     1      -1.010  32.523  27.957  1.00  0.00    -0.030 SA
ENDROOT
BRANCH   2   8
HETATM    8  S1  UNL     1      -0.861  35.040  23.126  1.00  0.00    -0.082 SA
BRANCH   8   9
HETATM    9  C8  UNL     1      -0.625  36.847  23.180  1.00  0.00     0.185 C 
BRANCH   9  10
HETATM   10  C9  UNL     1       0.841  37.045  23.451  1.00  0.00     0.227 C 
HETATM   11  O2  UNL     1       1.681  36.363  22.767  1.00  0.00    -0.273 OA
HETATM   12  N2  UNL     1       1.236  37.957  24.424  1.00  0.00    -0.358 N 
ATOM     13  H2  UNL     1       0.516  38.463  24.939  1.00  0.00     0.162 HD
BRANCH  12  14
HETATM   14  C10 UNL     1       2.622  38.218  24.736  1.00  0.00     0.154 C 
BRANCH  14  15
HETATM   15  C11 UNL     1       3.154  37.305  25.788  1.00  0.00     0.139 C 
HETATM   16  C12 UNL     1       4.504  36.778  25.274  1.00  0.00     0.035 C 
HETATM   17  C13 UNL     1       5.180  36.360  26.557  1.00  0.00     0.029 C 
HETATM   18  C14 UNL     1       4.275  36.956  27.613  1.00  0.00     0.168 C 
HETATM   19  O3  UNL     1       3.521  37.941  26.952  1.00  0.00    -0.384 OA
ENDBRANCH  14  15
ENDBRANCH  12  14
ENDBRANCH   9  10
ENDBRANCH   8   9
ENDBRANCH   2   8
BRANCH   1  20
HETATM   20  C6  UNL     1       0.666  33.168  25.329  1.00  0.00     0.044 A 
HETATM   21  C5  UNL     1       1.792  33.938  25.452  1.00  0.00     0.033 A 
HETATM   22  C4  UNL     1       3.066  33.431  25.236  1.00  0.00     0.039 A 
HETATM   23  C3  UNL     1       3.263  32.099  24.881  1.00  0.00     0.075 A 
HETATM   24  C17 UNL     1       2.130  31.325  24.757  1.00  0.00     0.039 A 
HETATM   25  C16 UNL     1       0.867  31.828  24.970  1.00  0.00     0.033 A 
BRANCH  23  26
HETATM   26  O1  UNL     1       4.545  31.597  24.668  1.00  0.00    -0.284 OA
BRANCH  26  27
HETATM   27  C2  UNL     1       4.822  30.618  23.699  1.00  0.00     0.355 C 
HETATM   28  C1  UNL     1       6.139  30.746  23.011  1.00  0.00     0.126 C 
HETATM   29  F1  UNL     1       4.653  29.349  24.215  1.00  0.00    -0.176 F 
HETATM   30  F2  UNL     1       3.837  30.766  22.707  1.00  0.00    -0.176 F 
ENDBRANCH  26  27
ENDBRANCH  23  26
ENDBRANCH   1  20
TORSDOF 8
ENDMDL
MODEL 3
REMARK VINA RESULT: -8.605861335      3.153      5.792
REMARK  8 active torsions:
REMARK  status: ('A' for Active; 'I' for Inactive)
REMARK    1  A    between atoms: C2_2  and  O1_5 
REMARK    2  A    between atoms: O1_5  and  C3_6 
REMARK    3  A    between atoms: C6_9  and  N1_10 
REMARK    4  A    between atoms: C7_11  and  S1_12 
REMARK    5  A    between atoms: S1_12  and  C8_13 
REMARK    6  A    between atoms: C8_13  and  C9_14 
REMARK       I    between atoms: C9_14  and  N2_16 
REMARK    7  A    between atoms: N2_16  and  C10_18 
REMARK    8  A    between atoms: C10_18  and  C11_19 
ROOT
HETATM    1  N1  UNL     1      -0.661  33.645  25.546  1.00  0.00    -0.260 N 
HETATM    2  C7  UNL     1      -1.373  34.386  24.675  1.00  0.00     0.174 A 
HETATM    3  N3  UNL     1      -2.569  34.580  25.268  1.00  0.00    -0.236 N 
ATOM      4  H3  UNL     1      -3.347  35.105  24.870  1.00  0.00     0.197 HD
HETATM    5  O4  UNL     1      -2.574  33.994  26.426  1.00  0.00    -0.205 OA
HETATM    6  C15 UNL     1      -1.441  33.412  26.643  1.00  0.00     0.248 A 
HETATM    7  S2  UNL     1      -0.998  32.554  27.963  1.00  0.00    -0.030 SA
ENDROOT
BRANCH   2   8
HETATM    8  S1  UNL     1      -0.875  35.009  23.100  1.00  0.00    -0.082 SA
BRANCH   8   9
HETATM    9  C8  UNL     1      -0.627  36.814  23.137  1.00  0.00     0.185 C 
BRANCH   9  10
HETATM   10  C9  UNL     1       0.740  37.037  22.552  1.00  0.00     0.227 C 
HETATM   11  O2  UNL     1       1.692  36.266  22.925  1.00  0.00    -0.273 OA
HETATM   12  N2  UNL     1       0.928  38.061  21.630  1.00  0.00    -0.358 N 
ATOM     13  H2  UNL     1       0.130  38.645  21.381  1.00  0.00     0.162 HD
BRANCH  12  14
HETATM   14  C10 UNL     1       2.203  38.333  21.010  1.00  0.00     0.154 C 
BRANCH  14  15
HETATM   15  C11 UNL     1       2.064  38.994  19.680  1.00  0.00     0.139 C 
HETATM   16  C12 UNL     1       0.918  38.276  18.949  1.00  0.00     0.035 C 
HETATM   17  C13 UNL     1       0.502  39.313  17.935  1.00  0.00     0.029 C 
HETATM   18  C14 UNL     1       1.242  40.546  18.406  1.00  0.00     0.168 C 
HETATM   19  O3  UNL     1       1.596  40.287  19.741  1.00  0.00    -0.384 OA
ENDBRANCH  14  15
ENDBRANCH  12  14
ENDBRANCH   9  10
ENDBRANCH   8   9
ENDBRANCH   2   8
BRANCH   1  20
HETATM   20  C6  UNL     1       0.669  33.176  25.324  1.00  0.00     0.044 A 
HETATM   21  C5  UNL     1       1.791  33.950  25.456  1.00  0.00     0.033 A 
HETATM   22  C4  UNL     1       3.068  33.449  25.244  1.00  0.00     0.039 A 
HETATM   23  C3  UNL     1       3.272  32.120  24.882  1.00  0.00     0.075 A 
HETATM   24  C17 UNL     1       2.143  31.342  24.749  1.00  0.00     0.039 A 
HETATM   25  C16 UNL     1       0.876  31.839  24.959  1.00  0.00     0.033 A 
BRANCH  23  26
HETATM   26  O1  UNL     1       4.557  31.624  24.673  1.00  0.00    -0.284 OA
BRANCH  26  27
HETATM   27  C2  UNL     1       4.840  30.642  23.709  1.00  0.00     0.355 C 
HETATM   28  C1  UNL     1       6.171  30.754  23.045  1.00  0.00     0.126 C 
HETATM   29  F1  UNL     1       4.647  29.375  24.222  1.00  0.00    -0.176 F 
HETATM   30  F2  UNL     1       3.875  30.800  22.699  1.00  0.00    -0.176 F 
ENDBRANCH  26  27
ENDBRANCH  23  26
ENDBRANCH   1  20
TORSDOF 8
ENDMDL
MODEL 4
REMARK VINA RESULT: -8.602696454      2.623      5.064
REMARK  8 active torsions:
REMARK  status: ('A' for Active; 'I' for Inactive)
REMARK    1  A    between atoms: C2_2  and  O1_5 
REMARK    2  A    between atoms: O1_5  and  C3_6 
REMARK    3  A    between atoms: C6_9  and  N1_10 
REMARK    4  A    between atoms: C7_11  and  S1_12 
REMARK    5  A    between atoms: S1_12  and  C8_13 
REMARK    6  A    between atoms: C8_13  and  C9_14 
REMARK       I    between atoms: C9_14  and  N2_16 
REMARK    7  A    between atoms: N2_16  and  C10_18 
REMARK    8  A    between atoms: C10_18  and  C11_19 
ROOT
HETATM    1  N1  UNL     1      -0.680  33.599  25.492  1.00  0.00    -0.260 N 
HETATM    2  C7  UNL     1      -1.423  34.270  24.591  1.00  0.00     0.174 A 
HETATM    3  N3  UNL     1      -2.613  34.477  25.193  1.00  0.00    -0.236 N 
ATOM      4  H3  UNL     1      -3.409  34.960  24.778  1.00  0.00     0.197 HD
HETATM    5  O4  UNL     1      -2.586  33.962  26.384  1.00  0.00    -0.205 OA
HETATM    6  C15 UNL     1      -1.437  33.417  26.616  1.00  0.00     0.248 A 
HETATM    7  S2  UNL     1      -0.953  32.651  27.977  1.00  0.00    -0.030 SA
ENDROOT
BRANCH   2   8
HETATM    8  S1  UNL     1      -0.965  34.805  22.972  1.00  0.00    -0.082 SA
BRANCH   8   9
HETATM    9  C8  UNL     1      -0.935  36.624  22.847  1.00  0.00     0.185 C 
BRANCH   9  10
HETATM   10  C9  UNL     1       0.237  37.057  23.683  1.00  0.00     0.227 C 
HETATM   11  O2  UNL     1       1.414  36.747  23.284  1.00  0.00    -0.273 OA
HETATM   12  N2  UNL     1       0.011  37.777  24.851  1.00  0.00    -0.358 N 
ATOM     13  H2  UNL     1      -0.951  37.984  25.118  1.00  0.00     0.162 HD
BRANCH  12  14
HETATM   14  C10 UNL     1       1.080  38.243  25.703  1.00  0.00     0.154 C 
BRANCH  14  15
HETATM   15  C11 UNL     1       0.987  39.704  25.990  1.00  0.00     0.139 C 
HETATM   16  C12 UNL     1       2.193  40.057  26.875  1.00  0.00     0.035 C 
HETATM   17  C13 UNL     1       2.322  41.542  26.644  1.00  0.00     0.029 C 
HETATM   18  C14 UNL     1       1.391  41.772  25.473  1.00  0.00     0.168 C 
HETATM   19  O3  UNL     1       1.195  40.508  24.892  1.00  0.00    -0.384 OA
ENDBRANCH  14  15
ENDBRANCH  12  14
ENDBRANCH   9  10
ENDBRANCH   8   9
ENDBRANCH   2   8
BRANCH   1  20
HETATM   20  C6  UNL     1       0.655  33.143  25.276  1.00  0.00     0.044 A 
HETATM   21  C5  UNL     1       1.764  33.943  25.358  1.00  0.00     0.033 A 
HETATM   22  C4  UNL     1       3.048  33.455  25.153  1.00  0.00     0.039 A 
HETATM   23  C3  UNL     1       3.272  32.115  24.849  1.00  0.00     0.075 A 
HETATM   24  C17 UNL     1       2.155  31.312  24.765  1.00  0.00     0.039 A 
HETATM   25  C16 UNL     1       0.883  31.795  24.968  1.00  0.00     0.033 A 
BRANCH  23  26
HETATM   26  O1  UNL     1       4.563  31.633  24.646  1.00  0.00    -0.284 OA
BRANCH  26  27
HETATM   27  C2  UNL     1       4.859  30.643  23.694  1.00  0.00     0.355 C 
HETATM   28  C1  UNL     1       6.193  30.756  23.038  1.00  0.00     0.126 C 
HETATM   29  F1  UNL     1       4.671  29.380  24.219  1.00  0.00    -0.176 F 
HETATM   30  F2  UNL     1       3.899  30.783  22.677  1.00  0.00    -0.176 F 
ENDBRANCH  26  27
ENDBRANCH  23  26
ENDBRANCH   1  20
TORSDOF 8
ENDMDL
MODEL 5
REMARK VINA RESULT: -8.433499214      1.094      1.504
REMARK  8 active torsions:
REMARK  status: ('A' for Active; 'I' for Inactive)
REMARK    1  A    between atoms: C2_2  and  O1_5 
REMARK    2  A    between atoms: O1_5  and  C3_6 
REMARK    3  A    between atoms: C6_9  and  N1_10 
REMARK    4  A    between atoms: C7_11  and  S1_12 
REMARK    5  A    between atoms: S1_12  and  C8_13 
REMARK    6  A    between atoms: C8_13  and  C9_14 
REMARK       I    between atoms: C9_14  and  N2_16 
REMARK    7  A    between atoms: N2_16  and  C10_18 
REMARK    8  A    between atoms: C10_18  and  C11_19 
ROOT
HETATM    1  N1  UNL     1       3.420  36.826  25.211  1.00  0.00    -0.260 N 
HETATM    2  C7  UNL     1       2.673  37.429  24.267  1.00  0.00     0.174 A 
HETATM    3  N3  UNL     1       2.238  38.574  24.835  1.00  0.00    -0.236 N 
ATOM      4  H3  UNL     1       1.641  39.267  24.384  1.00  0.00     0.197 HD
HETATM    5  O4  UNL     1       2.697  38.653  26.045  1.00  0.00    -0.205 OA
HETATM    6  C15 UNL     1       3.420  37.618  26.324  1.00  0.00     0.248 A 
HETATM    7  S2  UNL     1       4.195  37.292  27.727  1.00  0.00    -0.030 SA
ENDROOT
BRANCH   2   8
HETATM    8  S1  UNL     1       2.334  36.886  22.621  1.00  0.00    -0.082 SA
BRANCH   8   9
HETATM    9  C8  UNL     1       0.706  37.466  22.042  1.00  0.00     0.185 C 
BRANCH   9  10
HETATM   10  C9  UNL     1      -0.288  36.870  22.999  1.00  0.00     0.227 C 
HETATM   11  O2  UNL     1      -0.746  37.611  23.937  1.00  0.00    -0.273 OA
HETATM   12  N2  UNL     1      -0.680  35.545  22.836  1.00  0.00    -0.358 N 
ATOM     13  H2  UNL     1      -0.272  35.006  22.072  1.00  0.00     0.162 HD
BRANCH  12  14
HETATM   14  C10 UNL     1      -1.640  34.900  23.701  1.00  0.00     0.154 C 
BRANCH  14  15
HETATM   15  C11 UNL     1      -1.047  34.486  25.005  1.00  0.00     0.139 C 
HETATM   16  C12 UNL     1      -2.196  33.907  25.848  1.00  0.00     0.035 C 
HETATM   17  C13 UNL     1      -1.449  33.049  26.839  1.00  0.00     0.029 C 
HETATM   18  C14 UNL     1      -0.051  33.023  26.261  1.00  0.00     0.168 C 
HETATM   19  O3  UNL     1      -0.190  33.412  24.918  1.00  0.00    -0.384 OA
ENDBRANCH  14  15
ENDBRANCH  12  14
ENDBRANCH   9  10
ENDBRANCH   8   9
ENDBRANCH   2   8
BRANCH   1  20
HETATM   20  C6  UNL     1       4.067  35.563  25.058  1.00  0.00     0.044 A 
HETATM   21  C5  UNL     1       5.406  35.408  24.812  1.00  0.00     0.033 A 
HETATM   22  C4  UNL     1       5.998  34.159  24.683  1.00  0.00     0.039 A 
HETATM   23  C3  UNL     1       5.250  32.990  24.799  1.00  0.00     0.075 A 
HETATM   24  C17 UNL     1       3.904  33.146  25.045  1.00  0.00     0.039 A 
HETATM   25  C16 UNL     1       3.317  34.385  25.172  1.00  0.00     0.033 A 
BRANCH  23  26
HETATM   26  O1  UNL     1       5.852  31.740  24.671  1.00  0.00    -0.284 OA
BRANCH  26  27
HETATM   27  C2  UNL     1       5.681  30.932  23.533  1.00  0.00     0.355 C 
HETATM   28  C1  UNL     1       4.723  29.800  23.684  1.00  0.00     0.126 C 
HETATM   29  F1  UNL     1       5.375  31.696  22.425  1.00  0.00    -0.176 F 
HETATM   30  F2  UNL     1       6.939  30.361  23.272  1.00  0.00    -0.176 F 
ENDBRANCH  26  27
ENDBRANCH  23  26
ENDBRANCH   1  20
TORSDOF 8
ENDMDL
