MODEL 1
REMARK VINA RESULT: -9.346203098      0.000      0.000
REMARK  9 active torsions:
REMARK  status: ('A' for Active; 'I' for Inactive)
REMARK    1  A    between atoms: C4_5  and  C5_6 
REMARK    2  A    between atoms: C5_6  and  O1_7 
REMARK    3  A    between atoms: C5_6  and  C6_9 
REMARK    4  A    between atoms: C6_9  and  C7_10 
REMARK    5  A    between atoms: C6_9  and  N4_22 
REMARK       I    between atoms: C7_10  and  N2_12 
REMARK    6  A    between atoms: N2_12  and  C8_14 
REMARK    7  A    between atoms: C11_18  and  N3_19 
REMARK    8  A    between atoms: C14_27  and  O7_28 
REMARK    9  A    between atoms: O7_28  and  C15_29 
ROOT
HETATM    1  N1  UNL     1       5.697  34.785  25.016  1.00  0.00    -0.191 NA
HETATM    2  C1  UNL     1       4.772  34.088  25.010  1.00  0.00     0.102 C 
HETATM    3  C2  UNL     1       3.624  33.202  25.009  1.00  0.00     0.079 A 
HETATM    4  C3  UNL     1       2.432  33.603  25.585  1.00  0.00     0.039 A 
HETATM    5  C4  UNL     1       1.344  32.783  25.591  1.00  0.00    -0.003 A 
HETATM    6  C12 UNL     1       1.508  31.539  24.995  1.00  0.00     0.017 A 
HETATM    7  C13 UNL     1       2.689  31.152  24.429  1.00  0.00     0.039 A 
HETATM    8  C14 UNL     1       3.799  31.955  24.407  1.00  0.00     0.095 A 
ENDROOT
BRANCH   8   9
HETATM    9  O7  UNL     1       5.014  31.613  23.849  1.00  0.00    -0.289 OA
BRANCH   9  10
HETATM   10  C15 UNL     1       5.318  30.388  23.293  1.00  0.00     0.505 C 
HETATM   11  F1  UNL     1       5.508  29.439  24.309  1.00  0.00    -0.184 F 
HETATM   12  F2  UNL     1       6.496  30.460  22.552  1.00  0.00    -0.184 F 
ENDBRANCH   9  10
ENDBRANCH   8   9
BRANCH   5  13
HETATM   13  C5  UNL     1       0.074  33.134  26.126  1.00  0.00     0.091 C 
BRANCH  13  14
HETATM   14  O1  UNL     1       0.056  33.383  27.410  1.00  0.00    -0.361 OA
ATOM     15  H1  UNL     1      -0.636  32.954  27.898  1.00  0.00     0.217 HD
ENDBRANCH  13  14
BRANCH  13  16
HETATM   16  C6  UNL     1      -1.197  33.255  25.467  1.00  0.00     0.304 C 
BRANCH  16  17
HETATM   17  C7  UNL     1      -1.452  34.650  24.949  1.00  0.00     0.258 C 
HETATM   18  O2  UNL     1      -2.622  34.984  24.785  1.00  0.00    -0.270 OA
HETATM   19  N2  UNL     1      -0.332  35.450  24.697  1.00  0.00    -0.322 N 
ATOM     20  H2  UNL     1       0.580  35.030  24.880  1.00  0.00     0.169 HD
BRANCH  19  21
HETATM   21  C8  UNL     1      -0.333  36.818  24.202  1.00  0.00     0.075 A 
HETATM   22  C9  UNL     1      -0.130  37.874  25.009  1.00  0.00     0.040 A 
HETATM   23  C10 UNL     1      -0.151  39.130  24.456  1.00  0.00     0.054 A 
HETATM   24  S1  UNL     1      -0.452  38.822  22.824  1.00  0.00    -0.076 SA
HETATM   25  C11 UNL     1      -0.547  37.094  22.870  1.00  0.00     0.170 A 
BRANCH  25  26
HETATM   26  N3  UNL     1      -0.791  36.238  21.746  1.00  0.00    -0.106 N 
HETATM   27  O3  UNL     1      -1.333  35.150  21.761  1.00  0.00    -0.531 OA
HETATM   28  O4  UNL     1      -0.346  36.738  20.509  1.00  0.00    -0.531 OA
ENDBRANCH  25  26
ENDBRANCH  19  21
ENDBRANCH  16  17
BRANCH  16  29
HETATM   29  N4  UNL     1      -2.313  32.881  26.277  1.00  0.00    -0.134 N 
HETATM   30  O5  UNL     1      -3.081  31.920  26.015  1.00  0.00    -0.535 OA
HETATM   31  O6  UNL     1      -2.660  33.604  27.412  1.00  0.00    -0.535 OA
ENDBRANCH  16  29
ENDBRANCH  13  16
ENDBRANCH   5  13
TORSDOF 9
ENDMDL
MODEL 2
REMARK VINA RESULT: -9.241116348      3.174      4.725
REMARK  9 active torsions:
REMARK  status: ('A' for Active; 'I' for Inactive)
REMARK    1  A    between atoms: C4_5  and  C5_6 
REMARK    2  A    between atoms: C5_6  and  O1_7 
REMARK    3  A    between atoms: C5_6  and  C6_9 
REMARK    4  A    between atoms: C6_9  and  C7_10 
REMARK    5  A    between atoms: C6_9  and  N4_22 
REMARK       I    between atoms: C7_10  and  N2_12 
REMARK    6  A    between atoms: N2_12  and  C8_14 
REMARK    7  A    between atoms: C11_18  and  N3_19 
REMARK    8  A    between atoms: C14_27  and  O7_28 
REMARK    9  A    between atoms: O7_28  and  C15_29 
ROOT
HETATM    1  N1  UNL     1       3.463  31.012  23.875  1.00  0.00    -0.191 NA
HETATM    2  C1  UNL     1       4.242  31.767  24.279  1.00  0.00     0.102 C 
HETATM    3  C2  UNL     1       5.226  32.712  24.769  1.00  0.00     0.079 A 
HETATM    4  C3  UNL     1       4.823  33.880  25.393  1.00  0.00     0.039 A 
HETATM    5  C4  UNL     1       5.736  34.777  25.861  1.00  0.00    -0.003 A 
HETATM    6  C12 UNL     1       7.072  34.450  25.672  1.00  0.00     0.017 A 
HETATM    7  C13 UNL     1       7.460  33.296  25.055  1.00  0.00     0.039 A 
HETATM    8  C14 UNL     1       6.567  32.374  24.575  1.00  0.00     0.095 A 
ENDROOT
BRANCH   8   9
HETATM    9  O7  UNL     1       6.905  31.193  23.946  1.00  0.00    -0.289 OA
BRANCH   9  10
HETATM   10  C15 UNL     1       7.236  31.070  22.612  1.00  0.00     0.505 C 
HETATM   11  F1  UNL     1       7.356  32.343  22.033  1.00  0.00    -0.184 F 
HETATM   12  F2  UNL     1       6.245  30.378  21.918  1.00  0.00    -0.184 F 
ENDBRANCH   9  10
ENDBRANCH   8   9
BRANCH   5  13
HETATM   13  C5  UNL     1       5.405  35.978  26.546  1.00  0.00     0.091 C 
BRANCH  13  14
HETATM   14  O1  UNL     1       6.411  36.777  26.794  1.00  0.00    -0.361 OA
ATOM     15  H1  UNL     1       6.532  37.484  26.171  1.00  0.00     0.217 HD
ENDBRANCH  13  14
BRANCH  13  16
HETATM   16  C6  UNL     1       4.130  36.447  27.012  1.00  0.00     0.304 C 
BRANCH  16  17
HETATM   17  C7  UNL     1       3.342  37.153  25.934  1.00  0.00     0.258 C 
HETATM   18  O2  UNL     1       3.976  37.641  25.004  1.00  0.00    -0.270 OA
HETATM   19  N2  UNL     1       1.952  37.191  26.084  1.00  0.00    -0.322 N 
ATOM     20  H2  UNL     1       1.568  36.741  26.916  1.00  0.00     0.169 HD
BRANCH  19  21
HETATM   21  C8  UNL     1       0.996  37.808  25.177  1.00  0.00     0.075 A 
HETATM   22  C9  UNL     1       0.620  39.094  25.294  1.00  0.00     0.040 A 
HETATM   23  C10 UNL     1      -0.289  39.591  24.395  1.00  0.00     0.054 A 
HETATM   24  S1  UNL     1      -0.606  38.265  23.400  1.00  0.00    -0.076 SA
HETATM   25  C11 UNL     1       0.427  37.093  24.147  1.00  0.00     0.170 A 
BRANCH  25  26
HETATM   26  N3  UNL     1       0.589  35.731  23.727  1.00  0.00    -0.106 N 
HETATM   27  O3  UNL     1       1.411  34.934  24.136  1.00  0.00    -0.531 OA
HETATM   28  O4  UNL     1      -0.312  35.302  22.736  1.00  0.00    -0.531 OA
ENDBRANCH  25  26
ENDBRANCH  19  21
ENDBRANCH  16  17
BRANCH  16  29
HETATM   29  N4  UNL     1       4.205  37.321  28.139  1.00  0.00    -0.134 N 
HETATM   30  O5  UNL     1       4.085  38.571  28.068  1.00  0.00    -0.535 OA
HETATM   31  O6  UNL     1       4.470  36.839  29.415  1.00  0.00    -0.535 OA
ENDBRANCH  16  29
ENDBRANCH  13  16
ENDBRANCH   5  13
TORSDOF 9
ENDMDL
MODEL 3
REMARK VINA RESULT: -9.178996505      1.397      1.979
REMARK  9 active torsions:
REMARK  status: ('A' for Active; 'I' for Inactive)
REMARK    1  A    between atoms: C4_5  and  C5_6 
REMARK    2  A    between atoms: C5_6  and  O1_7 
REMARK    3  A    between atoms: C5_6  and  C6_9 
REMARK    4  A    between atoms: C6_9  and  C7_10 
REMARK    5  A    between atoms: C6_9  and  N4_22 
REMARK       I    between atoms: C7_10  and  N2_12 
REMARK    6  A    between atoms: N2_12  and  C8_14 
REMARK    7  A    between atoms: C11_18  and  N3_19 
REMARK    8  A    between atoms: C14_27  and  O7_28 
REMARK    9  A    between atoms: O7_28  and  C15_29 
ROOT
HETATM    1  N1  UNL     1       5.596  34.811  25.194  1.00  0.00    -0.191 NA
HETATM    2  C1  UNL     1       4.686  34.095  25.151  1.00  0.00     0.102 C 
HETATM    3  C2  UNL     1       3.558  33.187  25.103  1.00  0.00     0.079 A 
HETATM    4  C3  UNL     1       2.356  33.532  25.696  1.00  0.00     0.039 A 
HETATM    5  C4  UNL     1       1.286  32.689  25.658  1.00  0.00    -0.003 A 
HETATM    6  C12 UNL     1       1.478  31.481  24.998  1.00  0.00     0.017 A 
HETATM    7  C13 UNL     1       2.667  31.149  24.417  1.00  0.00     0.039 A 
HETATM    8  C14 UNL     1       3.759  31.975  24.438  1.00  0.00     0.095 A 
ENDROOT
BRANCH   8   9
HETATM    9  O7  UNL     1       4.983  31.689  23.866  1.00  0.00    -0.289 OA
BRANCH   9  10
HETATM   10  C15 UNL     1       5.341  30.473  23.322  1.00  0.00     0.505 C 
HETATM   11  F1  UNL     1       5.456  29.513  24.340  1.00  0.00    -0.184 F 
HETATM   12  F2  UNL     1       6.576  30.563  22.681  1.00  0.00    -0.184 F 
ENDBRANCH   9  10
ENDBRANCH   8   9
BRANCH   5  13
HETATM   13  C5  UNL     1       0.009  32.985  26.207  1.00  0.00     0.091 C 
BRANCH  13  14
HETATM   14  O1  UNL     1      -0.008  33.212  27.495  1.00  0.00    -0.361 OA
ATOM     15  H1  UNL     1       0.158  34.111  27.752  1.00  0.00     0.217 HD
ENDBRANCH  13  14
BRANCH  13  16
HETATM   16  C6  UNL     1      -1.271  33.070  25.559  1.00  0.00     0.304 C 
BRANCH  16  17
HETATM   17  C7  UNL     1      -1.443  34.354  24.782  1.00  0.00     0.258 C 
HETATM   18  O2  UNL     1      -2.530  34.917  24.863  1.00  0.00    -0.270 OA
HETATM   19  N2  UNL     1      -0.348  34.794  24.031  1.00  0.00    -0.322 N 
ATOM     20  H2  UNL     1       0.490  34.214  24.061  1.00  0.00     0.169 HD
BRANCH  19  21
HETATM   21  C8  UNL     1      -0.282  35.995  23.213  1.00  0.00     0.075 A 
HETATM   22  C9  UNL     1      -0.680  36.013  21.929  1.00  0.00     0.040 A 
HETATM   23  C10 UNL     1      -0.580  37.189  21.231  1.00  0.00     0.054 A 
HETATM   24  S1  UNL     1       0.066  38.254  22.371  1.00  0.00    -0.076 SA
HETATM   25  C11 UNL     1       0.199  37.180  23.723  1.00  0.00     0.170 A 
BRANCH  25  26
HETATM   26  N3  UNL     1       0.699  37.527  25.021  1.00  0.00    -0.106 N 
HETATM   27  O3  UNL     1       1.517  36.911  25.678  1.00  0.00    -0.531 OA
HETATM   28  O4  UNL     1       0.169  38.710  25.568  1.00  0.00    -0.531 OA
ENDBRANCH  25  26
ENDBRANCH  19  21
ENDBRANCH  16  17
BRANCH  16  29
HETATM   29  N4  UNL     1      -2.384  32.946  26.446  1.00  0.00    -0.134 N 
HETATM   30  O5  UNL     1      -2.601  33.720  27.413  1.00  0.00    -0.535 OA
HETATM   31  O6  UNL     1      -3.296  31.905  26.324  1.00  0.00    -0.535 OA
ENDBRANCH  16  29
ENDBRANCH  13  16
ENDBRANCH   5  13
TORSDOF 9
ENDMDL
MODEL 4
REMARK VINA RESULT: -9.143724884      1.987      2.624
REMARK  9 active torsions:
REMARK  status: ('A' for Active; 'I' for Inactive)
REMARK    1  A    between atoms: C4_5  and  C5_6 
REMARK    2  A    between atoms: C5_6  and  O1_7 
REMARK    3  A    between atoms: C5_6  and  C6_9 
REMARK    4  A    between atoms: C6_9  and  C7_10 
REMARK    5  A    between atoms: C6_9  and  N4_22 
REMARK       I    between atoms: C7_10  and  N2_12 
REMARK    6  A    between atoms: N2_12  and  C8_14 
REMARK    7  A    between atoms: C11_18  and  N3_19 
REMARK    8  A    between atoms: C14_27  and  O7_28 
REMARK    9  A    between atoms: O7_28  and  C15_29 
ROOT
HETATM    1  N1  UNL     1       7.841  33.598  24.978  1.00  0.00    -0.191 NA
HETATM    2  C1  UNL     1       6.768  33.174  24.875  1.00  0.00     0.102 C 
HETATM    3  C2  UNL     1       5.431  32.629  24.752  1.00  0.00     0.079 A 
HETATM    4  C3  UNL     1       4.345  33.318  25.263  1.00  0.00     0.039 A 
HETATM    5  C4  UNL     1       3.081  32.819  25.155  1.00  0.00    -0.003 A 
HETATM    6  C12 UNL     1       2.957  31.594  24.511  1.00  0.00     0.017 A 
HETATM    7  C13 UNL     1       4.034  30.921  24.011  1.00  0.00     0.039 A 
HETATM    8  C14 UNL     1       5.315  31.397  24.104  1.00  0.00     0.095 A 
ENDROOT
BRANCH   8   9
HETATM    9  O7  UNL     1       6.438  30.759  23.615  1.00  0.00    -0.289 OA
BRANCH   9  10
HETATM   10  C15 UNL     1       6.932  30.891  22.334  1.00  0.00     0.505 C 
HETATM   11  F1  UNL     1       8.219  31.450  22.377  1.00  0.00    -0.184 F 
HETATM   12  F2  UNL     1       6.126  31.739  21.577  1.00  0.00    -0.184 F 
ENDBRANCH   9  10
ENDBRANCH   8   9
BRANCH   5  13
HETATM   13  C5  UNL     1       1.912  33.482  25.617  1.00  0.00     0.091 C 
BRANCH  13  14
HETATM   14  O1  UNL     1       2.123  34.542  26.353  1.00  0.00    -0.361 OA
ATOM     15  H1  UNL     1       2.897  35.045  26.130  1.00  0.00     0.217 HD
ENDBRANCH  13  14
BRANCH  13  16
HETATM   16  C6  UNL     1       0.528  33.162  25.398  1.00  0.00     0.304 C 
BRANCH  16  17
HETATM   17  C7  UNL     1      -0.178  34.191  24.549  1.00  0.00     0.258 C 
HETATM   18  O2  UNL     1      -1.359  33.985  24.284  1.00  0.00    -0.270 OA
HETATM   19  N2  UNL     1       0.572  35.297  24.134  1.00  0.00    -0.322 N 
ATOM     20  H2  UNL     1       1.547  35.326  24.433  1.00  0.00     0.169 HD
BRANCH  19  21
HETATM   21  C8  UNL     1       0.105  36.408  23.319  1.00  0.00     0.075 A 
HETATM   22  C9  UNL     1      -0.330  36.240  22.057  1.00  0.00     0.040 A 
HETATM   23  C10 UNL     1      -0.750  37.345  21.361  1.00  0.00     0.054 A 
HETATM   24  S1  UNL     1      -0.535  38.599  22.471  1.00  0.00    -0.076 SA
HETATM   25  C11 UNL     1       0.090  37.694  23.808  1.00  0.00     0.170 A 
BRANCH  25  26
HETATM   26  N3  UNL     1       0.470  38.236  25.081  1.00  0.00    -0.106 N 
HETATM   27  O3  UNL     1       0.015  39.228  25.617  1.00  0.00    -0.531 OA
HETATM   28  O4  UNL     1       1.477  37.522  25.755  1.00  0.00    -0.531 OA
ENDBRANCH  25  26
ENDBRANCH  19  21
ENDBRANCH  16  17
BRANCH  16  29
HETATM   29  N4  UNL     1      -0.229  32.993  26.598  1.00  0.00    -0.134 N 
HETATM   30  O5  UNL     1      -1.481  32.883  26.629  1.00  0.00    -0.535 OA
HETATM   31  O6  UNL     1       0.382  32.987  27.846  1.00  0.00    -0.535 OA
ENDBRANCH  16  29
ENDBRANCH  13  16
ENDBRANCH   5  13
TORSDOF 9
ENDMDL
MODEL 5
REMARK VINA RESULT: -9.129553118      4.123      5.173
REMARK  9 active torsions:
REMARK  status: ('A' for Active; 'I' for Inactive)
REMARK    1  A    between atoms: C4_5  and  C5_6 
REMARK    2  A    between atoms: C5_6  and  O1_7 
REMARK    3  A    between atoms: C5_6  and  C6_9 
REMARK    4  A    between atoms: C6_9  and  C7_10 
REMARK    5  A    between atoms: C6_9  and  N4_22 
REMARK       I    between atoms: C7_10  and  N2_12 
REMARK    6  A    between atoms: N2_12  and  C8_14 
REMARK    7  A    between atoms: C11_18  and  N3_19 
REMARK    8  A    between atoms: C14_27  and  O7_28 
REMARK    9  A    between atoms: O7_28  and  C15_29 
ROOT
HETATM    1  N1  UNL     1       3.597  30.962  23.907  1.00  0.00    -0.191 NA
HETATM    2  C1  UNL     1       4.358  31.741  24.301  1.00  0.00     0.102 C 
HETATM    3  C2  UNL     1       5.317  32.715  24.781  1.00  0.00     0.079 A 
HETATM    4  C3  UNL     1       4.886  33.884  25.384  1.00  0.00     0.039 A 
HETATM    5  C4  UNL     1       5.777  34.809  25.841  1.00  0.00    -0.003 A 
HETATM    6  C12 UNL     1       7.121  34.509  25.663  1.00  0.00     0.017 A 
HETATM    7  C13 UNL     1       7.537  33.353  25.067  1.00  0.00     0.039 A 
HETATM    8  C14 UNL     1       6.667  32.405  24.598  1.00  0.00     0.095 A 
ENDROOT
BRANCH   8   9
HETATM    9  O7  UNL     1       7.034  31.222  23.989  1.00  0.00    -0.289 OA
BRANCH   9  10
HETATM   10  C15 UNL     1       7.365  31.083  22.657  1.00  0.00     0.505 C 
HETATM   11  F1  UNL     1       7.523  32.349  22.072  1.00  0.00    -0.184 F 
HETATM   12  F2  UNL     1       6.356  30.418  21.964  1.00  0.00    -0.184 F 
ENDBRANCH   9  10
ENDBRANCH   8   9
BRANCH   5  13
HETATM   13  C5  UNL     1       5.416  36.012  26.506  1.00  0.00     0.091 C 
BRANCH  13  14
HETATM   14  O1  UNL     1       6.400  36.843  26.733  1.00  0.00    -0.361 OA
ATOM     15  H1  UNL     1       6.878  37.128  25.963  1.00  0.00     0.217 HD
ENDBRANCH  13  14
BRANCH  13  16
HETATM   16  C6  UNL     1       4.130  36.455  26.969  1.00  0.00     0.304 C 
BRANCH  16  17
HETATM   17  C7  UNL     1       3.304  37.086  25.874  1.00  0.00     0.258 C 
HETATM   18  O2  UNL     1       3.906  37.528  24.900  1.00  0.00    -0.270 OA
HETATM   19  N2  UNL     1       1.917  37.117  26.060  1.00  0.00    -0.322 N 
ATOM     20  H2  UNL     1       1.563  36.711  26.926  1.00  0.00     0.169 HD
BRANCH  19  21
HETATM   21  C8  UNL     1       0.929  37.667  25.145  1.00  0.00     0.075 A 
HETATM   22  C9  UNL     1       0.230  36.895  24.293  1.00  0.00     0.040 A 
HETATM   23  C10 UNL     1      -0.680  37.500  23.463  1.00  0.00     0.054 A 
HETATM   24  S1  UNL     1      -0.551  39.131  23.880  1.00  0.00    -0.076 SA
HETATM   25  C11 UNL     1       0.665  39.018  25.108  1.00  0.00     0.170 A 
BRANCH  25  26
HETATM   26  N3  UNL     1       1.205  40.116  25.855  1.00  0.00    -0.106 N 
HETATM   27  O3  UNL     1       1.639  40.083  26.991  1.00  0.00    -0.531 OA
HETATM   28  O4  UNL     1       1.221  41.348  25.177  1.00  0.00    -0.531 OA
ENDBRANCH  25  26
ENDBRANCH  19  21
ENDBRANCH  16  17
BRANCH  16  29
HETATM   29  N4  UNL     1       4.187  37.377  28.058  1.00  0.00    -0.134 N 
HETATM   30  O5  UNL     1       4.110  38.626  27.926  1.00  0.00    -0.535 OA
HETATM   31  O6  UNL     1       4.385  36.947  29.365  1.00  0.00    -0.535 OA
ENDBRANCH  16  29
ENDBRANCH  13  16
ENDBRANCH   5  13
TORSDOF 9
ENDMDL
