MODEL 1
REMARK VINA RESULT: -9.527258536      0.000      0.000
REMARK  9 active torsions:
REMARK  status: ('A' for Active; 'I' for Inactive)
REMARK    1  A    between atoms: C1_2  and  C2_3 
REMARK       I    between atoms: C1_2  and  N1_19 
REMARK    2  A    between atoms: C2_3  and  C3_4 
REMARK    3  A    between atoms: C3_4  and  C4_6 
REMARK    4  A    between atoms: C4_6  and  O4_8 
REMARK    5  A    between atoms: O4_8  and  C5_9 
REMARK    6  A    between atoms: C5_9  and  C6_10 
REMARK    7  A    between atoms: C6_10  and  C7_12 
REMARK    8  A    between atoms: N1_19  and  C11_21 
REMARK    9  A    between atoms: C15_25  and  N2_26 
ROOT
HETATM    1  C3  UNL     1      -0.339  33.341  26.644  1.00  0.00     0.232 C 
HETATM    2  O2  UNL     1      -0.230  32.691  27.699  1.00  0.00    -0.286 OA
ENDROOT
BRANCH   1   3
HETATM    3  C2  UNL     1       0.818  33.882  25.953  1.00  0.00     0.192 C 
BRANCH   3   4
HETATM    4  C1  UNL     1       1.643  32.769  25.351  1.00  0.00     0.229 C 
HETATM    5  O1  UNL     1       1.068  31.703  25.046  1.00  0.00    -0.273 OA
HETATM    6  N1  UNL     1       3.028  32.973  25.158  1.00  0.00    -0.327 N 
ATOM      7  H1  UNL     1       3.426  33.869  25.438  1.00  0.00     0.169 HD
BRANCH   6   8
HETATM    8  C11 UNL     1       3.889  32.012  24.602  1.00  0.00     0.037 A 
HETATM    9  C12 UNL     1       3.551  30.817  24.046  1.00  0.00     0.029 A 
HETATM   10  C13 UNL     1       4.503  29.950  23.552  1.00  0.00     0.005 A 
HETATM   11  C14 UNL     1       5.846  30.260  23.600  1.00  0.00     0.036 A 
HETATM   12  C15 UNL     1       6.244  31.473  24.158  1.00  0.00     0.105 A 
HETATM   13  C16 UNL     1       5.268  32.299  24.636  1.00  0.00     0.065 A 
BRANCH  12  14
HETATM   14  N2  UNL     1       7.621  31.813  24.219  1.00  0.00    -0.116 N 
HETATM   15  O6  UNL     1       7.991  32.926  24.575  1.00  0.00    -0.532 OA
HETATM   16  O7  UNL     1       8.551  30.874  23.870  1.00  0.00    -0.532 OA
ENDBRANCH  12  14
ENDBRANCH   6   8
ENDBRANCH   3   4
ENDBRANCH   1   3
BRANCH   1  17
HETATM   17  C4  UNL     1      -1.702  33.569  26.078  1.00  0.00     0.330 C 
HETATM   18  O3  UNL     1      -2.678  33.676  26.830  1.00  0.00    -0.256 OA
BRANCH  17  19
HETATM   19  O4  UNL     1      -1.857  33.655  24.725  1.00  0.00    -0.307 OA
BRANCH  19  20
HETATM   20  C5  UNL     1      -2.312  34.774  24.025  1.00  0.00     0.263 C 
BRANCH  20  21
HETATM   21  C6  UNL     1      -1.397  35.216  22.963  1.00  0.00     0.190 C 
HETATM   22  O5  UNL     1      -1.392  34.754  21.805  1.00  0.00    -0.289 OA
BRANCH  21  23
HETATM   23  C7  UNL     1      -0.430  36.281  23.321  1.00  0.00     0.056 A 
HETATM   24  C8  UNL     1      -0.408  37.027  24.465  1.00  0.00     0.048 A 
HETATM   25  C9  UNL     1       0.572  37.950  24.581  1.00  0.00     0.064 A 
HETATM   26 CL1  UNL     1       0.768  39.024  26.004  1.00  0.00    -0.082 Cl
HETATM   27  C10 UNL     1       1.452  38.053  23.542  1.00  0.00     0.097 A 
HETATM   28 CL2  UNL     1       2.841  39.143  23.362  1.00  0.00    -0.074 Cl
HETATM   29  S1  UNL     1       0.902  36.878  22.444  1.00  0.00    -0.073 SA
ENDBRANCH  21  23
ENDBRANCH  20  21
ENDBRANCH  19  20
ENDBRANCH  17  19
ENDBRANCH   1  17
TORSDOF 9
ENDMDL
MODEL 2
REMARK VINA RESULT: -9.100355562      2.992      3.958
REMARK  9 active torsions:
REMARK  status: ('A' for Active; 'I' for Inactive)
REMARK    1  A    between atoms: C1_2  and  C2_3 
REMARK       I    between atoms: C1_2  and  N1_19 
REMARK    2  A    between atoms: C2_3  and  C3_4 
REMARK    3  A    between atoms: C3_4  and  C4_6 
REMARK    4  A    between atoms: C4_6  and  O4_8 
REMARK    5  A    between atoms: O4_8  and  C5_9 
REMARK    6  A    between atoms: C5_9  and  C6_10 
REMARK    7  A    between atoms: C6_10  and  C7_12 
REMARK    8  A    between atoms: N1_19  and  C11_21 
REMARK    9  A    between atoms: C15_25  and  N2_26 
ROOT
HETATM    1  C3  UNL     1       2.534  37.183  25.072  1.00  0.00     0.232 C 
HETATM    2  O2  UNL     1       3.413  38.017  24.792  1.00  0.00    -0.286 OA
ENDROOT
BRANCH   1   3
HETATM    3  C2  UNL     1       2.820  36.001  25.864  1.00  0.00     0.192 C 
BRANCH   3   4
HETATM    4  C1  UNL     1       3.331  34.885  24.984  1.00  0.00     0.229 C 
HETATM    5  O1  UNL     1       3.454  35.104  23.760  1.00  0.00    -0.273 OA
HETATM    6  N1  UNL     1       3.648  33.640  25.573  1.00  0.00    -0.327 N 
ATOM      7  H1  UNL     1       3.515  33.537  26.579  1.00  0.00     0.169 HD
BRANCH   6   8
HETATM    8  C11 UNL     1       4.136  32.537  24.853  1.00  0.00     0.037 A 
HETATM    9  C12 UNL     1       3.426  31.484  24.365  1.00  0.00     0.029 A 
HETATM   10  C13 UNL     1       4.035  30.448  23.688  1.00  0.00     0.005 A 
HETATM   11  C14 UNL     1       5.398  30.436  23.475  1.00  0.00     0.036 A 
HETATM   12  C15 UNL     1       6.169  31.493  23.955  1.00  0.00     0.105 A 
HETATM   13  C16 UNL     1       5.525  32.496  24.619  1.00  0.00     0.065 A 
BRANCH  12  14
HETATM   14  N2  UNL     1       7.574  31.502  23.748  1.00  0.00    -0.116 N 
HETATM   15  O6  UNL     1       8.137  30.600  23.138  1.00  0.00    -0.532 OA
HETATM   16  O7  UNL     1       8.310  32.543  24.242  1.00  0.00    -0.532 OA
ENDBRANCH  12  14
ENDBRANCH   6   8
ENDBRANCH   3   4
ENDBRANCH   1   3
BRANCH   1  17
HETATM   17  C4  UNL     1       1.143  37.412  24.576  1.00  0.00     0.330 C 
HETATM   18  O3  UNL     1       0.312  37.980  25.295  1.00  0.00    -0.256 OA
BRANCH  17  19
HETATM   19  O4  UNL     1       0.802  36.988  23.325  1.00  0.00    -0.307 OA
BRANCH  19  20
HETATM   20  C5  UNL     1      -0.494  36.921  22.811  1.00  0.00     0.263 C 
BRANCH  20  21
HETATM   21  C6  UNL     1      -0.991  35.549  22.642  1.00  0.00     0.190 C 
HETATM   22  O5  UNL     1      -1.307  35.047  21.545  1.00  0.00    -0.289 OA
BRANCH  21  23
HETATM   23  C7  UNL     1      -1.114  34.732  23.872  1.00  0.00     0.056 A 
HETATM   24  C8  UNL     1      -0.137  33.986  24.469  1.00  0.00     0.048 A 
HETATM   25  C9  UNL     1      -0.474  33.314  25.592  1.00  0.00     0.064 A 
HETATM   26 CL1  UNL     1       0.665  32.283  26.518  1.00  0.00    -0.082 Cl
HETATM   27  C10 UNL     1      -1.761  33.444  26.029  1.00  0.00     0.097 A 
HETATM   28 CL2  UNL     1      -2.534  32.712  27.449  1.00  0.00    -0.074 Cl
HETATM   29  S1  UNL     1      -2.463  34.482  24.881  1.00  0.00    -0.073 SA
ENDBRANCH  21  23
ENDBRANCH  20  21
ENDBRANCH  19  20
ENDBRANCH  17  19
ENDBRANCH   1  17
TORSDOF 9
ENDMDL
MODEL 3
REMARK VINA RESULT: -9.097028758      3.318      4.596
REMARK  9 active torsions:
REMARK  status: ('A' for Active; 'I' for Inactive)
REMARK    1  A    between atoms: C1_2  and  C2_3 
REMARK       I    between atoms: C1_2  and  N1_19 
REMARK    2  A    between atoms: C2_3  and  C3_4 
REMARK    3  A    between atoms: C3_4  and  C4_6 
REMARK    4  A    between atoms: C4_6  and  O4_8 
REMARK    5  A    between atoms: O4_8  and  C5_9 
REMARK    6  A    between atoms: C5_9  and  C6_10 
REMARK    7  A    between atoms: C6_10  and  C7_12 
REMARK    8  A    between atoms: N1_19  and  C11_21 
REMARK    9  A    between atoms: C15_25  and  N2_26 
ROOT
HETATM    1  C3  UNL     1       0.621  38.046  24.197  1.00  0.00     0.232 C 
HETATM    2  O2  UNL     1       0.289  37.354  25.176  1.00  0.00    -0.286 OA
ENDROOT
BRANCH   1   3
HETATM    3  C2  UNL     1       2.012  38.341  23.901  1.00  0.00     0.192 C 
BRANCH   3   4
HETATM    4  C1  UNL     1       2.813  37.065  23.799  1.00  0.00     0.229 C 
HETATM    5  O1  UNL     1       2.822  36.457  22.707  1.00  0.00    -0.273 OA
HETATM    6  N1  UNL     1       3.519  36.609  24.935  1.00  0.00    -0.327 N 
ATOM      7  H1  UNL     1       3.458  37.158  25.791  1.00  0.00     0.169 HD
BRANCH   6   8
HETATM    8  C11 UNL     1       4.301  35.442  24.951  1.00  0.00     0.037 A 
HETATM    9  C12 UNL     1       3.873  34.154  24.863  1.00  0.00     0.029 A 
HETATM   10  C13 UNL     1       4.750  33.090  24.913  1.00  0.00     0.005 A 
HETATM   11  C14 UNL     1       6.108  33.290  25.054  1.00  0.00     0.036 A 
HETATM   12  C15 UNL     1       6.597  34.591  25.147  1.00  0.00     0.105 A 
HETATM   13  C16 UNL     1       5.693  35.612  25.094  1.00  0.00     0.065 A 
BRANCH  12  14
HETATM   14  N2  UNL     1       7.990  34.820  25.293  1.00  0.00    -0.116 N 
HETATM   15  O6  UNL     1       8.817  33.987  24.938  1.00  0.00    -0.532 OA
HETATM   16  O7  UNL     1       8.414  35.998  25.843  1.00  0.00    -0.532 OA
ENDBRANCH  12  14
ENDBRANCH   6   8
ENDBRANCH   3   4
ENDBRANCH   1   3
BRANCH   1  17
HETATM   17  C4  UNL     1      -0.447  38.585  23.304  1.00  0.00     0.330 C 
HETATM   18  O3  UNL     1      -0.980  39.673  23.557  1.00  0.00    -0.256 OA
BRANCH  17  19
HETATM   19  O4  UNL     1      -0.829  37.866  22.208  1.00  0.00    -0.307 OA
BRANCH  19  20
HETATM   20  C5  UNL     1      -0.405  36.575  21.891  1.00  0.00     0.263 C 
BRANCH  20  21
HETATM   21  C6  UNL     1      -1.422  35.543  22.137  1.00  0.00     0.190 C 
HETATM   22  O5  UNL     1      -2.341  35.260  21.342  1.00  0.00    -0.289 OA
BRANCH  21  23
HETATM   23  C7  UNL     1      -1.324  34.807  23.419  1.00  0.00     0.056 A 
HETATM   24  C8  UNL     1      -0.259  34.087  23.881  1.00  0.00     0.048 A 
HETATM   25  C9  UNL     1      -0.391  33.493  25.087  1.00  0.00     0.064 A 
HETATM   26 CL1  UNL     1       0.893  32.507  25.859  1.00  0.00    -0.082 Cl
HETATM   27  C10 UNL     1      -1.579  33.668  25.737  1.00  0.00     0.097 A 
HETATM   28 CL2  UNL     1      -2.087  33.039  27.316  1.00  0.00    -0.074 Cl
HETATM   29  S1  UNL     1      -2.472  34.641  24.667  1.00  0.00    -0.073 SA
ENDBRANCH  21  23
ENDBRANCH  20  21
ENDBRANCH  19  20
ENDBRANCH  17  19
ENDBRANCH   1  17
TORSDOF 9
ENDMDL
MODEL 4
REMARK VINA RESULT: -9.083167425      3.102      4.355
REMARK  9 active torsions:
REMARK  status: ('A' for Active; 'I' for Inactive)
REMARK    1  A    between atoms: C1_2  and  C2_3 
REMARK       I    between atoms: C1_2  and  N1_19 
REMARK    2  A    between atoms: C2_3  and  C3_4 
REMARK    3  A    between atoms: C3_4  and  C4_6 
REMARK    4  A    between atoms: C4_6  and  O4_8 
REMARK    5  A    between atoms: O4_8  and  C5_9 
REMARK    6  A    between atoms: C5_9  and  C6_10 
REMARK    7  A    between atoms: C6_10  and  C7_12 
REMARK    8  A    between atoms: N1_19  and  C11_21 
REMARK    9  A    between atoms: C15_25  and  N2_26 
ROOT
HETATM    1  C3  UNL     1       1.935  37.529  24.343  1.00  0.00     0.232 C 
HETATM    2  O2  UNL     1       3.104  37.861  24.078  1.00  0.00    -0.286 OA
ENDROOT
BRANCH   1   3
HETATM    3  C2  UNL     1       1.624  36.600  25.414  1.00  0.00     0.192 C 
BRANCH   3   4
HETATM    4  C1  UNL     1       2.766  35.634  25.626  1.00  0.00     0.229 C 
HETATM    5  O1  UNL     1       3.121  35.383  26.797  1.00  0.00    -0.273 OA
HETATM    6  N1  UNL     1       3.386  35.053  24.497  1.00  0.00    -0.327 N 
ATOM      7  H1  UNL     1       3.043  35.312  23.573  1.00  0.00     0.169 HD
BRANCH   6   8
HETATM    8  C11 UNL     1       4.450  34.138  24.575  1.00  0.00     0.037 A 
HETATM    9  C12 UNL     1       4.395  32.786  24.440  1.00  0.00     0.029 A 
HETATM   10  C13 UNL     1       5.519  31.996  24.562  1.00  0.00     0.005 A 
HETATM   11  C14 UNL     1       6.755  32.548  24.827  1.00  0.00     0.036 A 
HETATM   12  C15 UNL     1       6.865  33.929  24.973  1.00  0.00     0.105 A 
HETATM   13  C16 UNL     1       5.726  34.671  24.845  1.00  0.00     0.065 A 
BRANCH  12  14
HETATM   14  N2  UNL     1       8.127  34.519  25.246  1.00  0.00    -0.116 N 
HETATM   15  O6  UNL     1       9.170  34.012  24.849  1.00  0.00    -0.532 OA
HETATM   16  O7  UNL     1       8.174  35.678  25.969  1.00  0.00    -0.532 OA
ENDBRANCH  12  14
ENDBRANCH   6   8
ENDBRANCH   3   4
ENDBRANCH   1   3
BRANCH   1  17
HETATM   17  C4  UNL     1       0.824  38.109  23.531  1.00  0.00     0.330 C 
HETATM   18  O3  UNL     1       0.899  39.270  23.111  1.00  0.00    -0.256 OA
BRANCH  17  19
HETATM   19  O4  UNL     1      -0.275  37.344  23.260  1.00  0.00    -0.307 OA
BRANCH  19  20
HETATM   20  C5  UNL     1      -0.527  36.672  22.063  1.00  0.00     0.263 C 
BRANCH  20  21
HETATM   21  C6  UNL     1      -1.406  35.506  22.217  1.00  0.00     0.190 C 
HETATM   22  O5  UNL     1      -2.217  35.119  21.351  1.00  0.00    -0.289 OA
BRANCH  21  23
HETATM   23  C7  UNL     1      -1.302  34.759  23.492  1.00  0.00     0.056 A 
HETATM   24  C8  UNL     1      -0.235  34.033  23.941  1.00  0.00     0.048 A 
HETATM   25  C9  UNL     1      -0.360  33.430  25.143  1.00  0.00     0.064 A 
HETATM   26 CL1  UNL     1       0.927  32.435  25.899  1.00  0.00    -0.082 Cl
HETATM   27  C10 UNL     1      -1.544  33.601  25.802  1.00  0.00     0.097 A 
HETATM   28 CL2  UNL     1      -2.043  32.960  27.380  1.00  0.00    -0.074 Cl
HETATM   29  S1  UNL     1      -2.442  34.585  24.746  1.00  0.00    -0.073 SA
ENDBRANCH  21  23
ENDBRANCH  20  21
ENDBRANCH  19  20
ENDBRANCH  17  19
ENDBRANCH   1  17
TORSDOF 9
ENDMDL
MODEL 5
REMARK VINA RESULT: -9.036812274      2.036      2.777
REMARK  9 active torsions:
REMARK  status: ('A' for Active; 'I' for Inactive)
REMARK    1  A    between atoms: C1_2  and  C2_3 
REMARK       I    between atoms: C1_2  and  N1_19 
REMARK    2  A    between atoms: C2_3  and  C3_4 
REMARK    3  A    between atoms: C3_4  and  C4_6 
REMARK    4  A    between atoms: C4_6  and  O4_8 
REMARK    5  A    between atoms: O4_8  and  C5_9 
REMARK    6  A    between atoms: C5_9  and  C6_10 
REMARK    7  A    between atoms: C6_10  and  C7_12 
REMARK    8  A    between atoms: N1_19  and  C11_21 
REMARK    9  A    between atoms: C15_25  and  N2_26 
ROOT
HETATM    1  C3  UNL     1      -0.564  34.028  25.155  1.00  0.00     0.232 C 
HETATM    2  O2  UNL     1      -1.565  33.526  25.696  1.00  0.00    -0.286 OA
ENDROOT
BRANCH   1   3
HETATM    3  C2  UNL     1       0.734  34.047  25.805  1.00  0.00     0.192 C 
BRANCH   3   4
HETATM    4  C1  UNL     1       1.575  32.881  25.342  1.00  0.00     0.229 C 
HETATM    5  O1  UNL     1       1.049  31.748  25.304  1.00  0.00    -0.273 OA
HETATM    6  N1  UNL     1       2.919  33.113  24.971  1.00  0.00    -0.327 N 
ATOM      7  H1  UNL     1       3.278  34.065  25.035  1.00  0.00     0.169 HD
BRANCH   6   8
HETATM    8  C11 UNL     1       3.789  32.106  24.520  1.00  0.00     0.037 A 
HETATM    9  C12 UNL     1       3.458  30.885  24.020  1.00  0.00     0.029 A 
HETATM   10  C13 UNL     1       4.418  29.975  23.630  1.00  0.00     0.005 A 
HETATM   11  C14 UNL     1       5.763  30.267  23.729  1.00  0.00     0.036 A 
HETATM   12  C15 UNL     1       6.153  31.505  24.234  1.00  0.00     0.105 A 
HETATM   13  C16 UNL     1       5.170  32.374  24.609  1.00  0.00     0.065 A 
BRANCH  12  14
HETATM   14  N2  UNL     1       7.531  31.827  24.346  1.00  0.00    -0.116 N 
HETATM   15  O6  UNL     1       8.401  31.076  23.921  1.00  0.00    -0.532 OA
HETATM   16  O7  UNL     1       7.891  33.004  24.941  1.00  0.00    -0.532 OA
ENDBRANCH  12  14
ENDBRANCH   6   8
ENDBRANCH   3   4
ENDBRANCH   1   3
BRANCH   1  17
HETATM   17  C4  UNL     1      -0.710  34.627  23.794  1.00  0.00     0.330 C 
HETATM   18  O3  UNL     1      -1.738  34.433  23.135  1.00  0.00    -0.256 OA
BRANCH  17  19
HETATM   19  O4  UNL     1       0.304  35.389  23.288  1.00  0.00    -0.307 OA
BRANCH  19  20
HETATM   20  C5  UNL     1       0.152  36.531  22.501  1.00  0.00     0.263 C 
BRANCH  20  21
HETATM   21  C6  UNL     1       1.003  37.653  22.921  1.00  0.00     0.190 C 
HETATM   22  O5  UNL     1       0.926  38.806  22.452  1.00  0.00    -0.289 OA
BRANCH  21  23
HETATM   23  C7  UNL     1       2.009  37.366  23.970  1.00  0.00     0.056 A 
HETATM   24  C8  UNL     1       3.238  36.794  23.804  1.00  0.00     0.048 A 
HETATM   25  C9  UNL     1       3.996  36.625  24.909  1.00  0.00     0.064 A 
HETATM   26 CL1  UNL     1       5.633  35.894  24.895  1.00  0.00    -0.082 Cl
HETATM   27  C10 UNL     1       3.463  37.044  26.095  1.00  0.00     0.097 A 
HETATM   28 CL2  UNL     1       4.172  36.976  27.720  1.00  0.00    -0.074 Cl
HETATM   29  S1  UNL     1       1.941  37.653  25.648  1.00  0.00    -0.073 SA
ENDBRANCH  21  23
ENDBRANCH  20  21
ENDBRANCH  19  20
ENDBRANCH  17  19
ENDBRANCH   1  17
TORSDOF 9
ENDMDL
