MODEL 1
REMARK VINA RESULT: -7.312272200      0.000      0.000
REMARK  5 active torsions:
REMARK  status: ('A' for Active; 'I' for Inactive)
REMARK    1  A    between atoms: C2_2  and  O1_3 
REMARK    2  A    between atoms: C2_2  and  C3_5 
REMARK    3  A    between atoms: C5_11  and  C6_12 
REMARK    4  A    between atoms: C7_13  and  C8_14 
REMARK    5  A    between atoms: C17_23  and  O4_24 
ROOT
HETATM    1  C6  UNL     1      65.460  36.535  25.175  1.00  0.00     0.021 C 
HETATM    2  C7  UNL     1      65.313  37.793  25.491  1.00  0.00     0.014 C 
ENDROOT
BRANCH   2   3
HETATM    3  C8  UNL     1      66.257  38.550  26.363  1.00  0.00    -0.011 C 
HETATM    4  C9  UNL     1      66.004  39.960  26.447  1.00  0.00    -0.013 C 
HETATM    5  C10 UNL     1      66.857  40.970  25.821  1.00  0.00     0.028 C 
HETATM    6  C11 UNL     1      67.180  42.142  26.750  1.00  0.00     0.004 C 
HETATM    7  C12 UNL     1      68.645  42.149  27.171  1.00  0.00     0.000 C 
HETATM    8  C13 UNL     1      68.914  41.312  28.378  1.00  0.00     0.000 C 
HETATM    9  C14 UNL     1      69.451  39.977  27.920  1.00  0.00     0.000 C 
HETATM   10  C15 UNL     1      68.523  38.899  28.432  1.00  0.00     0.006 C 
HETATM   11  C16 UNL     1      68.335  37.761  27.542  1.00  0.00     0.065 C 
HETATM   12  C17 UNL     1      67.596  37.943  26.254  1.00  0.00     0.053 C 
BRANCH  12  13
HETATM   13  O4  UNL     1      68.375  38.341  25.182  1.00  0.00    -0.364 OA
ATOM     14  H4  UNL     1      68.733  39.220  25.218  1.00  0.00     0.217 HD
ENDBRANCH  12  13
ENDBRANCH   2   3
BRANCH   1  15
HETATM   15  C5  UNL     1      64.498  35.877  24.313  1.00  0.00     0.068 A 
HETATM   16  C3  UNL     1      63.790  34.767  24.798  1.00  0.00     0.077 A 
HETATM   17  N1  UNL     1      63.061  34.326  23.764  1.00  0.00    -0.258 N 
HETATM   18  O2  UNL     1      63.280  35.085  22.716  1.00  0.00    -0.195 OA
ATOM     19  H1  UNL     1      62.431  33.524  23.788  1.00  0.00     0.194 HD
HETATM   20  C4  UNL     1      64.145  36.041  23.004  1.00  0.00     0.317 A 
HETATM   21  O3  UNL     1      64.569  36.944  22.249  1.00  0.00    -0.257 OA
BRANCH  16  22
HETATM   22  C2  UNL     1      63.738  34.328  26.168  1.00  0.00     0.166 C 
HETATM   23  C1  UNL     1      64.496  33.052  26.455  1.00  0.00     0.046 C 
BRANCH  22  24
HETATM   24  O1  UNL     1      62.337  33.882  26.366  1.00  0.00    -0.390 OA
ATOM     25  H1  UNL     1      62.205  33.339  25.597  1.00  0.00     0.210 HD
ENDBRANCH  22  24
ENDBRANCH  16  22
ENDBRANCH   1  15
TORSDOF 5
ENDMDL
MODEL 2
REMARK VINA RESULT: -7.244924725      1.041      2.589
REMARK  5 active torsions:
REMARK  status: ('A' for Active; 'I' for Inactive)
REMARK    1  A    between atoms: C2_2  and  O1_3 
REMARK    2  A    between atoms: C2_2  and  C3_5 
REMARK    3  A    between atoms: C5_11  and  C6_12 
REMARK    4  A    between atoms: C7_13  and  C8_14 
REMARK    5  A    between atoms: C17_23  and  O4_24 
ROOT
HETATM    1  C6  UNL     1      64.869  36.932  25.839  1.00  0.00     0.021 C 
HETATM    2  C7  UNL     1      66.151  37.089  26.027  1.00  0.00     0.014 C 
ENDROOT
BRANCH   2   3
HETATM    3  C8  UNL     1      66.747  38.179  26.852  1.00  0.00    -0.011 C 
HETATM    4  C9  UNL     1      66.148  39.470  26.672  1.00  0.00    -0.013 C 
HETATM    5  C10 UNL     1      66.810  40.575  25.976  1.00  0.00     0.028 C 
HETATM    6  C11 UNL     1      66.701  41.906  26.724  1.00  0.00     0.004 C 
HETATM    7  C12 UNL     1      68.044  42.354  27.288  1.00  0.00     0.000 C 
HETATM    8  C13 UNL     1      68.334  41.790  28.639  1.00  0.00     0.000 C 
HETATM    9  C14 UNL     1      69.239  40.594  28.470  1.00  0.00     0.000 C 
HETATM   10  C15 UNL     1      68.539  39.390  29.057  1.00  0.00     0.006 C 
HETATM   11  C16 UNL     1      68.763  38.133  28.356  1.00  0.00     0.065 C 
HETATM   12  C17 UNL     1      68.195  37.937  26.987  1.00  0.00     0.053 C 
BRANCH  12  13
HETATM   13  O4  UNL     1      68.998  38.377  25.950  1.00  0.00    -0.364 OA
ATOM     14  H4  UNL     1      68.683  38.218  25.068  1.00  0.00     0.217 HD
ENDBRANCH  12  13
ENDBRANCH   2   3
BRANCH   1  15
HETATM   15  C5  UNL     1      64.374  35.837  25.029  1.00  0.00     0.068 A 
HETATM   16  C3  UNL     1      64.288  35.999  23.637  1.00  0.00     0.077 A 
HETATM   17  N1  UNL     1      63.719  34.876  23.179  1.00  0.00    -0.258 N 
HETATM   18  O2  UNL     1      63.467  34.070  24.183  1.00  0.00    -0.195 OA
ATOM     19  H1  UNL     1      63.514  34.678  22.199  1.00  0.00     0.194 HD
HETATM   20  C4  UNL     1      63.850  34.611  25.325  1.00  0.00     0.317 A 
HETATM   21  O3  UNL     1      63.773  34.118  26.472  1.00  0.00    -0.257 OA
BRANCH  16  22
HETATM   22  C2  UNL     1      64.863  37.076  22.873  1.00  0.00     0.166 C 
HETATM   23  C1  UNL     1      64.269  38.439  23.150  1.00  0.00     0.046 C 
BRANCH  22  24
HETATM   24  O1  UNL     1      64.400  36.837  21.483  1.00  0.00    -0.390 OA
ATOM     25  H1  UNL     1      63.578  37.313  21.478  1.00  0.00     0.210 HD
ENDBRANCH  22  24
ENDBRANCH  16  22
ENDBRANCH   1  15
TORSDOF 5
ENDMDL
MODEL 3
REMARK VINA RESULT: -6.785337435      1.163      2.160
REMARK  5 active torsions:
REMARK  status: ('A' for Active; 'I' for Inactive)
REMARK    1  A    between atoms: C2_2  and  O1_3 
REMARK    2  A    between atoms: C2_2  and  C3_5 
REMARK    3  A    between atoms: C5_11  and  C6_12 
REMARK    4  A    between atoms: C7_13  and  C8_14 
REMARK    5  A    between atoms: C17_23  and  O4_24 
ROOT
HETATM    1  C6  UNL     1      65.471  36.989  24.995  1.00  0.00     0.021 C 
HETATM    2  C7  UNL     1      66.542  37.516  24.468  1.00  0.00     0.014 C 
ENDROOT
BRANCH   2   3
HETATM    3  C8  UNL     1      67.496  38.388  25.212  1.00  0.00    -0.011 C 
HETATM    4  C9  UNL     1      67.968  37.846  26.454  1.00  0.00    -0.013 C 
HETATM    5  C10 UNL     1      67.557  38.354  27.763  1.00  0.00     0.028 C 
HETATM    6  C11 UNL     1      68.730  38.545  28.728  1.00  0.00     0.004 C 
HETATM    7  C12 UNL     1      69.009  40.018  29.001  1.00  0.00     0.000 C 
HETATM    8  C13 UNL     1      69.926  40.639  28.001  1.00  0.00     0.000 C 
HETATM    9  C14 UNL     1      69.089  41.383  26.988  1.00  0.00     0.000 C 
HETATM   10  C15 UNL     1      69.380  40.801  25.623  1.00  0.00     0.006 C 
HETATM   11  C16 UNL     1      68.242  40.739  24.715  1.00  0.00     0.065 C 
HETATM   12  C17 UNL     1      67.116  39.797  25.002  1.00  0.00     0.053 C 
BRANCH  12  13
HETATM   13  O4  UNL     1      66.123  40.303  25.821  1.00  0.00    -0.364 OA
ATOM     14  H4  UNL     1      66.403  40.702  26.636  1.00  0.00     0.217 HD
ENDBRANCH  12  13
ENDBRANCH   2   3
BRANCH   1  15
HETATM   15  C5  UNL     1      64.601  36.144  24.201  1.00  0.00     0.068 A 
HETATM   16  C3  UNL     1      64.176  34.913  24.724  1.00  0.00     0.077 A 
HETATM   17  N1  UNL     1      63.474  34.329  23.744  1.00  0.00    -0.258 N 
HETATM   18  O2  UNL     1      63.450  35.113  22.693  1.00  0.00    -0.195 OA
ATOM     19  H1  UNL     1      63.027  33.414  23.806  1.00  0.00     0.194 HD
HETATM   20  C4  UNL     1      64.120  36.228  22.925  1.00  0.00     0.317 A 
HETATM   21  O3  UNL     1      64.289  37.196  22.153  1.00  0.00    -0.257 OA
BRANCH  16  22
HETATM   22  C2  UNL     1      64.323  34.477  26.089  1.00  0.00     0.166 C 
HETATM   23  C1  UNL     1      65.120  33.205  26.266  1.00  0.00     0.046 C 
BRANCH  22  24
HETATM   24  O1  UNL     1      62.966  34.026  26.486  1.00  0.00    -0.390 OA
ATOM     25  H1  UNL     1      62.981  34.195  27.421  1.00  0.00     0.210 HD
ENDBRANCH  22  24
ENDBRANCH  16  22
ENDBRANCH   1  15
TORSDOF 5
ENDMDL
MODEL 4
REMARK VINA RESULT: -6.707538747      1.659      3.211
REMARK  5 active torsions:
REMARK  status: ('A' for Active; 'I' for Inactive)
REMARK    1  A    between atoms: C2_2  and  O1_3 
REMARK    2  A    between atoms: C2_2  and  C3_5 
REMARK    3  A    between atoms: C5_11  and  C6_12 
REMARK    4  A    between atoms: C7_13  and  C8_14 
REMARK    5  A    between atoms: C17_23  and  O4_24 
ROOT
HETATM    1  C6  UNL     1      66.686  36.566  25.267  1.00  0.00     0.021 C 
HETATM    2  C7  UNL     1      66.529  37.449  26.215  1.00  0.00     0.014 C 
ENDROOT
BRANCH   2   3
HETATM    3  C8  UNL     1      67.527  38.507  26.545  1.00  0.00    -0.011 C 
HETATM    4  C9  UNL     1      68.008  38.483  27.896  1.00  0.00    -0.013 C 
HETATM    5  C10 UNL     1      67.643  39.483  28.900  1.00  0.00     0.028 C 
HETATM    6  C11 UNL     1      68.842  39.995  29.701  1.00  0.00     0.004 C 
HETATM    7  C12 UNL     1      69.174  41.444  29.367  1.00  0.00     0.000 C 
HETATM    8  C13 UNL     1      70.088  41.583  28.195  1.00  0.00     0.000 C 
HETATM    9  C14 UNL     1      69.254  41.897  26.977  1.00  0.00     0.000 C 
HETATM   10  C15 UNL     1      69.495  40.812  25.951  1.00  0.00     0.006 C 
HETATM   11  C16 UNL     1      68.336  40.439  25.151  1.00  0.00     0.065 C 
HETATM   12  C17 UNL     1      67.188  39.731  25.796  1.00  0.00     0.053 C 
BRANCH  12  13
HETATM   13  O4  UNL     1      66.229  40.557  26.356  1.00  0.00    -0.364 OA
ATOM     14  H4  UNL     1      65.722  40.198  27.074  1.00  0.00     0.217 HD
ENDBRANCH  12  13
ENDBRANCH   2   3
BRANCH   1  15
HETATM   15  C5  UNL     1      65.660  35.577  25.006  1.00  0.00     0.068 A 
HETATM   16  C3  UNL     1      64.731  35.806  23.979  1.00  0.00     0.077 A 
HETATM   17  N1  UNL     1      63.868  34.783  24.039  1.00  0.00    -0.258 N 
HETATM   18  O2  UNL     1      64.215  33.972  25.011  1.00  0.00    -0.195 OA
ATOM     19  H1  UNL     1      63.066  34.653  23.423  1.00  0.00     0.194 HD
HETATM   20  C4  UNL     1      65.299  34.414  25.625  1.00  0.00     0.317 A 
HETATM   21  O3  UNL     1      65.907  33.886  26.581  1.00  0.00    -0.257 OA
BRANCH  16  22
HETATM   22  C2  UNL     1      64.816  36.834  22.975  1.00  0.00     0.166 C 
HETATM   23  C1  UNL     1      64.339  38.199  23.421  1.00  0.00     0.046 C 
BRANCH  22  24
HETATM   24  O1  UNL     1      63.774  36.475  21.982  1.00  0.00    -0.390 OA
ATOM     25  H1  UNL     1      64.230  36.646  21.166  1.00  0.00     0.210 HD
ENDBRANCH  22  24
ENDBRANCH  16  22
ENDBRANCH   1  15
TORSDOF 5
ENDMDL
MODEL 5
REMARK VINA RESULT: -6.576173472      2.050      3.289
REMARK  5 active torsions:
REMARK  status: ('A' for Active; 'I' for Inactive)
REMARK    1  A    between atoms: C2_2  and  O1_3 
REMARK    2  A    between atoms: C2_2  and  C3_5 
REMARK    3  A    between atoms: C5_11  and  C6_12 
REMARK    4  A    between atoms: C7_13  and  C8_14 
REMARK    5  A    between atoms: C17_23  and  O4_24 
ROOT
HETATM    1  C6  UNL     1      66.384  35.965  25.603  1.00  0.00     0.021 C 
HETATM    2  C7  UNL     1      67.178  36.623  26.402  1.00  0.00     0.014 C 
ENDROOT
BRANCH   2   3
HETATM    3  C8  UNL     1      67.473  38.079  26.274  1.00  0.00    -0.011 C 
HETATM    4  C9  UNL     1      68.860  38.428  26.385  1.00  0.00    -0.013 C 
HETATM    5  C10 UNL     1      69.427  39.119  27.543  1.00  0.00     0.028 C 
HETATM    6  C11 UNL     1      70.356  40.272  27.158  1.00  0.00     0.004 C 
HETATM    7  C12 UNL     1      69.753  41.629  27.501  1.00  0.00     0.000 C 
HETATM    8  C13 UNL     1      68.876  42.173  26.422  1.00  0.00     0.000 C 
HETATM    9  C14 UNL     1      67.441  41.875  26.781  1.00  0.00     0.000 C 
HETATM   10  C15 UNL     1      66.843  41.042  25.669  1.00  0.00     0.006 C 
HETATM   11  C16 UNL     1      65.889  40.026  26.093  1.00  0.00     0.065 C 
HETATM   12  C17 UNL     1      66.365  38.844  26.876  1.00  0.00     0.053 C 
BRANCH  12  13
HETATM   13  O4  UNL     1      66.407  39.027  28.246  1.00  0.00    -0.364 OA
ATOM     14  H4  UNL     1      65.753  39.605  28.621  1.00  0.00     0.217 HD
ENDBRANCH  12  13
ENDBRANCH   2   3
BRANCH   1  15
HETATM   15  C5  UNL     1      66.145  34.550  25.805  1.00  0.00     0.068 A 
HETATM   16  C3  UNL     1      64.849  34.041  25.631  1.00  0.00     0.077 A 
HETATM   17  N1  UNL     1      64.921  32.748  25.972  1.00  0.00    -0.258 N 
HETATM   18  O2  UNL     1      66.149  32.455  26.328  1.00  0.00    -0.195 OA
ATOM     19  H1  UNL     1      64.141  32.091  25.957  1.00  0.00     0.194 HD
HETATM   20  C4  UNL     1      66.928  33.519  26.240  1.00  0.00     0.317 A 
HETATM   21  O3  UNL     1      68.151  33.596  26.489  1.00  0.00    -0.257 OA
BRANCH  16  22
HETATM   22  C2  UNL     1      63.738  34.740  25.037  1.00  0.00     0.166 C 
HETATM   23  C1  UNL     1      62.382  34.356  25.584  1.00  0.00     0.046 C 
BRANCH  22  24
HETATM   24  O1  UNL     1      63.654  34.204  23.656  1.00  0.00    -0.390 OA
ATOM     25  H1  UNL     1      64.483  34.496  23.294  1.00  0.00     0.210 HD
ENDBRANCH  22  24
ENDBRANCH  16  22
ENDBRANCH   1  15
TORSDOF 5
ENDMDL
