MODEL 1
REMARK VINA RESULT: -7.247677033      0.000      0.000
REMARK  6 active torsions:
REMARK  status: ('A' for Active; 'I' for Inactive)
REMARK    1  A    between atoms: O1_1  and  C1_3 
REMARK    2  A    between atoms: C3_5  and  C4_6 
REMARK    3  A    between atoms: C4_6  and  O2_7 
REMARK    4  A    between atoms: C4_6  and  N1_9 
REMARK    5  A    between atoms: C10_15  and  O3_16 
REMARK    6  A    between atoms: N2_18  and  C11_19 
ROOT
HETATM    1  C1  UNL     1      64.869  35.777  23.997  1.00  0.00     0.145 A 
HETATM    2  C2  UNL     1      65.298  37.079  23.844  1.00  0.00     0.072 A 
HETATM    3  C3  UNL     1      66.388  37.335  24.658  1.00  0.00     0.055 A 
HETATM    4  C10 UNL     1      66.593  36.113  25.313  1.00  0.00     0.155 A 
HETATM    5  N2  UNL     1      65.684  35.213  24.904  1.00  0.00    -0.303 N 
ENDROOT
BRANCH   3   6
HETATM    6  C4  UNL     1      67.182  38.577  24.827  1.00  0.00     0.395 C 
BRANCH   6   7
HETATM    7  O2  UNL     1      67.605  39.000  23.566  1.00  0.00    -0.364 OA
ATOM      8  H2  UNL     1      68.181  38.334  23.207  1.00  0.00     0.212 HD
ENDBRANCH   6   7
BRANCH   6   9
HETATM    9  N1  UNL     1      66.534  39.575  25.606  1.00  0.00     0.121 N 
HETATM   10  C5  UNL     1      67.158  40.846  25.678  1.00  0.00     0.276 C 
HETATM   11  C6  UNL     1      68.303  40.909  26.662  1.00  0.00     0.030 C 
HETATM   12  C7  UNL     1      67.907  40.352  28.014  1.00  0.00     0.003 C 
HETATM   13  C8  UNL     1      67.197  39.044  27.918  1.00  0.00     0.030 C 
HETATM   14  C9  UNL     1      66.104  39.127  26.898  1.00  0.00     0.276 C 
ENDBRANCH   6   9
ENDBRANCH   3   6
BRANCH   4  15
HETATM   15  O3  UNL     1      67.622  35.949  26.242  1.00  0.00    -0.345 OA
ATOM     16  H3  UNL     1      67.474  35.520  27.076  1.00  0.00     0.219 HD
ENDBRANCH   4  15
BRANCH   1  17
HETATM   17  O1  UNL     1      63.792  35.168  23.333  1.00  0.00    -0.346 OA
ATOM     18  H1  UNL     1      63.039  34.754  23.738  1.00  0.00     0.219 HD
ENDBRANCH   1  17
BRANCH   5  19
HETATM   19  C11 UNL     1      65.622  33.861  25.387  1.00  0.00     0.094 C 
HETATM   20  C12 UNL     1      64.612  33.686  26.513  1.00  0.00     0.026 C 
HETATM   21  C13 UNL     1      64.922  32.448  27.324  1.00  0.00     0.002 C 
HETATM   22  C14 UNL     1      65.545  31.364  26.479  1.00  0.00     0.000 C 
HETATM   23  C15 UNL     1      66.905  31.850  26.037  1.00  0.00     0.002 C 
HETATM   24  C16 UNL     1      66.936  33.355  25.880  1.00  0.00     0.026 C 
ENDBRANCH   5  19
TORSDOF 6
ENDMDL
MODEL 2
REMARK VINA RESULT: -7.185910003      2.617      6.545
REMARK  6 active torsions:
REMARK  status: ('A' for Active; 'I' for Inactive)
REMARK    1  A    between atoms: O1_1  and  C1_3 
REMARK    2  A    between atoms: C3_5  and  C4_6 
REMARK    3  A    between atoms: C4_6  and  O2_7 
REMARK    4  A    between atoms: C4_6  and  N1_9 
REMARK    5  A    between atoms: C10_15  and  O3_16 
REMARK    6  A    between atoms: N2_18  and  C11_19 
ROOT
HETATM    1  C1  UNL     1      65.737  36.905  25.042  1.00  0.00     0.145 A 
HETATM    2  C2  UNL     1      65.114  36.234  26.073  1.00  0.00     0.072 A 
HETATM    3  C3  UNL     1      64.145  35.375  25.585  1.00  0.00     0.055 A 
HETATM    4  C10 UNL     1      64.216  35.566  24.199  1.00  0.00     0.155 A 
HETATM    5  N2  UNL     1      65.163  36.473  23.907  1.00  0.00    -0.303 N 
ENDROOT
BRANCH   3   6
HETATM    6  C4  UNL     1      63.234  34.453  26.309  1.00  0.00     0.395 C 
BRANCH   6   7
HETATM    7  O2  UNL     1      61.922  34.763  25.947  1.00  0.00    -0.364 OA
ATOM      8  H2  UNL     1      61.400  34.818  26.739  1.00  0.00     0.212 HD
ENDBRANCH   6   7
BRANCH   6   9
HETATM    9  N1  UNL     1      63.581  33.080  26.180  1.00  0.00     0.121 N 
HETATM   10  C5  UNL     1      62.952  32.168  27.065  1.00  0.00     0.276 C 
HETATM   11  C6  UNL     1      63.570  32.132  28.444  1.00  0.00     0.030 C 
HETATM   12  C7  UNL     1      65.074  31.970  28.377  1.00  0.00     0.003 C 
HETATM   13  C8  UNL     1      65.715  32.894  27.397  1.00  0.00     0.030 C 
HETATM   14  C9  UNL     1      64.990  32.835  26.087  1.00  0.00     0.276 C 
ENDBRANCH   6   9
ENDBRANCH   3   6
BRANCH   4  15
HETATM   15  O3  UNL     1      63.382  34.867  23.324  1.00  0.00    -0.345 OA
ATOM     16  H3  UNL     1      63.345  35.079  22.399  1.00  0.00     0.219 HD
ENDBRANCH   4  15
BRANCH   1  17
HETATM   17  O1  UNL     1      66.766  37.853  25.162  1.00  0.00    -0.346 OA
ATOM     18  H1  UNL     1      67.694  37.699  25.031  1.00  0.00     0.219 HD
ENDBRANCH   1  17
BRANCH   5  19
HETATM   19  C11 UNL     1      65.485  36.893  22.571  1.00  0.00     0.094 C 
HETATM   20  C12 UNL     1      66.985  37.005  22.337  1.00  0.00     0.026 C 
HETATM   21  C13 UNL     1      67.279  37.908  21.160  1.00  0.00     0.002 C 
HETATM   22  C14 UNL     1      66.194  37.837  20.114  1.00  0.00     0.000 C 
HETATM   23  C15 UNL     1      64.939  38.429  20.711  1.00  0.00     0.002 C 
HETATM   24  C16 UNL     1      64.874  38.205  22.207  1.00  0.00     0.026 C 
ENDBRANCH   5  19
TORSDOF 6
ENDMDL
MODEL 3
REMARK VINA RESULT: -6.872601189      1.970      6.651
REMARK  6 active torsions:
REMARK  status: ('A' for Active; 'I' for Inactive)
REMARK    1  A    between atoms: O1_1  and  C1_3 
REMARK    2  A    between atoms: C3_5  and  C4_6 
REMARK    3  A    between atoms: C4_6  and  O2_7 
REMARK    4  A    between atoms: C4_6  and  N1_9 
REMARK    5  A    between atoms: C10_15  and  O3_16 
REMARK    6  A    between atoms: N2_18  and  C11_19 
ROOT
HETATM    1  C1  UNL     1      66.767  39.004  27.430  1.00  0.00     0.145 A 
HETATM    2  C2  UNL     1      65.678  38.282  26.985  1.00  0.00     0.072 A 
HETATM    3  C3  UNL     1      65.657  38.228  25.602  1.00  0.00     0.055 A 
HETATM    4  C10 UNL     1      66.794  38.960  25.235  1.00  0.00     0.155 A 
HETATM    5  N2  UNL     1      67.429  39.405  26.332  1.00  0.00    -0.303 N 
ENDROOT
BRANCH   3   6
HETATM    6  C4  UNL     1      64.693  37.567  24.687  1.00  0.00     0.395 C 
BRANCH   6   7
HETATM    7  O2  UNL     1      64.218  38.522  23.788  1.00  0.00    -0.364 OA
ATOM      8  H2  UNL     1      64.485  39.380  24.098  1.00  0.00     0.212 HD
ENDBRANCH   6   7
BRANCH   6   9
HETATM    9  N1  UNL     1      65.191  36.377  24.087  1.00  0.00     0.121 N 
HETATM   10  C5  UNL     1      64.279  35.606  23.324  1.00  0.00     0.276 C 
HETATM   11  C6  UNL     1      63.371  34.733  24.159  1.00  0.00     0.030 C 
HETATM   12  C7  UNL     1      64.154  33.918  25.168  1.00  0.00     0.003 C 
HETATM   13  C8  UNL     1      65.154  34.732  25.920  1.00  0.00     0.030 C 
HETATM   14  C9  UNL     1      65.966  35.553  24.968  1.00  0.00     0.276 C 
ENDBRANCH   6   9
ENDBRANCH   3   6
BRANCH   4  15
HETATM   15  O3  UNL     1      67.138  39.146  23.895  1.00  0.00    -0.345 OA
ATOM     16  H3  UNL     1      67.842  39.731  23.641  1.00  0.00     0.219 HD
ENDBRANCH   4  15
BRANCH   1  17
HETATM   17  O1  UNL     1      67.107  39.264  28.766  1.00  0.00    -0.346 OA
ATOM     18  H1  UNL     1      67.236  38.620  29.453  1.00  0.00     0.219 HD
ENDBRANCH   1  17
BRANCH   5  19
HETATM   19  C11 UNL     1      68.632  40.189  26.298  1.00  0.00     0.094 C 
HETATM   20  C12 UNL     1      69.815  39.477  26.941  1.00  0.00     0.026 C 
HETATM   21  C13 UNL     1      70.880  40.469  27.351  1.00  0.00     0.002 C 
HETATM   22  C14 UNL     1      70.925  41.660  26.426  1.00  0.00     0.000 C 
HETATM   23  C15 UNL     1      69.636  42.429  26.603  1.00  0.00     0.002 C 
HETATM   24  C16 UNL     1      68.487  41.514  26.969  1.00  0.00     0.026 C 
ENDBRANCH   5  19
TORSDOF 6
ENDMDL
MODEL 4
REMARK VINA RESULT: -6.699118396      3.104      4.094
REMARK  6 active torsions:
REMARK  status: ('A' for Active; 'I' for Inactive)
REMARK    1  A    between atoms: O1_1  and  C1_3 
REMARK    2  A    between atoms: C3_5  and  C4_6 
REMARK    3  A    between atoms: C4_6  and  O2_7 
REMARK    4  A    between atoms: C4_6  and  N1_9 
REMARK    5  A    between atoms: C10_15  and  O3_16 
REMARK    6  A    between atoms: N2_18  and  C11_19 
ROOT
HETATM    1  C1  UNL     1      63.496  35.446  23.053  1.00  0.00     0.145 A 
HETATM    2  C2  UNL     1      63.872  36.558  22.328  1.00  0.00     0.072 A 
HETATM    3  C3  UNL     1      65.121  37.003  22.726  1.00  0.00     0.055 A 
HETATM    4  C10 UNL     1      65.478  36.098  23.734  1.00  0.00     0.155 A 
HETATM    5  N2  UNL     1      64.502  35.190  23.905  1.00  0.00    -0.303 N 
ENDROOT
BRANCH   3   6
HETATM    6  C4  UNL     1      65.928  38.147  22.234  1.00  0.00     0.395 C 
BRANCH   6   7
HETATM    7  O2  UNL     1      66.642  38.673  23.311  1.00  0.00    -0.364 OA
ATOM      8  H2  UNL     1      67.035  39.493  23.036  1.00  0.00     0.212 HD
ENDBRANCH   6   7
BRANCH   6   9
HETATM    9  N1  UNL     1      66.713  37.849  21.086  1.00  0.00     0.121 N 
HETATM   10  C5  UNL     1      67.892  38.611  20.892  1.00  0.00     0.276 C 
HETATM   11  C6  UNL     1      67.644  39.976  20.292  1.00  0.00     0.030 C 
HETATM   12  C7  UNL     1      66.768  39.893  19.059  1.00  0.00     0.003 C 
HETATM   13  C8  UNL     1      65.563  39.037  19.260  1.00  0.00     0.030 C 
HETATM   14  C9  UNL     1      65.959  37.729  19.872  1.00  0.00     0.276 C 
ENDBRANCH   6   9
ENDBRANCH   3   6
BRANCH   4  15
HETATM   15  O3  UNL     1      66.697  36.202  24.407  1.00  0.00    -0.345 OA
ATOM     16  H3  UNL     1      66.976  37.018  24.804  1.00  0.00     0.219 HD
ENDBRANCH   4  15
BRANCH   1  17
HETATM   17  O1  UNL     1      62.296  34.729  22.921  1.00  0.00    -0.346 OA
ATOM     18  H1  UNL     1      61.551  34.759  23.510  1.00  0.00     0.219 HD
ENDBRANCH   1  17
BRANCH   5  19
HETATM   19  C11 UNL     1      64.560  34.123  24.865  1.00  0.00     0.094 C 
HETATM   20  C12 UNL     1      63.353  34.102  25.792  1.00  0.00     0.026 C 
HETATM   21  C13 UNL     1      63.666  33.346  27.064  1.00  0.00     0.002 C 
HETATM   22  C14 UNL     1      64.654  32.231  26.826  1.00  0.00     0.000 C 
HETATM   23  C15 UNL     1      65.976  32.860  26.452  1.00  0.00     0.002 C 
HETATM   24  C16 UNL     1      65.782  34.171  25.720  1.00  0.00     0.026 C 
ENDBRANCH   5  19
TORSDOF 6
ENDMDL
MODEL 5
REMARK VINA RESULT: -6.669001701      0.635      1.256
REMARK  6 active torsions:
REMARK  status: ('A' for Active; 'I' for Inactive)
REMARK    1  A    between atoms: O1_1  and  C1_3 
REMARK    2  A    between atoms: C3_5  and  C4_6 
REMARK    3  A    between atoms: C4_6  and  O2_7 
REMARK    4  A    between atoms: C4_6  and  N1_9 
REMARK    5  A    between atoms: C10_15  and  O3_16 
REMARK    6  A    between atoms: N2_18  and  C11_19 
ROOT
HETATM    1  C1  UNL     1      64.778  35.542  24.461  1.00  0.00     0.145 A 
HETATM    2  C2  UNL     1      65.281  36.738  23.993  1.00  0.00     0.072 A 
HETATM    3  C3  UNL     1      66.432  37.088  24.677  1.00  0.00     0.055 A 
HETATM    4  C10 UNL     1      66.596  36.036  25.587  1.00  0.00     0.155 A 
HETATM    5  N2  UNL     1      65.608  35.139  25.437  1.00  0.00    -0.303 N 
ENDROOT
BRANCH   3   6
HETATM    6  C4  UNL     1      67.314  38.272  24.518  1.00  0.00     0.395 C 
BRANCH   6   7
HETATM    7  O2  UNL     1      67.668  38.375  23.173  1.00  0.00    -0.364 OA
ATOM      8  H2  UNL     1      68.363  37.750  22.999  1.00  0.00     0.212 HD
ENDBRANCH   6   7
BRANCH   6   9
HETATM    9  N1  UNL     1      66.790  39.463  25.092  1.00  0.00     0.121 N 
HETATM   10  C5  UNL     1      67.641  40.595  25.122  1.00  0.00     0.276 C 
HETATM   11  C6  UNL     1      68.650  40.570  26.247  1.00  0.00     0.030 C 
HETATM   12  C7  UNL     1      67.993  40.272  27.579  1.00  0.00     0.003 C 
HETATM   13  C8  UNL     1      67.053  39.116  27.516  1.00  0.00     0.030 C 
HETATM   14  C9  UNL     1      66.128  39.270  26.349  1.00  0.00     0.276 C 
ENDBRANCH   6   9
ENDBRANCH   3   6
BRANCH   4  15
HETATM   15  O3  UNL     1      67.667  36.009  26.483  1.00  0.00    -0.345 OA
ATOM     16  H3  UNL     1      67.889  36.765  27.013  1.00  0.00     0.219 HD
ENDBRANCH   4  15
BRANCH   1  17
HETATM   17  O1  UNL     1      63.625  34.884  24.004  1.00  0.00    -0.346 OA
ATOM     18  H1  UNL     1      63.231  34.966  23.143  1.00  0.00     0.219 HD
ENDBRANCH   1  17
BRANCH   5  19
HETATM   19  C11 UNL     1      65.488  33.941  26.222  1.00  0.00     0.094 C 
HETATM   20  C12 UNL     1      66.352  32.805  25.693  1.00  0.00     0.026 C 
HETATM   21  C13 UNL     1      65.841  31.469  26.183  1.00  0.00     0.002 C 
HETATM   22  C14 UNL     1      65.209  31.576  27.549  1.00  0.00     0.000 C 
HETATM   23  C15 UNL     1      63.955  32.408  27.412  1.00  0.00     0.002 C 
HETATM   24  C16 UNL     1      64.086  33.436  26.309  1.00  0.00     0.026 C 
ENDBRANCH   5  19
TORSDOF 6
ENDMDL
