MODEL 1
REMARK VINA RESULT: -8.231662257      0.000      0.000
REMARK  6 active torsions:
REMARK  status: ('A' for Active; 'I' for Inactive)
REMARK    1  A    between atoms: C2_2  and  C3_3 
REMARK    2  A    between atoms: C3_3  and  C4_4 
REMARK    3  A    between atoms: C12_12  and  N1_13 
REMARK    4  A    between atoms: N1_13  and  C13_15 
REMARK    5  A    between atoms: C14_16  and  N2_17 
REMARK    6  A    between atoms: N2_17  and  C15_19 
ROOT
HETATM    1  C4  UNL     1       4.918  32.712  25.396  1.00  0.00     0.010 C 
HETATM    2  C5  UNL     1       4.223  33.774  25.679  1.00  0.00     0.051 C 
HETATM    3  C6  UNL     1       4.765  34.893  26.454  1.00  0.00     0.078 C 
HETATM    4  C7  UNL     1       4.273  36.243  26.107  1.00  0.00    -0.012 C 
HETATM    5  C8  UNL     1       5.164  36.751  24.957  1.00  0.00     0.020 C 
HETATM    6  C9  UNL     1       4.377  37.224  27.268  1.00  0.00     0.020 C 
HETATM    7  C10 UNL     1       2.875  36.253  25.659  1.00  0.00    -0.011 A 
HETATM    8  C11 UNL     1       2.169  37.483  25.643  1.00  0.00     0.040 A 
HETATM    9  C12 UNL     1       0.875  37.588  25.218  1.00  0.00     0.036 A 
HETATM   10  C21 UNL     1       0.256  36.432  24.792  1.00  0.00     0.074 A 
HETATM   11  C22 UNL     1       0.929  35.230  24.804  1.00  0.00     0.152 A 
HETATM   12  F1  UNL     1       0.325  34.087  24.386  1.00  0.00    -0.203 F 
HETATM   13  C23 UNL     1       2.258  35.114  25.238  1.00  0.00     0.121 A 
HETATM   14  O3  UNL     1       2.886  33.872  25.231  1.00  0.00    -0.312 OA
ENDROOT
BRANCH   9  15
HETATM   15  N1  UNL     1       0.206  38.847  25.224  1.00  0.00    -0.351 N 
ATOM     16  H1  UNL     1      -0.515  39.002  25.929  1.00  0.00     0.166 HD
BRANCH  15  17
HETATM   17  C13 UNL     1       0.478  39.897  24.313  1.00  0.00     0.118 A 
HETATM   18  C14 UNL     1       0.310  40.013  22.951  1.00  0.00     0.115 A 
HETATM   19  C19 UNL     1       0.821  41.293  23.001  1.00  0.00     0.252 A 
HETATM   20  O1  UNL     1       1.061  42.225  22.195  1.00  0.00    -0.281 OA
HETATM   21  C20 UNL     1       0.988  41.178  24.359  1.00  0.00     0.253 A 
HETATM   22  O2  UNL     1       1.435  41.940  25.284  1.00  0.00    -0.281 OA
BRANCH  18  23
HETATM   23  N2  UNL     1      -0.186  39.181  21.873  1.00  0.00    -0.377 N 
ATOM     24  H2  UNL     1      -1.160  39.266  21.582  1.00  0.00     0.160 HD
BRANCH  23  25
HETATM   25  C15 UNL     1       0.665  38.246  21.210  1.00  0.00     0.019 C 
HETATM   26  C16 UNL     1       2.009  38.081  21.883  1.00  0.00     0.037 C 
HETATM   27  C17 UNL     1      -0.059  36.906  21.109  1.00  0.00     0.037 C 
HETATM   28  C18 UNL     1       0.900  38.717  19.795  1.00  0.00     0.037 C 
ENDBRANCH  23  25
ENDBRANCH  18  23
ENDBRANCH  15  17
ENDBRANCH   9  15
BRANCH   1  29
HETATM   29  C3  UNL     1       6.314  32.478  25.801  1.00  0.00     0.056 C 
BRANCH  29  30
HETATM   30  C2  UNL     1       6.727  31.109  25.310  1.00  0.00    -0.033 C 
HETATM   31  C1  UNL     1       5.832  30.240  24.870  1.00  0.00     0.007 C 
ENDBRANCH  29  30
ENDBRANCH   1  29
TORSDOF 6
ENDMDL
MODEL 2
REMARK VINA RESULT: -8.178938019      0.863      1.001
REMARK  6 active torsions:
REMARK  status: ('A' for Active; 'I' for Inactive)
REMARK    1  A    between atoms: C2_2  and  C3_3 
REMARK    2  A    between atoms: C3_3  and  C4_4 
REMARK    3  A    between atoms: C12_12  and  N1_13 
REMARK    4  A    between atoms: N1_13  and  C13_15 
REMARK    5  A    between atoms: C14_16  and  N2_17 
REMARK    6  A    between atoms: N2_17  and  C15_19 
ROOT
HETATM    1  C4  UNL     1       3.706  31.817  25.018  1.00  0.00     0.010 C 
HETATM    2  C5  UNL     1       3.199  32.979  25.312  1.00  0.00     0.051 C 
HETATM    3  C6  UNL     1       3.967  34.034  25.976  1.00  0.00     0.078 C 
HETATM    4  C7  UNL     1       3.638  35.428  25.610  1.00  0.00    -0.012 C 
HETATM    5  C8  UNL     1       4.473  35.760  24.357  1.00  0.00     0.020 C 
HETATM    6  C9  UNL     1       3.994  36.425  26.705  1.00  0.00     0.020 C 
HETATM    7  C10 UNL     1       2.219  35.625  25.294  1.00  0.00    -0.011 A 
HETATM    8  C11 UNL     1       1.694  36.943  25.282  1.00  0.00     0.040 A 
HETATM    9  C12 UNL     1       0.393  37.219  24.975  1.00  0.00     0.036 A 
HETATM   10  C21 UNL     1      -0.423  36.151  24.667  1.00  0.00     0.074 A 
HETATM   11  C22 UNL     1       0.072  34.865  24.676  1.00  0.00     0.152 A 
HETATM   12  F1  UNL     1      -0.725  33.807  24.374  1.00  0.00    -0.203 F 
HETATM   13  C23 UNL     1       1.408  34.573  24.990  1.00  0.00     0.121 A 
HETATM   14  O3  UNL     1       1.851  33.254  24.986  1.00  0.00    -0.312 OA
ENDROOT
BRANCH   9  15
HETATM   15  N1  UNL     1      -0.088  38.561  24.981  1.00  0.00    -0.351 N 
ATOM     16  H1  UNL     1      -0.880  38.782  25.585  1.00  0.00     0.166 HD
BRANCH  15  17
HETATM   17  C13 UNL     1       0.463  39.607  24.201  1.00  0.00     0.118 A 
HETATM   18  C14 UNL     1       0.493  39.837  22.844  1.00  0.00     0.115 A 
HETATM   19  C19 UNL     1       1.191  41.007  23.061  1.00  0.00     0.252 A 
HETATM   20  O1  UNL     1       1.678  41.936  22.371  1.00  0.00    -0.281 OA
HETATM   21  C20 UNL     1       1.159  40.778  24.416  1.00  0.00     0.253 A 
HETATM   22  O2  UNL     1       1.597  41.394  25.447  1.00  0.00    -0.281 OA
BRANCH  18  23
HETATM   23  N2  UNL     1       0.017  39.172  21.648  1.00  0.00    -0.377 N 
ATOM     24  H2  UNL     1      -0.851  39.483  21.213  1.00  0.00     0.160 HD
BRANCH  23  25
HETATM   25  C15 UNL     1       0.742  38.087  21.067  1.00  0.00     0.019 C 
HETATM   26  C16 UNL     1       2.067  37.823  21.746  1.00  0.00     0.037 C 
HETATM   27  C17 UNL     1      -0.137  36.839  21.089  1.00  0.00     0.037 C 
HETATM   28  C18 UNL     1       1.009  38.401  19.614  1.00  0.00     0.037 C 
ENDBRANCH  23  25
ENDBRANCH  18  23
ENDBRANCH  15  17
ENDBRANCH   9  15
BRANCH   1  29
HETATM   29  C3  UNL     1       5.087  31.398  25.303  1.00  0.00     0.056 C 
BRANCH  29  30
HETATM   30  C2  UNL     1       5.322  30.057  24.644  1.00  0.00    -0.033 C 
HETATM   31  C1  UNL     1       4.786  29.769  23.469  1.00  0.00     0.007 C 
ENDBRANCH  29  30
ENDBRANCH   1  29
TORSDOF 6
ENDMDL
MODEL 3
REMARK VINA RESULT: -8.138112051      1.509      2.501
REMARK  6 active torsions:
REMARK  status: ('A' for Active; 'I' for Inactive)
REMARK    1  A    between atoms: C2_2  and  C3_3 
REMARK    2  A    between atoms: C3_3  and  C4_4 
REMARK    3  A    between atoms: C12_12  and  N1_13 
REMARK    4  A    between atoms: N1_13  and  C13_15 
REMARK    5  A    between atoms: C14_16  and  N2_17 
REMARK    6  A    between atoms: N2_17  and  C15_19 
ROOT
HETATM    1  C4  UNL     1       4.372  32.135  25.346  1.00  0.00     0.010 C 
HETATM    2  C5  UNL     1       3.714  33.238  25.138  1.00  0.00     0.051 C 
HETATM    3  C6  UNL     1       2.411  33.271  24.471  1.00  0.00     0.078 C 
HETATM    4  C7  UNL     1       1.460  34.310  24.919  1.00  0.00    -0.012 C 
HETATM    5  C8  UNL     1       0.705  33.720  26.127  1.00  0.00     0.020 C 
HETATM    6  C9  UNL     1       0.443  34.679  23.848  1.00  0.00     0.020 C 
HETATM    7  C10 UNL     1       2.116  35.555  25.337  1.00  0.00    -0.011 A 
HETATM    8  C11 UNL     1       1.340  36.738  25.441  1.00  0.00     0.040 A 
HETATM    9  C12 UNL     1       1.863  37.933  25.846  1.00  0.00     0.036 A 
HETATM   10  C21 UNL     1       3.205  37.959  26.161  1.00  0.00     0.074 A 
HETATM   11  C22 UNL     1       3.971  36.818  26.063  1.00  0.00     0.152 A 
HETATM   12  F1  UNL     1       5.294  36.837  26.370  1.00  0.00    -0.203 F 
HETATM   13  C23 UNL     1       3.441  35.587  25.648  1.00  0.00     0.121 A 
HETATM   14  O3  UNL     1       4.265  34.469  25.565  1.00  0.00    -0.312 OA
ENDROOT
BRANCH   9  15
HETATM   15  N1  UNL     1       1.042  39.096  25.931  1.00  0.00    -0.351 N 
ATOM     16  H1  UNL     1       0.461  39.210  26.762  1.00  0.00     0.166 HD
BRANCH  15  17
HETATM   17  C13 UNL     1       0.983  40.102  24.937  1.00  0.00     0.118 A 
HETATM   18  C14 UNL     1       0.539  40.095  23.633  1.00  0.00     0.115 A 
HETATM   19  C19 UNL     1       0.867  41.430  23.519  1.00  0.00     0.252 A 
HETATM   20  O1  UNL     1       0.812  42.324  22.639  1.00  0.00    -0.281 OA
HETATM   21  C20 UNL     1       1.308  41.437  24.820  1.00  0.00     0.253 A 
HETATM   22  O2  UNL     1       1.814  42.317  25.598  1.00  0.00    -0.281 OA
BRANCH  18  23
HETATM   23  N2  UNL     1      -0.034  39.130  22.716  1.00  0.00    -0.377 N 
ATOM     24  H2  UNL     1      -1.025  38.901  22.787  1.00  0.00     0.160 HD
BRANCH  23  25
HETATM   25  C15 UNL     1       0.764  38.496  21.718  1.00  0.00     0.019 C 
HETATM   26  C16 UNL     1       2.168  38.184  22.184  1.00  0.00     0.037 C 
HETATM   27  C17 UNL     1       0.053  37.227  21.251  1.00  0.00     0.037 C 
HETATM   28  C18 UNL     1       0.856  39.405  20.515  1.00  0.00     0.037 C 
ENDBRANCH  23  25
ENDBRANCH  18  23
ENDBRANCH  15  17
ENDBRANCH   9  15
BRANCH   1  29
HETATM   29  C3  UNL     1       3.920  30.791  24.952  1.00  0.00     0.056 C 
BRANCH  29  30
HETATM   30  C2  UNL     1       5.135  29.969  24.587  1.00  0.00    -0.033 C 
HETATM   31  C1  UNL     1       6.349  30.335  24.968  1.00  0.00     0.007 C 
ENDBRANCH  29  30
ENDBRANCH   1  29
TORSDOF 6
ENDMDL
MODEL 4
REMARK VINA RESULT: -8.036129893      2.122      3.357
REMARK  6 active torsions:
REMARK  status: ('A' for Active; 'I' for Inactive)
REMARK    1  A    between atoms: C2_2  and  C3_3 
REMARK    2  A    between atoms: C3_3  and  C4_4 
REMARK    3  A    between atoms: C12_12  and  N1_13 
REMARK    4  A    between atoms: N1_13  and  C13_15 
REMARK    5  A    between atoms: C14_16  and  N2_17 
REMARK    6  A    between atoms: N2_17  and  C15_19 
ROOT
HETATM    1  C4  UNL     1       2.156  33.057  26.077  1.00  0.00     0.010 C 
HETATM    2  C5  UNL     1       1.836  34.143  25.437  1.00  0.00     0.051 C 
HETATM    3  C6  UNL     1       0.981  34.140  24.247  1.00  0.00     0.078 C 
HETATM    4  C7  UNL     1       0.103  35.313  24.056  1.00  0.00    -0.012 C 
HETATM    5  C8  UNL     1      -1.187  35.028  24.849  1.00  0.00     0.020 C 
HETATM    6  C9  UNL     1      -0.268  35.539  22.596  1.00  0.00     0.020 C 
HETATM    7  C10 UNL     1       0.691  36.564  24.548  1.00  0.00    -0.011 A 
HETATM    8  C11 UNL     1       0.142  37.799  24.116  1.00  0.00     0.040 A 
HETATM    9  C12 UNL     1       0.610  39.008  24.543  1.00  0.00     0.036 A 
HETATM   10  C21 UNL     1       1.663  38.997  25.433  1.00  0.00     0.074 A 
HETATM   11  C22 UNL     1       2.208  37.806  25.861  1.00  0.00     0.152 A 
HETATM   12  F1  UNL     1       3.247  37.788  26.736  1.00  0.00    -0.203 F 
HETATM   13  C23 UNL     1       1.732  36.560  25.427  1.00  0.00     0.121 A 
HETATM   14  O3  UNL     1       2.325  35.390  25.891  1.00  0.00    -0.312 OA
ENDROOT
BRANCH   9  15
HETATM   15  N1  UNL     1       0.026  40.222  24.076  1.00  0.00    -0.351 N 
ATOM     16  H1  UNL     1      -0.882  40.491  24.454  1.00  0.00     0.166 HD
BRANCH  15  17
HETATM   17  C13 UNL     1       0.626  41.078  23.120  1.00  0.00     0.118 A 
HETATM   18  C14 UNL     1       1.711  40.923  22.285  1.00  0.00     0.115 A 
HETATM   19  C19 UNL     1       1.505  42.194  21.789  1.00  0.00     0.252 A 
HETATM   20  O1  UNL     1       2.035  42.952  20.940  1.00  0.00    -0.281 OA
HETATM   21  C20 UNL     1       0.423  42.347  22.621  1.00  0.00     0.253 A 
HETATM   22  O2  UNL     1      -0.422  43.282  22.843  1.00  0.00    -0.281 OA
BRANCH  18  23
HETATM   23  N2  UNL     1       2.690  39.892  22.004  1.00  0.00    -0.377 N 
ATOM     24  H2  UNL     1       3.576  39.892  22.508  1.00  0.00     0.160 HD
BRANCH  23  25
HETATM   25  C15 UNL     1       2.436  38.878  21.032  1.00  0.00     0.019 C 
HETATM   26  C16 UNL     1       0.980  38.781  20.636  1.00  0.00     0.037 C 
HETATM   27  C17 UNL     1       3.314  39.134  19.810  1.00  0.00     0.037 C 
HETATM   28  C18 UNL     1       2.861  37.543  21.598  1.00  0.00     0.037 C 
ENDBRANCH  23  25
ENDBRANCH  18  23
ENDBRANCH  15  17
ENDBRANCH   9  15
BRANCH   1  29
HETATM   29  C3  UNL     1       1.722  31.699  25.714  1.00  0.00     0.056 C 
BRANCH  29  30
HETATM   30  C2  UNL     1       2.871  31.003  25.020  1.00  0.00    -0.033 C 
HETATM   31  C1  UNL     1       4.104  31.480  25.090  1.00  0.00     0.007 C 
ENDBRANCH  29  30
ENDBRANCH   1  29
TORSDOF 6
ENDMDL
MODEL 5
REMARK VINA RESULT: -7.929493224      1.627      2.956
REMARK  6 active torsions:
REMARK  status: ('A' for Active; 'I' for Inactive)
REMARK    1  A    between atoms: C2_2  and  C3_3 
REMARK    2  A    between atoms: C3_3  and  C4_4 
REMARK    3  A    between atoms: C12_12  and  N1_13 
REMARK    4  A    between atoms: N1_13  and  C13_15 
REMARK    5  A    between atoms: C14_16  and  N2_17 
REMARK    6  A    between atoms: N2_17  and  C15_19 
ROOT
HETATM    1  C4  UNL     1       3.747  31.758  25.046  1.00  0.00     0.010 C 
HETATM    2  C5  UNL     1       3.224  32.918  25.320  1.00  0.00     0.051 C 
HETATM    3  C6  UNL     1       3.991  34.011  25.922  1.00  0.00     0.078 C 
HETATM    4  C7  UNL     1       3.617  35.384  25.523  1.00  0.00    -0.012 C 
HETATM    5  C8  UNL     1       4.400  35.692  24.232  1.00  0.00     0.020 C 
HETATM    6  C9  UNL     1       3.988  36.424  26.572  1.00  0.00     0.020 C 
HETATM    7  C10 UNL     1       2.183  35.540  25.252  1.00  0.00    -0.011 A 
HETATM    8  C11 UNL     1       1.629  36.845  25.216  1.00  0.00     0.040 A 
HETATM    9  C12 UNL     1       0.311  37.082  24.947  1.00  0.00     0.036 A 
HETATM   10  C21 UNL     1      -0.490  35.987  24.702  1.00  0.00     0.074 A 
HETATM   11  C22 UNL     1       0.035  34.713  24.735  1.00  0.00     0.152 A 
HETATM   12  F1  UNL     1      -0.748  33.629  24.496  1.00  0.00    -0.203 F 
HETATM   13  C23 UNL     1       1.387  34.461  25.010  1.00  0.00     0.121 A 
HETATM   14  O3  UNL     1       1.859  33.152  25.033  1.00  0.00    -0.312 OA
ENDROOT
BRANCH   9  15
HETATM   15  N1  UNL     1      -0.200  38.414  24.926  1.00  0.00    -0.351 N 
ATOM     16  H1  UNL     1      -0.922  38.658  25.603  1.00  0.00     0.166 HD
BRANCH  15  17
HETATM   17  C13 UNL     1       0.231  39.418  24.025  1.00  0.00     0.118 A 
HETATM   18  C14 UNL     1       0.977  40.562  24.196  1.00  0.00     0.115 A 
HETATM   19  C19 UNL     1       0.861  40.835  22.849  1.00  0.00     0.252 A 
HETATM   20  O1  UNL     1       1.244  41.723  22.048  1.00  0.00    -0.281 OA
HETATM   21  C20 UNL     1       0.117  39.692  22.678  1.00  0.00     0.253 A 
HETATM   22  O2  UNL     1      -0.449  39.122  21.683  1.00  0.00    -0.281 OA
BRANCH  18  23
HETATM   23  N2  UNL     1       1.631  41.243  25.295  1.00  0.00    -0.377 N 
ATOM     24  H2  UNL     1       1.234  42.111  25.654  1.00  0.00     0.160 HD
BRANCH  23  25
HETATM   25  C15 UNL     1       2.822  40.721  25.884  1.00  0.00     0.019 C 
HETATM   26  C16 UNL     1       3.662  39.915  24.920  1.00  0.00     0.037 C 
HETATM   27  C17 UNL     1       3.629  41.876  26.472  1.00  0.00     0.037 C 
HETATM   28  C18 UNL     1       2.443  39.827  27.041  1.00  0.00     0.037 C 
ENDBRANCH  23  25
ENDBRANCH  18  23
ENDBRANCH  15  17
ENDBRANCH   9  15
BRANCH   1  29
HETATM   29  C3  UNL     1       5.146  31.379  25.295  1.00  0.00     0.056 C 
BRANCH  29  30
HETATM   30  C2  UNL     1       5.407  30.053  24.616  1.00  0.00    -0.033 C 
HETATM   31  C1  UNL     1       4.799  29.732  23.485  1.00  0.00     0.007 C 
ENDBRANCH  29  30
ENDBRANCH   1  29
TORSDOF 6
ENDMDL
