MODEL 1
REMARK VINA RESULT: -8.081584169      0.000      0.000
REMARK  5 active torsions:
REMARK  status: ('A' for Active; 'I' for Inactive)
REMARK    1  A    between atoms: S1_2  and  C2_3 
REMARK    2  A    between atoms: C3_8  and  C4_9 
REMARK    3  A    between atoms: C8_15  and  C9_16 
REMARK    4  A    between atoms: N3_17  and  N4_19 
REMARK       I    between atoms: N4_19  and  C10_21 
REMARK    5  A    between atoms: C10_21  and  C11_23 
ROOT
HETATM    1  C2  UNL     1       0.772  33.521  25.272  1.00  0.00     0.098 A 
HETATM    2  N1  UNL     1       0.375  32.265  25.512  1.00  0.00    -0.293 N 
ATOM      3  H1  UNL     1      -0.588  31.987  25.698  1.00  0.00     0.187 HD
HETATM    4  N2  UNL     1       1.398  31.437  25.475  1.00  0.00    -0.298 N 
ATOM      5  H2  UNL     1       1.345  30.431  25.629  1.00  0.00     0.187 HD
HETATM    6  C3  UNL     1       2.547  32.135  25.200  1.00  0.00     0.079 A 
HETATM    7  C8  UNL     1       2.162  33.444  25.070  1.00  0.00     0.045 A 
ENDROOT
BRANCH   7   8
HETATM    8  C9  UNL     1       2.989  34.588  24.780  1.00  0.00     0.123 C 
HETATM    9  N3  UNL     1       3.419  35.340  25.728  1.00  0.00    -0.308 N 
ATOM     10  H3  UNL     1       3.159  35.108  26.687  1.00  0.00     0.186 HD
BRANCH   9  11
HETATM   11  N4  UNL     1       4.221  36.459  25.510  1.00  0.00    -0.270 N 
HETATM   12  C10 UNL     1       4.822  37.154  26.596  1.00  0.00     0.240 C 
HETATM   13  O1  UNL     1       4.627  36.756  27.763  1.00  0.00    -0.271 OA
ATOM     14  H4  UNL     1       4.379  36.784  24.556  1.00  0.00     0.190 HD
BRANCH  12  15
HETATM   15  C11 UNL     1       5.675  38.341  26.379  1.00  0.00     0.083 C 
HETATM   16  C12 UNL     1       4.906  39.576  26.719  1.00  0.00     0.014 C 
HETATM   17  C13 UNL     1       5.845  40.747  26.462  1.00  0.00     0.001 C 
HETATM   18  C14 UNL     1       5.980  40.872  24.984  1.00  0.00     0.000 C 
HETATM   19  C15 UNL     1       6.054  39.605  24.229  1.00  0.00     0.005 C 
HETATM   20  C16 UNL     1       6.285  38.368  25.010  1.00  0.00    -0.006 C 
HETATM   21  C17 UNL     1       7.754  38.013  25.115  1.00  0.00     0.011 C 
ENDBRANCH  12  15
ENDBRANCH   9  11
ENDBRANCH   7   8
BRANCH   1  22
HETATM   22  S1  UNL     1      -0.179  35.026  25.202  1.00  0.00    -0.115 SA
HETATM   23  C1  UNL     1      -1.612  34.824  24.148  1.00  0.00     0.097 C 
ENDBRANCH   1  22
BRANCH   6  24
HETATM   24  C4  UNL     1       3.871  31.542  25.082  1.00  0.00     0.035 A 
HETATM   25  C5  UNL     1       4.176  30.294  24.604  1.00  0.00     0.023 A 
HETATM   26  C6  UNL     1       5.468  29.945  24.582  1.00  0.00     0.033 A 
HETATM   27  C7  UNL     1       6.378  30.858  25.037  1.00  0.00     0.075 A 
HETATM   28 CL1  UNL     1       8.139  30.676  25.128  1.00  0.00    -0.076 Cl
HETATM   29  S2  UNL     1       5.392  32.178  25.482  1.00  0.00    -0.076 SA
ENDBRANCH   6  24
TORSDOF 5
ENDMDL
MODEL 2
REMARK VINA RESULT: -8.030054444      3.781      4.876
REMARK  5 active torsions:
REMARK  status: ('A' for Active; 'I' for Inactive)
REMARK    1  A    between atoms: S1_2  and  C2_3 
REMARK    2  A    between atoms: C3_8  and  C4_9 
REMARK    3  A    between atoms: C8_15  and  C9_16 
REMARK    4  A    between atoms: N3_17  and  N4_19 
REMARK       I    between atoms: N4_19  and  C10_21 
REMARK    5  A    between atoms: C10_21  and  C11_23 
ROOT
HETATM    1  C2  UNL     1       0.072  36.807  21.475  1.00  0.00     0.098 A 
HETATM    2  N1  UNL     1      -0.942  35.994  21.152  1.00  0.00    -0.293 N 
ATOM      3  H1  UNL     1      -1.479  36.053  20.287  1.00  0.00     0.187 HD
HETATM    4  N2  UNL     1      -1.152  35.108  22.102  1.00  0.00    -0.298 N 
ATOM      5  H2  UNL     1      -1.870  34.385  22.084  1.00  0.00     0.187 HD
HETATM    6  C3  UNL     1      -0.256  35.305  23.123  1.00  0.00     0.079 A 
HETATM    7  C8  UNL     1       0.516  36.370  22.736  1.00  0.00     0.045 A 
ENDROOT
BRANCH   7   8
HETATM    8  C9  UNL     1       1.606  36.982  23.453  1.00  0.00     0.123 C 
HETATM    9  N3  UNL     1       2.792  36.497  23.377  1.00  0.00    -0.308 N 
ATOM     10  H3  UNL     1       2.942  35.670  22.798  1.00  0.00     0.186 HD
BRANCH   9  11
HETATM   11  N4  UNL     1       3.885  37.044  24.048  1.00  0.00    -0.270 N 
HETATM   12  C10 UNL     1       4.419  36.423  25.210  1.00  0.00     0.240 C 
HETATM   13  O1  UNL     1       3.901  35.370  25.638  1.00  0.00    -0.271 OA
ATOM     14  H4  UNL     1       4.308  37.905  23.699  1.00  0.00     0.190 HD
BRANCH  12  15
HETATM   15  C11 UNL     1       5.576  36.993  25.931  1.00  0.00     0.083 C 
HETATM   16  C12 UNL     1       6.239  38.022  25.075  1.00  0.00     0.014 C 
HETATM   17  C13 UNL     1       7.419  38.550  25.881  1.00  0.00     0.001 C 
HETATM   18  C14 UNL     1       8.442  37.469  25.901  1.00  0.00     0.000 C 
HETATM   19  C15 UNL     1       7.930  36.091  26.042  1.00  0.00     0.005 C 
HETATM   20  C16 UNL     1       6.512  35.938  26.441  1.00  0.00    -0.006 C 
HETATM   21  C17 UNL     1       6.341  35.806  27.940  1.00  0.00     0.011 C 
ENDBRANCH  12  15
ENDBRANCH   9  11
ENDBRANCH   7   8
BRANCH   1  22
HETATM   22  S1  UNL     1       0.777  38.170  20.570  1.00  0.00    -0.115 SA
HETATM   23  C1  UNL     1       2.386  37.735  19.918  1.00  0.00     0.097 C 
ENDBRANCH   1  22
BRANCH   6  24
HETATM   24  C4  UNL     1      -0.193  34.509  24.339  1.00  0.00     0.035 A 
HETATM   25  C5  UNL     1       0.862  33.747  24.772  1.00  0.00     0.023 A 
HETATM   26  C6  UNL     1       0.708  33.088  25.927  1.00  0.00     0.033 A 
HETATM   27  C7  UNL     1      -0.484  33.227  26.582  1.00  0.00     0.075 A 
HETATM   28 CL1  UNL     1      -0.968  32.482  28.116  1.00  0.00    -0.076 Cl
HETATM   29  S2  UNL     1      -1.353  34.277  25.555  1.00  0.00    -0.076 SA
ENDBRANCH   6  24
TORSDOF 5
ENDMDL
MODEL 3
REMARK VINA RESULT: -7.917464126      3.801      5.331
REMARK  5 active torsions:
REMARK  status: ('A' for Active; 'I' for Inactive)
REMARK    1  A    between atoms: S1_2  and  C2_3 
REMARK    2  A    between atoms: C3_8  and  C4_9 
REMARK    3  A    between atoms: C8_15  and  C9_16 
REMARK    4  A    between atoms: N3_17  and  N4_19 
REMARK       I    between atoms: N4_19  and  C10_21 
REMARK    5  A    between atoms: C10_21  and  C11_23 
ROOT
HETATM    1  C2  UNL     1      -0.486  33.729  25.646  1.00  0.00     0.098 A 
HETATM    2  N1  UNL     1      -1.742  33.971  25.248  1.00  0.00    -0.293 N 
ATOM      3  H1  UNL     1      -2.569  33.511  25.628  1.00  0.00     0.187 HD
HETATM    4  N2  UNL     1      -1.764  34.884  24.299  1.00  0.00    -0.298 N 
ATOM      5  H2  UNL     1      -2.604  35.232  23.839  1.00  0.00     0.187 HD
HETATM    6  C3  UNL     1      -0.484  35.295  24.025  1.00  0.00     0.079 A 
HETATM    7  C8  UNL     1       0.324  34.575  24.867  1.00  0.00     0.045 A 
ENDROOT
BRANCH   7   8
HETATM    8  C9  UNL     1       1.760  34.629  24.980  1.00  0.00     0.123 C 
HETATM    9  N3  UNL     1       2.327  35.565  25.650  1.00  0.00    -0.308 N 
ATOM     10  H3  UNL     1       1.737  36.267  26.100  1.00  0.00     0.186 HD
BRANCH   9  11
HETATM   11  N4  UNL     1       3.710  35.670  25.794  1.00  0.00    -0.270 N 
HETATM   12  C10 UNL     1       4.296  36.783  26.458  1.00  0.00     0.240 C 
HETATM   13  O1  UNL     1       3.561  37.681  26.919  1.00  0.00    -0.271 OA
ATOM     14  H4  UNL     1       4.310  34.937  25.417  1.00  0.00     0.190 HD
BRANCH  12  15
HETATM   15  C11 UNL     1       5.760  36.907  26.617  1.00  0.00     0.083 C 
HETATM   16  C12 UNL     1       6.327  37.656  25.456  1.00  0.00     0.014 C 
HETATM   17  C13 UNL     1       7.830  37.732  25.690  1.00  0.00     0.001 C 
HETATM   18  C14 UNL     1       8.369  36.364  25.459  1.00  0.00     0.000 C 
HETATM   19  C15 UNL     1       7.538  35.246  25.949  1.00  0.00     0.005 C 
HETATM   20  C16 UNL     1       6.425  35.587  26.865  1.00  0.00    -0.006 C 
HETATM   21  C17 UNL     1       6.826  35.499  28.323  1.00  0.00     0.011 C 
ENDBRANCH  12  15
ENDBRANCH   9  11
ENDBRANCH   7   8
BRANCH   1  22
HETATM   22  S1  UNL     1       0.124  32.603  26.884  1.00  0.00    -0.115 SA
HETATM   23  C1  UNL     1      -0.998  32.521  28.276  1.00  0.00     0.097 C 
ENDBRANCH   1  22
BRANCH   6  24
HETATM   24  C4  UNL     1      -0.129  36.297  23.031  1.00  0.00     0.035 A 
HETATM   25  C5  UNL     1      -0.259  36.190  21.670  1.00  0.00     0.023 A 
HETATM   26  C6  UNL     1       0.133  37.237  20.933  1.00  0.00     0.033 A 
HETATM   27  C7  UNL     1       0.629  38.326  21.594  1.00  0.00     0.075 A 
HETATM   28 CL1  UNL     1       1.219  39.842  20.889  1.00  0.00    -0.076 Cl
HETATM   29  S2  UNL     1       0.533  37.846  23.229  1.00  0.00    -0.076 SA
ENDBRANCH   6  24
TORSDOF 5
ENDMDL
MODEL 4
REMARK VINA RESULT: -7.758777330      3.689      5.126
REMARK  5 active torsions:
REMARK  status: ('A' for Active; 'I' for Inactive)
REMARK    1  A    between atoms: S1_2  and  C2_3 
REMARK    2  A    between atoms: C3_8  and  C4_9 
REMARK    3  A    between atoms: C8_15  and  C9_16 
REMARK    4  A    between atoms: N3_17  and  N4_19 
REMARK       I    between atoms: N4_19  and  C10_21 
REMARK    5  A    between atoms: C10_21  and  C11_23 
ROOT
HETATM    1  C2  UNL     1       0.927  37.273  21.082  1.00  0.00     0.098 A 
HETATM    2  N1  UNL     1      -0.368  36.998  20.884  1.00  0.00    -0.293 N 
ATOM      3  H1  UNL     1      -0.924  37.357  20.108  1.00  0.00     0.187 HD
HETATM    4  N2  UNL     1      -0.826  36.203  21.827  1.00  0.00    -0.298 N 
ATOM      5  H2  UNL     1      -1.783  35.857  21.890  1.00  0.00     0.187 HD
HETATM    6  C3  UNL     1       0.179  35.910  22.713  1.00  0.00     0.079 A 
HETATM    7  C8  UNL     1       1.284  36.578  22.252  1.00  0.00     0.045 A 
ENDROOT
BRANCH   7   8
HETATM    8  C9  UNL     1       2.607  36.605  22.823  1.00  0.00     0.123 C 
HETATM    9  N3  UNL     1       2.919  37.482  23.708  1.00  0.00    -0.308 N 
ATOM     10  H3  UNL     1       2.208  38.156  23.995  1.00  0.00     0.186 HD
BRANCH   9  11
HETATM   11  N4  UNL     1       4.181  37.557  24.295  1.00  0.00    -0.270 N 
HETATM   12  C10 UNL     1       4.413  37.050  25.603  1.00  0.00     0.240 C 
HETATM   13  O1  UNL     1       3.471  36.528  26.237  1.00  0.00    -0.271 OA
ATOM     14  H4  UNL     1       4.950  37.984  23.778  1.00  0.00     0.190 HD
BRANCH  12  15
HETATM   15  C11 UNL     1       5.746  37.123  26.238  1.00  0.00     0.083 C 
HETATM   16  C12 UNL     1       6.732  37.676  25.263  1.00  0.00     0.014 C 
HETATM   17  C13 UNL     1       8.073  37.711  25.985  1.00  0.00     0.001 C 
HETATM   18  C14 UNL     1       8.529  36.299  26.110  1.00  0.00     0.000 C 
HETATM   19  C15 UNL     1       7.482  35.302  26.411  1.00  0.00     0.005 C 
HETATM   20  C16 UNL     1       6.165  35.820  26.847  1.00  0.00    -0.006 C 
HETATM   21  C17 UNL     1       6.048  35.915  28.354  1.00  0.00     0.011 C 
ENDBRANCH  12  15
ENDBRANCH   9  11
ENDBRANCH   7   8
BRANCH   1  22
HETATM   22  S1  UNL     1       2.040  38.286  20.128  1.00  0.00    -0.115 SA
HETATM   23  C1  UNL     1       1.295  38.754  18.570  1.00  0.00     0.097 C 
ENDBRANCH   1  22
BRANCH   6  24
HETATM   24  C4  UNL     1       0.034  35.056  23.883  1.00  0.00     0.035 A 
HETATM   25  C5  UNL     1      -1.136  34.700  24.503  1.00  0.00     0.023 A 
HETATM   26  C6  UNL     1      -1.043  33.899  25.572  1.00  0.00     0.033 A 
HETATM   27  C7  UNL     1       0.207  33.502  25.959  1.00  0.00     0.075 A 
HETATM   28 CL1  UNL     1       0.633  32.454  27.324  1.00  0.00    -0.076 Cl
HETATM   29  S2  UNL     1       1.212  34.265  24.811  1.00  0.00    -0.076 SA
ENDBRANCH   6  24
TORSDOF 5
ENDMDL
MODEL 5
REMARK VINA RESULT: -7.695045887      2.805      6.889
REMARK  5 active torsions:
REMARK  status: ('A' for Active; 'I' for Inactive)
REMARK    1  A    between atoms: S1_2  and  C2_3 
REMARK    2  A    between atoms: C3_8  and  C4_9 
REMARK    3  A    between atoms: C8_15  and  C9_16 
REMARK    4  A    between atoms: N3_17  and  N4_19 
REMARK       I    between atoms: N4_19  and  C10_21 
REMARK    5  A    between atoms: C10_21  and  C11_23 
ROOT
HETATM    1  C2  UNL     1       1.782  38.707  23.966  1.00  0.00     0.098 A 
HETATM    2  N1  UNL     1       2.208  39.960  24.170  1.00  0.00    -0.293 N 
ATOM      3  H1  UNL     1       1.622  40.791  24.092  1.00  0.00     0.187 HD
HETATM    4  N2  UNL     1       3.486  39.974  24.483  1.00  0.00    -0.298 N 
ATOM      5  H2  UNL     1       4.033  40.810  24.683  1.00  0.00     0.187 HD
HETATM    6  C3  UNL     1       3.970  38.690  24.501  1.00  0.00     0.079 A 
HETATM    7  C8  UNL     1       2.906  37.889  24.178  1.00  0.00     0.045 A 
ENDROOT
BRANCH   7   8
HETATM    8  C9  UNL     1       2.881  36.453  24.058  1.00  0.00     0.123 C 
HETATM    9  N3  UNL     1       3.248  35.709  25.038  1.00  0.00    -0.308 N 
ATOM     10  H3  UNL     1       3.556  36.160  25.900  1.00  0.00     0.186 HD
BRANCH   9  11
HETATM   11  N4  UNL     1       3.246  34.316  24.980  1.00  0.00    -0.270 N 
HETATM   12  C10 UNL     1       4.326  33.559  25.511  1.00  0.00     0.240 C 
HETATM   13  O1  UNL     1       5.293  34.150  26.036  1.00  0.00    -0.271 OA
ATOM     14  H4  UNL     1       2.456  33.833  24.551  1.00  0.00     0.190 HD
BRANCH  12  15
HETATM   15  C11 UNL     1       4.337  32.082  25.457  1.00  0.00     0.083 C 
HETATM   16  C12 UNL     1       5.727  31.603  25.192  1.00  0.00     0.014 C 
HETATM   17  C13 UNL     1       5.652  30.083  25.143  1.00  0.00     0.001 C 
HETATM   18  C14 UNL     1       4.964  29.729  23.871  1.00  0.00     0.000 C 
HETATM   19  C15 UNL     1       3.838  30.600  23.477  1.00  0.00     0.005 C 
HETATM   20  C16 UNL     1       3.319  31.534  24.503  1.00  0.00    -0.006 C 
HETATM   21  C17 UNL     1       2.165  30.950  25.291  1.00  0.00     0.011 C 
ENDBRANCH  12  15
ENDBRANCH   9  11
ENDBRANCH   7   8
BRANCH   1  22
HETATM   22  S1  UNL     1       0.164  38.108  23.522  1.00  0.00    -0.115 SA
HETATM   23  C1  UNL     1       0.158  37.477  21.847  1.00  0.00     0.097 C 
ENDBRANCH   1  22
BRANCH   6  24
HETATM   24  C4  UNL     1       5.345  38.325  24.809  1.00  0.00     0.035 A 
HETATM   25  C5  UNL     1       6.433  38.435  23.982  1.00  0.00     0.023 A 
HETATM   26  C6  UNL     1       7.616  38.038  24.468  1.00  0.00     0.033 A 
HETATM   27  C7  UNL     1       7.644  37.556  25.747  1.00  0.00     0.075 A 
HETATM   28 CL1  UNL     1       9.052  36.964  26.647  1.00  0.00    -0.076 Cl
HETATM   29  S2  UNL     1       6.011  37.674  26.227  1.00  0.00    -0.076 SA
ENDBRANCH   6  24
TORSDOF 5
ENDMDL
