MODEL 1
REMARK VINA RESULT: -9.167900431      0.000      0.000
REMARK  5 active torsions:
REMARK  status: ('A' for Active; 'I' for Inactive)
REMARK       I    between atoms: C2_2  and  N1_4 
REMARK    1  A    between atoms: N1_4  and  C3_6 
REMARK    2  A    between atoms: C4_9  and  O2_10 
REMARK    3  A    between atoms: O2_10  and  C5_11 
REMARK    4  A    between atoms: C10_17  and  S1_18 
REMARK    5  A    between atoms: S1_18  and  C11_19 
ROOT
HETATM    1  C3  UNL     1       0.431  37.693  21.265  1.00  0.00     0.149 A 
HETATM    2  N2  UNL     1       0.561  36.420  21.634  1.00  0.00    -0.305 N 
ATOM      3  H2  UNL     1       0.765  35.643  21.005  1.00  0.00     0.171 HD
HETATM    4  C4  UNL     1       0.378  36.314  23.011  1.00  0.00     0.231 A 
HETATM    5  N3  UNL     1       0.140  37.557  23.419  1.00  0.00    -0.310 N 
ATOM      6  H3  UNL     1      -0.037  37.817  24.389  1.00  0.00     0.170 HD
HETATM    7  C17 UNL     1       0.163  38.445  22.377  1.00  0.00     0.161 A 
HETATM    8  C18 UNL     1      -0.059  39.868  22.490  1.00  0.00     0.121 C 
HETATM    9  N4  UNL     1      -0.250  41.010  22.564  1.00  0.00    -0.190 NA
ENDROOT
BRANCH   1  10
HETATM   10  N1  UNL     1       0.545  38.228  19.937  1.00  0.00    -0.311 N 
HETATM   11  C2  UNL     1       1.769  38.548  19.320  1.00  0.00     0.219 C 
HETATM   12  C1  UNL     1       3.050  38.347  20.025  1.00  0.00     0.117 C 
HETATM   13  O1  UNL     1       1.771  39.009  18.159  1.00  0.00    -0.274 OA
ATOM     14  H1  UNL     1      -0.313  38.384  19.408  1.00  0.00     0.170 HD
ENDBRANCH   1  10
BRANCH   4  15
HETATM   15  O2  UNL     1       0.463  35.128  23.612  1.00  0.00    -0.278 OA
BRANCH  15  16
HETATM   16  C5  UNL     1       0.016  34.468  24.680  1.00  0.00     0.096 A 
HETATM   17  C6  UNL     1      -1.298  34.385  25.079  1.00  0.00     0.040 A 
HETATM   18  C7  UNL     1      -1.633  33.669  26.206  1.00  0.00     0.026 A 
HETATM   19  C8  UNL     1      -0.678  33.026  26.959  1.00  0.00     0.035 A 
HETATM   20 CL1  UNL     1      -1.181  32.136  28.376  1.00  0.00    -0.084 Cl
HETATM   21  C9  UNL     1       0.639  33.115  26.550  1.00  0.00     0.045 A 
HETATM   22  C10 UNL     1       1.014  33.812  25.442  1.00  0.00     0.036 A 
BRANCH  22  23
HETATM   23  S1  UNL     1       2.746  33.907  24.932  1.00  0.00    -0.122 SA
BRANCH  23  24
HETATM   24  C11 UNL     1       3.640  32.459  25.524  1.00  0.00     0.052 C 
HETATM   25  C12 UNL     1       5.108  32.647  25.245  1.00  0.00     0.015 C 
HETATM   26  C13 UNL     1       5.785  31.319  25.536  1.00  0.00     0.001 C 
HETATM   27  C14 UNL     1       5.403  30.329  24.478  1.00  0.00     0.000 C 
HETATM   28  C15 UNL     1       4.017  30.542  23.939  1.00  0.00     0.001 C 
HETATM   29  C16 UNL     1       3.094  31.196  24.926  1.00  0.00     0.015 C 
ENDBRANCH  23  24
ENDBRANCH  22  23
ENDBRANCH  15  16
ENDBRANCH   4  15
TORSDOF 5
ENDMDL
MODEL 2
REMARK VINA RESULT: -9.004707627      1.550      2.312
REMARK  5 active torsions:
REMARK  status: ('A' for Active; 'I' for Inactive)
REMARK       I    between atoms: C2_2  and  N1_4 
REMARK    1  A    between atoms: N1_4  and  C3_6 
REMARK    2  A    between atoms: C4_9  and  O2_10 
REMARK    3  A    between atoms: O2_10  and  C5_11 
REMARK    4  A    between atoms: C10_17  and  S1_18 
REMARK    5  A    between atoms: S1_18  and  C11_19 
ROOT
HETATM    1  C3  UNL     1       0.212  38.505  22.816  1.00  0.00     0.149 A 
HETATM    2  N2  UNL     1       0.103  37.431  23.595  1.00  0.00    -0.305 N 
ATOM      3  H2  UNL     1      -0.269  37.429  24.545  1.00  0.00     0.171 HD
HETATM    4  C4  UNL     1       0.575  36.312  22.914  1.00  0.00     0.231 A 
HETATM    5  N3  UNL     1       0.956  36.772  21.726  1.00  0.00    -0.310 N 
ATOM      6  H3  UNL     1       1.351  36.191  20.987  1.00  0.00     0.170 HD
HETATM    7  C17 UNL     1       0.751  38.121  21.617  1.00  0.00     0.161 A 
HETATM    8  C18 UNL     1       1.061  38.920  20.453  1.00  0.00     0.121 C 
HETATM    9  N4  UNL     1       1.319  39.574  19.532  1.00  0.00    -0.190 NA
ENDROOT
BRANCH   1  10
HETATM   10  N1  UNL     1      -0.160  39.854  23.138  1.00  0.00    -0.311 N 
HETATM   11  C2  UNL     1       0.706  40.787  23.738  1.00  0.00     0.219 C 
HETATM   12  C1  UNL     1       2.094  40.423  24.082  1.00  0.00     0.117 C 
HETATM   13  O1  UNL     1       0.293  41.941  23.983  1.00  0.00    -0.274 OA
ATOM     14  H1  UNL     1      -1.110  40.154  22.920  1.00  0.00     0.170 HD
ENDBRANCH   1  10
BRANCH   4  15
HETATM   15  O2  UNL     1       0.564  35.114  23.499  1.00  0.00    -0.278 OA
BRANCH  15  16
HETATM   16  C5  UNL     1       0.091  34.484  24.574  1.00  0.00     0.096 A 
HETATM   17  C6  UNL     1      -1.232  34.418  24.947  1.00  0.00     0.040 A 
HETATM   18  C7  UNL     1      -1.594  33.734  26.084  1.00  0.00     0.026 A 
HETATM   19  C8  UNL     1      -0.659  33.105  26.874  1.00  0.00     0.035 A 
HETATM   20 CL1  UNL     1      -1.196  32.255  28.303  1.00  0.00    -0.084 Cl
HETATM   21  C9  UNL     1       0.667  33.177  26.489  1.00  0.00     0.045 A 
HETATM   22  C10 UNL     1       1.069  33.842  25.373  1.00  0.00     0.036 A 
BRANCH  22  23
HETATM   23  S1  UNL     1       2.812  33.914  24.896  1.00  0.00    -0.122 SA
BRANCH  23  24
HETATM   24  C11 UNL     1       3.674  32.453  25.502  1.00  0.00     0.052 C 
HETATM   25  C12 UNL     1       5.147  32.609  25.228  1.00  0.00     0.015 C 
HETATM   26  C13 UNL     1       5.796  31.270  25.530  1.00  0.00     0.001 C 
HETATM   27  C14 UNL     1       5.398  30.281  24.478  1.00  0.00     0.000 C 
HETATM   28  C15 UNL     1       4.019  30.518  23.932  1.00  0.00     0.001 C 
HETATM   29  C16 UNL     1       3.105  31.196  24.910  1.00  0.00     0.015 C 
ENDBRANCH  23  24
ENDBRANCH  22  23
ENDBRANCH  15  16
ENDBRANCH   4  15
TORSDOF 5
ENDMDL
MODEL 3
REMARK VINA RESULT: -8.813099252      3.703      5.620
REMARK  5 active torsions:
REMARK  status: ('A' for Active; 'I' for Inactive)
REMARK       I    between atoms: C2_2  and  N1_4 
REMARK    1  A    between atoms: N1_4  and  C3_6 
REMARK    2  A    between atoms: C4_9  and  O2_10 
REMARK    3  A    between atoms: O2_10  and  C5_11 
REMARK    4  A    between atoms: C10_17  and  S1_18 
REMARK    5  A    between atoms: S1_18  and  C11_19 
ROOT
HETATM    1  C3  UNL     1       0.479  36.546  24.487  1.00  0.00     0.149 A 
HETATM    2  N2  UNL     1       1.409  36.161  25.358  1.00  0.00    -0.305 N 
ATOM      3  H2  UNL     1       1.775  36.733  26.120  1.00  0.00     0.171 HD
HETATM    4  C4  UNL     1       1.805  34.858  25.069  1.00  0.00     0.231 A 
HETATM    5  N3  UNL     1       1.078  34.507  24.012  1.00  0.00    -0.310 N 
ATOM      6  H3  UNL     1       1.136  33.598  23.553  1.00  0.00     0.170 HD
HETATM    7  C17 UNL     1       0.243  35.517  23.615  1.00  0.00     0.161 A 
HETATM    8  C18 UNL     1      -0.674  35.451  22.500  1.00  0.00     0.121 C 
HETATM    9  N4  UNL     1      -1.402  35.417  21.599  1.00  0.00    -0.190 NA
ENDROOT
BRANCH   1  10
HETATM   10  N1  UNL     1      -0.190  37.817  24.436  1.00  0.00    -0.311 N 
HETATM   11  C2  UNL     1       0.294  38.932  23.726  1.00  0.00     0.219 C 
HETATM   12  C1  UNL     1       1.559  38.861  22.969  1.00  0.00     0.117 C 
HETATM   13  O1  UNL     1      -0.357  39.999  23.739  1.00  0.00    -0.274 OA
ATOM     14  H1  UNL     1      -1.069  37.916  24.944  1.00  0.00     0.170 HD
ENDBRANCH   1  10
BRANCH   4  15
HETATM   15  O2  UNL     1       2.733  34.255  25.812  1.00  0.00    -0.278 OA
BRANCH  15  16
HETATM   16  C5  UNL     1       3.792  33.453  25.706  1.00  0.00     0.096 A 
HETATM   17  C6  UNL     1       3.782  32.174  25.197  1.00  0.00     0.040 A 
HETATM   18  C7  UNL     1       4.946  31.445  25.140  1.00  0.00     0.026 A 
HETATM   19  C8  UNL     1       6.141  31.962  25.586  1.00  0.00     0.035 A 
HETATM   20 CL1  UNL     1       7.579  30.975  25.481  1.00  0.00    -0.084 Cl
HETATM   21  C9  UNL     1       6.141  33.247  26.094  1.00  0.00     0.045 A 
HETATM   22  C10 UNL     1       5.012  34.004  26.169  1.00  0.00     0.036 A 
BRANCH  22  23
HETATM   23  S1  UNL     1       5.047  35.684  26.837  1.00  0.00    -0.122 SA
BRANCH  23  24
HETATM   24  C11 UNL     1       5.391  36.862  25.518  1.00  0.00     0.052 C 
HETATM   25  C12 UNL     1       6.814  37.337  25.650  1.00  0.00     0.015 C 
HETATM   26  C13 UNL     1       6.984  38.492  24.679  1.00  0.00     0.001 C 
HETATM   27  C14 UNL     1       6.223  39.678  25.187  1.00  0.00     0.000 C 
HETATM   28  C15 UNL     1       4.981  39.306  25.946  1.00  0.00     0.001 C 
HETATM   29  C16 UNL     1       4.401  37.990  25.519  1.00  0.00     0.015 C 
ENDBRANCH  23  24
ENDBRANCH  22  23
ENDBRANCH  15  16
ENDBRANCH   4  15
TORSDOF 5
ENDMDL
MODEL 4
REMARK VINA RESULT: -8.656502643      4.604      6.583
REMARK  5 active torsions:
REMARK  status: ('A' for Active; 'I' for Inactive)
REMARK       I    between atoms: C2_2  and  N1_4 
REMARK    1  A    between atoms: N1_4  and  C3_6 
REMARK    2  A    between atoms: C4_9  and  O2_10 
REMARK    3  A    between atoms: O2_10  and  C5_11 
REMARK    4  A    between atoms: C10_17  and  S1_18 
REMARK    5  A    between atoms: S1_18  and  C11_19 
ROOT
HETATM    1  C3  UNL     1       4.695  38.518  27.163  1.00  0.00     0.149 A 
HETATM    2  N2  UNL     1       4.259  37.306  27.497  1.00  0.00    -0.305 N 
ATOM      3  H2  UNL     1       3.860  37.052  28.402  1.00  0.00     0.171 HD
HETATM    4  C4  UNL     1       4.430  36.437  26.422  1.00  0.00     0.231 A 
HETATM    5  N3  UNL     1       4.974  37.183  25.465  1.00  0.00    -0.310 N 
ATOM      6  H3  UNL     1       5.224  36.834  24.540  1.00  0.00     0.170 HD
HETATM    7  C17 UNL     1       5.157  38.477  25.875  1.00  0.00     0.161 A 
HETATM    8  C18 UNL     1       5.725  39.533  25.070  1.00  0.00     0.121 C 
HETATM    9  N4  UNL     1       6.194  40.386  24.440  1.00  0.00    -0.190 NA
ENDROOT
BRANCH   1  10
HETATM   10  N1  UNL     1       4.698  39.697  27.984  1.00  0.00    -0.311 N 
HETATM   11  C2  UNL     1       3.646  40.632  28.021  1.00  0.00     0.219 C 
HETATM   12  C1  UNL     1       2.439  40.451  27.191  1.00  0.00     0.117 C 
HETATM   13  O1  UNL     1       3.736  41.630  28.767  1.00  0.00    -0.274 OA
ATOM     14  H1  UNL     1       5.510  39.867  28.575  1.00  0.00     0.170 HD
ENDBRANCH   1  10
BRANCH   4  15
HETATM   15  O2  UNL     1       4.063  35.160  26.523  1.00  0.00    -0.278 OA
BRANCH  15  16
HETATM   16  C5  UNL     1       4.347  33.953  26.034  1.00  0.00     0.096 A 
HETATM   17  C6  UNL     1       5.584  33.349  26.057  1.00  0.00     0.040 A 
HETATM   18  C7  UNL     1       5.749  32.095  25.517  1.00  0.00     0.026 A 
HETATM   19  C8  UNL     1       4.699  31.415  24.943  1.00  0.00     0.035 A 
HETATM   20 CL1  UNL     1       4.987  29.825  24.277  1.00  0.00    -0.084 Cl
HETATM   21  C9  UNL     1       3.462  32.031  24.924  1.00  0.00     0.045 A 
HETATM   22  C10 UNL     1       3.254  33.270  25.447  1.00  0.00     0.036 A 
BRANCH  22  23
HETATM   23  S1  UNL     1       1.621  34.045  25.410  1.00  0.00    -0.122 SA
BRANCH  23  24
HETATM   24  C11 UNL     1       0.364  32.854  25.908  1.00  0.00     0.052 C 
HETATM   25  C12 UNL     1      -0.987  33.516  25.840  1.00  0.00     0.015 C 
HETATM   26  C13 UNL     1      -1.976  32.565  26.490  1.00  0.00     0.001 C 
HETATM   27  C14 UNL     1      -1.731  32.532  27.967  1.00  0.00     0.000 C 
HETATM   28  C15 UNL     1      -0.288  32.730  28.334  1.00  0.00     0.001 C 
HETATM   29  C16 UNL     1       0.660  32.279  27.262  1.00  0.00     0.015 C 
ENDBRANCH  23  24
ENDBRANCH  22  23
ENDBRANCH  15  16
ENDBRANCH   4  15
TORSDOF 5
ENDMDL
MODEL 5
REMARK VINA RESULT: -8.596295391      1.921      2.310
REMARK  5 active torsions:
REMARK  status: ('A' for Active; 'I' for Inactive)
REMARK       I    between atoms: C2_2  and  N1_4 
REMARK    1  A    between atoms: N1_4  and  C3_6 
REMARK    2  A    between atoms: C4_9  and  O2_10 
REMARK    3  A    between atoms: O2_10  and  C5_11 
REMARK    4  A    between atoms: C10_17  and  S1_18 
REMARK    5  A    between atoms: S1_18  and  C11_19 
ROOT
HETATM    1  C3  UNL     1       1.604  38.354  23.272  1.00  0.00     0.149 A 
HETATM    2  N2  UNL     1       1.399  37.225  23.945  1.00  0.00    -0.305 N 
ATOM      3  H2  UNL     1       1.575  37.093  24.942  1.00  0.00     0.171 HD
HETATM    4  C4  UNL     1       0.907  36.250  23.080  1.00  0.00     0.231 A 
HETATM    5  N3  UNL     1       0.834  36.851  21.896  1.00  0.00    -0.310 N 
ATOM      6  H3  UNL     1       0.507  36.398  21.043  1.00  0.00     0.170 HD
HETATM    7  C17 UNL     1       1.254  38.153  21.963  1.00  0.00     0.161 A 
HETATM    8  C18 UNL     1       1.297  39.073  20.851  1.00  0.00     0.121 C 
HETATM    9  N4  UNL     1       1.351  39.817  19.963  1.00  0.00    -0.190 NA
ENDROOT
BRANCH   1  10
HETATM   10  N1  UNL     1       2.104  39.597  23.791  1.00  0.00    -0.311 N 
HETATM   11  C2  UNL     1       3.471  39.924  23.866  1.00  0.00     0.219 C 
HETATM   12  C1  UNL     1       4.505  38.980  23.399  1.00  0.00     0.117 C 
HETATM   13  O1  UNL     1       3.814  41.031  24.334  1.00  0.00    -0.274 OA
ATOM     14  H1  UNL     1       1.428  40.283  24.127  1.00  0.00     0.170 HD
ENDBRANCH   1  10
BRANCH   4  15
HETATM   15  O2  UNL     1       0.625  35.028  23.533  1.00  0.00    -0.278 OA
BRANCH  15  16
HETATM   16  C5  UNL     1       0.156  34.400  24.610  1.00  0.00     0.096 A 
HETATM   17  C6  UNL     1      -1.165  34.334  24.989  1.00  0.00     0.040 A 
HETATM   18  C7  UNL     1      -1.523  33.651  26.128  1.00  0.00     0.026 A 
HETATM   19  C8  UNL     1      -0.585  33.022  26.914  1.00  0.00     0.035 A 
HETATM   20 CL1  UNL     1      -1.116  32.174  28.346  1.00  0.00    -0.084 Cl
HETATM   21  C9  UNL     1       0.739  33.094  26.525  1.00  0.00     0.045 A 
HETATM   22  C10 UNL     1       1.137  33.759  25.406  1.00  0.00     0.036 A 
BRANCH  22  23
HETATM   23  S1  UNL     1       2.878  33.830  24.923  1.00  0.00    -0.122 SA
BRANCH  23  24
HETATM   24  C11 UNL     1       3.736  32.355  25.499  1.00  0.00     0.052 C 
HETATM   25  C12 UNL     1       5.210  32.516  25.238  1.00  0.00     0.015 C 
HETATM   26  C13 UNL     1       5.856  31.170  25.513  1.00  0.00     0.001 C 
HETATM   27  C14 UNL     1       5.464  30.206  24.436  1.00  0.00     0.000 C 
HETATM   28  C15 UNL     1       4.089  30.456  23.888  1.00  0.00     0.001 C 
HETATM   29  C16 UNL     1       3.170  31.113  24.876  1.00  0.00     0.015 C 
ENDBRANCH  23  24
ENDBRANCH  22  23
ENDBRANCH  15  16
ENDBRANCH   4  15
TORSDOF 5
ENDMDL
