MODEL 1
REMARK VINA RESULT: -8.341331045      0.000      0.000
REMARK  10 active torsions:
REMARK  status: ('A' for Active; 'I' for Inactive)
REMARK    1  A    between atoms: C2_2  and  N1_3 
REMARK       I    between atoms: C3_5  and  N3_7 
REMARK       I    between atoms: C4_9  and  N5_11 
REMARK    2  A    between atoms: N5_11  and  C5_13 
REMARK    3  A    between atoms: C5_13  and  C6_14 
REMARK    4  A    between atoms: C6_14  and  C7_15 
REMARK    5  A    between atoms: C7_15  and  C8_16 
REMARK       I    between atoms: C8_16  and  N6_18 
REMARK    6  A    between atoms: N6_18  and  S1_20 
REMARK    7  A    between atoms: S1_20  and  C9_22 
REMARK    8  A    between atoms: C12_25  and  C13_26 
REMARK    9  A    between atoms: C13_26  and  N7_27 
REMARK   10  A    between atoms: N9_33  and  O3_34 
ROOT
HETATM    1  C8  UNL     1       2.402  30.123   5.515  1.00  0.00     0.229 C 
HETATM    2  O1  UNL     1       2.091  30.990   4.675  1.00  0.00    -0.273 OA
HETATM    3  N6  UNL     1       3.401  29.172   5.184  1.00  0.00    -0.271 N 
ATOM      4  H6  UNL     1       3.650  28.465   5.877  1.00  0.00     0.179 HD
ENDROOT
BRANCH   3   5
HETATM    5  S1  UNL     1       4.224  29.158   3.647  1.00  0.00     0.171 S 
HETATM    6  O2  UNL     1       5.496  28.337   3.701  1.00  0.00    -0.228 OA
BRANCH   5   7
HETATM    7  C9  UNL     1       3.107  28.588   2.387  1.00  0.00     0.138 A 
HETATM    8  C10 UNL     1       3.271  27.369   1.763  1.00  0.00     0.045 A 
HETATM    9  C11 UNL     1       2.388  26.953   0.790  1.00  0.00     0.034 A 
HETATM   10  C12 UNL     1       1.314  27.753   0.417  1.00  0.00     0.077 A 
HETATM   11  N9  UNL     1       1.196  28.930   1.053  1.00  0.00    -0.165 N 
HETATM   12  N10 UNL     1       2.053  29.322   1.991  1.00  0.00    -0.264 N 
ATOM     13  H10 UNL     1       1.902  30.228   2.434  1.00  0.00     0.190 HD
BRANCH  10  14
HETATM   14  C13 UNL     1       0.360  27.293  -0.644  1.00  0.00     0.190 C 
BRANCH  14  15
HETATM   15  N7  UNL     1      -0.569  26.380  -0.016  1.00  0.00    -0.346 N 
HETATM   16  C14 UNL     1      -1.703  26.735   0.652  1.00  0.00     0.109 A 
HETATM   17  C15 UNL     1      -2.293  25.575   1.095  1.00  0.00     0.106 A 
HETATM   18  N8  UNL     1      -1.542  24.531   0.709  1.00  0.00    -0.361 N 
HETATM   19  C16 UNL     1      -0.480  25.044   0.024  1.00  0.00     0.182 A 
ATOM     20  H8  UNL     1      -1.730  23.545   0.893  1.00  0.00     0.166 HD
ENDBRANCH  14  15
ENDBRANCH  10  14
BRANCH  11  21
HETATM   21  O3  UNL     1       0.140  29.771   0.718  1.00  0.00    -0.268 OA
ATOM     22  H3  UNL     1       0.240  30.706   0.851  1.00  0.00     0.247 HD
ENDBRANCH  11  21
ENDBRANCH   5   7
ENDBRANCH   3   5
BRANCH   1  23
HETATM   23  C7  UNL     1       1.758  30.065   6.831  1.00  0.00     0.105 C 
BRANCH  23  24
HETATM   24  C6  UNL     1       0.270  30.084   6.705  1.00  0.00     0.029 C 
BRANCH  24  25
HETATM   25  C5  UNL     1      -0.310  28.739   6.423  1.00  0.00     0.122 C 
BRANCH  25  26
HETATM   26  N5  UNL     1      -1.543  28.911   5.638  1.00  0.00    -0.364 N 
HETATM   27  C4  UNL     1      -1.372  29.072   4.244  1.00  0.00     0.190 C 
HETATM   28  N3  UNL     1      -2.080  29.878   3.588  1.00  0.00    -0.305 N 
HETATM   29  N4  UNL     1      -0.380  28.298   3.588  1.00  0.00    -0.063 NA
HETATM   30  C3  UNL     1      -3.103  30.728   4.036  1.00  0.00     0.190 C 
ATOM     31  H3  UNL     1      -1.883  29.921   2.589  1.00  0.00     0.171 HD
HETATM   32  N1  UNL     1      -4.131  30.945   3.311  1.00  0.00    -0.365 N 
HETATM   33  N2  UNL     1      -3.001  31.352   5.299  1.00  0.00    -0.063 NA
ATOM     34  H1  UNL     1      -4.872  31.564   3.642  1.00  0.00     0.162 HD
ATOM     35  H5  UNL     1      -2.465  28.915   6.074  1.00  0.00     0.162 HD
BRANCH  32  36
HETATM   36  C2  UNL     1      -4.238  30.310   2.023  1.00  0.00     0.118 C 
HETATM   37  C1  UNL     1      -5.672  29.918   1.773  1.00  0.00     0.026 C 
ENDBRANCH  32  36
ENDBRANCH  25  26
ENDBRANCH  24  25
ENDBRANCH  23  24
ENDBRANCH   1  23
TORSDOF 10
ENDMDL
MODEL 2
REMARK VINA RESULT: -8.138192669      5.955      9.808
REMARK  10 active torsions:
REMARK  status: ('A' for Active; 'I' for Inactive)
REMARK    1  A    between atoms: C2_2  and  N1_3 
REMARK       I    between atoms: C3_5  and  N3_7 
REMARK       I    between atoms: C4_9  and  N5_11 
REMARK    2  A    between atoms: N5_11  and  C5_13 
REMARK    3  A    between atoms: C5_13  and  C6_14 
REMARK    4  A    between atoms: C6_14  and  C7_15 
REMARK    5  A    between atoms: C7_15  and  C8_16 
REMARK       I    between atoms: C8_16  and  N6_18 
REMARK    6  A    between atoms: N6_18  and  S1_20 
REMARK    7  A    between atoms: S1_20  and  C9_22 
REMARK    8  A    between atoms: C12_25  and  C13_26 
REMARK    9  A    between atoms: C13_26  and  N7_27 
REMARK   10  A    between atoms: N9_33  and  O3_34 
ROOT
HETATM    1  C8  UNL     1      -1.086  28.802  -3.755  1.00  0.00     0.229 C 
HETATM    2  O1  UNL     1      -0.254  27.899  -3.540  1.00  0.00    -0.273 OA
HETATM    3  N6  UNL     1      -2.079  29.069  -2.779  1.00  0.00    -0.271 N 
ATOM      4  H6  UNL     1      -2.758  29.808  -2.962  1.00  0.00     0.179 HD
ENDROOT
BRANCH   3   5
HETATM    5  S1  UNL     1      -2.193  28.188  -1.277  1.00  0.00     0.171 S 
HETATM    6  O2  UNL     1      -2.415  26.709  -1.511  1.00  0.00    -0.228 OA
BRANCH   5   7
HETATM    7  C9  UNL     1      -0.743  28.506  -0.299  1.00  0.00     0.138 A 
HETATM    8  C10 UNL     1      -0.600  29.664   0.438  1.00  0.00     0.045 A 
HETATM    9  C11 UNL     1       0.535  29.883   1.189  1.00  0.00     0.034 A 
HETATM   10  C12 UNL     1       1.559  28.943   1.218  1.00  0.00     0.077 A 
HETATM   11  N9  UNL     1       1.373  27.833   0.485  1.00  0.00    -0.165 N 
HETATM   12  N10 UNL     1       0.274  27.631  -0.235  1.00  0.00    -0.264 N 
ATOM     13  H10 UNL     1       0.199  26.764  -0.767  1.00  0.00     0.190 HD
BRANCH  10  14
HETATM   14  C13 UNL     1       2.791  29.191   2.036  1.00  0.00     0.190 C 
BRANCH  14  15
HETATM   15  N7  UNL     1       2.355  29.572   3.360  1.00  0.00    -0.346 N 
HETATM   16  C14 UNL     1       1.629  28.794   4.212  1.00  0.00     0.109 A 
HETATM   17  C15 UNL     1       1.423  29.526   5.356  1.00  0.00     0.106 A 
HETATM   18  N8  UNL     1       2.009  30.727   5.215  1.00  0.00    -0.361 N 
HETATM   19  C16 UNL     1       2.580  30.741   3.977  1.00  0.00     0.182 A 
ATOM     20  H8  UNL     1       2.023  31.482   5.900  1.00  0.00     0.166 HD
ENDBRANCH  14  15
ENDBRANCH  10  14
BRANCH  11  21
HETATM   21  O3  UNL     1       2.367  26.860   0.477  1.00  0.00    -0.268 OA
ATOM     22  H3  UNL     1       2.127  25.962   0.284  1.00  0.00     0.247 HD
ENDBRANCH  11  21
ENDBRANCH   5   7
ENDBRANCH   3   5
BRANCH   1  23
HETATM   23  C7  UNL     1      -1.061  29.589  -4.992  1.00  0.00     0.105 C 
BRANCH  23  24
HETATM   24  C6  UNL     1      -2.413  29.640  -5.627  1.00  0.00     0.029 C 
BRANCH  24  25
HETATM   25  C5  UNL     1      -2.739  28.411  -6.407  1.00  0.00     0.122 C 
BRANCH  25  26
HETATM   26  N5  UNL     1      -2.034  28.471  -7.698  1.00  0.00    -0.364 N 
HETATM   27  C4  UNL     1      -0.794  27.797  -7.758  1.00  0.00     0.190 C 
HETATM   28  N3  UNL     1       0.183  28.281  -8.385  1.00  0.00    -0.305 N 
HETATM   29  N4  UNL     1      -0.666  26.550  -7.093  1.00  0.00    -0.063 NA
HETATM   30  C3  UNL     1       0.269  29.485  -9.101  1.00  0.00     0.190 C 
ATOM     31  H3  UNL     1       1.034  27.719  -8.372  1.00  0.00     0.171 HD
HETATM   32  N1  UNL     1       0.956  29.555 -10.175  1.00  0.00    -0.365 N 
HETATM   33  N2  UNL     1      -0.408  30.633  -8.636  1.00  0.00    -0.063 NA
ATOM     34  H1  UNL     1       1.015  30.433 -10.691  1.00  0.00     0.162 HD
ATOM     35  H5  UNL     1      -2.418  28.969  -8.501  1.00  0.00     0.162 HD
BRANCH  32  36
HETATM   36  C2  UNL     1       1.648  28.385 -10.652  1.00  0.00     0.118 C 
HETATM   37  C1  UNL     1       1.626  28.367 -12.159  1.00  0.00     0.026 C 
ENDBRANCH  32  36
ENDBRANCH  25  26
ENDBRANCH  24  25
ENDBRANCH  23  24
ENDBRANCH   1  23
TORSDOF 10
ENDMDL
MODEL 3
REMARK VINA RESULT: -8.074582155      3.409      7.113
REMARK  10 active torsions:
REMARK  status: ('A' for Active; 'I' for Inactive)
REMARK    1  A    between atoms: C2_2  and  N1_3 
REMARK       I    between atoms: C3_5  and  N3_7 
REMARK       I    between atoms: C4_9  and  N5_11 
REMARK    2  A    between atoms: N5_11  and  C5_13 
REMARK    3  A    between atoms: C5_13  and  C6_14 
REMARK    4  A    between atoms: C6_14  and  C7_15 
REMARK    5  A    between atoms: C7_15  and  C8_16 
REMARK       I    between atoms: C8_16  and  N6_18 
REMARK    6  A    between atoms: N6_18  and  S1_20 
REMARK    7  A    between atoms: S1_20  and  C9_22 
REMARK    8  A    between atoms: C12_25  and  C13_26 
REMARK    9  A    between atoms: C13_26  and  N7_27 
REMARK   10  A    between atoms: N9_33  and  O3_34 
ROOT
HETATM    1  C8  UNL     1      -0.002  26.501   1.657  1.00  0.00     0.229 C 
HETATM    2  O1  UNL     1      -0.539  26.001   2.664  1.00  0.00    -0.273 OA
HETATM    3  N6  UNL     1       0.314  27.884   1.662  1.00  0.00    -0.271 N 
ATOM      4  H6  UNL     1       0.753  28.287   0.834  1.00  0.00     0.179 HD
ENDROOT
BRANCH   3   5
HETATM    5  S1  UNL     1      -0.015  28.927   3.021  1.00  0.00     0.171 S 
HETATM    6  O2  UNL     1       0.952  30.091   3.080  1.00  0.00    -0.228 OA
BRANCH   5   7
HETATM    7  C9  UNL     1      -1.709  29.460   2.956  1.00  0.00     0.138 A 
HETATM    8  C10 UNL     1      -2.402  29.830   4.091  1.00  0.00     0.045 A 
HETATM    9  C11 UNL     1      -3.715  30.240   4.010  1.00  0.00     0.034 A 
HETATM   10  C12 UNL     1      -4.369  30.289   2.784  1.00  0.00     0.077 A 
HETATM   11  N9  UNL     1      -3.653  29.920   1.709  1.00  0.00    -0.165 N 
HETATM   12  N10 UNL     1      -2.387  29.527   1.798  1.00  0.00    -0.264 N 
ATOM     13  H10 UNL     1      -1.903  29.261   0.940  1.00  0.00     0.190 HD
BRANCH  10  14
HETATM   14  C13 UNL     1      -5.799  30.735   2.706  1.00  0.00     0.190 C 
BRANCH  14  15
HETATM   15  N7  UNL     1      -6.563  29.873   3.580  1.00  0.00    -0.346 N 
HETATM   16  C14 UNL     1      -6.757  28.536   3.405  1.00  0.00     0.109 A 
HETATM   17  C15 UNL     1      -7.537  28.098   4.448  1.00  0.00     0.106 A 
HETATM   18  N8  UNL     1      -7.816  29.141   5.248  1.00  0.00    -0.361 N 
HETATM   19  C16 UNL     1      -7.208  30.231   4.699  1.00  0.00     0.182 A 
ATOM     20  H8  UNL     1      -8.376  29.121   6.101  1.00  0.00     0.166 HD
ENDBRANCH  14  15
ENDBRANCH  10  14
BRANCH  11  21
HETATM   21  O3  UNL     1      -4.259  29.949   0.458  1.00  0.00    -0.268 OA
ATOM     22  H3  UNL     1      -4.252  29.161  -0.073  1.00  0.00     0.247 HD
ENDBRANCH  11  21
ENDBRANCH   5   7
ENDBRANCH   3   5
BRANCH   1  23
HETATM   23  C7  UNL     1       0.308  25.695   0.472  1.00  0.00     0.105 C 
BRANCH  23  24
HETATM   24  C6  UNL     1      -0.938  25.203  -0.187  1.00  0.00     0.029 C 
BRANCH  24  25
HETATM   25  C5  UNL     1      -1.920  26.291  -0.467  1.00  0.00     0.122 C 
BRANCH  25  26
HETATM   26  N5  UNL     1      -1.645  26.842  -1.804  1.00  0.00    -0.364 N 
HETATM   27  C4  UNL     1      -1.788  28.241  -1.938  1.00  0.00     0.190 C 
HETATM   28  N3  UNL     1      -2.289  28.750  -2.974  1.00  0.00    -0.305 N 
HETATM   29  N4  UNL     1      -1.350  29.073  -0.875  1.00  0.00    -0.063 NA
HETATM   30  C3  UNL     1      -2.779  28.116  -4.126  1.00  0.00     0.190 C 
ATOM     31  H3  UNL     1      -2.347  29.768  -2.977  1.00  0.00     0.171 HD
HETATM   32  N1  UNL     1      -2.616  28.644  -5.277  1.00  0.00    -0.365 N 
HETATM   33  N2  UNL     1      -3.460  26.884  -4.018  1.00  0.00    -0.063 NA
ATOM     34  H1  UNL     1      -2.975  28.179  -6.111  1.00  0.00     0.162 HD
ATOM     35  H5  UNL     1      -1.369  26.249  -2.587  1.00  0.00     0.162 HD
BRANCH  32  36
HETATM   36  C2  UNL     1      -1.922  29.901  -5.389  1.00  0.00     0.118 C 
HETATM   37  C1  UNL     1      -1.570  30.154  -6.833  1.00  0.00     0.026 C 
ENDBRANCH  32  36
ENDBRANCH  25  26
ENDBRANCH  24  25
ENDBRANCH  23  24
ENDBRANCH   1  23
TORSDOF 10
ENDMDL
MODEL 4
REMARK VINA RESULT: -8.032959613      2.867      6.784
REMARK  10 active torsions:
REMARK  status: ('A' for Active; 'I' for Inactive)
REMARK    1  A    between atoms: C2_2  and  N1_3 
REMARK       I    between atoms: C3_5  and  N3_7 
REMARK       I    between atoms: C4_9  and  N5_11 
REMARK    2  A    between atoms: N5_11  and  C5_13 
REMARK    3  A    between atoms: C5_13  and  C6_14 
REMARK    4  A    between atoms: C6_14  and  C7_15 
REMARK    5  A    between atoms: C7_15  and  C8_16 
REMARK       I    between atoms: C8_16  and  N6_18 
REMARK    6  A    between atoms: N6_18  and  S1_20 
REMARK    7  A    between atoms: S1_20  and  C9_22 
REMARK    8  A    between atoms: C12_25  and  C13_26 
REMARK    9  A    between atoms: C13_26  and  N7_27 
REMARK   10  A    between atoms: N9_33  and  O3_34 
ROOT
HETATM    1  C8  UNL     1       0.066  27.459  -0.137  1.00  0.00     0.229 C 
HETATM    2  O1  UNL     1       0.232  27.878  -1.300  1.00  0.00    -0.273 OA
HETATM    3  N6  UNL     1      -0.926  28.063   0.676  1.00  0.00    -0.271 N 
ATOM      4  H6  UNL     1      -1.056  27.715   1.627  1.00  0.00     0.179 HD
ENDROOT
BRANCH   3   5
HETATM    5  S1  UNL     1      -1.936  29.374   0.124  1.00  0.00     0.171 S 
HETATM    6  O2  UNL     1      -2.718  28.993  -1.117  1.00  0.00    -0.228 OA
BRANCH   5   7
HETATM    7  C9  UNL     1      -2.992  29.902   1.452  1.00  0.00     0.138 A 
HETATM    8  C10 UNL     1      -4.366  29.927   1.325  1.00  0.00     0.045 A 
HETATM    9  C11 UNL     1      -5.161  30.340   2.373  1.00  0.00     0.034 A 
HETATM   10  C12 UNL     1      -4.595  30.741   3.578  1.00  0.00     0.077 A 
HETATM   11  N9  UNL     1      -3.254  30.698   3.652  1.00  0.00    -0.165 N 
HETATM   12  N10 UNL     1      -2.497  30.297   2.636  1.00  0.00    -0.264 N 
ATOM     13  H10 UNL     1      -1.485  30.288   2.763  1.00  0.00     0.190 HD
BRANCH  10  14
HETATM   14  C13 UNL     1      -5.467  31.191   4.711  1.00  0.00     0.190 C 
BRANCH  14  15
HETATM   15  N7  UNL     1      -6.055  30.005   5.295  1.00  0.00    -0.346 N 
HETATM   16  C14 UNL     1      -5.389  29.067   6.025  1.00  0.00     0.109 A 
HETATM   17  C15 UNL     1      -6.305  28.109   6.387  1.00  0.00     0.106 A 
HETATM   18  N8  UNL     1      -7.506  28.448   5.893  1.00  0.00    -0.361 N 
HETATM   19  C16 UNL     1      -7.336  29.622   5.220  1.00  0.00     0.182 A 
ATOM     20  H8  UNL     1      -8.378  27.929   5.999  1.00  0.00     0.166 HD
ENDBRANCH  14  15
ENDBRANCH  10  14
BRANCH  11  21
HETATM   21  O3  UNL     1      -2.635  31.089   4.835  1.00  0.00    -0.268 OA
ATOM     22  H3  UNL     1      -1.697  31.233   4.835  1.00  0.00     0.247 HD
ENDBRANCH  11  21
ENDBRANCH   5   7
ENDBRANCH   3   5
BRANCH   1  23
HETATM   23  C7  UNL     1       0.873  26.361   0.405  1.00  0.00     0.105 C 
BRANCH  23  24
HETATM   24  C6  UNL     1       0.242  25.780   1.627  1.00  0.00     0.029 C 
BRANCH  24  25
HETATM   25  C5  UNL     1       1.231  25.441   2.691  1.00  0.00     0.122 C 
BRANCH  25  26
HETATM   26  N5  UNL     1       1.481  26.642   3.504  1.00  0.00    -0.364 N 
HETATM   27  C4  UNL     1       0.823  26.693   4.752  1.00  0.00     0.190 C 
HETATM   28  N3  UNL     1       0.339  27.767   5.192  1.00  0.00    -0.305 N 
HETATM   29  N4  UNL     1       0.717  25.499   5.513  1.00  0.00    -0.063 NA
HETATM   30  C3  UNL     1       0.334  29.043   4.607  1.00  0.00     0.190 C 
ATOM     31  H3  UNL     1      -0.115  27.702   6.104  1.00  0.00     0.171 HD
HETATM   32  N1  UNL     1       0.462  30.088   5.329  1.00  0.00    -0.365 N 
HETATM   33  N2  UNL     1       0.187  29.179   3.210  1.00  0.00    -0.063 NA
ATOM     34  H1  UNL     1       0.458  31.013   4.898  1.00  0.00     0.162 HD
ATOM     35  H5  UNL     1       2.094  27.393   3.184  1.00  0.00     0.162 HD
BRANCH  32  36
HETATM   36  C2  UNL     1       0.613  29.953   6.755  1.00  0.00     0.118 C 
HETATM   37  C1  UNL     1       2.067  30.099   7.124  1.00  0.00     0.026 C 
ENDBRANCH  32  36
ENDBRANCH  25  26
ENDBRANCH  24  25
ENDBRANCH  23  24
ENDBRANCH   1  23
TORSDOF 10
ENDMDL
MODEL 5
REMARK VINA RESULT: -8.028347048      5.587      9.524
REMARK  10 active torsions:
REMARK  status: ('A' for Active; 'I' for Inactive)
REMARK    1  A    between atoms: C2_2  and  N1_3 
REMARK       I    between atoms: C3_5  and  N3_7 
REMARK       I    between atoms: C4_9  and  N5_11 
REMARK    2  A    between atoms: N5_11  and  C5_13 
REMARK    3  A    between atoms: C5_13  and  C6_14 
REMARK    4  A    between atoms: C6_14  and  C7_15 
REMARK    5  A    between atoms: C7_15  and  C8_16 
REMARK       I    between atoms: C8_16  and  N6_18 
REMARK    6  A    between atoms: N6_18  and  S1_20 
REMARK    7  A    between atoms: S1_20  and  C9_22 
REMARK    8  A    between atoms: C12_25  and  C13_26 
REMARK    9  A    between atoms: C13_26  and  N7_27 
REMARK   10  A    between atoms: N9_33  and  O3_34 
ROOT
HETATM    1  C8  UNL     1      -1.588  28.329  -2.914  1.00  0.00     0.229 C 
HETATM    2  O1  UNL     1      -2.617  28.663  -2.295  1.00  0.00    -0.273 OA
HETATM    3  N6  UNL     1      -0.591  27.582  -2.236  1.00  0.00    -0.271 N 
ATOM      4  H6  UNL     1       0.250  27.313  -2.749  1.00  0.00     0.179 HD
ENDROOT
BRANCH   3   5
HETATM    5  S1  UNL     1      -0.737  27.103  -0.565  1.00  0.00     0.171 S 
HETATM    6  O2  UNL     1      -0.524  25.613  -0.391  1.00  0.00    -0.228 OA
BRANCH   5   7
HETATM    7  C9  UNL     1       0.384  28.065   0.422  1.00  0.00     0.138 A 
HETATM    8  C10 UNL     1      -0.028  29.188   1.109  1.00  0.00     0.045 A 
HETATM    9  C11 UNL     1       0.864  29.915   1.868  1.00  0.00     0.034 A 
HETATM   10  C12 UNL     1       2.197  29.532   1.957  1.00  0.00     0.077 A 
HETATM   11  N9  UNL     1       2.550  28.432   1.271  1.00  0.00    -0.165 N 
HETATM   12  N10 UNL     1       1.682  27.738   0.543  1.00  0.00    -0.264 N 
ATOM     13  H10 UNL     1       2.019  26.911   0.048  1.00  0.00     0.190 HD
BRANCH  10  14
HETATM   14  C13 UNL     1       3.161  30.330   2.784  1.00  0.00     0.190 C 
BRANCH  14  15
HETATM   15  N7  UNL     1       2.996  29.908   4.157  1.00  0.00    -0.346 N 
HETATM   16  C14 UNL     1       2.292  30.576   5.114  1.00  0.00     0.109 A 
HETATM   17  C15 UNL     1       2.387  29.845   6.273  1.00  0.00     0.106 A 
HETATM   18  N8  UNL     1       3.130  28.752   6.037  1.00  0.00    -0.361 N 
HETATM   19  C16 UNL     1       3.500  28.804   4.725  1.00  0.00     0.182 A 
ATOM     20  H8  UNL     1       3.372  28.023   6.709  1.00  0.00     0.166 HD
ENDBRANCH  14  15
ENDBRANCH  10  14
BRANCH  11  21
HETATM   21  O3  UNL     1       3.873  28.005   1.324  1.00  0.00    -0.268 OA
ATOM     22  H3  UNL     1       4.231  27.531   0.583  1.00  0.00     0.247 HD
ENDBRANCH  11  21
ENDBRANCH   5   7
ENDBRANCH   3   5
BRANCH   1  23
HETATM   23  C7  UNL     1      -1.387  28.692  -4.320  1.00  0.00     0.105 C 
BRANCH  23  24
HETATM   24  C6  UNL     1      -2.677  28.672  -5.073  1.00  0.00     0.029 C 
BRANCH  24  25
HETATM   25  C5  UNL     1      -2.787  27.520  -6.013  1.00  0.00     0.122 C 
BRANCH  25  26
HETATM   26  N5  UNL     1      -2.204  27.908  -7.307  1.00  0.00    -0.364 N 
HETATM   27  C4  UNL     1      -0.937  27.358  -7.606  1.00  0.00     0.190 C 
HETATM   28  N3  UNL     1      -0.049  28.037  -8.180  1.00  0.00    -0.305 N 
HETATM   29  N4  UNL     1      -0.681  26.009  -7.244  1.00  0.00    -0.063 NA
HETATM   30  C3  UNL     1      -0.095  29.370  -8.617  1.00  0.00     0.190 C 
ATOM     31  H3  UNL     1       0.831  27.550  -8.354  1.00  0.00     0.171 HD
HETATM   32  N1  UNL     1       0.490  29.721  -9.696  1.00  0.00    -0.365 N 
HETATM   33  N2  UNL     1      -0.792  30.337  -7.861  1.00  0.00    -0.063 NA
ATOM     34  H1  UNL     1       0.454  30.691 -10.009  1.00  0.00     0.162 HD
ATOM     35  H5  UNL     1      -2.685  28.538  -7.950  1.00  0.00     0.162 HD
BRANCH  32  36
HETATM   36  C2  UNL     1       1.202  28.736 -10.470  1.00  0.00     0.118 C 
HETATM   37  C1  UNL     1       1.419  29.255 -11.869  1.00  0.00     0.026 C 
ENDBRANCH  32  36
ENDBRANCH  25  26
ENDBRANCH  24  25
ENDBRANCH  23  24
ENDBRANCH   1  23
TORSDOF 10
ENDMDL
