MODEL 1
REMARK VINA RESULT: -9.022222842      0.000      0.000
REMARK  12 active torsions:
REMARK  status: ('A' for Active; 'I' for Inactive)
REMARK    1  A    between atoms: N1_4  and  C4_5 
REMARK    2  A    between atoms: C4_5  and  C5_6 
REMARK    3  A    between atoms: C9_10  and  C10_11 
REMARK    4  A    between atoms: C10_11  and  C11_12 
REMARK       I    between atoms: C11_12  and  N2_14 
REMARK    5  A    between atoms: N2_14  and  C12_16 
REMARK    6  A    between atoms: C12_16  and  C13_17 
REMARK    7  A    between atoms: C12_16  and  N3_21 
REMARK    8  A    between atoms: C13_17  and  C14_18 
REMARK    9  A    between atoms: C14_18  and  C15_19 
REMARK   10  A    between atoms: N3_21  and  N4_22 
REMARK   11  A    between atoms: N3_21  and  O3_25 
REMARK   12  A    between atoms: C19_30  and  C20_31 
REMARK       I    between atoms: C20_31  and  N5_33 
ROOT
HETATM    1  C5  UNL     1      -0.383  26.320   0.362  1.00  0.00    -0.040 A 
HETATM    2  C6  UNL     1      -0.299  24.921   0.432  1.00  0.00     0.009 A 
HETATM    3  C7  UNL     1       0.888  24.288   0.690  1.00  0.00     0.001 A 
HETATM    4  C8  UNL     1       2.032  25.020   0.887  1.00  0.00     0.007 A 
HETATM    5  C9  UNL     1       1.987  26.424   0.825  1.00  0.00    -0.049 A 
HETATM    6  C16 UNL     1       0.771  27.026   0.564  1.00  0.00     0.016 A 
ENDROOT
BRANCH   5   7
HETATM    7  C10 UNL     1       3.262  27.141   1.026  1.00  0.00     0.141 C 
BRANCH   7   8
HETATM    8  C11 UNL     1       3.388  27.783   2.350  1.00  0.00     0.223 C 
HETATM    9  O1  UNL     1       3.208  27.130   3.414  1.00  0.00    -0.273 OA
HETATM   10  N2  UNL     1       3.713  29.170   2.499  1.00  0.00    -0.340 N 
ATOM     11  H2  UNL     1       3.845  29.716   1.647  1.00  0.00     0.164 HD
BRANCH  10  12
HETATM   12  C12 UNL     1       3.866  29.841   3.740  1.00  0.00     0.208 C 
BRANCH  12  13
HETATM   13  C13 UNL     1       2.711  30.586   4.321  1.00  0.00     0.052 C 
BRANCH  13  14
HETATM   14  C14 UNL     1       1.647  29.818   4.998  1.00  0.00     0.073 C 
BRANCH  14  15
HETATM   15  C15 UNL     1       0.551  29.304   4.171  1.00  0.00     0.231 C 
HETATM   16  O2  UNL     1       0.397  29.593   3.012  1.00  0.00    -0.307 OA
ENDBRANCH  14  15
ENDBRANCH  13  14
ENDBRANCH  12  13
BRANCH  12  17
HETATM   17  N3  UNL     1       4.980  30.805   3.692  1.00  0.00    -0.090 NA
BRANCH  17  18
HETATM   18  N4  UNL     1       6.221  30.175   3.801  1.00  0.00    -0.339 NA
ATOM     19  H42 UNL     1       6.907  30.772   3.339  1.00  0.00     0.173 HD
ATOM     20  H41 UNL     1       6.242  29.287   3.300  1.00  0.00     0.173 HD
ENDBRANCH  17  18
BRANCH  17  21
HETATM   21  O3  UNL     1       4.922  31.375   2.467  1.00  0.00    -0.292 OA
ATOM     22  H3  UNL     1       5.180  32.282   2.589  1.00  0.00     0.239 HD
ENDBRANCH  17  21
ENDBRANCH  12  17
ENDBRANCH  10  12
ENDBRANCH   7   8
ENDBRANCH   5   7
BRANCH   1  23
HETATM   23  C4  UNL     1      -1.686  26.887   0.049  1.00  0.00     0.166 C 
BRANCH  23  24
HETATM   24  N1  UNL     1      -2.217  27.839   0.997  1.00  0.00    -0.362 N 
HETATM   25  C3  UNL     1      -2.458  27.567   2.275  1.00  0.00     0.098 A 
HETATM   26  C2  UNL     1      -2.959  28.488   3.201  1.00  0.00    -0.031 A 
HETATM   27  C1  UNL     1      -3.195  28.061   4.607  1.00  0.00     0.050 C 
HETATM   28  C19 UNL     1      -3.229  29.770   2.787  1.00  0.00     0.041 A 
HETATM   29  C18 UNL     1      -2.979  30.046   1.453  1.00  0.00     0.035 A 
HETATM   30  C17 UNL     1      -2.486  29.113   0.575  1.00  0.00     0.092 A 
BRANCH  28  31
HETATM   31  C20 UNL     1      -3.692  30.824   3.680  1.00  0.00     0.258 C 
HETATM   32  O4  UNL     1      -2.892  31.522   4.368  1.00  0.00    -0.267 OA
HETATM   33  N5  UNL     1      -5.091  31.115   3.830  1.00  0.00    -0.299 N 
HETATM   34  C21 UNL     1      -5.577  31.003   5.025  1.00  0.00     0.203 C 
ATOM     35  H5  UNL     1      -5.671  31.394   3.039  1.00  0.00     0.171 HD
HETATM   36  N6  UNL     1      -6.929  31.260   5.293  1.00  0.00    -0.066 NA
HETATM   37  N7  UNL     1      -4.667  30.605   6.075  1.00  0.00    -0.066 NA
ENDBRANCH  28  31
ENDBRANCH  23  24
ENDBRANCH   1  23
TORSDOF 12
ENDMDL
MODEL 2
REMARK VINA RESULT: -8.954066475      2.633      3.508
REMARK  12 active torsions:
REMARK  status: ('A' for Active; 'I' for Inactive)
REMARK    1  A    between atoms: N1_4  and  C4_5 
REMARK    2  A    between atoms: C4_5  and  C5_6 
REMARK    3  A    between atoms: C9_10  and  C10_11 
REMARK    4  A    between atoms: C10_11  and  C11_12 
REMARK       I    between atoms: C11_12  and  N2_14 
REMARK    5  A    between atoms: N2_14  and  C12_16 
REMARK    6  A    between atoms: C12_16  and  C13_17 
REMARK    7  A    between atoms: C12_16  and  N3_21 
REMARK    8  A    between atoms: C13_17  and  C14_18 
REMARK    9  A    between atoms: C14_18  and  C15_19 
REMARK   10  A    between atoms: N3_21  and  N4_22 
REMARK   11  A    between atoms: N3_21  and  O3_25 
REMARK   12  A    between atoms: C19_30  and  C20_31 
REMARK       I    between atoms: C20_31  and  N5_33 
ROOT
HETATM    1  C5  UNL     1       0.491  28.328   0.324  1.00  0.00    -0.040 A 
HETATM    2  C6  UNL     1       1.319  27.206   0.170  1.00  0.00     0.009 A 
HETATM    3  C7  UNL     1       2.518  27.106   0.826  1.00  0.00     0.001 A 
HETATM    4  C8  UNL     1       2.936  28.115   1.656  1.00  0.00     0.007 A 
HETATM    5  C9  UNL     1       2.134  29.256   1.835  1.00  0.00    -0.049 A 
HETATM    6  C16 UNL     1       0.931  29.319   1.157  1.00  0.00     0.016 A 
ENDROOT
BRANCH   5   7
HETATM    7  C10 UNL     1       2.662  30.308   2.726  1.00  0.00     0.141 C 
BRANCH   7   8
HETATM    8  C11 UNL     1       2.339  30.105   4.153  1.00  0.00     0.223 C 
HETATM    9  O1  UNL     1       2.043  31.075   4.901  1.00  0.00    -0.273 OA
HETATM   10  N2  UNL     1       2.348  28.809   4.761  1.00  0.00    -0.340 N 
ATOM     11  H2  UNL     1       2.602  28.014   4.173  1.00  0.00     0.164 HD
BRANCH  10  12
HETATM   12  C12 UNL     1       2.031  28.545   6.120  1.00  0.00     0.208 C 
BRANCH  12  13
HETATM   13  C13 UNL     1       2.439  27.247   6.732  1.00  0.00     0.052 C 
BRANCH  13  14
HETATM   14  C14 UNL     1       3.024  26.211   5.860  1.00  0.00     0.073 C 
BRANCH  14  15
HETATM   15  C15 UNL     1       2.103  25.278   5.203  1.00  0.00     0.231 C 
HETATM   16  O2  UNL     1       0.975  25.081   5.575  1.00  0.00    -0.307 OA
ENDBRANCH  14  15
ENDBRANCH  13  14
ENDBRANCH  12  13
BRANCH  12  17
HETATM   17  N3  UNL     1       0.582  28.663   6.362  1.00  0.00    -0.090 NA
BRANCH  17  18
HETATM   18  N4  UNL     1       0.082  27.576   7.081  1.00  0.00    -0.339 NA
ATOM     19  H42 UNL     1      -0.669  27.164   6.527  1.00  0.00     0.173 HD
ATOM     20  H41 UNL     1      -0.346  27.864   7.961  1.00  0.00     0.173 HD
ENDBRANCH  17  18
BRANCH  17  21
HETATM   21  O3  UNL     1       0.424  29.764   7.133  1.00  0.00    -0.292 OA
ATOM     22  H3  UNL     1      -0.423  29.668   7.552  1.00  0.00     0.239 HD
ENDBRANCH  17  21
ENDBRANCH  12  17
ENDBRANCH  10  12
ENDBRANCH   7   8
ENDBRANCH   5   7
BRANCH   1  23
HETATM   23  C4  UNL     1      -0.743  28.347  -0.446  1.00  0.00     0.166 C 
BRANCH  23  24
HETATM   24  N1  UNL     1      -1.954  28.630   0.290  1.00  0.00    -0.362 N 
HETATM   25  C3  UNL     1      -2.438  27.860   1.259  1.00  0.00     0.098 A 
HETATM   26  C2  UNL     1      -3.602  28.136   1.984  1.00  0.00    -0.031 A 
HETATM   27  C1  UNL     1      -4.049  27.191   3.043  1.00  0.00     0.050 C 
HETATM   28  C19 UNL     1      -4.314  29.275   1.694  1.00  0.00     0.041 A 
HETATM   29  C18 UNL     1      -3.805  30.071   0.682  1.00  0.00     0.035 A 
HETATM   30  C17 UNL     1      -2.658  29.765  -0.007  1.00  0.00     0.092 A 
BRANCH  28  31
HETATM   31  C20 UNL     1      -5.501  29.691   2.429  1.00  0.00     0.258 C 
HETATM   32  O4  UNL     1      -6.662  29.310   2.100  1.00  0.00    -0.267 OA
HETATM   33  N5  UNL     1      -5.410  30.568   3.563  1.00  0.00    -0.299 N 
HETATM   34  C21 UNL     1      -6.059  31.685   3.480  1.00  0.00     0.203 C 
ATOM     35  H5  UNL     1      -4.862  30.325   4.388  1.00  0.00     0.171 HD
HETATM   36  N6  UNL     1      -6.043  32.620   4.524  1.00  0.00    -0.066 NA
HETATM   37  N7  UNL     1      -6.806  31.928   2.267  1.00  0.00    -0.066 NA
ENDBRANCH  28  31
ENDBRANCH  23  24
ENDBRANCH   1  23
TORSDOF 12
ENDMDL
MODEL 3
REMARK VINA RESULT: -8.824404818      1.155      1.380
REMARK  12 active torsions:
REMARK  status: ('A' for Active; 'I' for Inactive)
REMARK    1  A    between atoms: N1_4  and  C4_5 
REMARK    2  A    between atoms: C4_5  and  C5_6 
REMARK    3  A    between atoms: C9_10  and  C10_11 
REMARK    4  A    between atoms: C10_11  and  C11_12 
REMARK       I    between atoms: C11_12  and  N2_14 
REMARK    5  A    between atoms: N2_14  and  C12_16 
REMARK    6  A    between atoms: C12_16  and  C13_17 
REMARK    7  A    between atoms: C12_16  and  N3_21 
REMARK    8  A    between atoms: C13_17  and  C14_18 
REMARK    9  A    between atoms: C14_18  and  C15_19 
REMARK   10  A    between atoms: N3_21  and  N4_22 
REMARK   11  A    between atoms: N3_21  and  O3_25 
REMARK   12  A    between atoms: C19_30  and  C20_31 
REMARK       I    between atoms: C20_31  and  N5_33 
ROOT
HETATM    1  C5  UNL     1      -0.205  26.262   0.150  1.00  0.00    -0.040 A 
HETATM    2  C6  UNL     1      -0.137  24.872   0.327  1.00  0.00     0.009 A 
HETATM    3  C7  UNL     1       1.023  24.257   0.717  1.00  0.00     0.001 A 
HETATM    4  C8  UNL     1       2.155  24.999   0.945  1.00  0.00     0.007 A 
HETATM    5  C9  UNL     1       2.126  26.394   0.779  1.00  0.00    -0.049 A 
HETATM    6  C16 UNL     1       0.936  26.979   0.385  1.00  0.00     0.016 A 
ENDROOT
BRANCH   5   7
HETATM    7  C10 UNL     1       3.387  27.121   1.023  1.00  0.00     0.141 C 
BRANCH   7   8
HETATM    8  C11 UNL     1       3.444  27.806   2.330  1.00  0.00     0.223 C 
HETATM    9  O1  UNL     1       3.030  27.246   3.381  1.00  0.00    -0.273 OA
HETATM   10  N2  UNL     1       3.961  29.134   2.475  1.00  0.00    -0.340 N 
ATOM     11  H2  UNL     1       4.285  29.608   1.631  1.00  0.00     0.164 HD
BRANCH  10  12
HETATM   12  C12 UNL     1       4.059  29.839   3.703  1.00  0.00     0.208 C 
BRANCH  12  13
HETATM   13  C13 UNL     1       2.899  30.645   4.183  1.00  0.00     0.052 C 
BRANCH  13  14
HETATM   14  C14 UNL     1       2.158  30.175   5.370  1.00  0.00     0.073 C 
BRANCH  14  15
HETATM   15  C15 UNL     1       0.904  29.450   5.143  1.00  0.00     0.231 C 
HETATM   16  O2  UNL     1       0.243  29.557   4.142  1.00  0.00    -0.307 OA
ENDBRANCH  14  15
ENDBRANCH  13  14
ENDBRANCH  12  13
BRANCH  12  17
HETATM   17  N3  UNL     1       5.211  30.759   3.700  1.00  0.00    -0.090 NA
BRANCH  17  18
HETATM   18  N4  UNL     1       6.427  30.073   3.687  1.00  0.00    -0.339 NA
ATOM     19  H42 UNL     1       6.213  29.076   3.688  1.00  0.00     0.173 HD
ATOM     20  H41 UNL     1       6.969  30.243   4.534  1.00  0.00     0.173 HD
ENDBRANCH  17  18
BRANCH  17  21
HETATM   21  O3  UNL     1       5.126  31.453   2.542  1.00  0.00    -0.292 OA
ATOM     22  H3  UNL     1       4.491  32.142   2.698  1.00  0.00     0.239 HD
ENDBRANCH  17  21
ENDBRANCH  12  17
ENDBRANCH  10  12
ENDBRANCH   7   8
ENDBRANCH   5   7
BRANCH   1  23
HETATM   23  C4  UNL     1      -1.476  26.808  -0.300  1.00  0.00     0.166 C 
BRANCH  23  24
HETATM   24  N1  UNL     1      -2.360  27.309   0.728  1.00  0.00    -0.362 N 
HETATM   25  C3  UNL     1      -2.918  26.554   1.667  1.00  0.00     0.098 A 
HETATM   26  C2  UNL     1      -3.763  27.036   2.673  1.00  0.00    -0.031 A 
HETATM   27  C1  UNL     1      -4.336  26.088   3.667  1.00  0.00     0.050 C 
HETATM   28  C19 UNL     1      -4.052  28.379   2.715  1.00  0.00     0.041 A 
HETATM   29  C18 UNL     1      -3.469  29.159   1.731  1.00  0.00     0.035 A 
HETATM   30  C17 UNL     1      -2.644  28.648   0.760  1.00  0.00     0.092 A 
BRANCH  28  31
HETATM   31  C20 UNL     1      -4.866  28.995   3.754  1.00  0.00     0.258 C 
HETATM   32  O4  UNL     1      -6.112  29.167   3.618  1.00  0.00    -0.267 OA
HETATM   33  N5  UNL     1      -4.285  29.448   4.988  1.00  0.00    -0.299 N 
HETATM   34  C21 UNL     1      -4.427  30.705   5.262  1.00  0.00     0.203 C 
ATOM     35  H5  UNL     1      -3.789  28.814   5.614  1.00  0.00     0.171 HD
HETATM   36  N6  UNL     1      -3.902  31.262   6.437  1.00  0.00    -0.066 NA
HETATM   37  N7  UNL     1      -5.152  31.514   4.309  1.00  0.00    -0.066 NA
ENDBRANCH  28  31
ENDBRANCH  23  24
ENDBRANCH   1  23
TORSDOF 12
ENDMDL
MODEL 4
REMARK VINA RESULT: -8.817467843      1.344      1.581
REMARK  12 active torsions:
REMARK  status: ('A' for Active; 'I' for Inactive)
REMARK    1  A    between atoms: N1_4  and  C4_5 
REMARK    2  A    between atoms: C4_5  and  C5_6 
REMARK    3  A    between atoms: C9_10  and  C10_11 
REMARK    4  A    between atoms: C10_11  and  C11_12 
REMARK       I    between atoms: C11_12  and  N2_14 
REMARK    5  A    between atoms: N2_14  and  C12_16 
REMARK    6  A    between atoms: C12_16  and  C13_17 
REMARK    7  A    between atoms: C12_16  and  N3_21 
REMARK    8  A    between atoms: C13_17  and  C14_18 
REMARK    9  A    between atoms: C14_18  and  C15_19 
REMARK   10  A    between atoms: N3_21  and  N4_22 
REMARK   11  A    between atoms: N3_21  and  O3_25 
REMARK   12  A    between atoms: C19_30  and  C20_31 
REMARK       I    between atoms: C20_31  and  N5_33 
ROOT
HETATM    1  C5  UNL     1      -0.414  26.363   0.370  1.00  0.00    -0.040 A 
HETATM    2  C6  UNL     1      -0.331  24.964   0.421  1.00  0.00     0.009 A 
HETATM    3  C7  UNL     1       0.851  24.326   0.693  1.00  0.00     0.001 A 
HETATM    4  C8  UNL     1       1.990  25.055   0.924  1.00  0.00     0.007 A 
HETATM    5  C9  UNL     1       1.947  26.459   0.882  1.00  0.00    -0.049 A 
HETATM    6  C16 UNL     1       0.736  27.066   0.605  1.00  0.00     0.016 A 
ENDROOT
BRANCH   5   7
HETATM    7  C10 UNL     1       3.217  27.173   1.120  1.00  0.00     0.141 C 
BRANCH   7   8
HETATM    8  C11 UNL     1       3.279  27.874   2.418  1.00  0.00     0.223 C 
HETATM    9  O1  UNL     1       4.358  27.965   3.063  1.00  0.00    -0.273 OA
HETATM   10  N2  UNL     1       2.126  28.481   3.014  1.00  0.00    -0.340 N 
ATOM     11  H2  UNL     1       1.240  28.403   2.513  1.00  0.00     0.164 HD
BRANCH  10  12
HETATM   12  C12 UNL     1       2.122  29.184   4.248  1.00  0.00     0.208 C 
BRANCH  12  13
HETATM   13  C13 UNL     1       1.101  28.848   5.282  1.00  0.00     0.052 C 
BRANCH  13  14
HETATM   14  C14 UNL     1       1.124  27.499   5.882  1.00  0.00     0.073 C 
BRANCH  14  15
HETATM   15  C15 UNL     1       0.264  26.475   5.281  1.00  0.00     0.231 C 
HETATM   16  O2  UNL     1       0.280  26.192   4.110  1.00  0.00    -0.307 OA
ENDBRANCH  14  15
ENDBRANCH  13  14
ENDBRANCH  12  13
BRANCH  12  17
HETATM   17  N3  UNL     1       2.011  30.638   4.033  1.00  0.00    -0.090 NA
BRANCH  17  18
HETATM   18  N4  UNL     1       1.858  31.333   5.235  1.00  0.00    -0.339 NA
ATOM     19  H42 UNL     1       1.731  30.640   5.973  1.00  0.00     0.173 HD
ATOM     20  H41 UNL     1       1.014  31.904   5.240  1.00  0.00     0.173 HD
ENDBRANCH  17  18
BRANCH  17  21
HETATM   21  O3  UNL     1       3.189  31.023   3.491  1.00  0.00    -0.292 OA
ATOM     22  H3  UNL     1       3.862  30.708   4.082  1.00  0.00     0.239 HD
ENDBRANCH  17  21
ENDBRANCH  12  17
ENDBRANCH  10  12
ENDBRANCH   7   8
ENDBRANCH   5   7
BRANCH   1  23
HETATM   23  C4  UNL     1      -1.709  26.936   0.038  1.00  0.00     0.166 C 
BRANCH  23  24
HETATM   24  N1  UNL     1      -2.257  27.879   0.986  1.00  0.00    -0.362 N 
HETATM   25  C3  UNL     1      -2.421  27.629   2.280  1.00  0.00     0.098 A 
HETATM   26  C2  UNL     1      -2.937  28.543   3.205  1.00  0.00    -0.031 A 
HETATM   27  C1  UNL     1      -3.081  28.142   4.630  1.00  0.00     0.050 C 
HETATM   28  C19 UNL     1      -3.308  29.793   2.771  1.00  0.00     0.041 A 
HETATM   29  C18 UNL     1      -3.137  30.045   1.421  1.00  0.00     0.035 A 
HETATM   30  C17 UNL     1      -2.625  29.121   0.544  1.00  0.00     0.092 A 
BRANCH  28  31
HETATM   31  C20 UNL     1      -3.796  30.840   3.658  1.00  0.00     0.258 C 
HETATM   32  O4  UNL     1      -3.011  31.582   4.318  1.00  0.00    -0.267 OA
HETATM   33  N5  UNL     1      -5.202  31.075   3.834  1.00  0.00    -0.299 N 
HETATM   34  C21 UNL     1      -5.658  30.962   5.040  1.00  0.00     0.203 C 
ATOM     35  H5  UNL     1      -5.809  31.317   3.051  1.00  0.00     0.171 HD
HETATM   36  N6  UNL     1      -7.013  31.167   5.333  1.00  0.00    -0.066 NA
HETATM   37  N7  UNL     1      -4.710  30.620   6.077  1.00  0.00    -0.066 NA
ENDBRANCH  28  31
ENDBRANCH  23  24
ENDBRANCH   1  23
TORSDOF 12
ENDMDL
MODEL 5
REMARK VINA RESULT: -8.795954772      2.824      6.508
REMARK  12 active torsions:
REMARK  status: ('A' for Active; 'I' for Inactive)
REMARK    1  A    between atoms: N1_4  and  C4_5 
REMARK    2  A    between atoms: C4_5  and  C5_6 
REMARK    3  A    between atoms: C9_10  and  C10_11 
REMARK    4  A    between atoms: C10_11  and  C11_12 
REMARK       I    between atoms: C11_12  and  N2_14 
REMARK    5  A    between atoms: N2_14  and  C12_16 
REMARK    6  A    between atoms: C12_16  and  C13_17 
REMARK    7  A    between atoms: C12_16  and  N3_21 
REMARK    8  A    between atoms: C13_17  and  C14_18 
REMARK    9  A    between atoms: C14_18  and  C15_19 
REMARK   10  A    between atoms: N3_21  and  N4_22 
REMARK   11  A    between atoms: N3_21  and  O3_25 
REMARK   12  A    between atoms: C19_30  and  C20_31 
REMARK       I    between atoms: C20_31  and  N5_33 
ROOT
HETATM    1  C5  UNL     1       2.774  28.917   3.760  1.00  0.00    -0.040 A 
HETATM    2  C6  UNL     1       3.573  27.860   4.222  1.00  0.00     0.009 A 
HETATM    3  C7  UNL     1       3.525  27.443   5.527  1.00  0.00     0.001 A 
HETATM    4  C8  UNL     1       2.683  28.061   6.417  1.00  0.00     0.007 A 
HETATM    5  C9  UNL     1       1.866  29.123   5.992  1.00  0.00    -0.049 A 
HETATM    6  C16 UNL     1       1.942  29.514   4.668  1.00  0.00     0.016 A 
ENDROOT
BRANCH   5   7
HETATM    7  C10 UNL     1       1.003  29.750   7.012  1.00  0.00     0.141 C 
BRANCH   7   8
HETATM    8  C11 UNL     1      -0.437  29.471   6.835  1.00  0.00     0.223 C 
HETATM    9  O1  UNL     1      -0.970  28.445   7.337  1.00  0.00    -0.273 OA
HETATM   10  N2  UNL     1      -1.297  30.338   6.088  1.00  0.00    -0.340 N 
ATOM     11  H2  UNL     1      -0.878  31.165   5.662  1.00  0.00     0.164 HD
BRANCH  10  12
HETATM   12  C12 UNL     1      -2.690  30.136   5.897  1.00  0.00     0.208 C 
BRANCH  12  13
HETATM   13  C13 UNL     1      -3.174  29.494   4.640  1.00  0.00     0.052 C 
BRANCH  13  14
HETATM   14  C14 UNL     1      -2.193  29.205   3.575  1.00  0.00     0.073 C 
BRANCH  14  15
HETATM   15  C15 UNL     1      -1.568  27.878   3.572  1.00  0.00     0.231 C 
HETATM   16  O2  UNL     1      -1.947  26.960   4.253  1.00  0.00    -0.307 OA
ENDBRANCH  14  15
ENDBRANCH  13  14
ENDBRANCH  12  13
BRANCH  12  17
HETATM   17  N3  UNL     1      -3.434  31.403   6.012  1.00  0.00    -0.090 NA
BRANCH  17  18
HETATM   18  N4  UNL     1      -4.809  31.216   5.856  1.00  0.00    -0.339 NA
ATOM     19  H42 UNL     1      -5.273  31.739   6.599  1.00  0.00     0.173 HD
ATOM     20  H41 UNL     1      -5.079  30.242   5.990  1.00  0.00     0.173 HD
ENDBRANCH  17  18
BRANCH  17  21
HETATM   21  O3  UNL     1      -3.226  31.840   7.275  1.00  0.00    -0.292 OA
ATOM     22  H3  UNL     1      -3.951  32.422   7.471  1.00  0.00     0.239 HD
ENDBRANCH  17  21
ENDBRANCH  12  17
ENDBRANCH  10  12
ENDBRANCH   7   8
ENDBRANCH   5   7
BRANCH   1  23
HETATM   23  C4  UNL     1       2.930  29.300   2.365  1.00  0.00     0.166 C 
BRANCH  23  24
HETATM   24  N1  UNL     1       1.767  29.141   1.522  1.00  0.00    -0.362 N 
HETATM   25  C3  UNL     1       1.424  28.004   0.927  1.00  0.00     0.098 A 
HETATM   26  C2  UNL     1       0.292  27.842   0.121  1.00  0.00    -0.031 A 
HETATM   27  C1  UNL     1       0.018  26.517  -0.500  1.00  0.00     0.050 C 
HETATM   28  C19 UNL     1      -0.540  28.916  -0.085  1.00  0.00     0.041 A 
HETATM   29  C18 UNL     1      -0.174  30.098   0.536  1.00  0.00     0.035 A 
HETATM   30  C17 UNL     1       0.946  30.218   1.320  1.00  0.00     0.092 A 
BRANCH  28  31
HETATM   31  C20 UNL     1      -1.776  28.840  -0.853  1.00  0.00     0.258 C 
HETATM   32  O4  UNL     1      -2.858  28.427  -0.345  1.00  0.00    -0.267 OA
HETATM   33  N5  UNL     1      -1.820  29.225  -2.236  1.00  0.00    -0.299 N 
HETATM   34  C21 UNL     1      -2.194  28.313  -3.075  1.00  0.00     0.203 C 
ATOM     35  H5  UNL     1      -1.571  30.166  -2.541  1.00  0.00     0.171 HD
HETATM   36  N6  UNL     1      -2.275  28.572  -4.451  1.00  0.00    -0.066 NA
HETATM   37  N7  UNL     1      -2.529  27.015  -2.536  1.00  0.00    -0.066 NA
ENDBRANCH  28  31
ENDBRANCH  23  24
ENDBRANCH   1  23
TORSDOF 12
ENDMDL
