MODEL 1
REMARK VINA RESULT: -8.777691071      0.000      0.000
REMARK  10 active torsions:
REMARK  status: ('A' for Active; 'I' for Inactive)
REMARK    1  A    between atoms: C6_7  and  C7_8 
REMARK    2  A    between atoms: C7_8  and  N2_9 
REMARK       I    between atoms: C8_11  and  N3_12 
REMARK       I    between atoms: C8_11  and  N4_21 
REMARK    3  A    between atoms: N3_12  and  C9_14 
REMARK    4  A    between atoms: C9_14  and  C10_15 
REMARK    5  A    between atoms: C10_15  and  O1_16 
REMARK    6  A    between atoms: O1_16  and  C11_17 
REMARK    7  A    between atoms: C11_17  and  C12_18 
REMARK    8  A    between atoms: C12_18  and  O2_19 
REMARK    9  A    between atoms: N4_21  and  C13_23 
REMARK   10  A    between atoms: C13_23  and  C14_24 
REMARK       I    between atoms: C14_24  and  N5_26 
ROOT
HETATM    1  N2  UNL     1      -1.472  29.645   2.732  1.00  0.00    -0.200 N 
ATOM      2  H2  UNL     1      -0.875  29.213   3.438  1.00  0.00     0.183 HD
HETATM    3  C8  UNL     1      -2.655  29.974   3.108  1.00  0.00     0.674 C 
HETATM    4  N3  UNL     1      -3.608  30.584   2.250  1.00  0.00    -0.224 N 
ATOM      5  H3  UNL     1      -3.532  31.572   2.010  1.00  0.00     0.177 HD
HETATM    6  N4  UNL     1      -3.027  29.714   4.450  1.00  0.00    -0.217 N 
ATOM      7  H4  UNL     1      -2.789  28.813   4.864  1.00  0.00     0.178 HD
ENDROOT
BRANCH   1   8
HETATM    8  C7  UNL     1      -0.911  29.814   1.458  1.00  0.00     0.136 C 
BRANCH   8   9
HETATM    9  C6  UNL     1       0.011  28.759   1.035  1.00  0.00     0.057 A 
HETATM   10  N1  UNL     1      -0.289  27.754   0.214  1.00  0.00    -0.360 N 
HETATM   11  C1  UNL     1      -1.623  27.591  -0.389  1.00  0.00     0.156 C 
HETATM   12  C2  UNL     1       0.675  26.838  -0.085  1.00  0.00     0.091 A 
HETATM   13  C3  UNL     1       1.954  26.873   0.407  1.00  0.00     0.026 A 
HETATM   14  C4  UNL     1       2.270  27.891   1.244  1.00  0.00    -0.022 A 
HETATM   15  C5  UNL     1       1.309  28.815   1.549  1.00  0.00    -0.020 A 
HETATM   16  C20 UNL     1       3.610  28.072   1.863  1.00  0.00     0.275 C 
HETATM   17  C16 UNL     1       1.752  29.905   2.470  1.00  0.00     0.069 C 
HETATM   18  C17 UNL     1       2.457  29.272   3.615  1.00  0.00     0.241 C 
HETATM   19  N8  UNL     1       3.421  28.284   3.276  1.00  0.00    -0.071 N 
HETATM   20  C18 UNL     1       4.745  28.614   3.827  1.00  0.00     0.272 C 
HETATM   21  C19 UNL     1       3.052  27.004   3.859  1.00  0.00     0.272 C 
ENDBRANCH   8   9
ENDBRANCH   1   8
BRANCH   4  22
HETATM   22  C9  UNL     1      -4.709  29.764   1.715  1.00  0.00     0.164 C 
BRANCH  22  23
HETATM   23  C10 UNL     1      -6.029  30.266   2.198  1.00  0.00     0.188 C 
BRANCH  23  24
HETATM   24  O1  UNL     1      -6.161  31.619   1.952  1.00  0.00    -0.387 OA
BRANCH  24  25
HETATM   25  C11 UNL     1      -6.399  32.398   3.065  1.00  0.00     0.193 C 
BRANCH  25  26
HETATM   26  C12 UNL     1      -6.303  33.870   2.632  1.00  0.00     0.190 C 
BRANCH  26  27
HETATM   27  O2  UNL     1      -7.537  34.387   2.306  1.00  0.00    -0.399 OA
ATOM     28  H2  UNL     1      -8.166  33.702   2.116  1.00  0.00     0.209 HD
ENDBRANCH  26  27
ENDBRANCH  25  26
ENDBRANCH  24  25
ENDBRANCH  23  24
ENDBRANCH  22  23
ENDBRANCH   4  22
BRANCH   6  29
HETATM   29  C13 UNL     1      -3.731  30.685   5.246  1.00  0.00     0.241 C 
BRANCH  29  30
HETATM   30  C14 UNL     1      -2.886  31.237   6.332  1.00  0.00     0.241 C 
HETATM   31  O3  UNL     1      -3.411  31.885   7.275  1.00  0.00    -0.271 OA
HETATM   32  N5  UNL     1      -1.496  31.023   6.285  1.00  0.00    -0.302 N 
HETATM   33  C15 UNL     1      -0.904  29.975   6.714  1.00  0.00     0.203 C 
ATOM     34  H5  UNL     1      -0.919  31.759   5.878  1.00  0.00     0.171 HD
HETATM   35  N6  UNL     1       0.492  29.873   6.612  1.00  0.00    -0.066 NA
HETATM   36  N7  UNL     1      -1.659  28.931   7.285  1.00  0.00    -0.066 NA
ENDBRANCH  29  30
ENDBRANCH   6  29
TORSDOF 10
ENDMDL
MODEL 2
REMARK VINA RESULT: -8.669739073      3.557      8.744
REMARK  10 active torsions:
REMARK  status: ('A' for Active; 'I' for Inactive)
REMARK    1  A    between atoms: C6_7  and  C7_8 
REMARK    2  A    between atoms: C7_8  and  N2_9 
REMARK       I    between atoms: C8_11  and  N3_12 
REMARK       I    between atoms: C8_11  and  N4_21 
REMARK    3  A    between atoms: N3_12  and  C9_14 
REMARK    4  A    between atoms: C9_14  and  C10_15 
REMARK    5  A    between atoms: C10_15  and  O1_16 
REMARK    6  A    between atoms: O1_16  and  C11_17 
REMARK    7  A    between atoms: C11_17  and  C12_18 
REMARK    8  A    between atoms: C12_18  and  O2_19 
REMARK    9  A    between atoms: N4_21  and  C13_23 
REMARK   10  A    between atoms: C13_23  and  C14_24 
REMARK       I    between atoms: C14_24  and  N5_26 
ROOT
HETATM    1  N2  UNL     1      -3.372  29.644   3.155  1.00  0.00    -0.200 N 
ATOM      2  H2  UNL     1      -4.091  29.368   2.487  1.00  0.00     0.183 HD
HETATM    3  C8  UNL     1      -2.154  29.486   2.781  1.00  0.00     0.674 C 
HETATM    4  N3  UNL     1      -1.036  29.820   3.591  1.00  0.00    -0.224 N 
ATOM      5  H3  UNL     1      -0.754  30.793   3.710  1.00  0.00     0.177 HD
HETATM    6  N4  UNL     1      -1.914  28.949   1.492  1.00  0.00    -0.217 N 
ATOM      7  H4  UNL     1      -2.461  28.147   1.180  1.00  0.00     0.178 HD
ENDROOT
BRANCH   1   8
HETATM    8  C7  UNL     1      -3.822  30.155   4.382  1.00  0.00     0.136 C 
BRANCH   8   9
HETATM    9  C6  UNL     1      -4.845  29.354   5.056  1.00  0.00     0.057 A 
HETATM   10  N1  UNL     1      -4.618  28.461   6.018  1.00  0.00    -0.360 N 
HETATM   11  C1  UNL     1      -3.269  28.175   6.536  1.00  0.00     0.156 C 
HETATM   12  C2  UNL     1      -5.675  27.783   6.548  1.00  0.00     0.091 A 
HETATM   13  C3  UNL     1      -6.978  27.953   6.158  1.00  0.00     0.026 A 
HETATM   14  C4  UNL     1      -7.219  28.859   5.179  1.00  0.00    -0.022 A 
HETATM   15  C5  UNL     1      -6.165  29.545   4.642  1.00  0.00    -0.020 A 
HETATM   16  C20 UNL     1      -8.573  29.161   4.642  1.00  0.00     0.275 C 
HETATM   17  C16 UNL     1      -6.530  30.528   3.577  1.00  0.00     0.069 C 
HETATM   18  C17 UNL     1      -7.440  29.845   2.621  1.00  0.00     0.241 C 
HETATM   19  N8  UNL     1      -8.503  29.103   3.204  1.00  0.00    -0.071 N 
HETATM   20  C18 UNL     1      -9.811  29.558   2.706  1.00  0.00     0.272 C 
HETATM   21  C19 UNL     1      -8.398  27.701   2.833  1.00  0.00     0.272 C 
ENDBRANCH   8   9
ENDBRANCH   1   8
BRANCH   4  22
HETATM   22  C9  UNL     1      -0.291  28.736   4.255  1.00  0.00     0.164 C 
BRANCH  22  23
HETATM   23  C10 UNL     1       1.161  28.803   3.914  1.00  0.00     0.188 C 
BRANCH  23  24
HETATM   24  O1  UNL     1       1.516  30.079   3.521  1.00  0.00    -0.387 OA
BRANCH  24  25
HETATM   25  C11 UNL     1       2.369  30.144   2.438  1.00  0.00     0.193 C 
BRANCH  25  26
HETATM   26  C12 UNL     1       3.360  28.975   2.556  1.00  0.00     0.190 C 
BRANCH  26  27
HETATM   27  O2  UNL     1       3.686  28.457   1.323  1.00  0.00    -0.399 OA
ATOM     28  H2  UNL     1       3.470  27.534   1.261  1.00  0.00     0.209 HD
ENDBRANCH  26  27
ENDBRANCH  25  26
ENDBRANCH  24  25
ENDBRANCH  23  24
ENDBRANCH  22  23
ENDBRANCH   4  22
BRANCH   6  29
HETATM   29  C13 UNL     1      -0.921  29.505   0.610  1.00  0.00     0.241 C 
BRANCH  29  30
HETATM   30  C14 UNL     1      -0.280  28.467  -0.234  1.00  0.00     0.241 C 
HETATM   31  O3  UNL     1       0.808  27.944   0.125  1.00  0.00    -0.271 OA
HETATM   32  N5  UNL     1      -0.908  28.085  -1.433  1.00  0.00    -0.302 N 
HETATM   33  C15 UNL     1      -1.836  27.211  -1.525  1.00  0.00     0.203 C 
ATOM     34  H5  UNL     1      -0.600  28.539  -2.293  1.00  0.00     0.171 HD
HETATM   35  N6  UNL     1      -2.390  26.913  -2.778  1.00  0.00    -0.066 NA
HETATM   36  N7  UNL     1      -2.295  26.557  -0.364  1.00  0.00    -0.066 NA
ENDBRANCH  29  30
ENDBRANCH   6  29
TORSDOF 10
ENDMDL
MODEL 3
REMARK VINA RESULT: -8.648714794      2.239      2.524
REMARK  10 active torsions:
REMARK  status: ('A' for Active; 'I' for Inactive)
REMARK    1  A    between atoms: C6_7  and  C7_8 
REMARK    2  A    between atoms: C7_8  and  N2_9 
REMARK       I    between atoms: C8_11  and  N3_12 
REMARK       I    between atoms: C8_11  and  N4_21 
REMARK    3  A    between atoms: N3_12  and  C9_14 
REMARK    4  A    between atoms: C9_14  and  C10_15 
REMARK    5  A    between atoms: C10_15  and  O1_16 
REMARK    6  A    between atoms: O1_16  and  C11_17 
REMARK    7  A    between atoms: C11_17  and  C12_18 
REMARK    8  A    between atoms: C12_18  and  O2_19 
REMARK    9  A    between atoms: N4_21  and  C13_23 
REMARK   10  A    between atoms: C13_23  and  C14_24 
REMARK       I    between atoms: C14_24  and  N5_26 
ROOT
HETATM    1  N2  UNL     1      -2.371  27.473   1.344  1.00  0.00    -0.200 N 
ATOM      2  H2  UNL     1      -2.687  26.504   1.312  1.00  0.00     0.183 HD
HETATM    3  C8  UNL     1      -2.912  28.222   2.235  1.00  0.00     0.674 C 
HETATM    4  N3  UNL     1      -2.584  29.593   2.411  1.00  0.00    -0.224 N 
ATOM      5  H3  UNL     1      -1.716  29.863   2.873  1.00  0.00     0.177 HD
HETATM    6  N4  UNL     1      -3.888  27.650   3.088  1.00  0.00    -0.217 N 
ATOM      7  H4  UNL     1      -4.605  27.047   2.685  1.00  0.00     0.178 HD
ENDROOT
BRANCH   1   8
HETATM    8  C7  UNL     1      -1.393  27.841   0.408  1.00  0.00     0.136 C 
BRANCH   8   9
HETATM    9  C6  UNL     1      -0.078  27.229   0.604  1.00  0.00     0.057 A 
HETATM   10  N1  UNL     1       0.213  25.944   0.410  1.00  0.00    -0.360 N 
HETATM   11  C1  UNL     1      -0.787  24.962  -0.046  1.00  0.00     0.156 C 
HETATM   12  C2  UNL     1       1.486  25.515   0.641  1.00  0.00     0.091 A 
HETATM   13  C3  UNL     1       2.508  26.322   1.067  1.00  0.00     0.026 A 
HETATM   14  C4  UNL     1       2.223  27.632   1.268  1.00  0.00    -0.022 A 
HETATM   15  C5  UNL     1       0.948  28.071   1.038  1.00  0.00    -0.020 A 
HETATM   16  C20 UNL     1       3.217  28.637   1.730  1.00  0.00     0.275 C 
HETATM   17  C16 UNL     1       0.732  29.530   1.276  1.00  0.00     0.069 C 
HETATM   18  C17 UNL     1       1.327  29.868   2.596  1.00  0.00     0.241 C 
HETATM   19  N8  UNL     1       2.635  29.364   2.830  1.00  0.00    -0.071 N 
HETATM   20  C18 UNL     1       3.577  30.447   3.156  1.00  0.00     0.272 C 
HETATM   21  C19 UNL     1       2.632  28.475   3.980  1.00  0.00     0.272 C 
ENDBRANCH   8   9
ENDBRANCH   1   8
BRANCH   4  22
HETATM   22  C9  UNL     1      -3.520  30.616   1.914  1.00  0.00     0.164 C 
BRANCH  22  23
HETATM   23  C10 UNL     1      -4.207  31.303   3.048  1.00  0.00     0.188 C 
BRANCH  23  24
HETATM   24  O1  UNL     1      -4.702  32.530   2.653  1.00  0.00    -0.387 OA
BRANCH  24  25
HETATM   25  C11 UNL     1      -6.079  32.635   2.651  1.00  0.00     0.193 C 
BRANCH  25  26
HETATM   26  C12 UNL     1      -6.432  34.116   2.865  1.00  0.00     0.190 C 
BRANCH  26  27
HETATM   27  O2  UNL     1      -6.809  34.367   4.165  1.00  0.00    -0.399 OA
ATOM     28  H2  UNL     1      -7.719  34.139   4.318  1.00  0.00     0.209 HD
ENDBRANCH  26  27
ENDBRANCH  25  26
ENDBRANCH  24  25
ENDBRANCH  23  24
ENDBRANCH  22  23
ENDBRANCH   4  22
BRANCH   6  29
HETATM   29  C13 UNL     1      -3.895  27.893   4.506  1.00  0.00     0.241 C 
BRANCH  29  30
HETATM   30  C14 UNL     1      -3.294  26.773   5.269  1.00  0.00     0.241 C 
HETATM   31  O3  UNL     1      -3.829  25.634   5.248  1.00  0.00    -0.271 OA
HETATM   32  N5  UNL     1      -2.122  27.010   6.011  1.00  0.00    -0.302 N 
HETATM   33  C15 UNL     1      -0.937  26.975   5.534  1.00  0.00     0.203 C 
ATOM     34  H5  UNL     1      -2.226  27.225   7.002  1.00  0.00     0.171 HD
HETATM   35  N6  UNL     1       0.159  27.230   6.372  1.00  0.00    -0.066 NA
HETATM   36  N7  UNL     1      -0.742  26.681   4.170  1.00  0.00    -0.066 NA
ENDBRANCH  29  30
ENDBRANCH   6  29
TORSDOF 10
ENDMDL
MODEL 4
REMARK VINA RESULT: -8.541996166      3.270      5.330
REMARK  10 active torsions:
REMARK  status: ('A' for Active; 'I' for Inactive)
REMARK    1  A    between atoms: C6_7  and  C7_8 
REMARK    2  A    between atoms: C7_8  and  N2_9 
REMARK       I    between atoms: C8_11  and  N3_12 
REMARK       I    between atoms: C8_11  and  N4_21 
REMARK    3  A    between atoms: N3_12  and  C9_14 
REMARK    4  A    between atoms: C9_14  and  C10_15 
REMARK    5  A    between atoms: C10_15  and  O1_16 
REMARK    6  A    between atoms: O1_16  and  C11_17 
REMARK    7  A    between atoms: C11_17  and  C12_18 
REMARK    8  A    between atoms: C12_18  and  O2_19 
REMARK    9  A    between atoms: N4_21  and  C13_23 
REMARK   10  A    between atoms: C13_23  and  C14_24 
REMARK       I    between atoms: C14_24  and  N5_26 
ROOT
HETATM    1  N2  UNL     1      -0.966  28.353   1.542  1.00  0.00    -0.200 N 
ATOM      2  H2  UNL     1      -1.351  28.014   2.423  1.00  0.00     0.183 HD
HETATM    3  C8  UNL     1      -1.785  28.949   0.753  1.00  0.00     0.674 C 
HETATM    4  N3  UNL     1      -1.410  29.481  -0.509  1.00  0.00    -0.224 N 
ATOM      5  H3  UNL     1      -0.891  30.357  -0.570  1.00  0.00     0.177 HD
HETATM    6  N4  UNL     1      -3.134  29.083   1.164  1.00  0.00    -0.217 N 
ATOM      7  H4  UNL     1      -3.605  28.281   1.584  1.00  0.00     0.178 HD
ENDROOT
BRANCH   1   8
HETATM    8  C7  UNL     1       0.399  28.119   1.325  1.00  0.00     0.136 C 
BRANCH   8   9
HETATM    9  C6  UNL     1       1.044  27.233   2.296  1.00  0.00     0.057 A 
HETATM   10  N1  UNL     1       1.092  25.904   2.217  1.00  0.00    -0.360 N 
HETATM   11  C1  UNL     1       0.489  25.152   1.103  1.00  0.00     0.156 C 
HETATM   12  C2  UNL     1       1.724  25.208   3.204  1.00  0.00     0.091 A 
HETATM   13  C3  UNL     1       2.324  25.784   4.294  1.00  0.00     0.026 A 
HETATM   14  C4  UNL     1       2.280  27.136   4.384  1.00  0.00    -0.022 A 
HETATM   15  C5  UNL     1       1.649  27.842   3.397  1.00  0.00    -0.020 A 
HETATM   16  C20 UNL     1       2.881  27.914   5.501  1.00  0.00     0.275 C 
HETATM   17  C16 UNL     1       1.661  29.325   3.578  1.00  0.00     0.069 C 
HETATM   18  C17 UNL     1       1.249  29.616   4.976  1.00  0.00     0.241 C 
HETATM   19  N8  UNL     1       1.887  28.840   5.981  1.00  0.00    -0.071 N 
HETATM   20  C18 UNL     1       2.561  29.694   6.972  1.00  0.00     0.272 C 
HETATM   21  C19 UNL     1       0.901  28.069   6.721  1.00  0.00     0.272 C 
ENDBRANCH   8   9
ENDBRANCH   1   8
BRANCH   4  22
HETATM   22  C9  UNL     1      -1.785  28.744  -1.729  1.00  0.00     0.164 C 
BRANCH  22  23
HETATM   23  C10 UNL     1      -0.686  27.826  -2.154  1.00  0.00     0.188 C 
BRANCH  23  24
HETATM   24  O1  UNL     1      -0.384  28.004  -3.490  1.00  0.00    -0.387 OA
BRANCH  24  25
HETATM   25  C11 UNL     1      -1.278  28.785  -4.195  1.00  0.00     0.193 C 
BRANCH  25  26
HETATM   26  C12 UNL     1      -1.141  28.421  -5.682  1.00  0.00     0.190 C 
BRANCH  26  27
HETATM   27  O2  UNL     1       0.136  28.011  -5.991  1.00  0.00    -0.399 OA
ATOM     28  H2  UNL     1       0.464  27.377  -5.364  1.00  0.00     0.209 HD
ENDBRANCH  26  27
ENDBRANCH  25  26
ENDBRANCH  24  25
ENDBRANCH  23  24
ENDBRANCH  22  23
ENDBRANCH   4  22
BRANCH   6  29
HETATM   29  C13 UNL     1      -3.858  30.317   1.009  1.00  0.00     0.241 C 
BRANCH  29  30
HETATM   30  C14 UNL     1      -5.048  30.383   1.892  1.00  0.00     0.241 C 
HETATM   31  O3  UNL     1      -6.132  29.852   1.533  1.00  0.00    -0.271 OA
HETATM   32  N5  UNL     1      -4.939  31.045   3.128  1.00  0.00    -0.302 N 
HETATM   33  C15 UNL     1      -4.496  30.516   4.204  1.00  0.00     0.203 C 
ATOM     34  H5  UNL     1      -5.235  32.020   3.169  1.00  0.00     0.171 HD
HETATM   35  N6  UNL     1      -4.432  31.277   5.380  1.00  0.00    -0.066 NA
HETATM   36  N7  UNL     1      -4.075  29.171   4.197  1.00  0.00    -0.066 NA
ENDBRANCH  29  30
ENDBRANCH   6  29
TORSDOF 10
ENDMDL
MODEL 5
REMARK VINA RESULT: -8.522526408      1.733      2.039
REMARK  10 active torsions:
REMARK  status: ('A' for Active; 'I' for Inactive)
REMARK    1  A    between atoms: C6_7  and  C7_8 
REMARK    2  A    between atoms: C7_8  and  N2_9 
REMARK       I    between atoms: C8_11  and  N3_12 
REMARK       I    between atoms: C8_11  and  N4_21 
REMARK    3  A    between atoms: N3_12  and  C9_14 
REMARK    4  A    between atoms: C9_14  and  C10_15 
REMARK    5  A    between atoms: C10_15  and  O1_16 
REMARK    6  A    between atoms: O1_16  and  C11_17 
REMARK    7  A    between atoms: C11_17  and  C12_18 
REMARK    8  A    between atoms: C12_18  and  O2_19 
REMARK    9  A    between atoms: N4_21  and  C13_23 
REMARK   10  A    between atoms: C13_23  and  C14_24 
REMARK       I    between atoms: C14_24  and  N5_26 
ROOT
HETATM    1  N2  UNL     1      -2.035  27.802   2.746  1.00  0.00    -0.200 N 
ATOM      2  H2  UNL     1      -2.120  26.896   3.206  1.00  0.00     0.183 HD
HETATM    3  C8  UNL     1      -2.465  28.818   3.402  1.00  0.00     0.674 C 
HETATM    4  N3  UNL     1      -2.418  30.148   2.906  1.00  0.00    -0.224 N 
ATOM      5  H3  UNL     1      -1.541  30.668   2.897  1.00  0.00     0.177 HD
HETATM    6  N4  UNL     1      -3.016  28.600   4.689  1.00  0.00    -0.217 N 
ATOM      7  H4  UNL     1      -3.661  27.823   4.826  1.00  0.00     0.178 HD
ENDROOT
BRANCH   1   8
HETATM    8  C7  UNL     1      -1.458  27.801   1.468  1.00  0.00     0.136 C 
BRANCH   8   9
HETATM    9  C6  UNL     1      -0.276  26.953   1.315  1.00  0.00     0.057 A 
HETATM   10  N1  UNL     1      -0.286  25.670   0.955  1.00  0.00    -0.360 N 
HETATM   11  C1  UNL     1      -1.528  24.939   0.653  1.00  0.00     0.156 C 
HETATM   12  C2  UNL     1       0.900  25.004   0.861  1.00  0.00     0.091 A 
HETATM   13  C3  UNL     1       2.124  25.564   1.115  1.00  0.00     0.026 A 
HETATM   14  C4  UNL     1       2.146  26.870   1.481  1.00  0.00    -0.022 A 
HETATM   15  C5  UNL     1       0.961  27.546   1.577  1.00  0.00    -0.020 A 
HETATM   16  C20 UNL     1       3.389  27.625   1.792  1.00  0.00     0.275 C 
HETATM   17  C16 UNL     1       1.085  28.980   1.978  1.00  0.00     0.069 C 
HETATM   18  C17 UNL     1       1.990  29.047   3.155  1.00  0.00     0.241 C 
HETATM   19  N8  UNL     1       3.195  28.301   3.050  1.00  0.00    -0.071 N 
HETATM   20  C18 UNL     1       4.376  29.157   3.247  1.00  0.00     0.272 C 
HETATM   21  C19 UNL     1       3.254  27.292   4.095  1.00  0.00     0.272 C 
ENDBRANCH   8   9
ENDBRANCH   1   8
BRANCH   4  22
HETATM   22  C9  UNL     1      -3.660  30.763   2.404  1.00  0.00     0.164 C 
BRANCH  22  23
HETATM   23  C10 UNL     1      -4.203  29.993   1.246  1.00  0.00     0.188 C 
BRANCH  23  24
HETATM   24  O1  UNL     1      -5.583  29.944   1.291  1.00  0.00    -0.387 OA
BRANCH  24  25
HETATM   25  C11 UNL     1      -6.136  30.112   2.545  1.00  0.00     0.193 C 
BRANCH  25  26
HETATM   26  C12 UNL     1      -7.465  30.865   2.370  1.00  0.00     0.190 C 
BRANCH  26  27
HETATM   27  O2  UNL     1      -7.263  32.189   2.051  1.00  0.00    -0.399 OA
ATOM     28  H2  UNL     1      -7.444  32.760   2.789  1.00  0.00     0.209 HD
ENDBRANCH  26  27
ENDBRANCH  25  26
ENDBRANCH  24  25
ENDBRANCH  23  24
ENDBRANCH  22  23
ENDBRANCH   4  22
BRANCH   6  29
HETATM   29  C13 UNL     1      -2.689  29.444   5.809  1.00  0.00     0.241 C 
BRANCH  29  30
HETATM   30  C14 UNL     1      -2.186  28.666   6.967  1.00  0.00     0.241 C 
HETATM   31  O3  UNL     1      -2.984  28.266   7.855  1.00  0.00    -0.271 OA
HETATM   32  N5  UNL     1      -0.810  28.387   7.050  1.00  0.00    -0.302 N 
HETATM   33  C15 UNL     1      -0.227  27.407   6.474  1.00  0.00     0.203 C 
ATOM     34  H5  UNL     1      -0.234  29.014   7.612  1.00  0.00     0.171 HD
HETATM   35  N6  UNL     1       1.156  27.230   6.628  1.00  0.00    -0.066 NA
HETATM   36  N7  UNL     1      -0.980  26.513   5.687  1.00  0.00    -0.066 NA
ENDBRANCH  29  30
ENDBRANCH   6  29
TORSDOF 10
ENDMDL
