MODEL 1
REMARK VINA RESULT: -9.647802366      0.000      0.000
REMARK  9 active torsions:
REMARK  status: ('A' for Active; 'I' for Inactive)
REMARK    1  A    between atoms: S1_2  and  C2_4 
REMARK    2  A    between atoms: C2_4  and  C3_5 
REMARK    3  A    between atoms: C3_5  and  C4_6 
REMARK    4  A    between atoms: C4_6  and  N1_7 
REMARK    5  A    between atoms: C4_6  and  C14_32 
REMARK       I    between atoms: N1_7  and  C5_9 
REMARK    6  A    between atoms: C5_9  and  C6_11 
REMARK       I    between atoms: N4_16  and  C8_18 
REMARK    7  A    between atoms: C9_25  and  C10_26 
REMARK    8  A    between atoms: C10_26  and  C11_27 
REMARK    9  A    between atoms: C11_27  and  C12_28 
ROOT
HETATM    1  C6  UNL     1      -2.626  29.411   0.123  1.00  0.00     0.125 C 
HETATM    2  N2  UNL     1      -2.865  29.651  -1.118  1.00  0.00    -0.280 N 
ATOM      3  H2  UNL     1      -3.556  30.218  -1.607  1.00  0.00     0.187 HD
HETATM    4  N3  UNL     1      -1.835  28.853  -1.529  1.00  0.00    -0.107 N 
HETATM    5  C7  UNL     1      -0.876  28.051  -2.195  1.00  0.00     0.702 C 
HETATM    6  N4  UNL     1      -0.591  28.044  -3.435  1.00  0.00    -0.162 N 
ATOM      7  H4  UNL     1       0.132  27.387  -3.725  1.00  0.00     0.187 HD
HETATM    8  C8  UNL     1      -1.154  28.831  -4.452  1.00  0.00     0.200 C 
HETATM    9  N5  UNL     1      -2.165  29.590  -4.224  1.00  0.00    -0.373 N 
ATOM     10  H51 UNL     1      -2.574  30.162  -4.962  1.00  0.00     0.158 HD
ATOM     11  H52 UNL     1      -2.586  29.641  -3.296  1.00  0.00     0.158 HD
HETATM   12  N6  UNL     1      -0.569  28.760  -5.739  1.00  0.00    -0.063 NA
HETATM   13  N7  UNL     1      -0.240  27.195  -1.207  1.00  0.00    -0.195 N 
ATOM     14  H7  UNL     1       0.473  26.488  -1.383  1.00  0.00     0.184 HD
HETATM   15  C9  UNL     1      -0.770  27.517  -0.023  1.00  0.00     0.036 C 
HETATM   16  C13 UNL     1      -1.447  28.763  -0.141  1.00  0.00     0.229 C 
ENDROOT
BRANCH   1  17
HETATM   17  C5  UNL     1      -3.369  29.930   1.316  1.00  0.00     0.272 C 
HETATM   18  N1  UNL     1      -4.760  30.129   1.305  1.00  0.00    -0.321 N 
ATOM     19  H1  UNL     1      -5.198  29.870   0.421  1.00  0.00     0.169 HD
HETATM   20  O2  UNL     1      -2.704  30.183   2.330  1.00  0.00    -0.266 OA
BRANCH  18  21
HETATM   21  C4  UNL     1      -5.668  30.608   2.250  1.00  0.00     0.042 C 
BRANCH  21  22
HETATM   22  C3  UNL     1      -5.301  31.561   3.307  1.00  0.00     0.016 C 
BRANCH  22  23
HETATM   23  C2  UNL     1      -5.698  31.407   4.702  1.00  0.00     0.137 C 
BRANCH  23  24
HETATM   24  S1  UNL     1      -4.360  30.520   5.571  1.00  0.00     0.014 S 
HETATM   25  C1  UNL     1      -5.039  29.134   6.412  1.00  0.00     0.127 C 
HETATM   26  O1  UNL     1      -3.569  31.597   6.574  1.00  0.00    -0.258 OA
ENDBRANCH  23  24
ENDBRANCH  22  23
ENDBRANCH  21  22
BRANCH  21  27
HETATM   27  C14 UNL     1      -6.701  29.611   2.607  1.00  0.00    -0.010 A 
HETATM   28  C15 UNL     1      -8.028  29.941   2.476  1.00  0.00     0.013 A 
HETATM   29  C16 UNL     1      -9.039  29.055   2.773  1.00  0.00     0.001 A 
HETATM   30  C17 UNL     1      -8.724  27.778   3.222  1.00  0.00     0.000 A 
HETATM   31  C18 UNL     1      -7.396  27.431   3.357  1.00  0.00     0.001 A 
HETATM   32  C19 UNL     1      -6.396  28.349   3.050  1.00  0.00     0.013 A 
ENDBRANCH  21  27
ENDBRANCH  18  21
ENDBRANCH   1  17
BRANCH  15  33
HETATM   33  C10 UNL     1      -0.380  26.802   1.210  1.00  0.00     0.064 C 
BRANCH  33  34
HETATM   34  C11 UNL     1       0.202  25.440   0.982  1.00  0.00     0.105 C 
BRANCH  34  35
HETATM   35  C12 UNL     1      -0.996  24.616   0.448  1.00  0.00     0.231 C 
HETATM   36  N8  UNL     1      -2.035  24.505   1.429  1.00  0.00    -0.062 NA
HETATM   37  O3  UNL     1      -1.053  24.138  -0.633  1.00  0.00    -0.277 OA
ENDBRANCH  34  35
ENDBRANCH  33  34
ENDBRANCH  15  33
TORSDOF 9
ENDMDL
MODEL 2
REMARK VINA RESULT: -9.487631619      7.869     11.871
REMARK  9 active torsions:
REMARK  status: ('A' for Active; 'I' for Inactive)
REMARK    1  A    between atoms: S1_2  and  C2_4 
REMARK    2  A    between atoms: C2_4  and  C3_5 
REMARK    3  A    between atoms: C3_5  and  C4_6 
REMARK    4  A    between atoms: C4_6  and  N1_7 
REMARK    5  A    between atoms: C4_6  and  C14_32 
REMARK       I    between atoms: N1_7  and  C5_9 
REMARK    6  A    between atoms: C5_9  and  C6_11 
REMARK       I    between atoms: N4_16  and  C8_18 
REMARK    7  A    between atoms: C9_25  and  C10_26 
REMARK    8  A    between atoms: C10_26  and  C11_27 
REMARK    9  A    between atoms: C11_27  and  C12_28 
ROOT
HETATM    1  C6  UNL     1      -3.393  28.778  -8.650  1.00  0.00     0.125 C 
HETATM    2  N2  UNL     1      -3.417  29.027  -7.388  1.00  0.00    -0.280 N 
ATOM      3  H2  UNL     1      -4.114  29.427  -6.760  1.00  0.00     0.187 HD
HETATM    4  N3  UNL     1      -2.150  28.547  -7.211  1.00  0.00    -0.107 N 
HETATM    5  C7  UNL     1      -0.853  28.164  -6.790  1.00  0.00     0.702 C 
HETATM    6  N4  UNL     1      -0.417  28.069  -5.599  1.00  0.00    -0.162 N 
ATOM      7  H4  UNL     1       0.555  27.778  -5.499  1.00  0.00     0.187 HD
HETATM    8  C8  UNL     1      -1.112  28.319  -4.405  1.00  0.00     0.200 C 
HETATM    9  N5  UNL     1      -2.294  28.822  -4.415  1.00  0.00    -0.373 N 
ATOM     10  H51 UNL     1      -2.799  29.003  -3.548  1.00  0.00     0.158 HD
ATOM     11  H52 UNL     1      -2.759  29.053  -5.293  1.00  0.00     0.158 HD
HETATM   12  N6  UNL     1      -0.465  27.997  -3.187  1.00  0.00    -0.063 NA
HETATM   13  N7  UNL     1      -0.058  27.885  -7.975  1.00  0.00    -0.195 N 
ATOM     14  H7  UNL     1       0.924  27.613  -7.999  1.00  0.00     0.184 HD
HETATM   15  C9  UNL     1      -0.866  28.055  -9.026  1.00  0.00     0.036 C 
HETATM   16  C13 UNL     1      -2.215  28.080  -8.576  1.00  0.00     0.229 C 
ENDROOT
BRANCH   1  17
HETATM   17  C5  UNL     1      -4.471  29.040  -9.656  1.00  0.00     0.272 C 
HETATM   18  N1  UNL     1      -5.396  30.088  -9.509  1.00  0.00    -0.321 N 
ATOM     19  H1  UNL     1      -5.242  30.647  -8.670  1.00  0.00     0.169 HD
HETATM   20  O2  UNL     1      -4.522  28.289 -10.639  1.00  0.00    -0.266 OA
BRANCH  18  21
HETATM   21  C4  UNL     1      -6.481  30.525 -10.270  1.00  0.00     0.042 C 
BRANCH  21  22
HETATM   22  C3  UNL     1      -7.819  29.924 -10.181  1.00  0.00     0.016 C 
BRANCH  22  23
HETATM   23  C2  UNL     1      -8.062  28.573  -9.686  1.00  0.00     0.137 C 
BRANCH  23  24
HETATM   24  S1  UNL     1      -8.128  28.647  -7.863  1.00  0.00     0.014 S 
HETATM   25  C1  UNL     1      -8.736  30.222  -7.372  1.00  0.00     0.127 C 
HETATM   26  O1  UNL     1      -6.611  28.293  -7.260  1.00  0.00    -0.258 OA
ENDBRANCH  23  24
ENDBRANCH  22  23
ENDBRANCH  21  22
BRANCH  21  27
HETATM   27  C14 UNL     1      -6.080  31.019 -11.605  1.00  0.00    -0.010 A 
HETATM   28  C15 UNL     1      -6.875  30.742 -12.692  1.00  0.00     0.013 A 
HETATM   29  C16 UNL     1      -6.570  31.186 -13.958  1.00  0.00     0.001 A 
HETATM   30  C17 UNL     1      -5.423  31.944 -14.164  1.00  0.00     0.000 A 
HETATM   31  C18 UNL     1      -4.616  32.231 -13.084  1.00  0.00     0.001 A 
HETATM   32  C19 UNL     1      -4.949  31.768 -11.814  1.00  0.00     0.013 A 
ENDBRANCH  21  27
ENDBRANCH  18  21
ENDBRANCH   1  17
BRANCH  15  33
HETATM   33  C10 UNL     1      -0.366  27.895 -10.408  1.00  0.00     0.064 C 
BRANCH  33  34
HETATM   34  C11 UNL     1       1.125  27.802 -10.523  1.00  0.00     0.105 C 
BRANCH  34  35
HETATM   35  C12 UNL     1       1.552  29.237 -10.918  1.00  0.00     0.231 C 
HETATM   36  N8  UNL     1       1.653  29.383 -12.340  1.00  0.00    -0.062 NA
HETATM   37  O3  UNL     1       1.768  30.110 -10.147  1.00  0.00    -0.277 OA
ENDBRANCH  34  35
ENDBRANCH  33  34
ENDBRANCH  15  33
TORSDOF 9
ENDMDL
MODEL 3
REMARK VINA RESULT: -9.474317292      0.907      1.295
REMARK  9 active torsions:
REMARK  status: ('A' for Active; 'I' for Inactive)
REMARK    1  A    between atoms: S1_2  and  C2_4 
REMARK    2  A    between atoms: C2_4  and  C3_5 
REMARK    3  A    between atoms: C3_5  and  C4_6 
REMARK    4  A    between atoms: C4_6  and  N1_7 
REMARK    5  A    between atoms: C4_6  and  C14_32 
REMARK       I    between atoms: N1_7  and  C5_9 
REMARK    6  A    between atoms: C5_9  and  C6_11 
REMARK       I    between atoms: N4_16  and  C8_18 
REMARK    7  A    between atoms: C9_25  and  C10_26 
REMARK    8  A    between atoms: C10_26  and  C11_27 
REMARK    9  A    between atoms: C11_27  and  C12_28 
ROOT
HETATM    1  C6  UNL     1      -2.701  29.337  -0.011  1.00  0.00     0.125 C 
HETATM    2  N2  UNL     1      -2.826  29.755  -1.221  1.00  0.00    -0.280 N 
ATOM      3  H2  UNL     1      -3.361  30.505  -1.658  1.00  0.00     0.187 HD
HETATM    4  N3  UNL     1      -1.965  28.808  -1.698  1.00  0.00    -0.107 N 
HETATM    5  C7  UNL     1      -1.163  27.898  -2.429  1.00  0.00     0.702 C 
HETATM    6  N4  UNL     1      -0.828  27.965  -3.655  1.00  0.00    -0.162 N 
ATOM      7  H4  UNL     1      -0.242  27.205  -4.001  1.00  0.00     0.187 HD
HETATM    8  C8  UNL     1      -1.167  28.958  -4.587  1.00  0.00     0.200 C 
HETATM    9  N5  UNL     1      -2.008  29.884  -4.296  1.00  0.00    -0.373 N 
ATOM     10  H51 UNL     1      -2.255  30.606  -4.973  1.00  0.00     0.158 HD
ATOM     11  H52 UNL     1      -2.453  29.922  -3.379  1.00  0.00     0.158 HD
HETATM   12  N6  UNL     1      -0.549  28.905  -5.860  1.00  0.00    -0.063 NA
HETATM   13  N7  UNL     1      -0.764  26.826  -1.532  1.00  0.00    -0.195 N 
ATOM     14  H7  UNL     1      -0.206  26.007  -1.771  1.00  0.00     0.184 HD
HETATM   15  C9  UNL     1      -1.272  27.123  -0.332  1.00  0.00     0.036 C 
HETATM   16  C13 UNL     1      -1.670  28.488  -0.321  1.00  0.00     0.229 C 
ENDROOT
BRANCH   1  17
HETATM   17  C5  UNL     1      -3.376  29.870   1.216  1.00  0.00     0.272 C 
HETATM   18  N1  UNL     1      -4.759  30.109   1.267  1.00  0.00    -0.321 N 
ATOM     19  H1  UNL     1      -5.243  29.869   0.402  1.00  0.00     0.169 HD
HETATM   20  O2  UNL     1      -2.660  30.096   2.202  1.00  0.00    -0.266 OA
BRANCH  18  21
HETATM   21  C4  UNL     1      -5.612  30.608   2.254  1.00  0.00     0.042 C 
BRANCH  21  22
HETATM   22  C3  UNL     1      -5.162  31.512   3.321  1.00  0.00     0.016 C 
BRANCH  22  23
HETATM   23  C2  UNL     1      -5.516  31.335   4.726  1.00  0.00     0.137 C 
BRANCH  23  24
HETATM   24  S1  UNL     1      -4.104  30.536   5.563  1.00  0.00     0.014 S 
HETATM   25  C1  UNL     1      -4.636  29.016   6.266  1.00  0.00     0.127 C 
HETATM   26  O1  UNL     1      -3.468  31.608   6.676  1.00  0.00    -0.258 OA
ENDBRANCH  23  24
ENDBRANCH  22  23
ENDBRANCH  21  22
BRANCH  21  27
HETATM   27  C14 UNL     1      -6.683  29.656   2.619  1.00  0.00    -0.010 A 
HETATM   28  C15 UNL     1      -6.345  28.389   3.031  1.00  0.00     0.013 A 
HETATM   29  C16 UNL     1      -7.290  27.460   3.401  1.00  0.00     0.001 A 
HETATM   30  C17 UNL     1      -8.638  27.797   3.364  1.00  0.00     0.000 A 
HETATM   31  C18 UNL     1      -8.993  29.065   2.955  1.00  0.00     0.001 A 
HETATM   32  C19 UNL     1      -8.015  29.984   2.585  1.00  0.00     0.013 A 
ENDBRANCH  21  27
ENDBRANCH  18  21
ENDBRANCH   1  17
BRANCH  15  33
HETATM   33  C10 UNL     1      -1.096  26.212   0.820  1.00  0.00     0.064 C 
BRANCH  33  34
HETATM   34  C11 UNL     1      -0.419  24.916   0.490  1.00  0.00     0.105 C 
BRANCH  34  35
HETATM   35  C12 UNL     1       0.882  24.960   1.328  1.00  0.00     0.231 C 
HETATM   36  N8  UNL     1       0.608  25.224   2.709  1.00  0.00    -0.062 NA
HETATM   37  O3  UNL     1       1.969  24.796   0.889  1.00  0.00    -0.277 OA
ENDBRANCH  34  35
ENDBRANCH  33  34
ENDBRANCH  15  33
TORSDOF 9
ENDMDL
MODEL 4
REMARK VINA RESULT: -9.405057777      1.512      1.834
REMARK  9 active torsions:
REMARK  status: ('A' for Active; 'I' for Inactive)
REMARK    1  A    between atoms: S1_2  and  C2_4 
REMARK    2  A    between atoms: C2_4  and  C3_5 
REMARK    3  A    between atoms: C3_5  and  C4_6 
REMARK    4  A    between atoms: C4_6  and  N1_7 
REMARK    5  A    between atoms: C4_6  and  C14_32 
REMARK       I    between atoms: N1_7  and  C5_9 
REMARK    6  A    between atoms: C5_9  and  C6_11 
REMARK       I    between atoms: N4_16  and  C8_18 
REMARK    7  A    between atoms: C9_25  and  C10_26 
REMARK    8  A    between atoms: C10_26  and  C11_27 
REMARK    9  A    between atoms: C11_27  and  C12_28 
ROOT
HETATM    1  C6  UNL     1      -2.691  29.293   0.135  1.00  0.00     0.125 C 
HETATM    2  N2  UNL     1      -2.937  29.592  -1.092  1.00  0.00    -0.280 N 
ATOM      3  H2  UNL     1      -3.634  30.179  -1.549  1.00  0.00     0.187 HD
HETATM    4  N3  UNL     1      -1.905  28.821  -1.546  1.00  0.00    -0.107 N 
HETATM    5  C7  UNL     1      -0.946  28.057  -2.255  1.00  0.00     0.702 C 
HETATM    6  N4  UNL     1      -0.667  28.112  -3.495  1.00  0.00    -0.162 N 
ATOM      7  H4  UNL     1       0.058  27.474  -3.820  1.00  0.00     0.187 HD
HETATM    8  C8  UNL     1      -1.240  28.945  -4.470  1.00  0.00     0.200 C 
HETATM    9  N5  UNL     1      -2.252  29.686  -4.200  1.00  0.00    -0.373 N 
ATOM     10  H51 UNL     1      -2.669  30.291  -4.908  1.00  0.00     0.158 HD
ATOM     11  H52 UNL     1      -2.669  29.690  -3.269  1.00  0.00     0.158 HD
HETATM   12  N6  UNL     1      -0.661  28.939  -5.762  1.00  0.00    -0.063 NA
HETATM   13  N7  UNL     1      -0.300  27.158  -1.312  1.00  0.00    -0.195 N 
ATOM     14  H7  UNL     1       0.416  26.464  -1.526  1.00  0.00     0.184 HD
HETATM   15  C9  UNL     1      -0.826  27.419  -0.112  1.00  0.00     0.036 C 
HETATM   16  C13 UNL     1      -1.510  28.666  -0.166  1.00  0.00     0.229 C 
ENDROOT
BRANCH   1  17
HETATM   17  C5  UNL     1      -3.430  29.750   1.355  1.00  0.00     0.272 C 
HETATM   18  N1  UNL     1      -4.032  28.849   2.250  1.00  0.00    -0.321 N 
ATOM     19  H1  UNL     1      -3.895  27.872   1.990  1.00  0.00     0.169 HD
HETATM   20  O2  UNL     1      -3.496  30.972   1.553  1.00  0.00    -0.266 OA
BRANCH  18  21
HETATM   21  C4  UNL     1      -4.777  29.009   3.419  1.00  0.00     0.042 C 
BRANCH  21  22
HETATM   22  C3  UNL     1      -4.281  28.623   4.747  1.00  0.00     0.016 C 
BRANCH  22  23
HETATM   23  C2  UNL     1      -3.543  29.527   5.624  1.00  0.00     0.137 C 
BRANCH  23  24
HETATM   24  S1  UNL     1      -1.762  29.201   5.393  1.00  0.00     0.014 S 
HETATM   25  C1  UNL     1      -0.863  29.960   6.699  1.00  0.00     0.127 C 
HETATM   26  O1  UNL     1      -1.316  29.728   3.872  1.00  0.00    -0.258 OA
ENDBRANCH  23  24
ENDBRANCH  22  23
ENDBRANCH  21  22
BRANCH  21  27
HETATM   27  C14 UNL     1      -6.230  28.847   3.197  1.00  0.00    -0.010 A 
HETATM   28  C15 UNL     1      -6.970  29.923   2.770  1.00  0.00     0.013 A 
HETATM   29  C16 UNL     1      -8.322  29.836   2.527  1.00  0.00     0.001 A 
HETATM   30  C17 UNL     1      -8.978  28.625   2.715  1.00  0.00     0.000 A 
HETATM   31  C18 UNL     1      -8.249  27.536   3.142  1.00  0.00     0.001 A 
HETATM   32  C19 UNL     1      -6.883  27.654   3.380  1.00  0.00     0.013 A 
ENDBRANCH  21  27
ENDBRANCH  18  21
ENDBRANCH   1  17
BRANCH  15  33
HETATM   33  C10 UNL     1      -0.426  26.648   1.084  1.00  0.00     0.064 C 
BRANCH  33  34
HETATM   34  C11 UNL     1      -1.460  26.599   2.168  1.00  0.00     0.105 C 
BRANCH  34  35
HETATM   35  C12 UNL     1      -2.516  25.608   1.622  1.00  0.00     0.231 C 
HETATM   36  N8  UNL     1      -1.916  24.371   1.218  1.00  0.00    -0.062 NA
HETATM   37  O3  UNL     1      -3.675  25.836   1.546  1.00  0.00    -0.277 OA
ENDBRANCH  34  35
ENDBRANCH  33  34
ENDBRANCH  15  33
TORSDOF 9
ENDMDL
MODEL 5
REMARK VINA RESULT: -9.389931749      1.210      1.488
REMARK  9 active torsions:
REMARK  status: ('A' for Active; 'I' for Inactive)
REMARK    1  A    between atoms: S1_2  and  C2_4 
REMARK    2  A    between atoms: C2_4  and  C3_5 
REMARK    3  A    between atoms: C3_5  and  C4_6 
REMARK    4  A    between atoms: C4_6  and  N1_7 
REMARK    5  A    between atoms: C4_6  and  C14_32 
REMARK       I    between atoms: N1_7  and  C5_9 
REMARK    6  A    between atoms: C5_9  and  C6_11 
REMARK       I    between atoms: N4_16  and  C8_18 
REMARK    7  A    between atoms: C9_25  and  C10_26 
REMARK    8  A    between atoms: C10_26  and  C11_27 
REMARK    9  A    between atoms: C11_27  and  C12_28 
ROOT
HETATM    1  C6  UNL     1      -2.647  29.312   0.154  1.00  0.00     0.125 C 
HETATM    2  N2  UNL     1      -2.897  29.612  -1.072  1.00  0.00    -0.280 N 
ATOM      3  H2  UNL     1      -3.591  30.207  -1.525  1.00  0.00     0.187 HD
HETATM    4  N3  UNL     1      -1.877  28.829  -1.532  1.00  0.00    -0.107 N 
HETATM    5  C7  UNL     1      -0.931  28.054  -2.246  1.00  0.00     0.702 C 
HETATM    6  N4  UNL     1      -0.660  28.104  -3.488  1.00  0.00    -0.162 N 
ATOM      7  H4  UNL     1       0.057  27.457  -3.817  1.00  0.00     0.187 HD
HETATM    8  C8  UNL     1      -1.229  28.942  -4.460  1.00  0.00     0.200 C 
HETATM    9  N5  UNL     1      -2.231  29.696  -4.184  1.00  0.00    -0.373 N 
ATOM     10  H51 UNL     1      -2.645  30.305  -4.890  1.00  0.00     0.158 HD
ATOM     11  H52 UNL     1      -2.642  29.705  -3.250  1.00  0.00     0.158 HD
HETATM   12  N6  UNL     1      -0.658  28.930  -5.755  1.00  0.00    -0.063 NA
HETATM   13  N7  UNL     1      -0.289  27.148  -1.306  1.00  0.00    -0.195 N 
ATOM     14  H7  UNL     1       0.417  26.446  -1.524  1.00  0.00     0.184 HD
HETATM   15  C9  UNL     1      -0.805  27.416  -0.103  1.00  0.00     0.036 C 
HETATM   16  C13 UNL     1      -1.475  28.670  -0.154  1.00  0.00     0.229 C 
ENDROOT
BRANCH   1  17
HETATM   17  C5  UNL     1      -3.374  29.778   1.378  1.00  0.00     0.272 C 
HETATM   18  N1  UNL     1      -3.999  28.885   2.265  1.00  0.00    -0.321 N 
ATOM     19  H1  UNL     1      -3.890  27.907   1.997  1.00  0.00     0.169 HD
HETATM   20  O2  UNL     1      -3.406  30.999   1.586  1.00  0.00    -0.266 OA
BRANCH  18  21
HETATM   21  C4  UNL     1      -4.740  29.056   3.436  1.00  0.00     0.042 C 
BRANCH  21  22
HETATM   22  C3  UNL     1      -4.236  28.687   4.766  1.00  0.00     0.016 C 
BRANCH  22  23
HETATM   23  C2  UNL     1      -4.397  29.527   5.948  1.00  0.00     0.137 C 
BRANCH  23  24
HETATM   24  S1  UNL     1      -2.884  30.532   6.131  1.00  0.00     0.014 S 
HETATM   25  C1  UNL     1      -1.608  29.533   6.812  1.00  0.00     0.127 C 
HETATM   26  O1  UNL     1      -3.247  31.880   7.049  1.00  0.00    -0.258 OA
ENDBRANCH  23  24
ENDBRANCH  22  23
ENDBRANCH  21  22
BRANCH  21  27
HETATM   27  C14 UNL     1      -6.193  28.885   3.223  1.00  0.00    -0.010 A 
HETATM   28  C15 UNL     1      -6.945  29.960   2.815  1.00  0.00     0.013 A 
HETATM   29  C16 UNL     1      -8.298  29.866   2.582  1.00  0.00     0.001 A 
HETATM   30  C17 UNL     1      -8.943  28.648   2.758  1.00  0.00     0.000 A 
HETATM   31  C18 UNL     1      -8.202  27.559   3.165  1.00  0.00     0.001 A 
HETATM   32  C19 UNL     1      -6.835  27.684   3.395  1.00  0.00     0.013 A 
ENDBRANCH  21  27
ENDBRANCH  18  21
ENDBRANCH   1  17
BRANCH  15  33
HETATM   33  C10 UNL     1      -0.406  26.641   1.091  1.00  0.00     0.064 C 
BRANCH  33  34
HETATM   34  C11 UNL     1      -1.437  26.598   2.177  1.00  0.00     0.105 C 
BRANCH  34  35
HETATM   35  C12 UNL     1      -2.402  25.476   1.722  1.00  0.00     0.231 C 
HETATM   36  N8  UNL     1      -3.770  25.836   1.946  1.00  0.00    -0.062 NA
HETATM   37  O3  UNL     1      -2.058  24.448   1.246  1.00  0.00    -0.277 OA
ENDBRANCH  34  35
ENDBRANCH  33  34
ENDBRANCH  15  33
TORSDOF 9
ENDMDL
