MODEL 1
REMARK VINA RESULT: -6.868286855      0.000      0.000
REMARK  6 active torsions:
REMARK  status: ('A' for Active; 'I' for Inactive)
REMARK    1  A    between atoms: O1_2  and  C2_3 
REMARK    2  A    between atoms: C2_3  and  C3_4 
REMARK    3  A    between atoms: C8_12  and  N3_13 
REMARK       I    between atoms: N3_13  and  C9_15 
REMARK    4  A    between atoms: C9_15  and  C10_17 
REMARK    5  A    between atoms: C11_20  and  N5_21 
REMARK    6  A    between atoms: C12_26  and  N7_27 
ROOT
HETATM    1  C3  UNL     1     -15.734   8.419  -0.827  1.00  0.00     0.054 A 
HETATM    2  C4  UNL     1     -14.875   7.743  -1.633  1.00  0.00     0.073 A 
HETATM    3  C5  UNL     1     -15.205   7.425  -2.990  1.00  0.00     0.101 C 
HETATM    4  N1  UNL     1     -15.442   7.124  -4.089  1.00  0.00    -0.191 NA
HETATM    5  C6  UNL     1     -13.641   7.234  -1.178  1.00  0.00     0.111 A 
HETATM    6  N2  UNL     1     -13.288   7.412   0.093  1.00  0.00    -0.372 N 
ATOM      7  H2  UNL     1     -12.397   7.042   0.424  1.00  0.00     0.164 HD
HETATM    8  C7  UNL     1     -14.090   8.071   0.947  1.00  0.00     0.117 A 
HETATM    9  C8  UNL     1     -15.315   8.586   0.511  1.00  0.00     0.063 A 
ENDROOT
BRANCH   1  10
HETATM   10  C2  UNL     1     -16.994   8.990  -1.317  1.00  0.00     0.202 C 
HETATM   11  C19 UNL     1     -17.608   7.961  -2.353  1.00  0.00     0.155 C 
HETATM   12  C20 UNL     1     -19.037   7.761  -1.932  1.00  0.00     0.270 C 
HETATM   13  F3  UNL     1     -19.942   7.965  -2.946  1.00  0.00    -0.204 F 
HETATM   14  F4  UNL     1     -19.236   6.587  -1.255  1.00  0.00    -0.204 F 
HETATM   15  C21 UNL     1     -19.193   8.968  -0.994  1.00  0.00     0.251 C 
HETATM   16  O3  UNL     1     -17.965   8.825  -0.356  1.00  0.00    -0.345 OA
BRANCH  10  17
HETATM   17  O1  UNL     1     -17.061  10.190  -1.813  1.00  0.00    -0.356 OA
HETATM   18  C1  UNL     1     -16.434  11.048  -2.504  1.00  0.00     0.206 C 
ENDBRANCH  10  17
ENDBRANCH   1  10
BRANCH   9  19
HETATM   19  N3  UNL     1     -16.070   9.446   1.349  1.00  0.00    -0.320 N 
HETATM   20  C9  UNL     1     -15.739  10.786   1.513  1.00  0.00     0.274 C 
HETATM   21  O2  UNL     1     -14.716  11.310   0.951  1.00  0.00    -0.266 OA
ATOM     22  H3  UNL     1     -16.878   9.070   1.844  1.00  0.00     0.169 HD
BRANCH  20  23
HETATM   23  C10 UNL     1     -16.487  11.723   2.326  1.00  0.00     0.126 A 
HETATM   24  N4  UNL     1     -15.983  12.040   3.573  1.00  0.00    -0.186 N 
HETATM   25  C11 UNL     1     -16.557  12.912   4.390  1.00  0.00     0.678 A 
ATOM     26  H4  UNL     1     -15.126  11.581   3.879  1.00  0.00     0.184 HD
HETATM   27  N6  UNL     1     -17.684  13.522   3.993  1.00  0.00    -0.176 N 
HETATM   28  C12 UNL     1     -18.252  13.288   2.810  1.00  0.00     0.127 A 
ATOM     29  H6  UNL     1     -18.125  14.192   4.622  1.00  0.00     0.186 HD
HETATM   30  C17 UNL     1     -17.628  12.362   1.960  1.00  0.00     0.015 A 
HETATM   31  C18 UNL     1     -18.261  12.176   0.604  1.00  0.00     0.055 C 
BRANCH  25  32
HETATM   32  N5  UNL     1     -16.068  13.187   5.543  1.00  0.00    -0.234 N 
ATOM     33  H52 UNL     1     -15.092  12.965   5.736  1.00  0.00     0.174 HD
ATOM     34  H51 UNL     1     -16.626  13.623   6.277  1.00  0.00     0.174 HD
ENDBRANCH  25  32
BRANCH  28  35
HETATM   35  N7  UNL     1     -19.437  13.939   2.422  1.00  0.00    -0.360 N 
HETATM   36  C13 UNL     1     -20.813  13.577   2.728  1.00  0.00     0.130 C 
HETATM   37  C14 UNL     1     -21.440  13.669   1.337  1.00  0.00     0.100 C 
HETATM   38  C15 UNL     1     -20.712  14.815   0.702  1.00  0.00     0.261 C 
HETATM   39  F1  UNL     1     -20.227  14.487  -0.554  1.00  0.00    -0.204 F 
HETATM   40  F2  UNL     1     -21.538  15.923   0.592  1.00  0.00    -0.204 F 
HETATM   41  C16 UNL     1     -19.537  15.138   1.613  1.00  0.00     0.203 C 
ENDBRANCH  28  35
ENDBRANCH  20  23
ENDBRANCH   9  19
TORSDOF 6
ENDMDL
MODEL 2
REMARK VINA RESULT: -6.352572965      5.154      7.588
REMARK  6 active torsions:
REMARK  status: ('A' for Active; 'I' for Inactive)
REMARK    1  A    between atoms: O1_2  and  C2_3 
REMARK    2  A    between atoms: C2_3  and  C3_4 
REMARK    3  A    between atoms: C8_12  and  N3_13 
REMARK       I    between atoms: N3_13  and  C9_15 
REMARK    4  A    between atoms: C9_15  and  C10_17 
REMARK    5  A    between atoms: C11_20  and  N5_21 
REMARK    6  A    between atoms: C12_26  and  N7_27 
ROOT
HETATM    1  C3  UNL     1      -9.291   5.174  -3.574  1.00  0.00     0.054 A 
HETATM    2  C4  UNL     1      -8.364   4.914  -4.532  1.00  0.00     0.073 A 
HETATM    3  C5  UNL     1      -8.737   4.526  -5.859  1.00  0.00     0.101 C 
HETATM    4  N1  UNL     1      -8.995   4.184  -6.942  1.00  0.00    -0.191 NA
HETATM    5  C6  UNL     1      -6.976   4.924  -4.275  1.00  0.00     0.111 A 
HETATM    6  N2  UNL     1      -6.541   5.195  -3.048  1.00  0.00    -0.372 N 
ATOM      7  H2  UNL     1      -5.538   5.200  -2.860  1.00  0.00     0.164 HD
HETATM    8  C7  UNL     1      -7.403   5.461  -2.051  1.00  0.00     0.117 A 
HETATM    9  C8  UNL     1      -8.780   5.458  -2.290  1.00  0.00     0.063 A 
ENDROOT
BRANCH   1  10
HETATM   10  C2  UNL     1     -10.730   5.211  -3.858  1.00  0.00     0.202 C 
HETATM   11  C19 UNL     1     -11.071   3.941  -4.742  1.00  0.00     0.155 C 
HETATM   12  C20 UNL     1     -12.247   3.284  -4.075  1.00  0.00     0.270 C 
HETATM   13  F3  UNL     1     -13.305   3.059  -4.924  1.00  0.00    -0.204 F 
HETATM   14  F4  UNL     1     -11.899   2.182  -3.339  1.00  0.00    -0.204 F 
HETATM   15  C21 UNL     1     -12.693   4.435  -3.161  1.00  0.00     0.251 C 
HETATM   16  O3  UNL     1     -11.418   4.798  -2.740  1.00  0.00    -0.345 OA
BRANCH  10  17
HETATM   17  O1  UNL     1     -11.306   6.258  -4.371  1.00  0.00    -0.356 OA
HETATM   18  C1  UNL     1     -11.105   7.299  -5.065  1.00  0.00     0.206 C 
ENDBRANCH  10  17
ENDBRANCH   1  10
BRANCH   9  19
HETATM   19  N3  UNL     1      -9.680   5.927  -1.298  1.00  0.00    -0.320 N 
HETATM   20  C9  UNL     1      -9.967   7.279  -1.148  1.00  0.00     0.274 C 
HETATM   21  O2  UNL     1      -9.409   8.179  -1.868  1.00  0.00    -0.266 OA
ATOM     22  H3  UNL     1     -10.129   5.253  -0.678  1.00  0.00     0.169 HD
BRANCH  20  23
HETATM   23  C10 UNL     1     -10.899   7.818  -0.180  1.00  0.00     0.126 A 
HETATM   24  N4  UNL     1     -10.432   8.065   1.096  1.00  0.00    -0.186 N 
HETATM   25  C11 UNL     1     -11.180   8.593   2.056  1.00  0.00     0.678 A 
ATOM     26  H4  UNL     1      -9.463   7.830   1.311  1.00  0.00     0.184 HD
HETATM   27  N6  UNL     1     -12.455   8.906   1.781  1.00  0.00    -0.176 N 
HETATM   28  C12 UNL     1     -13.003   8.709   0.582  1.00  0.00     0.127 A 
ATOM     29  H6  UNL     1     -13.029   9.311   2.519  1.00  0.00     0.186 HD
HETATM   30  C17 UNL     1     -12.195   8.151  -0.420  1.00  0.00     0.015 A 
HETATM   31  C18 UNL     1     -12.829   8.008  -1.781  1.00  0.00     0.055 C 
BRANCH  25  32
HETATM   32  N5  UNL     1     -10.721   8.811   3.233  1.00  0.00    -0.234 N 
ATOM     33  H52 UNL     1      -9.728   9.009   3.352  1.00  0.00     0.174 HD
ATOM     34  H51 UNL     1     -11.319   8.792   4.059  1.00  0.00     0.174 HD
ENDBRANCH  25  32
BRANCH  28  35
HETATM   35  N7  UNL     1     -14.344   9.043   0.323  1.00  0.00    -0.360 N 
HETATM   36  C13 UNL     1     -15.539   8.245   0.556  1.00  0.00     0.130 C 
HETATM   37  C14 UNL     1     -16.242   8.398  -0.793  1.00  0.00     0.100 C 
HETATM   38  C15 UNL     1     -15.910   9.802  -1.202  1.00  0.00     0.261 C 
HETATM   39  F1  UNL     1     -15.422   9.860  -2.497  1.00  0.00    -0.204 F 
HETATM   40  F2  UNL     1     -17.025  10.620  -1.102  1.00  0.00    -0.204 F 
HETATM   41  C16 UNL     1     -14.829  10.285  -0.247  1.00  0.00     0.203 C 
ENDBRANCH  28  35
ENDBRANCH  20  23
ENDBRANCH   9  19
TORSDOF 6
ENDMDL
MODEL 3
REMARK VINA RESULT: -6.351729214      6.336      9.386
REMARK  6 active torsions:
REMARK  status: ('A' for Active; 'I' for Inactive)
REMARK    1  A    between atoms: O1_2  and  C2_3 
REMARK    2  A    between atoms: C2_3  and  C3_4 
REMARK    3  A    between atoms: C8_12  and  N3_13 
REMARK       I    between atoms: N3_13  and  C9_15 
REMARK    4  A    between atoms: C9_15  and  C10_17 
REMARK    5  A    between atoms: C11_20  and  N5_21 
REMARK    6  A    between atoms: C12_26  and  N7_27 
ROOT
HETATM    1  C3  UNL     1      -9.346   3.434  -5.279  1.00  0.00     0.054 A 
HETATM    2  C4  UNL     1      -8.846   2.359  -5.942  1.00  0.00     0.073 A 
HETATM    3  C5  UNL     1      -9.630   1.623  -6.889  1.00  0.00     0.101 C 
HETATM    4  N1  UNL     1     -10.239   0.983  -7.647  1.00  0.00    -0.191 NA
HETATM    5  C6  UNL     1      -7.559   1.837  -5.690  1.00  0.00     0.111 A 
HETATM    6  N2  UNL     1      -6.791   2.408  -4.767  1.00  0.00    -0.372 N 
ATOM      7  H2  UNL     1      -5.861   2.030  -4.582  1.00  0.00     0.164 HD
HETATM    8  C7  UNL     1      -7.222   3.476  -4.072  1.00  0.00     0.117 A 
HETATM    9  C8  UNL     1      -8.492   4.007  -4.312  1.00  0.00     0.063 A 
ENDROOT
BRANCH   1  10
HETATM   10  C2  UNL     1     -10.664   4.003  -5.579  1.00  0.00     0.202 C 
HETATM   11  C19 UNL     1     -11.751   2.941  -5.132  1.00  0.00     0.155 C 
HETATM   12  C20 UNL     1     -12.739   3.697  -4.288  1.00  0.00     0.270 C 
HETATM   13  F3  UNL     1     -14.042   3.544  -4.697  1.00  0.00    -0.204 F 
HETATM   14  F4  UNL     1     -12.563   3.492  -2.944  1.00  0.00    -0.204 F 
HETATM   15  C21 UNL     1     -12.353   5.133  -4.677  1.00  0.00     0.251 C 
HETATM   16  O3  UNL     1     -10.976   4.942  -4.622  1.00  0.00    -0.345 OA
BRANCH  10  17
HETATM   17  O1  UNL     1     -10.969   4.456  -6.760  1.00  0.00    -0.356 OA
HETATM   18  C1  UNL     1     -10.520   5.096  -7.757  1.00  0.00     0.206 C 
ENDBRANCH  10  17
ENDBRANCH   1  10
BRANCH   9  19
HETATM   19  N3  UNL     1      -8.874   5.242  -3.728  1.00  0.00    -0.320 N 
HETATM   20  C9  UNL     1      -8.861   5.438  -2.352  1.00  0.00     0.274 C 
HETATM   21  O2  UNL     1      -8.541   4.508  -1.533  1.00  0.00    -0.266 OA
ATOM     22  H3  UNL     1      -9.167   6.008  -4.335  1.00  0.00     0.169 HD
BRANCH  20  23
HETATM   23  C10 UNL     1      -9.206   6.683  -1.696  1.00  0.00     0.126 A 
HETATM   24  N4  UNL     1      -8.236   7.662  -1.619  1.00  0.00    -0.186 N 
HETATM   25  C11 UNL     1      -8.445   8.855  -1.078  1.00  0.00     0.678 A 
ATOM     26  H4  UNL     1      -7.311   7.458  -1.997  1.00  0.00     0.184 HD
HETATM   27  N6  UNL     1      -9.659   9.131  -0.580  1.00  0.00    -0.176 N 
HETATM   28  C12 UNL     1     -10.666   8.258  -0.605  1.00  0.00     0.127 A 
ATOM     29  H6  UNL     1      -9.819  10.048  -0.164  1.00  0.00     0.186 HD
HETATM   30  C17 UNL     1     -10.424   7.002  -1.183  1.00  0.00     0.015 A 
HETATM   31  C18 UNL     1     -11.604   6.066  -1.256  1.00  0.00     0.055 C 
BRANCH  25  32
HETATM   32  N5  UNL     1      -7.525   9.745  -1.018  1.00  0.00    -0.234 N 
ATOM     33  H52 UNL     1      -7.623  10.601  -1.563  1.00  0.00     0.174 HD
ATOM     34  H51 UNL     1      -6.693   9.625  -0.441  1.00  0.00     0.174 HD
ENDBRANCH  25  32
BRANCH  28  35
HETATM   35  N7  UNL     1     -11.928   8.574  -0.072  1.00  0.00    -0.360 N 
HETATM   36  C13 UNL     1     -12.364   8.522   1.316  1.00  0.00     0.130 C 
HETATM   37  C14 UNL     1     -13.683   7.764   1.163  1.00  0.00     0.100 C 
HETATM   38  C15 UNL     1     -14.218   8.256  -0.148  1.00  0.00     0.261 C 
HETATM   39  F1  UNL     1     -14.593   7.210  -0.977  1.00  0.00    -0.204 F 
HETATM   40  F2  UNL     1     -15.307   9.091   0.047  1.00  0.00    -0.204 F 
HETATM   41  C16 UNL     1     -13.088   9.028  -0.812  1.00  0.00     0.203 C 
ENDBRANCH  28  35
ENDBRANCH  20  23
ENDBRANCH   9  19
TORSDOF 6
ENDMDL
MODEL 4
REMARK VINA RESULT: -6.343770841      4.201      6.618
REMARK  6 active torsions:
REMARK  status: ('A' for Active; 'I' for Inactive)
REMARK    1  A    between atoms: O1_2  and  C2_3 
REMARK    2  A    between atoms: C2_3  and  C3_4 
REMARK    3  A    between atoms: C8_12  and  N3_13 
REMARK       I    between atoms: N3_13  and  C9_15 
REMARK    4  A    between atoms: C9_15  and  C10_17 
REMARK    5  A    between atoms: C11_20  and  N5_21 
REMARK    6  A    between atoms: C12_26  and  N7_27 
ROOT
HETATM    1  C3  UNL     1     -10.806   6.685  -2.514  1.00  0.00     0.054 A 
HETATM    2  C4  UNL     1      -9.568   6.854  -3.048  1.00  0.00     0.073 A 
HETATM    3  C5  UNL     1      -9.203   6.276  -4.306  1.00  0.00     0.101 C 
HETATM    4  N1  UNL     1      -8.856   5.804  -5.312  1.00  0.00    -0.191 NA
HETATM    5  C6  UNL     1      -8.532   7.534  -2.374  1.00  0.00     0.111 A 
HETATM    6  N2  UNL     1      -8.758   8.034  -1.162  1.00  0.00    -0.372 N 
ATOM      7  H2  UNL     1      -8.009   8.524  -0.673  1.00  0.00     0.164 HD
HETATM    8  C7  UNL     1      -9.960   7.903  -0.573  1.00  0.00     0.117 A 
HETATM    9  C8  UNL     1     -10.998   7.236  -1.229  1.00  0.00     0.063 A 
ENDROOT
BRANCH   1  10
HETATM   10  C2  UNL     1     -11.894   6.020  -3.240  1.00  0.00     0.202 C 
HETATM   11  C19 UNL     1     -11.240   4.914  -4.165  1.00  0.00     0.155 C 
HETATM   12  C20 UNL     1     -12.007   3.650  -3.895  1.00  0.00     0.270 C 
HETATM   13  F3  UNL     1     -12.496   3.050  -5.032  1.00  0.00    -0.204 F 
HETATM   14  F4  UNL     1     -11.341   2.784  -3.068  1.00  0.00    -0.204 F 
HETATM   15  C21 UNL     1     -13.234   4.247  -3.188  1.00  0.00     0.251 C 
HETATM   16  O3  UNL     1     -12.529   5.143  -2.390  1.00  0.00    -0.345 OA
BRANCH  10  17
HETATM   17  O1  UNL     1     -12.775   6.688  -3.926  1.00  0.00    -0.356 OA
HETATM   18  C1  UNL     1     -12.936   7.692  -4.682  1.00  0.00     0.206 C 
ENDBRANCH  10  17
ENDBRANCH   1  10
BRANCH   9  19
HETATM   19  N3  UNL     1     -12.315   7.265  -0.702  1.00  0.00    -0.320 N 
HETATM   20  C9  UNL     1     -13.120   8.394  -0.800  1.00  0.00     0.274 C 
HETATM   21  O2  UNL     1     -12.708   9.481  -1.336  1.00  0.00    -0.266 OA
ATOM     22  H3  UNL     1     -12.681   6.434  -0.237  1.00  0.00     0.169 HD
BRANCH  20  23
HETATM   23  C10 UNL     1     -14.481   8.477  -0.313  1.00  0.00     0.126 A 
HETATM   24  N4  UNL     1     -14.726   9.282   0.783  1.00  0.00    -0.186 N 
HETATM   25  C11 UNL     1     -15.935   9.467   1.295  1.00  0.00     0.678 A 
ATOM     26  H4  UNL     1     -13.937   9.758   1.219  1.00  0.00     0.184 HD
HETATM   27  N6  UNL     1     -16.978   8.845   0.725  1.00  0.00    -0.176 N 
HETATM   28  C12 UNL     1     -16.851   8.048  -0.335  1.00  0.00     0.127 A 
ATOM     29  H6  UNL     1     -17.907   8.989   1.120  1.00  0.00     0.186 HD
HETATM   30  C17 UNL     1     -15.563   7.866  -0.863  1.00  0.00     0.015 A 
HETATM   31  C18 UNL     1     -15.469   7.014  -2.103  1.00  0.00     0.055 C 
BRANCH  25  32
HETATM   32  N5  UNL     1     -16.134  10.220   2.314  1.00  0.00    -0.234 N 
ATOM     33  H52 UNL     1     -15.759  11.168   2.314  1.00  0.00     0.174 HD
ATOM     34  H51 UNL     1     -16.656   9.899   3.129  1.00  0.00     0.174 HD
ENDBRANCH  25  32
BRANCH  28  35
HETATM   35  N7  UNL     1     -17.962   7.406  -0.910  1.00  0.00    -0.360 N 
HETATM   36  C13 UNL     1     -18.912   7.932  -1.879  1.00  0.00     0.130 C 
HETATM   37  C14 UNL     1     -20.232   7.531  -1.219  1.00  0.00     0.100 C 
HETATM   38  C15 UNL     1     -19.915   6.211  -0.583  1.00  0.00     0.261 C 
HETATM   39  F1  UNL     1     -20.310   6.170   0.746  1.00  0.00    -0.204 F 
HETATM   40  F2  UNL     1     -20.530   5.174  -1.268  1.00  0.00    -0.204 F 
HETATM   41  C16 UNL     1     -18.405   6.050  -0.651  1.00  0.00     0.203 C 
ENDBRANCH  28  35
ENDBRANCH  20  23
ENDBRANCH   9  19
TORSDOF 6
ENDMDL
MODEL 5
REMARK VINA RESULT: -6.301983386      5.885      8.354
REMARK  6 active torsions:
REMARK  status: ('A' for Active; 'I' for Inactive)
REMARK    1  A    between atoms: O1_2  and  C2_3 
REMARK    2  A    between atoms: C2_3  and  C3_4 
REMARK    3  A    between atoms: C8_12  and  N3_13 
REMARK       I    between atoms: N3_13  and  C9_15 
REMARK    4  A    between atoms: C9_15  and  C10_17 
REMARK    5  A    between atoms: C11_20  and  N5_21 
REMARK    6  A    between atoms: C12_26  and  N7_27 
ROOT
HETATM    1  C3  UNL     1      -9.857   4.367  -3.153  1.00  0.00     0.054 A 
HETATM    2  C4  UNL     1      -9.707   3.550  -4.227  1.00  0.00     0.073 A 
HETATM    3  C5  UNL     1      -8.415   3.201  -4.736  1.00  0.00     0.101 C 
HETATM    4  N1  UNL     1      -7.385   2.911  -5.197  1.00  0.00    -0.191 NA
HETATM    5  C6  UNL     1     -10.800   3.054  -4.969  1.00  0.00     0.111 A 
HETATM    6  N2  UNL     1     -12.037   3.395  -4.617  1.00  0.00    -0.372 N 
ATOM      7  H2  UNL     1     -12.828   3.039  -5.154  1.00  0.00     0.164 HD
HETATM    8  C7  UNL     1     -12.260   4.200  -3.564  1.00  0.00     0.117 A 
HETATM    9  C8  UNL     1     -11.188   4.696  -2.816  1.00  0.00     0.063 A 
ENDROOT
BRANCH   1  10
HETATM   10  C2  UNL     1      -8.720   4.839  -2.355  1.00  0.00     0.202 C 
HETATM   11  C19 UNL     1      -8.423   3.737  -1.256  1.00  0.00     0.155 C 
HETATM   12  C20 UNL     1      -6.947   3.463  -1.342  1.00  0.00     0.270 C 
HETATM   13  F3  UNL     1      -6.297   3.574  -0.136  1.00  0.00    -0.204 F 
HETATM   14  F4  UNL     1      -6.656   2.303  -2.011  1.00  0.00    -0.204 F 
HETATM   15  C21 UNL     1      -6.511   4.690  -2.157  1.00  0.00     0.251 C 
HETATM   16  O3  UNL     1      -7.560   4.647  -3.070  1.00  0.00    -0.345 OA
BRANCH  10  17
HETATM   17  O1  UNL     1      -8.708   6.014  -1.798  1.00  0.00    -0.356 OA
HETATM   18  C1  UNL     1      -8.462   7.241  -2.001  1.00  0.00     0.206 C 
ENDBRANCH  10  17
ENDBRANCH   1  10
BRANCH   9  19
HETATM   19  N3  UNL     1     -11.421   5.381  -1.596  1.00  0.00    -0.320 N 
HETATM   20  C9  UNL     1     -11.865   6.699  -1.568  1.00  0.00     0.274 C 
HETATM   21  O2  UNL     1     -12.051   7.379  -2.635  1.00  0.00    -0.266 OA
ATOM     22  H3  UNL     1     -11.259   4.893  -0.715  1.00  0.00     0.169 HD
BRANCH  20  23
HETATM   23  C10 UNL     1     -12.153   7.442  -0.359  1.00  0.00     0.126 A 
HETATM   24  N4  UNL     1     -11.112   7.674   0.519  1.00  0.00    -0.186 N 
HETATM   25  C11 UNL     1     -11.245   8.374   1.638  1.00  0.00     0.678 A 
ATOM     26  H4  UNL     1     -10.195   7.287   0.295  1.00  0.00     0.184 HD
HETATM   27  N6  UNL     1     -12.447   8.886   1.938  1.00  0.00    -0.176 N 
HETATM   28  C12 UNL     1     -13.516   8.722   1.160  1.00  0.00     0.127 A 
ATOM     29  H6  UNL     1     -12.548   9.424   2.798  1.00  0.00     0.186 HD
HETATM   30  C17 UNL     1     -13.355   7.979  -0.020  1.00  0.00     0.015 A 
HETATM   31  C18 UNL     1     -14.568   7.874  -0.909  1.00  0.00     0.055 C 
BRANCH  25  32
HETATM   32  N5  UNL     1     -10.261   8.573   2.436  1.00  0.00    -0.234 N 
ATOM     33  H52 UNL     1      -9.383   8.078   2.277  1.00  0.00     0.174 HD
ATOM     34  H51 UNL     1     -10.327   9.212   3.227  1.00  0.00     0.174 HD
ENDBRANCH  25  32
BRANCH  28  35
HETATM   35  N7  UNL     1     -14.766   9.268   1.501  1.00  0.00    -0.360 N 
HETATM   36  C13 UNL     1     -16.077   8.938   0.962  1.00  0.00     0.130 C 
HETATM   37  C14 UNL     1     -16.619  10.339   0.676  1.00  0.00     0.100 C 
HETATM   38  C15 UNL     1     -16.057  11.165   1.794  1.00  0.00     0.261 C 
HETATM   39  F1  UNL     1     -15.443  12.316   1.327  1.00  0.00    -0.204 F 
HETATM   40  F2  UNL     1     -17.052  11.516   2.694  1.00  0.00    -0.204 F 
HETATM   41  C16 UNL     1     -15.017  10.300   2.488  1.00  0.00     0.203 C 
ENDBRANCH  28  35
ENDBRANCH  20  23
ENDBRANCH   9  19
TORSDOF 6
ENDMDL
