MODEL 1
REMARK VINA RESULT: -6.648920856      0.000      0.000
REMARK  8 active torsions:
REMARK  status: ('A' for Active; 'I' for Inactive)
REMARK    1  A    between atoms: C8_8  and  N1_9 
REMARK    2  A    between atoms: N1_9  and  C9_11 
REMARK    3  A    between atoms: C9_11  and  C10_12 
REMARK    4  A    between atoms: C13_18  and  N2_19 
REMARK    5  A    between atoms: C13_18  and  C14_23 
REMARK    6  A    between atoms: C15_28  and  S1_29 
REMARK    7  A    between atoms: S1_29  and  C16_32 
REMARK    8  A    between atoms: C20_37  and  N5_38 
ROOT
HETATM    1  C9  UNL     1      -6.818   2.573  -3.589  1.00  0.00     0.153 C 
HETATM    2  C11 UNL     1      -8.093   2.509  -2.752  1.00  0.00     0.045 C 
HETATM    3  C12 UNL     1      -9.012   3.644  -2.835  1.00  0.00     0.050 C 
HETATM    4  C13 UNL     1      -8.790   4.657  -1.732  1.00  0.00     0.189 C 
HETATM    5  C18 UNL     1      -7.661   5.530  -2.229  1.00  0.00     0.049 C 
HETATM    6  C19 UNL     1      -6.418   4.664  -2.190  1.00  0.00     0.038 C 
HETATM    7  C20 UNL     1      -6.123   3.908  -3.423  1.00  0.00     0.220 C 
ENDROOT
BRANCH   4   8
HETATM    8  N2  UNL     1      -8.385   3.921  -0.521  1.00  0.00    -0.063 N 
ATOM      9  H23 UNL     1      -8.022   2.989  -0.727  1.00  0.00     0.275 HD
ATOM     10  H22 UNL     1      -7.543   4.301  -0.089  1.00  0.00     0.275 HD
ATOM     11  H21 UNL     1      -9.183   3.903   0.113  1.00  0.00     0.275 HD
ENDBRANCH   4   8
BRANCH   4  12
HETATM   12  C14 UNL     1      -9.990   5.420  -1.373  1.00  0.00     0.177 A 
HETATM   13  N3  UNL     1     -11.241   5.089  -1.835  1.00  0.00    -0.279 N 
HETATM   14  N4  UNL     1     -12.117   5.952  -1.341  1.00  0.00    -0.268 N 
ATOM     15  H3  UNL     1     -11.460   4.309  -2.454  1.00  0.00     0.189 HD
HETATM   16  C15 UNL     1     -11.407   6.804  -0.581  1.00  0.00     0.262 A 
ATOM     17  H4  UNL     1     -13.124   5.967  -1.504  1.00  0.00     0.190 HD
HETATM   18  O3  UNL     1     -10.171   6.457  -0.628  1.00  0.00    -0.266 OA
BRANCH  16  19
HETATM   19  S1  UNL     1     -12.016   8.175   0.339  1.00  0.00     0.215 S 
HETATM   20  O1  UNL     1     -12.507   9.193  -0.656  1.00  0.00    -0.219 OA
HETATM   21  O2  UNL     1     -13.250   7.757   1.123  1.00  0.00    -0.219 OA
BRANCH  19  22
HETATM   22  C16 UNL     1     -10.790   8.860   1.392  1.00  0.00     0.145 C 
HETATM   23  C17 UNL     1     -11.097   8.499   2.813  1.00  0.00     0.021 C 
ENDBRANCH  19  22
ENDBRANCH  16  19
ENDBRANCH   4  12
BRANCH   1  24
HETATM   24  N1  UNL     1      -7.030   2.375  -4.942  1.00  0.00    -0.392 N 
ATOM     25  H1  UNL     1      -6.549   3.068  -5.515  1.00  0.00     0.155 HD
BRANCH  24  26
HETATM   26  C8  UNL     1      -7.722   1.482  -5.688  1.00  0.00     0.135 C 
HETATM   27  C2  UNL     1      -8.618   2.371  -6.611  1.00  0.00    -0.063 C 
HETATM   28  C1  UNL     1      -9.900   2.408  -6.526  1.00  0.00     0.016 C 
HETATM   29  C3  UNL     1      -7.829   3.162  -7.596  1.00  0.00     0.039 C 
HETATM   30  C4  UNL     1      -6.624   2.472  -8.131  1.00  0.00     0.032 C 
HETATM   31  C5  UNL     1      -6.734   1.003  -7.834  1.00  0.00    -0.022 C 
HETATM   32  C6  UNL     1      -7.217   0.548  -6.692  1.00  0.00    -0.061 C 
HETATM   33  C7  UNL     1      -7.276  -0.951  -6.526  1.00  0.00     0.045 C 
ENDBRANCH  24  26
ENDBRANCH   1  24
BRANCH   1  34
HETATM   34  C10 UNL     1      -5.951   1.506  -2.983  1.00  0.00     0.414 C 
HETATM   35  F1  UNL     1      -4.960   1.108  -3.923  1.00  0.00    -0.168 F 
HETATM   36  F2  UNL     1      -5.171   1.896  -1.924  1.00  0.00    -0.168 F 
HETATM   37  F3  UNL     1      -6.640   0.320  -2.756  1.00  0.00    -0.168 F 
ENDBRANCH   1  34
BRANCH   7  38
HETATM   38  N5  UNL     1      -6.235   4.781  -4.547  1.00  0.00    -0.072 N 
ATOM     39  H53 UNL     1      -5.744   4.388  -5.350  1.00  0.00     0.274 HD
ATOM     40  H52 UNL     1      -7.190   4.777  -4.905  1.00  0.00     0.274 HD
ATOM     41  H51 UNL     1      -5.924   5.737  -4.376  1.00  0.00     0.274 HD
ENDBRANCH   7  38
TORSDOF 8
ENDMDL
MODEL 2
REMARK VINA RESULT: -6.647952053      1.302      2.030
REMARK  8 active torsions:
REMARK  status: ('A' for Active; 'I' for Inactive)
REMARK    1  A    between atoms: C8_8  and  N1_9 
REMARK    2  A    between atoms: N1_9  and  C9_11 
REMARK    3  A    between atoms: C9_11  and  C10_12 
REMARK    4  A    between atoms: C13_18  and  N2_19 
REMARK    5  A    between atoms: C13_18  and  C14_23 
REMARK    6  A    between atoms: C15_28  and  S1_29 
REMARK    7  A    between atoms: S1_29  and  C16_32 
REMARK    8  A    between atoms: C20_37  and  N5_38 
ROOT
HETATM    1  C9  UNL     1      -6.037   2.018  -3.649  1.00  0.00     0.153 C 
HETATM    2  C11 UNL     1      -7.508   2.041  -3.244  1.00  0.00     0.045 C 
HETATM    3  C12 UNL     1      -8.190   3.335  -3.250  1.00  0.00     0.050 C 
HETATM    4  C13 UNL     1      -8.196   3.999  -1.889  1.00  0.00     0.189 C 
HETATM    5  C18 UNL     1      -6.860   4.698  -1.794  1.00  0.00     0.049 C 
HETATM    6  C19 UNL     1      -5.824   3.600  -1.664  1.00  0.00     0.038 C 
HETATM    7  C20 UNL     1      -5.257   3.100  -2.931  1.00  0.00     0.220 C 
ENDROOT
BRANCH   4   8
HETATM    8  N2  UNL     1      -8.302   2.937  -0.873  1.00  0.00    -0.063 N 
ATOM      9  H23 UNL     1      -9.167   2.400  -0.948  1.00  0.00     0.275 HD
ATOM     10  H22 UNL     1      -7.652   2.168  -1.034  1.00  0.00     0.275 HD
ATOM     11  H21 UNL     1      -8.183   3.370   0.043  1.00  0.00     0.275 HD
ENDBRANCH   4   8
BRANCH   4  12
HETATM   12  C14 UNL     1      -9.333   4.899  -1.671  1.00  0.00     0.177 A 
HETATM   13  N3  UNL     1     -10.582   4.651  -2.186  1.00  0.00    -0.279 N 
HETATM   14  N4  UNL     1     -11.394   5.631  -1.820  1.00  0.00    -0.268 N 
ATOM     15  H3  UNL     1     -10.841   3.846  -2.756  1.00  0.00     0.189 HD
HETATM   16  C15 UNL     1     -10.647   6.474  -1.084  1.00  0.00     0.262 A 
ATOM     17  H4  UNL     1     -12.383   5.728  -2.050  1.00  0.00     0.190 HD
HETATM   18  O3  UNL     1      -9.452   6.008  -1.023  1.00  0.00    -0.266 OA
BRANCH  16  19
HETATM   19  S1  UNL     1     -11.169   7.969  -0.316  1.00  0.00     0.215 S 
HETATM   20  O1  UNL     1     -10.155   8.296   0.748  1.00  0.00    -0.219 OA
HETATM   21  O2  UNL     1     -11.084   9.113  -1.313  1.00  0.00    -0.219 OA
BRANCH  19  22
HETATM   22  C16 UNL     1     -12.780   7.832   0.367  1.00  0.00     0.145 C 
HETATM   23  C17 UNL     1     -12.883   8.707   1.579  1.00  0.00     0.021 C 
ENDBRANCH  19  22
ENDBRANCH  16  19
ENDBRANCH   4  12
BRANCH   1  24
HETATM   24  N1  UNL     1      -5.831   2.183  -5.007  1.00  0.00    -0.392 N 
ATOM     25  H1  UNL     1      -4.847   2.319  -5.236  1.00  0.00     0.155 HD
BRANCH  24  26
HETATM   26  C8  UNL     1      -6.623   2.206  -6.105  1.00  0.00     0.135 C 
HETATM   27  C2  UNL     1      -5.665   1.798  -7.273  1.00  0.00    -0.063 C 
HETATM   28  C1  UNL     1      -5.327   2.599  -8.220  1.00  0.00     0.016 C 
HETATM   29  C3  UNL     1      -5.195   0.388  -7.171  1.00  0.00     0.039 C 
HETATM   30  C4  UNL     1      -6.200  -0.568  -6.632  1.00  0.00     0.032 C 
HETATM   31  C5  UNL     1      -7.560   0.066  -6.700  1.00  0.00    -0.022 C 
HETATM   32  C6  UNL     1      -7.757   1.345  -6.429  1.00  0.00    -0.061 C 
HETATM   33  C7  UNL     1      -9.173   1.854  -6.540  1.00  0.00     0.045 C 
ENDBRANCH  24  26
ENDBRANCH   1  24
BRANCH   1  34
HETATM   34  C10 UNL     1      -5.562   0.680  -3.157  1.00  0.00     0.414 C 
HETATM   35  F1  UNL     1      -4.598   0.155  -4.062  1.00  0.00    -0.168 F 
HETATM   36  F2  UNL     1      -4.847   0.691  -1.985  1.00  0.00    -0.168 F 
HETATM   37  F3  UNL     1      -6.559  -0.288  -3.187  1.00  0.00    -0.168 F 
ENDBRANCH   1  34
BRANCH   7  38
HETATM   38  N5  UNL     1      -4.884   4.208  -3.750  1.00  0.00    -0.072 N 
ATOM     39  H53 UNL     1      -4.355   3.887  -4.560  1.00  0.00     0.274 HD
ATOM     40  H52 UNL     1      -5.705   4.594  -4.217  1.00  0.00     0.274 HD
ATOM     41  H51 UNL     1      -4.374   4.945  -3.262  1.00  0.00     0.274 HD
ENDBRANCH   7  38
TORSDOF 8
ENDMDL
MODEL 3
REMARK VINA RESULT: -6.591198398      0.865      1.005
REMARK  8 active torsions:
REMARK  status: ('A' for Active; 'I' for Inactive)
REMARK    1  A    between atoms: C8_8  and  N1_9 
REMARK    2  A    between atoms: N1_9  and  C9_11 
REMARK    3  A    between atoms: C9_11  and  C10_12 
REMARK    4  A    between atoms: C13_18  and  N2_19 
REMARK    5  A    between atoms: C13_18  and  C14_23 
REMARK    6  A    between atoms: C15_28  and  S1_29 
REMARK    7  A    between atoms: S1_29  and  C16_32 
REMARK    8  A    between atoms: C20_37  and  N5_38 
ROOT
HETATM    1  C9  UNL     1      -6.841   2.541  -3.646  1.00  0.00     0.153 C 
HETATM    2  C11 UNL     1      -8.120   2.509  -2.815  1.00  0.00     0.045 C 
HETATM    3  C12 UNL     1      -9.010   3.667  -2.900  1.00  0.00     0.050 C 
HETATM    4  C13 UNL     1      -8.767   4.673  -1.794  1.00  0.00     0.189 C 
HETATM    5  C18 UNL     1      -7.615   5.517  -2.285  1.00  0.00     0.049 C 
HETATM    6  C19 UNL     1      -6.394   4.620  -2.243  1.00  0.00     0.038 C 
HETATM    7  C20 UNL     1      -6.113   3.859  -3.475  1.00  0.00     0.220 C 
ENDROOT
BRANCH   4   8
HETATM    8  N2  UNL     1      -8.386   3.924  -0.583  1.00  0.00    -0.063 N 
ATOM      9  H23 UNL     1      -7.696   3.196  -0.768  1.00  0.00     0.275 HD
ATOM     10  H22 UNL     1      -7.827   4.478   0.066  1.00  0.00     0.275 HD
ATOM     11  H21 UNL     1      -9.240   3.562  -0.161  1.00  0.00     0.275 HD
ENDBRANCH   4   8
BRANCH   4  12
HETATM   12  C14 UNL     1      -9.949   5.465  -1.439  1.00  0.00     0.177 A 
HETATM   13  N3  UNL     1     -11.229   5.049  -1.719  1.00  0.00    -0.279 N 
HETATM   14  N4  UNL     1     -12.078   5.966  -1.279  1.00  0.00    -0.268 N 
ATOM     15  H3  UNL     1     -11.483   4.179  -2.187  1.00  0.00     0.189 HD
HETATM   16  C15 UNL     1     -11.323   6.936  -0.733  1.00  0.00     0.262 A 
ATOM     17  H4  UNL     1     -13.095   5.941  -1.342  1.00  0.00     0.190 HD
HETATM   18  O3  UNL     1     -10.088   6.602  -0.848  1.00  0.00    -0.266 OA
BRANCH  16  19
HETATM   19  S1  UNL     1     -11.881   8.424   0.023  1.00  0.00     0.215 S 
HETATM   20  O1  UNL     1     -10.658   9.174   0.480  1.00  0.00    -0.219 OA
HETATM   21  O2  UNL     1     -12.529   9.317  -1.023  1.00  0.00    -0.219 OA
BRANCH  19  22
HETATM   22  C16 UNL     1     -12.970   8.115   1.364  1.00  0.00     0.145 C 
HETATM   23  C17 UNL     1     -14.376   8.419   0.943  1.00  0.00     0.021 C 
ENDBRANCH  19  22
ENDBRANCH  16  19
ENDBRANCH   4  12
BRANCH   1  24
HETATM   24  N1  UNL     1      -7.052   2.351  -5.000  1.00  0.00    -0.392 N 
ATOM     25  H1  UNL     1      -6.575   3.050  -5.569  1.00  0.00     0.155 HD
BRANCH  24  26
HETATM   26  C8  UNL     1      -7.739   1.458  -5.752  1.00  0.00     0.135 C 
HETATM   27  C2  UNL     1      -8.665   2.347  -6.645  1.00  0.00    -0.063 C 
HETATM   28  C1  UNL     1      -9.946   2.359  -6.540  1.00  0.00     0.016 C 
HETATM   29  C3  UNL     1      -7.907   3.170  -7.628  1.00  0.00     0.039 C 
HETATM   30  C4  UNL     1      -6.697   2.512  -8.193  1.00  0.00     0.032 C 
HETATM   31  C5  UNL     1      -6.776   1.036  -7.921  1.00  0.00    -0.022 C 
HETATM   32  C6  UNL     1      -7.233   0.552  -6.780  1.00  0.00    -0.061 C 
HETATM   33  C7  UNL     1      -7.261  -0.950  -6.640  1.00  0.00     0.045 C 
ENDBRANCH  24  26
ENDBRANCH   1  24
BRANCH   1  34
HETATM   34  C10 UNL     1      -6.004   1.451  -3.039  1.00  0.00     0.414 C 
HETATM   35  F1  UNL     1      -5.060   0.987  -3.996  1.00  0.00    -0.168 F 
HETATM   36  F2  UNL     1      -5.176   1.832  -2.012  1.00  0.00    -0.168 F 
HETATM   37  F3  UNL     1      -6.737   0.304  -2.761  1.00  0.00    -0.168 F 
ENDBRANCH   1  34
BRANCH   7  38
HETATM   38  N5  UNL     1      -6.197   4.735  -4.599  1.00  0.00    -0.072 N 
ATOM     39  H53 UNL     1      -6.073   4.213  -5.465  1.00  0.00     0.274 HD
ATOM     40  H52 UNL     1      -7.157   5.059  -4.724  1.00  0.00     0.274 HD
ATOM     41  H51 UNL     1      -5.557   5.528  -4.568  1.00  0.00     0.274 HD
ENDBRANCH   7  38
TORSDOF 8
ENDMDL
MODEL 4
REMARK VINA RESULT: -6.526573719      1.226      1.991
REMARK  8 active torsions:
REMARK  status: ('A' for Active; 'I' for Inactive)
REMARK    1  A    between atoms: C8_8  and  N1_9 
REMARK    2  A    between atoms: N1_9  and  C9_11 
REMARK    3  A    between atoms: C9_11  and  C10_12 
REMARK    4  A    between atoms: C13_18  and  N2_19 
REMARK    5  A    between atoms: C13_18  and  C14_23 
REMARK    6  A    between atoms: C15_28  and  S1_29 
REMARK    7  A    between atoms: S1_29  and  C16_32 
REMARK    8  A    between atoms: C20_37  and  N5_38 
ROOT
HETATM    1  C9  UNL     1      -5.793   1.927  -3.529  1.00  0.00     0.153 C 
HETATM    2  C11 UNL     1      -7.280   1.870  -3.191  1.00  0.00     0.045 C 
HETATM    3  C12 UNL     1      -8.043   3.115  -3.285  1.00  0.00     0.050 C 
HETATM    4  C13 UNL     1      -8.155   3.834  -1.957  1.00  0.00     0.189 C 
HETATM    5  C18 UNL     1      -6.873   4.622  -1.833  1.00  0.00     0.049 C 
HETATM    6  C19 UNL     1      -5.776   3.602  -1.609  1.00  0.00     0.038 C 
HETATM    7  C20 UNL     1      -5.118   3.087  -2.826  1.00  0.00     0.220 C 
ENDROOT
BRANCH   4   8
HETATM    8  N2  UNL     1      -8.241   2.810  -0.900  1.00  0.00    -0.063 N 
ATOM      9  H23 UNL     1      -8.031   1.871  -1.239  1.00  0.00     0.275 HD
ATOM     10  H22 UNL     1      -7.485   2.879  -0.218  1.00  0.00     0.275 HD
ATOM     11  H21 UNL     1      -9.165   2.879  -0.474  1.00  0.00     0.275 HD
ENDBRANCH   4   8
BRANCH   4  12
HETATM   12  C14 UNL     1      -9.356   4.665  -1.829  1.00  0.00     0.177 A 
HETATM   13  N3  UNL     1     -10.552   4.332  -2.418  1.00  0.00    -0.279 N 
HETATM   14  N4  UNL     1     -11.444   5.266  -2.125  1.00  0.00    -0.268 N 
ATOM     15  H3  UNL     1     -10.725   3.503  -2.987  1.00  0.00     0.189 HD
HETATM   16  C15 UNL     1     -10.799   6.165  -1.360  1.00  0.00     0.262 A 
ATOM     17  H4  UNL     1     -12.420   5.298  -2.419  1.00  0.00     0.190 HD
HETATM   18  O3  UNL     1      -9.584   5.774  -1.213  1.00  0.00    -0.266 OA
BRANCH  16  19
HETATM   19  S1  UNL     1     -11.459   7.637  -0.656  1.00  0.00     0.215 S 
HETATM   20  O1  UNL     1     -12.061   8.434  -1.783  1.00  0.00    -0.219 OA
HETATM   21  O2  UNL     1     -12.625   7.290   0.255  1.00  0.00    -0.219 OA
BRANCH  19  22
HETATM   22  C16 UNL     1     -10.237   8.567   0.193  1.00  0.00     0.145 C 
HETATM   23  C17 UNL     1     -10.644   8.732   1.625  1.00  0.00     0.021 C 
ENDBRANCH  19  22
ENDBRANCH  16  19
ENDBRANCH   4  12
BRANCH   1  24
HETATM   24  N1  UNL     1      -5.534   2.049  -4.883  1.00  0.00    -0.392 N 
ATOM     25  H1  UNL     1      -4.546   2.212  -5.075  1.00  0.00     0.155 HD
BRANCH  24  26
HETATM   26  C8  UNL     1      -6.278   2.003  -6.013  1.00  0.00     0.135 C 
HETATM   27  C2  UNL     1      -5.279   1.497  -7.105  1.00  0.00    -0.063 C 
HETATM   28  C1  UNL     1      -4.887   2.221  -8.092  1.00  0.00     0.016 C 
HETATM   29  C3  UNL     1      -4.838   0.092  -6.881  1.00  0.00     0.039 C 
HETATM   30  C4  UNL     1      -5.881  -0.809  -6.319  1.00  0.00     0.032 C 
HETATM   31  C5  UNL     1      -7.226  -0.162  -6.492  1.00  0.00    -0.022 C 
HETATM   32  C6  UNL     1      -7.412   1.136  -6.323  1.00  0.00    -0.061 C 
HETATM   33  C7  UNL     1      -8.813   1.655  -6.533  1.00  0.00     0.045 C 
ENDBRANCH  24  26
ENDBRANCH   1  24
BRANCH   1  34
HETATM   34  C10 UNL     1      -5.257   0.646  -2.957  1.00  0.00     0.414 C 
HETATM   35  F1  UNL     1      -4.209   0.157  -3.785  1.00  0.00    -0.168 F 
HETATM   36  F2  UNL     1      -4.615   0.750  -1.748  1.00  0.00    -0.168 F 
HETATM   37  F3  UNL     1      -6.182  -0.391  -3.003  1.00  0.00    -0.168 F 
ENDBRANCH   1  34
BRANCH   7  38
HETATM   38  N5  UNL     1      -4.780   4.182  -3.676  1.00  0.00    -0.072 N 
ATOM     39  H53 UNL     1      -3.842   4.058  -4.057  1.00  0.00     0.274 HD
ATOM     40  H52 UNL     1      -5.326   4.145  -4.537  1.00  0.00     0.274 HD
ATOM     41  H51 UNL     1      -4.866   5.101  -3.241  1.00  0.00     0.274 HD
ENDBRANCH   7  38
TORSDOF 8
ENDMDL
MODEL 5
REMARK VINA RESULT: -6.394601253      2.228      3.178
REMARK  8 active torsions:
REMARK  status: ('A' for Active; 'I' for Inactive)
REMARK    1  A    between atoms: C8_8  and  N1_9 
REMARK    2  A    between atoms: N1_9  and  C9_11 
REMARK    3  A    between atoms: C9_11  and  C10_12 
REMARK    4  A    between atoms: C13_18  and  N2_19 
REMARK    5  A    between atoms: C13_18  and  C14_23 
REMARK    6  A    between atoms: C15_28  and  S1_29 
REMARK    7  A    between atoms: S1_29  and  C16_32 
REMARK    8  A    between atoms: C20_37  and  N5_38 
ROOT
HETATM    1  C9  UNL     1      -5.768   1.676  -3.787  1.00  0.00     0.153 C 
HETATM    2  C11 UNL     1      -7.257   1.620  -3.457  1.00  0.00     0.045 C 
HETATM    3  C12 UNL     1      -8.009   2.874  -3.512  1.00  0.00     0.050 C 
HETATM    4  C13 UNL     1      -8.120   3.548  -2.160  1.00  0.00     0.189 C 
HETATM    5  C18 UNL     1      -6.832   4.322  -2.006  1.00  0.00     0.049 C 
HETATM    6  C19 UNL     1      -5.745   3.285  -1.812  1.00  0.00     0.038 C 
HETATM    7  C20 UNL     1      -5.086   2.806  -3.043  1.00  0.00     0.220 C 
ENDROOT
BRANCH   4   8
HETATM    8  N2  UNL     1      -8.219   2.491  -1.139  1.00  0.00    -0.063 N 
ATOM      9  H23 UNL     1      -9.043   1.900  -1.257  1.00  0.00     0.275 HD
ATOM     10  H22 UNL     1      -7.514   1.762  -1.253  1.00  0.00     0.275 HD
ATOM     11  H21 UNL     1      -8.180   2.938  -0.224  1.00  0.00     0.275 HD
ENDBRANCH   4   8
BRANCH   4  12
HETATM   12  C14 UNL     1      -9.315   4.385  -2.010  1.00  0.00     0.177 A 
HETATM   13  N3  UNL     1      -9.550   5.142  -0.887  1.00  0.00    -0.279 N 
HETATM   14  N4  UNL     1     -10.697   5.787  -1.043  1.00  0.00    -0.268 N 
ATOM     15  H3  UNL     1      -8.943   5.199  -0.070  1.00  0.00     0.189 HD
HETATM   16  C15 UNL     1     -11.160   5.428  -2.254  1.00  0.00     0.262 A 
ATOM     17  H4  UNL     1     -11.138   6.425  -0.381  1.00  0.00     0.190 HD
HETATM   18  O3  UNL     1     -10.322   4.610  -2.782  1.00  0.00    -0.266 OA
BRANCH  16  19
HETATM   19  S1  UNL     1     -12.649   5.958  -3.027  1.00  0.00     0.215 S 
HETATM   20  O1  UNL     1     -13.739   5.872  -1.993  1.00  0.00    -0.219 OA
HETATM   21  O2  UNL     1     -12.547   7.434  -3.377  1.00  0.00    -0.219 OA
BRANCH  19  22
HETATM   22  C16 UNL     1     -13.040   4.992  -4.439  1.00  0.00     0.145 C 
HETATM   23  C17 UNL     1     -13.269   3.571  -4.022  1.00  0.00     0.021 C 
ENDBRANCH  19  22
ENDBRANCH  16  19
ENDBRANCH   4  12
BRANCH   1  24
HETATM   24  N1  UNL     1      -5.503   1.841  -5.135  1.00  0.00    -0.392 N 
ATOM     25  H1  UNL     1      -4.518   2.035  -5.315  1.00  0.00     0.155 HD
BRANCH  24  26
HETATM   26  C8  UNL     1      -6.237   1.807  -6.272  1.00  0.00     0.135 C 
HETATM   27  C2  UNL     1      -5.201   1.429  -7.382  1.00  0.00    -0.063 C 
HETATM   28  C1  UNL     1      -4.855   2.231  -8.325  1.00  0.00     0.016 C 
HETATM   29  C3  UNL     1      -4.667   0.047  -7.230  1.00  0.00     0.039 C 
HETATM   30  C4  UNL     1      -5.649  -0.951  -6.726  1.00  0.00     0.032 C 
HETATM   31  C5  UNL     1      -7.034  -0.388  -6.874  1.00  0.00    -0.022 C 
HETATM   32  C6  UNL     1      -7.309   0.883  -6.637  1.00  0.00    -0.061 C 
HETATM   33  C7  UNL     1      -8.740   1.318  -6.830  1.00  0.00     0.045 C 
ENDBRANCH  24  26
ENDBRANCH   1  24
BRANCH   1  34
HETATM   34  C10 UNL     1      -5.245   0.371  -3.257  1.00  0.00     0.414 C 
HETATM   35  F1  UNL     1      -4.156  -0.067  -4.061  1.00  0.00    -0.168 F 
HETATM   36  F2  UNL     1      -4.658   0.419  -2.017  1.00  0.00    -0.168 F 
HETATM   37  F3  UNL     1      -6.157  -0.669  -3.397  1.00  0.00    -0.168 F 
ENDBRANCH   1  34
BRANCH   7  38
HETATM   38  N5  UNL     1      -4.735   3.926  -3.854  1.00  0.00    -0.072 N 
ATOM     39  H53 UNL     1      -5.465   4.108  -4.543  1.00  0.00     0.274 HD
ATOM     40  H52 UNL     1      -4.788   4.788  -3.311  1.00  0.00     0.274 HD
ATOM     41  H51 UNL     1      -3.827   3.851  -4.313  1.00  0.00     0.274 HD
ENDBRANCH   7  38
TORSDOF 8
ENDMDL
