MODEL 1
REMARK VINA RESULT: -7.732052188      0.000      0.000
REMARK  9 active torsions:
REMARK  status: ('A' for Active; 'I' for Inactive)
REMARK    1  A    between atoms: O1_2  and  C2_3 
REMARK    2  A    between atoms: C4_7  and  N2_8 
REMARK    3  A    between atoms: N2_8  and  C5_10 
REMARK    4  A    between atoms: C7_14  and  C8_15 
REMARK    5  A    between atoms: C11_18  and  C12_19 
REMARK    6  A    between atoms: C13_27  and  C14_28 
REMARK    7  A    between atoms: C14_28  and  N6_30 
REMARK    8  A    between atoms: N6_30  and  C16_32 
REMARK    9  A    between atoms: C17_35  and  N8_36 
ROOT
HETATM    1  C16 UNL     1     -17.143  12.490   3.525  1.00  0.00     0.143 A 
HETATM    2  N7  UNL     1     -16.485  12.811   4.630  1.00  0.00    -0.175 N 
ATOM      3  H7  UNL     1     -15.609  12.333   4.843  1.00  0.00     0.186 HD
HETATM    4  C17 UNL     1     -16.939  13.745   5.475  1.00  0.00     0.679 A 
HETATM    5  N9  UNL     1     -18.090  14.389   5.220  1.00  0.00    -0.164 N 
ATOM      6  H9  UNL     1     -18.436  15.100   5.864  1.00  0.00     0.186 HD
HETATM    7  C18 UNL     1     -18.777  14.091   4.116  1.00  0.00     0.227 A 
HETATM    8  F4  UNL     1     -19.929  14.740   3.861  1.00  0.00    -0.184 F 
HETATM    9  C19 UNL     1     -18.324  13.137   3.241  1.00  0.00     0.145 A 
HETATM   10  C20 UNL     1     -19.098  12.849   2.057  1.00  0.00     0.108 C 
HETATM   11  N10 UNL     1     -19.723  12.640   1.100  1.00  0.00    -0.191 NA
ENDROOT
BRANCH   1  12
HETATM   12  N6  UNL     1     -16.719  11.612   2.734  1.00  0.00    -0.365 N 
ATOM     13  H6  UNL     1     -17.342  10.808   2.652  1.00  0.00     0.162 HD
BRANCH  12  14
HETATM   14  C14 UNL     1     -15.567  11.506   1.942  1.00  0.00     0.133 C 
HETATM   15  C15 UNL     1     -15.192  12.809   1.254  1.00  0.00     0.039 C 
BRANCH  14  16
HETATM   16  C13 UNL     1     -15.478  10.350   1.019  1.00  0.00     0.085 A 
HETATM   17  C2  UNL     1     -14.599   9.321   1.301  1.00  0.00     0.167 A 
HETATM   18  N1  UNL     1     -14.483   8.264   0.467  1.00  0.00    -0.342 N 
HETATM   19  C3  UNL     1     -15.220   8.190  -0.652  1.00  0.00     0.139 A 
ATOM     20  H1  UNL     1     -13.829   7.515   0.692  1.00  0.00     0.167 HD
HETATM   21  C4  UNL     1     -16.110   9.212  -0.958  1.00  0.00     0.137 A 
HETATM   22  N5  UNL     1     -16.212  10.261  -0.111  1.00  0.00    -0.339 N 
ATOM     23  H5  UNL     1     -16.866  11.012  -0.333  1.00  0.00     0.167 HD
BRANCH  17  24
HETATM   24  O1  UNL     1     -13.843   9.418   2.468  1.00  0.00    -0.339 OA
HETATM   25  C1  UNL     1     -12.603   8.742   2.502  1.00  0.00     0.211 C 
ENDBRANCH  17  24
BRANCH  21  26
HETATM   26  N2  UNL     1     -16.863   9.118  -2.155  1.00  0.00    -0.175 N 
ATOM     27  H2  UNL     1     -16.448   9.430  -3.033  1.00  0.00     0.186 HD
BRANCH  26  28
HETATM   28  C5  UNL     1     -18.085   8.637  -2.153  1.00  0.00     0.684 A 
HETATM   29  N3  UNL     1     -19.048   9.210  -2.886  1.00  0.00    -0.201 N 
HETATM   30  C6  UNL     1     -20.328   8.740  -2.915  1.00  0.00     0.116 A 
ATOM     31  H3  UNL     1     -18.815  10.031  -3.446  1.00  0.00     0.183 HD
HETATM   32  C7  UNL     1     -20.662   7.634  -2.168  1.00  0.00    -0.006 A 
HETATM   33  C11 UNL     1     -19.685   7.036  -1.413  1.00  0.00     0.140 A 
HETATM   34  N4  UNL     1     -18.430   7.566  -1.438  1.00  0.00    -0.186 N 
ATOM     35  H4  UNL     1     -17.709   7.115  -0.874  1.00  0.00     0.184 HD
BRANCH  32  36
HETATM   36  C8  UNL     1     -22.052   7.105  -2.163  1.00  0.00     0.022 A 
HETATM   37  C9  UNL     1     -22.954   7.333  -3.321  1.00  0.00     0.010 A 
HETATM   38  C10 UNL     1     -23.185   8.111  -2.098  1.00  0.00     0.010 A 
ENDBRANCH  32  36
BRANCH  33  39
HETATM   39  C12 UNL     1     -19.926   5.830  -0.587  1.00  0.00     0.433 C 
HETATM   40  F1  UNL     1     -20.922   5.006  -1.101  1.00  0.00    -0.165 F 
HETATM   41  F2  UNL     1     -18.786   5.048  -0.543  1.00  0.00    -0.165 F 
HETATM   42  F3  UNL     1     -20.197   6.168   0.730  1.00  0.00    -0.165 F 
ENDBRANCH  33  39
ENDBRANCH  26  28
ENDBRANCH  21  26
ENDBRANCH  14  16
ENDBRANCH  12  14
ENDBRANCH   1  12
BRANCH   4  43
HETATM   43  N8  UNL     1     -16.303  14.080   6.582  1.00  0.00    -0.234 N 
ATOM     44  H82 UNL     1     -15.359  13.715   6.698  1.00  0.00     0.174 HD
ATOM     45  H81 UNL     1     -16.717  14.676   7.300  1.00  0.00     0.174 HD
ENDBRANCH   4  43
TORSDOF 9
ENDMDL
MODEL 2
REMARK VINA RESULT: -7.595962418      9.457     12.509
REMARK  9 active torsions:
REMARK  status: ('A' for Active; 'I' for Inactive)
REMARK    1  A    between atoms: O1_2  and  C2_3 
REMARK    2  A    between atoms: C4_7  and  N2_8 
REMARK    3  A    between atoms: N2_8  and  C5_10 
REMARK    4  A    between atoms: C7_14  and  C8_15 
REMARK    5  A    between atoms: C11_18  and  C12_19 
REMARK    6  A    between atoms: C13_27  and  C14_28 
REMARK    7  A    between atoms: C14_28  and  N6_30 
REMARK    8  A    between atoms: N6_30  and  C16_32 
REMARK    9  A    between atoms: C17_35  and  N8_36 
ROOT
HETATM    1  C16 UNL     1     -11.707   6.708  -0.548  1.00  0.00     0.143 A 
HETATM    2  N7  UNL     1     -10.749   7.182   0.237  1.00  0.00    -0.175 N 
ATOM      3  H7  UNL     1      -9.860   6.683   0.293  1.00  0.00     0.186 HD
HETATM    4  C17 UNL     1     -10.916   8.297   0.958  1.00  0.00     0.679 A 
HETATM    5  N9  UNL     1     -12.076   8.973   0.903  1.00  0.00    -0.164 N 
ATOM      6  H9  UNL     1     -12.204   9.823   1.454  1.00  0.00     0.186 HD
HETATM    7  C18 UNL     1     -13.060   8.524   0.122  1.00  0.00     0.227 A 
HETATM    8  F4  UNL     1     -14.221   9.204   0.068  1.00  0.00    -0.184 F 
HETATM    9  C19 UNL     1     -12.903   7.383  -0.623  1.00  0.00     0.145 A 
HETATM   10  C20 UNL     1     -13.993   6.936  -1.457  1.00  0.00     0.108 C 
HETATM   11  N10 UNL     1     -14.873   6.597  -2.135  1.00  0.00    -0.191 NA
ENDROOT
BRANCH   1  12
HETATM   12  N6  UNL     1     -11.551   5.660  -1.222  1.00  0.00    -0.365 N 
ATOM     13  H6  UNL     1     -12.040   4.853  -0.834  1.00  0.00     0.162 HD
BRANCH  12  14
HETATM   14  C14 UNL     1     -10.844   5.368  -2.398  1.00  0.00     0.133 C 
HETATM   15  C15 UNL     1     -11.655   4.559  -3.398  1.00  0.00     0.039 C 
BRANCH  14  16
HETATM   16  C13 UNL     1      -9.466   4.843  -2.252  1.00  0.00     0.085 A 
HETATM   17  C2  UNL     1      -8.411   5.728  -2.130  1.00  0.00     0.167 A 
HETATM   18  N1  UNL     1      -7.142   5.278  -2.015  1.00  0.00    -0.342 N 
HETATM   19  C3  UNL     1      -6.879   3.962  -2.018  1.00  0.00     0.139 A 
ATOM     20  H1  UNL     1      -6.377   5.945  -1.925  1.00  0.00     0.167 HD
HETATM   21  C4  UNL     1      -7.922   3.052  -2.142  1.00  0.00     0.137 A 
HETATM   22  N5  UNL     1      -9.185   3.523  -2.254  1.00  0.00    -0.339 N 
ATOM     23  H5  UNL     1      -9.952   2.856  -2.344  1.00  0.00     0.167 HD
BRANCH  17  24
HETATM   24  O1  UNL     1      -8.706   7.090  -2.129  1.00  0.00    -0.339 OA
HETATM   25  C1  UNL     1      -7.718   7.973  -1.637  1.00  0.00     0.211 C 
ENDBRANCH  17  24
BRANCH  21  26
HETATM   26  N2  UNL     1      -7.615   1.669  -2.160  1.00  0.00    -0.175 N 
ATOM     27  H2  UNL     1      -7.944   1.073  -1.400  1.00  0.00     0.186 HD
BRANCH  26  28
HETATM   28  C5  UNL     1      -6.915   1.141  -3.139  1.00  0.00     0.684 A 
HETATM   29  N3  UNL     1      -5.667   0.702  -2.929  1.00  0.00    -0.201 N 
HETATM   30  C6  UNL     1      -4.909   0.145  -3.916  1.00  0.00     0.116 A 
ATOM     31  H3  UNL     1      -5.268   0.787  -1.994  1.00  0.00     0.183 HD
HETATM   32  C7  UNL     1      -5.429   0.020  -5.183  1.00  0.00    -0.006 A 
HETATM   33  C11 UNL     1      -6.707   0.464  -5.412  1.00  0.00     0.140 A 
HETATM   34  N4  UNL     1      -7.401   1.009  -4.374  1.00  0.00    -0.186 N 
ATOM     35  H4  UNL     1      -8.350   1.337  -4.552  1.00  0.00     0.184 HD
BRANCH  32  36
HETATM   36  C8  UNL     1      -4.623  -0.568  -6.287  1.00  0.00     0.022 A 
HETATM   37  C9  UNL     1      -3.186  -0.882  -6.091  1.00  0.00     0.010 A 
HETATM   38  C10 UNL     1      -3.534   0.294  -6.896  1.00  0.00     0.010 A 
ENDBRANCH  32  36
BRANCH  33  39
HETATM   39  C12 UNL     1      -7.375   0.362  -6.730  1.00  0.00     0.433 C 
HETATM   40  F1  UNL     1      -7.602  -0.951  -7.127  1.00  0.00    -0.165 F 
HETATM   41  F2  UNL     1      -8.623   0.954  -6.679  1.00  0.00    -0.165 F 
HETATM   42  F3  UNL     1      -6.674   1.057  -7.705  1.00  0.00    -0.165 F 
ENDBRANCH  33  39
ENDBRANCH  26  28
ENDBRANCH  21  26
ENDBRANCH  14  16
ENDBRANCH  12  14
ENDBRANCH   1  12
BRANCH   4  43
HETATM   43  N8  UNL     1      -9.980   8.788   1.748  1.00  0.00    -0.234 N 
ATOM     44  H82 UNL     1      -9.076   8.316   1.737  1.00  0.00     0.174 HD
ATOM     45  H81 UNL     1     -10.130   9.598   2.348  1.00  0.00     0.174 HD
ENDBRANCH   4  43
TORSDOF 9
ENDMDL
MODEL 3
REMARK VINA RESULT: -7.465817413      8.384     11.827
REMARK  9 active torsions:
REMARK  status: ('A' for Active; 'I' for Inactive)
REMARK    1  A    between atoms: O1_2  and  C2_3 
REMARK    2  A    between atoms: C4_7  and  N2_8 
REMARK    3  A    between atoms: N2_8  and  C5_10 
REMARK    4  A    between atoms: C7_14  and  C8_15 
REMARK    5  A    between atoms: C11_18  and  C12_19 
REMARK    6  A    between atoms: C13_27  and  C14_28 
REMARK    7  A    between atoms: C14_28  and  N6_30 
REMARK    8  A    between atoms: N6_30  and  C16_32 
REMARK    9  A    between atoms: C17_35  and  N8_36 
ROOT
HETATM    1  C16 UNL     1     -11.588   8.327  -0.576  1.00  0.00     0.143 A 
HETATM    2  N7  UNL     1     -10.298   8.560  -0.777  1.00  0.00    -0.175 N 
ATOM      3  H7  UNL     1      -9.934   8.547  -1.731  1.00  0.00     0.186 HD
HETATM    4  C17 UNL     1      -9.461   8.810   0.236  1.00  0.00     0.679 A 
HETATM    5  N9  UNL     1      -9.914   8.832   1.501  1.00  0.00    -0.164 N 
ATOM      6  H9  UNL     1      -9.275   9.023   2.274  1.00  0.00     0.186 HD
HETATM    7  C18 UNL     1     -11.207   8.604   1.738  1.00  0.00     0.227 A 
HETATM    8  F4  UNL     1     -11.658   8.628   3.007  1.00  0.00    -0.184 F 
HETATM    9  C19 UNL     1     -12.076   8.345   0.709  1.00  0.00     0.145 A 
HETATM   10  C20 UNL     1     -13.467   8.107   1.013  1.00  0.00     0.108 C 
HETATM   11  N10 UNL     1     -14.586   7.933   1.271  1.00  0.00    -0.191 NA
ENDROOT
BRANCH   1  12
HETATM   12  N6  UNL     1     -12.373   8.088  -1.527  1.00  0.00    -0.365 N 
ATOM     13  H6  UNL     1     -12.967   8.881  -1.769  1.00  0.00     0.162 HD
BRANCH  12  14
HETATM   14  C14 UNL     1     -12.602   6.958  -2.325  1.00  0.00     0.133 C 
HETATM   15  C15 UNL     1     -13.587   5.979  -1.706  1.00  0.00     0.039 C 
BRANCH  14  16
HETATM   16  C13 UNL     1     -11.418   6.269  -2.888  1.00  0.00     0.085 A 
HETATM   17  C2  UNL     1     -10.687   6.880  -3.889  1.00  0.00     0.167 A 
HETATM   18  N1  UNL     1      -9.614   6.266  -4.433  1.00  0.00    -0.342 N 
HETATM   19  C3  UNL     1      -9.234   5.049  -4.014  1.00  0.00     0.139 A 
ATOM     20  H1  UNL     1      -9.086   6.733  -5.171  1.00  0.00     0.167 HD
HETATM   21  C4  UNL     1      -9.953   4.412  -3.010  1.00  0.00     0.137 A 
HETATM   22  N5  UNL     1     -11.024   5.044  -2.477  1.00  0.00    -0.339 N 
ATOM     23  H5  UNL     1     -11.553   4.579  -1.739  1.00  0.00     0.167 HD
BRANCH  17  24
HETATM   24  O1  UNL     1     -11.098   8.144  -4.310  1.00  0.00    -0.339 OA
HETATM   25  C1  UNL     1     -10.144   9.186  -4.278  1.00  0.00     0.211 C 
ENDBRANCH  17  24
BRANCH  21  26
HETATM   26  N2  UNL     1      -9.543   3.121  -2.598  1.00  0.00    -0.175 N 
ATOM     27  H2  UNL     1     -10.245   2.444  -2.299  1.00  0.00     0.186 HD
BRANCH  26  28
HETATM   28  C5  UNL     1      -8.274   2.779  -2.595  1.00  0.00     0.684 A 
HETATM   29  N3  UNL     1      -7.409   3.367  -1.758  1.00  0.00    -0.201 N 
HETATM   30  C6  UNL     1      -6.086   3.040  -1.721  1.00  0.00     0.116 A 
ATOM     31  H3  UNL     1      -7.754   4.087  -1.123  1.00  0.00     0.183 HD
HETATM   32  C7  UNL     1      -5.601   2.070  -2.568  1.00  0.00    -0.006 A 
HETATM   33  C11 UNL     1      -6.477   1.460  -3.431  1.00  0.00     0.140 A 
HETATM   34  N4  UNL     1      -7.784   1.842  -3.407  1.00  0.00    -0.186 N 
ATOM     35  H4  UNL     1      -8.429   1.384  -4.051  1.00  0.00     0.184 HD
BRANCH  32  36
HETATM   36  C8  UNL     1      -4.161   1.701  -2.566  1.00  0.00     0.022 A 
HETATM   37  C9  UNL     1      -3.136   2.650  -2.060  1.00  0.00     0.010 A 
HETATM   38  C10 UNL     1      -3.242   2.452  -3.510  1.00  0.00     0.010 A 
ENDBRANCH  32  36
BRANCH  33  39
HETATM   39  C12 UNL     1      -6.071   0.391  -4.373  1.00  0.00     0.433 C 
HETATM   40  F1  UNL     1      -5.413  -0.664  -3.750  1.00  0.00    -0.165 F 
HETATM   41  F2  UNL     1      -7.187  -0.169  -4.967  1.00  0.00    -0.165 F 
HETATM   42  F3  UNL     1      -5.311   0.900  -5.414  1.00  0.00    -0.165 F 
ENDBRANCH  33  39
ENDBRANCH  26  28
ENDBRANCH  21  26
ENDBRANCH  14  16
ENDBRANCH  12  14
ENDBRANCH   1  12
BRANCH   4  43
HETATM   43  N8  UNL     1      -8.173   9.042   0.062  1.00  0.00    -0.234 N 
ATOM     44  H82 UNL     1      -7.860   9.197  -0.896  1.00  0.00     0.174 HD
ATOM     45  H81 UNL     1      -7.507   9.073   0.833  1.00  0.00     0.174 HD
ENDBRANCH   4  43
TORSDOF 9
ENDMDL
MODEL 4
REMARK VINA RESULT: -7.436890786      7.573     10.917
REMARK  9 active torsions:
REMARK  status: ('A' for Active; 'I' for Inactive)
REMARK    1  A    between atoms: O1_2  and  C2_3 
REMARK    2  A    between atoms: C4_7  and  N2_8 
REMARK    3  A    between atoms: N2_8  and  C5_10 
REMARK    4  A    between atoms: C7_14  and  C8_15 
REMARK    5  A    between atoms: C11_18  and  C12_19 
REMARK    6  A    between atoms: C13_27  and  C14_28 
REMARK    7  A    between atoms: C14_28  and  N6_30 
REMARK    8  A    between atoms: N6_30  and  C16_32 
REMARK    9  A    between atoms: C17_35  and  N8_36 
ROOT
HETATM    1  C16 UNL     1     -13.788   8.812   0.239  1.00  0.00     0.143 A 
HETATM    2  N7  UNL     1     -14.225   9.581   1.227  1.00  0.00    -0.175 N 
ATOM      3  H7  UNL     1     -13.557  10.150   1.746  1.00  0.00     0.186 HD
HETATM    4  C17 UNL     1     -15.520   9.629   1.562  1.00  0.00     0.679 A 
HETATM    5  N9  UNL     1     -16.422   8.888   0.894  1.00  0.00    -0.164 N 
ATOM      6  H9  UNL     1     -17.409   8.925   1.150  1.00  0.00     0.186 HD
HETATM    7  C18 UNL     1     -16.015   8.105  -0.106  1.00  0.00     0.227 A 
HETATM    8  F4  UNL     1     -16.921   7.366  -0.774  1.00  0.00    -0.184 F 
HETATM    9  C19 UNL     1     -14.691   8.046  -0.460  1.00  0.00     0.145 A 
HETATM   10  C20 UNL     1     -14.297   7.187  -1.552  1.00  0.00     0.108 C 
HETATM   11  N10 UNL     1     -13.996   6.504  -2.442  1.00  0.00    -0.191 NA
ENDROOT
BRANCH   1  12
HETATM   12  N6  UNL     1     -12.572   8.764  -0.073  1.00  0.00    -0.365 N 
ATOM     13  H6  UNL     1     -12.306   9.458  -0.772  1.00  0.00     0.162 HD
BRANCH  12  14
HETATM   14  C14 UNL     1     -11.504   7.956   0.341  1.00  0.00     0.133 C 
HETATM   15  C15 UNL     1     -10.668   8.587   1.444  1.00  0.00     0.039 C 
BRANCH  14  16
HETATM   16  C13 UNL     1     -10.658   7.350  -0.714  1.00  0.00     0.085 A 
HETATM   17  C2  UNL     1     -10.029   8.167  -1.634  1.00  0.00     0.167 A 
HETATM   18  N1  UNL     1      -9.268   7.640  -2.618  1.00  0.00    -0.342 N 
HETATM   19  C3  UNL     1      -9.105   6.312  -2.723  1.00  0.00     0.139 A 
ATOM     20  H1  UNL     1      -8.811   8.259  -3.287  1.00  0.00     0.167 HD
HETATM   21  C4  UNL     1      -9.729   5.469  -1.811  1.00  0.00     0.137 A 
HETATM   22  N5  UNL     1     -10.486   6.016  -0.833  1.00  0.00    -0.339 N 
ATOM     23  H5  UNL     1     -10.943   5.398  -0.161  1.00  0.00     0.167 HD
BRANCH  17  24
HETATM   24  O1  UNL     1     -10.210   9.543  -1.507  1.00  0.00    -0.339 OA
HETATM   25  C1  UNL     1     -10.055  10.333  -2.668  1.00  0.00     0.211 C 
ENDBRANCH  17  24
BRANCH  21  26
HETATM   26  N2  UNL     1      -9.556   4.070  -1.955  1.00  0.00    -0.175 N 
ATOM     27  H2  UNL     1     -10.373   3.460  -1.926  1.00  0.00     0.186 HD
BRANCH  26  28
HETATM   28  C5  UNL     1      -8.363   3.546  -2.124  1.00  0.00     0.684 A 
HETATM   29  N3  UNL     1      -7.370   3.813  -1.266  1.00  0.00    -0.201 N 
HETATM   30  C6  UNL     1      -6.119   3.288  -1.405  1.00  0.00     0.116 A 
ATOM     31  H3  UNL     1      -7.556   4.434  -0.478  1.00  0.00     0.183 HD
HETATM   32  C7  UNL     1      -5.848   2.447  -2.460  1.00  0.00    -0.006 A 
HETATM   33  C11 UNL     1      -6.857   2.165  -3.346  1.00  0.00     0.140 A 
HETATM   34  N4  UNL     1      -8.080   2.730  -3.139  1.00  0.00    -0.186 N 
ATOM     35  H4  UNL     1      -8.825   2.514  -3.802  1.00  0.00     0.184 HD
BRANCH  32  36
HETATM   36  C8  UNL     1      -4.491   1.870  -2.650  1.00  0.00     0.022 A 
HETATM   37  C9  UNL     1      -3.301   2.513  -2.036  1.00  0.00     0.010 A 
HETATM   38  C10 UNL     1      -3.502   2.663  -3.483  1.00  0.00     0.010 A 
ENDBRANCH  32  36
BRANCH  33  39
HETATM   39  C12 UNL     1      -6.685   1.260  -4.506  1.00  0.00     0.433 C 
HETATM   40  F1  UNL     1      -6.416  -0.054  -4.138  1.00  0.00    -0.165 F 
HETATM   41  F2  UNL     1      -7.852   1.205  -5.245  1.00  0.00    -0.165 F 
HETATM   42  F3  UNL     1      -5.715   1.736  -5.376  1.00  0.00    -0.165 F 
ENDBRANCH  33  39
ENDBRANCH  26  28
ENDBRANCH  21  26
ENDBRANCH  14  16
ENDBRANCH  12  14
ENDBRANCH   1  12
BRANCH   4  43
HETATM   43  N8  UNL     1     -15.980  10.383   2.542  1.00  0.00    -0.234 N 
ATOM     44  H82 UNL     1     -15.290  10.775   3.182  1.00  0.00     0.174 HD
ATOM     45  H81 UNL     1     -16.972  10.580   2.671  1.00  0.00     0.174 HD
ENDBRANCH   4  43
TORSDOF 9
ENDMDL
MODEL 5
REMARK VINA RESULT: -7.408650919      8.062     11.153
REMARK  9 active torsions:
REMARK  status: ('A' for Active; 'I' for Inactive)
REMARK    1  A    between atoms: O1_2  and  C2_3 
REMARK    2  A    between atoms: C4_7  and  N2_8 
REMARK    3  A    between atoms: N2_8  and  C5_10 
REMARK    4  A    between atoms: C7_14  and  C8_15 
REMARK    5  A    between atoms: C11_18  and  C12_19 
REMARK    6  A    between atoms: C13_27  and  C14_28 
REMARK    7  A    between atoms: C14_28  and  N6_30 
REMARK    8  A    between atoms: N6_30  and  C16_32 
REMARK    9  A    between atoms: C17_35  and  N8_36 
ROOT
HETATM    1  C16 UNL     1     -13.894   7.891  -1.086  1.00  0.00     0.143 A 
HETATM    2  N7  UNL     1     -13.073   8.104  -0.067  1.00  0.00    -0.175 N 
ATOM      3  H7  UNL     1     -12.066   8.024  -0.215  1.00  0.00     0.186 HD
HETATM    4  C17 UNL     1     -13.528   8.421   1.151  1.00  0.00     0.679 A 
HETATM    5  N9  UNL     1     -14.849   8.533   1.374  1.00  0.00    -0.164 N 
ATOM      6  H9  UNL     1     -15.196   8.773   2.302  1.00  0.00     0.186 HD
HETATM    7  C18 UNL     1     -15.702   8.326   0.369  1.00  0.00     0.227 A 
HETATM    8  F4  UNL     1     -17.025   8.440   0.595  1.00  0.00    -0.184 F 
HETATM    9  C19 UNL     1     -15.250   8.001  -0.884  1.00  0.00     0.145 A 
HETATM   10  C20 UNL     1     -16.210   7.789  -1.941  1.00  0.00     0.108 C 
HETATM   11  N10 UNL     1     -16.993   7.638  -2.786  1.00  0.00    -0.191 NA
ENDROOT
BRANCH   1  12
HETATM   12  N6  UNL     1     -13.466   7.590  -2.228  1.00  0.00    -0.365 N 
ATOM     13  H6  UNL     1     -13.699   8.281  -2.942  1.00  0.00     0.162 HD
BRANCH  12  14
HETATM   14  C14 UNL     1     -12.735   6.502  -2.726  1.00  0.00     0.133 C 
HETATM   15  C15 UNL     1     -13.394   5.161  -2.446  1.00  0.00     0.039 C 
BRANCH  14  16
HETATM   16  C13 UNL     1     -11.280   6.472  -2.445  1.00  0.00     0.085 A 
HETATM   17  C2  UNL     1     -10.500   7.563  -2.780  1.00  0.00     0.167 A 
HETATM   18  N1  UNL     1      -9.169   7.555  -2.552  1.00  0.00    -0.342 N 
HETATM   19  C3  UNL     1      -8.574   6.488  -1.997  1.00  0.00     0.139 A 
ATOM     20  H1  UNL     1      -8.609   8.369  -2.806  1.00  0.00     0.167 HD
HETATM   21  C4  UNL     1      -9.336   5.377  -1.653  1.00  0.00     0.137 A 
HETATM   22  N5  UNL     1     -10.668   5.406  -1.888  1.00  0.00    -0.339 N 
ATOM     23  H5  UNL     1     -11.229   4.592  -1.635  1.00  0.00     0.167 HD
BRANCH  17  24
HETATM   24  O1  UNL     1     -11.137   8.661  -3.355  1.00  0.00    -0.339 OA
HETATM   25  C1  UNL     1     -10.803   9.943  -2.862  1.00  0.00     0.211 C 
ENDBRANCH  17  24
BRANCH  21  26
HETATM   26  N2  UNL     1      -8.682   4.257  -1.085  1.00  0.00    -0.175 N 
ATOM     27  H2  UNL     1      -8.738   4.101  -0.079  1.00  0.00     0.186 HD
BRANCH  26  28
HETATM   28  C5  UNL     1      -8.004   3.414  -1.832  1.00  0.00     0.684 A 
HETATM   29  N3  UNL     1      -8.599   2.762  -2.840  1.00  0.00    -0.201 N 
HETATM   30  C6  UNL     1      -7.931   1.882  -3.640  1.00  0.00     0.116 A 
ATOM     31  H3  UNL     1      -9.589   2.930  -3.016  1.00  0.00     0.183 HD
HETATM   32  C7  UNL     1      -6.594   1.642  -3.419  1.00  0.00    -0.006 A 
HETATM   33  C11 UNL     1      -5.973   2.304  -2.391  1.00  0.00     0.140 A 
HETATM   34  N4  UNL     1      -6.709   3.168  -1.636  1.00  0.00    -0.186 N 
ATOM     35  H4  UNL     1      -6.240   3.657  -0.874  1.00  0.00     0.184 HD
BRANCH  32  36
HETATM   36  C8  UNL     1      -5.841   0.677  -4.262  1.00  0.00     0.022 A 
HETATM   37  C9  UNL     1      -6.544  -0.168  -5.260  1.00  0.00     0.010 A 
HETATM   38  C10 UNL     1      -6.080  -0.801  -4.020  1.00  0.00     0.010 A 
ENDBRANCH  32  36
BRANCH  33  39
HETATM   39  C12 UNL     1      -4.536   2.140  -2.074  1.00  0.00     0.433 C 
HETATM   40  F1  UNL     1      -3.698   2.644  -3.063  1.00  0.00    -0.165 F 
HETATM   41  F2  UNL     1      -4.217   2.842  -0.927  1.00  0.00    -0.165 F 
HETATM   42  F3  UNL     1      -4.230   0.816  -1.798  1.00  0.00    -0.165 F 
ENDBRANCH  33  39
ENDBRANCH  26  28
ENDBRANCH  21  26
ENDBRANCH  14  16
ENDBRANCH  12  14
ENDBRANCH   1  12
BRANCH   4  43
HETATM   43  N8  UNL     1     -12.732   8.636   2.182  1.00  0.00    -0.234 N 
ATOM     44  H82 UNL     1     -11.760   8.861   1.971  1.00  0.00     0.174 HD
ATOM     45  H81 UNL     1     -13.052   8.586   3.148  1.00  0.00     0.174 HD
ENDBRANCH   4  43
TORSDOF 9
ENDMDL
