MODEL 1
REMARK VINA RESULT: -6.011925335      0.000      0.000
REMARK  12 active torsions:
REMARK  status: ('A' for Active; 'I' for Inactive)
REMARK    1  A    between atoms: C2_5  and  C3_6 
REMARK    2  A    between atoms: C4_10  and  C5_11 
REMARK    3  A    between atoms: C5_11  and  C6_12 
REMARK    4  A    between atoms: C6_12  and  N3_13 
REMARK    5  A    between atoms: C11_18  and  N4_19 
REMARK    6  A    between atoms: N4_19  and  C12_21 
REMARK    7  A    between atoms: C13_24  and  O1_25 
REMARK    8  A    between atoms: C14_27  and  C15_28 
REMARK    9  A    between atoms: N6_29  and  C16_31 
REMARK   10  A    between atoms: C16_31  and  C17_32 
REMARK   11  A    between atoms: C17_32  and  C18_34 
REMARK   12  A    between atoms: C18_34  and  O2_37 
ROOT
HETATM    1  N4  UNL     1     -19.428   9.422  -2.853  1.00  0.00    -0.320 N 
ATOM      2  H4  UNL     1     -19.300   9.419  -3.865  1.00  0.00     0.169 HD
ENDROOT
BRANCH   1   3
HETATM    3  C11 UNL     1     -19.952   8.298  -2.165  1.00  0.00     0.145 A 
HETATM    4  N1  UNL     1     -21.201   7.810  -2.233  1.00  0.00    -0.279 N 
HETATM    5  C1  UNL     1     -22.277   8.343  -3.035  1.00  0.00     0.179 C 
HETATM    6  N2  UNL     1     -21.329   6.750  -1.453  1.00  0.00    -0.292 N 
HETATM    7  C2  UNL     1     -20.165   6.500  -0.841  1.00  0.00     0.155 A 
ATOM      8  H2  UNL     1     -22.183   6.206  -1.336  1.00  0.00     0.187 HD
HETATM    9  C4  UNL     1     -19.278   7.482  -1.288  1.00  0.00     0.098 A 
BRANCH   7  10
HETATM   10  C3  UNL     1     -19.787   5.444   0.117  1.00  0.00     0.435 C 
HETATM   11  F1  UNL     1     -19.231   5.981   1.260  1.00  0.00    -0.165 F 
HETATM   12  F2  UNL     1     -20.869   4.681   0.506  1.00  0.00    -0.165 F 
HETATM   13  F3  UNL     1     -18.853   4.613  -0.460  1.00  0.00    -0.165 F 
ENDBRANCH   7  10
BRANCH   9  14
HETATM   14  C5  UNL     1     -17.902   7.650  -0.926  1.00  0.00    -0.038 C 
BRANCH  14  15
HETATM   15  C6  UNL     1     -16.725   7.809  -0.630  1.00  0.00     0.014 C 
BRANCH  15  16
HETATM   16  N3  UNL     1     -15.384   8.012  -0.282  1.00  0.00    -0.341 N 
HETATM   17  C7  UNL     1     -14.838   8.420   1.003  1.00  0.00     0.133 C 
HETATM   18  C8  UNL     1     -13.368   8.198   0.889  1.00  0.00     0.022 C 
HETATM   19  C9  UNL     1     -13.142   7.383  -0.348  1.00  0.00     0.022 C 
HETATM   20  C10 UNL     1     -14.298   7.824  -1.236  1.00  0.00     0.133 C 
ENDBRANCH  15  16
ENDBRANCH  14  15
ENDBRANCH   9  14
ENDBRANCH   1   3
BRANCH   1  21
HETATM   21  C12 UNL     1     -19.111  10.470  -2.118  1.00  0.00     0.153 A 
HETATM   22  N5  UNL     1     -17.983  11.185  -2.162  1.00  0.00    -0.316 N 
HETATM   23  C13 UNL     1     -17.857  12.194  -1.348  1.00  0.00     0.161 A 
ATOM     24  H5  UNL     1     -17.239  10.946  -2.817  1.00  0.00     0.170 HD
HETATM   25  C14 UNL     1     -18.884  12.469  -0.493  1.00  0.00     0.074 A 
HETATM   26  S1  UNL     1     -20.012  11.249  -0.894  1.00  0.00    -0.048 SA
BRANCH  23  27
HETATM   27  O1  UNL     1     -16.697  13.011  -1.322  1.00  0.00    -0.345 OA
ATOM     28  H1  UNL     1     -16.256  13.296  -2.113  1.00  0.00     0.219 HD
ENDBRANCH  23  27
BRANCH  25  29
HETATM   29  C15 UNL     1     -18.994  13.529   0.507  1.00  0.00     0.106 C 
HETATM   30  N6  UNL     1     -18.265  13.476   1.543  1.00  0.00    -0.395 N 
ATOM     31  H6  UNL     1     -17.625  12.687   1.635  1.00  0.00     0.159 HD
BRANCH  30  32
HETATM   32  C16 UNL     1     -18.278  14.456   2.599  1.00  0.00     0.159 C 
BRANCH  32  33
HETATM   33  C17 UNL     1     -18.195  13.718   3.911  1.00  0.00     0.221 C 
HETATM   34  F4  UNL     1     -19.198  14.203   4.727  1.00  0.00    -0.245 F 
BRANCH  33  35
HETATM   35  C18 UNL     1     -16.879  13.930   4.619  1.00  0.00     0.083 C 
HETATM   36  C19 UNL     1     -16.004  12.728   4.287  1.00  0.00     0.048 C 
HETATM   37  C20 UNL     1     -17.086  13.984   6.120  1.00  0.00     0.048 C 
BRANCH  35  38
HETATM   38  O2  UNL     1     -16.273  15.097   4.225  1.00  0.00    -0.388 OA
ATOM     39  H2  UNL     1     -15.568  15.342   4.812  1.00  0.00     0.210 HD
ENDBRANCH  35  38
ENDBRANCH  33  35
ENDBRANCH  32  33
ENDBRANCH  30  32
ENDBRANCH  25  29
ENDBRANCH   1  21
TORSDOF 12
ENDMDL
MODEL 2
REMARK VINA RESULT: -5.889054783      7.382     12.147
REMARK  12 active torsions:
REMARK  status: ('A' for Active; 'I' for Inactive)
REMARK    1  A    between atoms: C2_5  and  C3_6 
REMARK    2  A    between atoms: C4_10  and  C5_11 
REMARK    3  A    between atoms: C5_11  and  C6_12 
REMARK    4  A    between atoms: C6_12  and  N3_13 
REMARK    5  A    between atoms: C11_18  and  N4_19 
REMARK    6  A    between atoms: N4_19  and  C12_21 
REMARK    7  A    between atoms: C13_24  and  O1_25 
REMARK    8  A    between atoms: C14_27  and  C15_28 
REMARK    9  A    between atoms: N6_29  and  C16_31 
REMARK   10  A    between atoms: C16_31  and  C17_32 
REMARK   11  A    between atoms: C17_32  and  C18_34 
REMARK   12  A    between atoms: C18_34  and  O2_37 
ROOT
HETATM    1  N4  UNL     1     -11.575   7.549  -3.026  1.00  0.00    -0.320 N 
ATOM      2  H4  UNL     1     -11.971   8.234  -3.670  1.00  0.00     0.169 HD
ENDROOT
BRANCH   1   3
HETATM    3  C11 UNL     1     -11.470   7.808  -1.636  1.00  0.00     0.145 A 
HETATM    4  N1  UNL     1     -10.348   7.986  -0.922  1.00  0.00    -0.279 N 
HETATM    5  C1  UNL     1      -9.000   7.950  -1.438  1.00  0.00     0.179 C 
HETATM    6  N2  UNL     1     -10.636   8.207   0.350  1.00  0.00    -0.292 N 
HETATM    7  C2  UNL     1     -11.964   8.181   0.520  1.00  0.00     0.155 A 
ATOM      8  H2  UNL     1      -9.952   8.372   1.088  1.00  0.00     0.187 HD
HETATM    9  C4  UNL     1     -12.506   7.928  -0.741  1.00  0.00     0.098 A 
BRANCH   7  10
HETATM   10  C3  UNL     1     -12.783   8.369   1.731  1.00  0.00     0.435 C 
HETATM   11  F1  UNL     1     -11.995   8.444   2.862  1.00  0.00    -0.165 F 
HETATM   12  F2  UNL     1     -13.537   9.524   1.678  1.00  0.00    -0.165 F 
HETATM   13  F3  UNL     1     -13.638   7.299   1.880  1.00  0.00    -0.165 F 
ENDBRANCH   7  10
BRANCH   9  14
HETATM   14  C5  UNL     1     -13.891   7.805  -1.090  1.00  0.00    -0.038 C 
BRANCH  14  15
HETATM   15  C6  UNL     1     -15.079   7.705  -1.367  1.00  0.00     0.014 C 
BRANCH  15  16
HETATM   16  N3  UNL     1     -16.439   7.571  -1.671  1.00  0.00    -0.341 N 
HETATM   17  C7  UNL     1     -17.479   6.924  -0.886  1.00  0.00     0.133 C 
HETATM   18  C8  UNL     1     -18.761   7.326  -1.532  1.00  0.00     0.022 C 
HETATM   19  C9  UNL     1     -18.442   8.437  -2.485  1.00  0.00     0.022 C 
HETATM   20  C10 UNL     1     -17.015   8.102  -2.900  1.00  0.00     0.133 C 
ENDBRANCH  15  16
ENDBRANCH  14  15
ENDBRANCH   9  14
ENDBRANCH   1   3
BRANCH   1  21
HETATM   21  C12 UNL     1     -11.135   6.378  -3.445  1.00  0.00     0.153 A 
HETATM   22  N5  UNL     1     -11.487   5.169  -2.998  1.00  0.00    -0.316 N 
HETATM   23  C13 UNL     1     -10.936   4.123  -3.543  1.00  0.00     0.161 A 
ATOM     24  H5  UNL     1     -12.170   5.068  -2.248  1.00  0.00     0.170 HD
HETATM   25  C14 UNL     1     -10.029   4.316  -4.544  1.00  0.00     0.074 A 
HETATM   26  S1  UNL     1      -9.998   6.020  -4.667  1.00  0.00    -0.048 SA
BRANCH  23  27
HETATM   27  O1  UNL     1     -11.246   2.799  -3.136  1.00  0.00    -0.345 OA
ATOM     28  H1  UNL     1     -10.626   2.250  -2.672  1.00  0.00     0.219 HD
ENDBRANCH  23  27
BRANCH  25  29
HETATM   29  C15 UNL     1      -9.276   3.326  -5.312  1.00  0.00     0.106 C 
HETATM   30  N6  UNL     1      -8.428   2.598  -4.715  1.00  0.00    -0.395 N 
ATOM     31  H6  UNL     1      -8.305   2.736  -3.711  1.00  0.00     0.159 HD
BRANCH  30  32
HETATM   32  C16 UNL     1      -7.625   1.588  -5.356  1.00  0.00     0.159 C 
BRANCH  32  33
HETATM   33  C17 UNL     1      -6.292   1.548  -4.655  1.00  0.00     0.221 C 
HETATM   34  F4  UNL     1      -5.334   1.229  -5.599  1.00  0.00    -0.245 F 
BRANCH  33  35
HETATM   35  C18 UNL     1      -6.234   0.504  -3.567  1.00  0.00     0.083 C 
HETATM   36  C19 UNL     1      -4.971   0.781  -2.761  1.00  0.00     0.048 C 
HETATM   37  C20 UNL     1      -6.136  -0.885  -4.166  1.00  0.00     0.048 C 
BRANCH  35  38
HETATM   38  O2  UNL     1      -7.345   0.549  -2.761  1.00  0.00    -0.388 OA
ATOM     39  H2  UNL     1      -7.183   0.145  -1.917  1.00  0.00     0.210 HD
ENDBRANCH  35  38
ENDBRANCH  33  35
ENDBRANCH  32  33
ENDBRANCH  30  32
ENDBRANCH  25  29
ENDBRANCH   1  21
TORSDOF 12
ENDMDL
MODEL 3
REMARK VINA RESULT: -5.855061508      7.917     12.760
REMARK  12 active torsions:
REMARK  status: ('A' for Active; 'I' for Inactive)
REMARK    1  A    between atoms: C2_5  and  C3_6 
REMARK    2  A    between atoms: C4_10  and  C5_11 
REMARK    3  A    between atoms: C5_11  and  C6_12 
REMARK    4  A    between atoms: C6_12  and  N3_13 
REMARK    5  A    between atoms: C11_18  and  N4_19 
REMARK    6  A    between atoms: N4_19  and  C12_21 
REMARK    7  A    between atoms: C13_24  and  O1_25 
REMARK    8  A    between atoms: C14_27  and  C15_28 
REMARK    9  A    between atoms: N6_29  and  C16_31 
REMARK   10  A    between atoms: C16_31  and  C17_32 
REMARK   11  A    between atoms: C17_32  and  C18_34 
REMARK   12  A    between atoms: C18_34  and  O2_37 
ROOT
HETATM    1  N4  UNL     1      -9.011   8.718  -1.811  1.00  0.00    -0.320 N 
ATOM      2  H4  UNL     1      -9.021   9.513  -2.449  1.00  0.00     0.169 HD
ENDROOT
BRANCH   1   3
HETATM    3  C11 UNL     1      -9.595   8.791  -0.521  1.00  0.00     0.145 A 
HETATM    4  N1  UNL     1      -8.988   9.107   0.633  1.00  0.00    -0.279 N 
HETATM    5  C1  UNL     1      -7.592   9.441   0.793  1.00  0.00     0.179 C 
HETATM    6  N2  UNL     1      -9.849   9.075   1.636  1.00  0.00    -0.292 N 
HETATM    7  C2  UNL     1     -11.060   8.734   1.177  1.00  0.00     0.155 A 
ATOM      8  H2  UNL     1      -9.625   9.277   2.610  1.00  0.00     0.187 HD
HETATM    9  C4  UNL     1     -10.910   8.551  -0.199  1.00  0.00     0.098 A 
BRANCH   7  10
HETATM   10  C3  UNL     1     -12.344   8.562   1.882  1.00  0.00     0.435 C 
HETATM   11  F1  UNL     1     -12.170   8.583   3.251  1.00  0.00    -0.165 F 
HETATM   12  F2  UNL     1     -13.249   9.555   1.567  1.00  0.00    -0.165 F 
HETATM   13  F3  UNL     1     -12.895   7.346   1.543  1.00  0.00    -0.165 F 
ENDBRANCH   7  10
BRANCH   9  14
HETATM   14  C5  UNL     1     -11.917   8.180  -1.148  1.00  0.00    -0.038 C 
BRANCH  14  15
HETATM   15  C6  UNL     1     -12.766   7.870  -1.974  1.00  0.00     0.014 C 
BRANCH  15  16
HETATM   16  N3  UNL     1     -13.754   7.527  -2.904  1.00  0.00    -0.341 N 
HETATM   17  C7  UNL     1     -14.734   8.392  -3.541  1.00  0.00     0.133 C 
HETATM   18  C8  UNL     1     -15.327   7.570  -4.635  1.00  0.00     0.022 C 
HETATM   19  C9  UNL     1     -14.459   6.359  -4.793  1.00  0.00     0.022 C 
HETATM   20  C10 UNL     1     -13.930   6.160  -3.378  1.00  0.00     0.133 C 
ENDBRANCH  15  16
ENDBRANCH  14  15
ENDBRANCH   9  14
ENDBRANCH   1   3
BRANCH   1  21
HETATM   21  C12 UNL     1      -8.454   7.570  -2.143  1.00  0.00     0.153 A 
HETATM   22  N5  UNL     1      -8.712   6.361  -1.634  1.00  0.00    -0.316 N 
HETATM   23  C13 UNL     1      -8.051   5.340  -2.098  1.00  0.00     0.161 A 
ATOM     24  H5  UNL     1      -9.410   6.243  -0.900  1.00  0.00     0.170 HD
HETATM   25  C14 UNL     1      -7.129   5.556  -3.080  1.00  0.00     0.074 A 
HETATM   26  S1  UNL     1      -7.246   7.246  -3.306  1.00  0.00    -0.048 SA
BRANCH  23  27
HETATM   27  O1  UNL     1      -8.256   4.019  -1.619  1.00  0.00    -0.345 OA
ATOM     28  H1  UNL     1      -7.791   3.271  -1.973  1.00  0.00     0.219 HD
ENDBRANCH  23  27
BRANCH  25  29
HETATM   29  C15 UNL     1      -6.265   4.596  -3.764  1.00  0.00     0.106 C 
HETATM   30  N6  UNL     1      -5.752   3.646  -3.098  1.00  0.00    -0.395 N 
ATOM     31  H6  UNL     1      -5.967   3.593  -2.102  1.00  0.00     0.159 HD
BRANCH  30  32
HETATM   32  C16 UNL     1      -4.886   2.637  -3.652  1.00  0.00     0.159 C 
BRANCH  32  33
HETATM   33  C17 UNL     1      -5.187   1.338  -2.948  1.00  0.00     0.221 C 
HETATM   34  F4  UNL     1      -4.154   0.464  -3.229  1.00  0.00    -0.245 F 
BRANCH  33  35
HETATM   35  C18 UNL     1      -6.472   0.702  -3.417  1.00  0.00     0.083 C 
HETATM   36  C19 UNL     1      -6.368  -0.783  -3.095  1.00  0.00     0.048 C 
HETATM   37  C20 UNL     1      -6.633   0.867  -4.915  1.00  0.00     0.048 C 
BRANCH  35  38
HETATM   38  O2  UNL     1      -7.567   1.258  -2.802  1.00  0.00    -0.388 OA
ATOM     39  H2  UNL     1      -8.109   0.597  -2.387  1.00  0.00     0.210 HD
ENDBRANCH  35  38
ENDBRANCH  33  35
ENDBRANCH  32  33
ENDBRANCH  30  32
ENDBRANCH  25  29
ENDBRANCH   1  21
TORSDOF 12
ENDMDL
MODEL 4
REMARK VINA RESULT: -5.853324974      4.388      8.232
REMARK  12 active torsions:
REMARK  status: ('A' for Active; 'I' for Inactive)
REMARK    1  A    between atoms: C2_5  and  C3_6 
REMARK    2  A    between atoms: C4_10  and  C5_11 
REMARK    3  A    between atoms: C5_11  and  C6_12 
REMARK    4  A    between atoms: C6_12  and  N3_13 
REMARK    5  A    between atoms: C11_18  and  N4_19 
REMARK    6  A    between atoms: N4_19  and  C12_21 
REMARK    7  A    between atoms: C13_24  and  O1_25 
REMARK    8  A    between atoms: C14_27  and  C15_28 
REMARK    9  A    between atoms: N6_29  and  C16_31 
REMARK   10  A    between atoms: C16_31  and  C17_32 
REMARK   11  A    between atoms: C17_32  and  C18_34 
REMARK   12  A    between atoms: C18_34  and  O2_37 
ROOT
HETATM    1  N4  UNL     1     -17.289   8.538  -2.281  1.00  0.00    -0.320 N 
ATOM      2  H4  UNL     1     -16.879   8.636  -3.209  1.00  0.00     0.169 HD
ENDROOT
BRANCH   1   3
HETATM    3  C11 UNL     1     -16.568   8.879  -1.108  1.00  0.00     0.145 A 
HETATM    4  N1  UNL     1     -16.918   9.766  -0.164  1.00  0.00    -0.279 N 
HETATM    5  C1  UNL     1     -18.121  10.563  -0.156  1.00  0.00     0.179 C 
HETATM    6  N2  UNL     1     -16.000   9.821   0.785  1.00  0.00    -0.292 N 
HETATM    7  C2  UNL     1     -15.007   8.970   0.500  1.00  0.00     0.155 A 
ATOM      8  H2  UNL     1     -16.041  10.421   1.609  1.00  0.00     0.187 HD
HETATM    9  C4  UNL     1     -15.359   8.362  -0.707  1.00  0.00     0.098 A 
BRANCH   7  10
HETATM   10  C3  UNL     1     -13.764   8.659   1.230  1.00  0.00     0.435 C 
HETATM   11  F1  UNL     1     -13.752   7.348   1.663  1.00  0.00    -0.165 F 
HETATM   12  F2  UNL     1     -12.640   8.845   0.451  1.00  0.00    -0.165 F 
HETATM   13  F3  UNL     1     -13.666   9.472   2.338  1.00  0.00    -0.165 F 
ENDBRANCH   7  10
BRANCH   9  14
HETATM   14  C5  UNL     1     -14.624   7.371  -1.436  1.00  0.00    -0.038 C 
BRANCH  14  15
HETATM   15  C6  UNL     1     -13.998   6.535  -2.076  1.00  0.00     0.014 C 
BRANCH  15  16
HETATM   16  N3  UNL     1     -13.278   5.597  -2.824  1.00  0.00    -0.341 N 
HETATM   17  C7  UNL     1     -12.070   4.880  -2.449  1.00  0.00     0.133 C 
HETATM   18  C8  UNL     1     -11.909   3.820  -3.485  1.00  0.00     0.022 C 
HETATM   19  C9  UNL     1     -13.193   3.761  -4.255  1.00  0.00     0.022 C 
HETATM   20  C10 UNL     1     -13.683   5.201  -4.167  1.00  0.00     0.133 C 
ENDBRANCH  15  16
ENDBRANCH  14  15
ENDBRANCH   9  14
ENDBRANCH   1   3
BRANCH   1  21
HETATM   21  C12 UNL     1     -18.517   8.087  -2.110  1.00  0.00     0.153 A 
HETATM   22  N5  UNL     1     -18.913   7.081  -1.324  1.00  0.00    -0.316 N 
HETATM   23  C13 UNL     1     -20.180   6.783  -1.291  1.00  0.00     0.161 A 
ATOM     24  H5  UNL     1     -18.239   6.560  -0.764  1.00  0.00     0.170 HD
HETATM   25  C14 UNL     1     -21.038   7.514  -2.061  1.00  0.00     0.074 A 
HETATM   26  S1  UNL     1     -19.976   8.620  -2.816  1.00  0.00    -0.048 SA
BRANCH  23  27
HETATM   27  O1  UNL     1     -20.695   5.732  -0.488  1.00  0.00    -0.345 OA
ATOM     28  H1  UNL     1     -21.381   5.149  -0.789  1.00  0.00     0.219 HD
ENDBRANCH  23  27
BRANCH  25  29
HETATM   29  C15 UNL     1     -22.487   7.386  -2.204  1.00  0.00     0.106 C 
HETATM   30  N6  UNL     1     -23.033   6.268  -1.964  1.00  0.00    -0.395 N 
ATOM     31  H6  UNL     1     -22.431   5.495  -1.678  1.00  0.00     0.159 HD
BRANCH  30  32
HETATM   32  C16 UNL     1     -24.448   6.013  -2.068  1.00  0.00     0.159 C 
BRANCH  32  33
HETATM   33  C17 UNL     1     -24.995   6.903  -3.154  1.00  0.00     0.221 C 
HETATM   34  F4  UNL     1     -26.050   7.615  -2.617  1.00  0.00    -0.245 F 
BRANCH  33  35
HETATM   35  C18 UNL     1     -25.517   6.128  -4.339  1.00  0.00     0.083 C 
HETATM   36  C19 UNL     1     -24.478   6.266  -5.444  1.00  0.00     0.048 C 
HETATM   37  C20 UNL     1     -26.828   6.714  -4.824  1.00  0.00     0.048 C 
BRANCH  35  38
HETATM   38  O2  UNL     1     -25.724   4.806  -4.029  1.00  0.00    -0.388 OA
ATOM     39  H2  UNL     1     -26.583   4.666  -3.649  1.00  0.00     0.210 HD
ENDBRANCH  35  38
ENDBRANCH  33  35
ENDBRANCH  32  33
ENDBRANCH  30  32
ENDBRANCH  25  29
ENDBRANCH   1  21
TORSDOF 12
ENDMDL
MODEL 5
REMARK VINA RESULT: -5.850023602      3.550      7.993
REMARK  12 active torsions:
REMARK  status: ('A' for Active; 'I' for Inactive)
REMARK    1  A    between atoms: C2_5  and  C3_6 
REMARK    2  A    between atoms: C4_10  and  C5_11 
REMARK    3  A    between atoms: C5_11  and  C6_12 
REMARK    4  A    between atoms: C6_12  and  N3_13 
REMARK    5  A    between atoms: C11_18  and  N4_19 
REMARK    6  A    between atoms: N4_19  and  C12_21 
REMARK    7  A    between atoms: C13_24  and  O1_25 
REMARK    8  A    between atoms: C14_27  and  C15_28 
REMARK    9  A    between atoms: N6_29  and  C16_31 
REMARK   10  A    between atoms: C16_31  and  C17_32 
REMARK   11  A    between atoms: C17_32  and  C18_34 
REMARK   12  A    between atoms: C18_34  and  O2_37 
ROOT
HETATM    1  N4  UNL     1     -17.613  10.328  -1.119  1.00  0.00    -0.320 N 
ATOM      2  H4  UNL     1     -17.098  10.669  -1.930  1.00  0.00     0.169 HD
ENDROOT
BRANCH   1   3
HETATM    3  C11 UNL     1     -17.597  11.021   0.118  1.00  0.00     0.145 A 
HETATM    4  N1  UNL     1     -18.518  11.878   0.585  1.00  0.00    -0.279 N 
HETATM    5  C1  UNL     1     -19.730  12.271  -0.093  1.00  0.00     0.179 C 
HETATM    6  N2  UNL     1     -18.169  12.332   1.777  1.00  0.00    -0.292 N 
HETATM    7  C2  UNL     1     -17.000  11.788   2.140  1.00  0.00     0.155 A 
ATOM      8  H2  UNL     1     -18.708  12.994   2.335  1.00  0.00     0.187 HD
HETATM    9  C4  UNL     1     -16.626  10.949   1.088  1.00  0.00     0.098 A 
BRANCH   7  10
HETATM   10  C3  UNL     1     -16.194  11.964   3.362  1.00  0.00     0.435 C 
HETATM   11  F1  UNL     1     -15.813  10.747   3.890  1.00  0.00    -0.165 F 
HETATM   12  F2  UNL     1     -15.043  12.689   3.128  1.00  0.00    -0.165 F 
HETATM   13  F3  UNL     1     -16.939  12.625   4.314  1.00  0.00    -0.165 F 
ENDBRANCH   7  10
BRANCH   9  14
HETATM   14  C5  UNL     1     -15.448  10.138   0.993  1.00  0.00    -0.038 C 
BRANCH  14  15
HETATM   15  C6  UNL     1     -14.437   9.456   0.893  1.00  0.00     0.014 C 
BRANCH  15  16
HETATM   16  N3  UNL     1     -13.287   8.669   0.756  1.00  0.00    -0.341 N 
HETATM   17  C7  UNL     1     -12.975   7.701  -0.283  1.00  0.00     0.133 C 
HETATM   18  C8  UNL     1     -11.529   7.384  -0.098  1.00  0.00     0.022 C 
HETATM   19  C9  UNL     1     -10.974   8.404   0.849  1.00  0.00     0.022 C 
HETATM   20  C10 UNL     1     -12.187   8.731   1.711  1.00  0.00     0.133 C 
ENDBRANCH  15  16
ENDBRANCH  14  15
ENDBRANCH   9  14
ENDBRANCH   1   3
BRANCH   1  21
HETATM   21  C12 UNL     1     -18.327   9.220  -1.167  1.00  0.00     0.153 A 
HETATM   22  N5  UNL     1     -17.949   7.991  -0.803  1.00  0.00    -0.316 N 
HETATM   23  C13 UNL     1     -18.805   7.018  -0.927  1.00  0.00     0.161 A 
ATOM     24  H5  UNL     1     -17.013   7.820  -0.436  1.00  0.00     0.170 HD
HETATM   25  C14 UNL     1     -20.043   7.303  -1.423  1.00  0.00     0.074 A 
HETATM   26  S1  UNL     1     -19.933   8.987  -1.697  1.00  0.00    -0.048 SA
BRANCH  23  27
HETATM   27  O1  UNL     1     -18.495   5.680  -0.568  1.00  0.00    -0.345 OA
ATOM     28  H1  UNL     1     -18.190   5.040  -1.199  1.00  0.00     0.219 HD
ENDBRANCH  23  27
BRANCH  25  29
HETATM   29  C15 UNL     1     -21.173   6.407  -1.659  1.00  0.00     0.106 C 
HETATM   30  N6  UNL     1     -22.330   6.902  -1.817  1.00  0.00    -0.395 N 
ATOM     31  H6  UNL     1     -22.423   7.917  -1.772  1.00  0.00     0.159 HD
BRANCH  30  32
HETATM   32  C16 UNL     1     -23.521   6.128  -2.057  1.00  0.00     0.159 C 
BRANCH  32  33
HETATM   33  C17 UNL     1     -24.502   7.012  -2.784  1.00  0.00     0.221 C 
HETATM   34  F4  UNL     1     -25.566   7.242  -1.933  1.00  0.00    -0.245 F 
BRANCH  33  35
HETATM   35  C18 UNL     1     -25.045   6.374  -4.040  1.00  0.00     0.083 C 
HETATM   36  C19 UNL     1     -24.053   6.684  -5.153  1.00  0.00     0.048 C 
HETATM   37  C20 UNL     1     -26.390   6.972  -4.403  1.00  0.00     0.048 C 
BRANCH  35  38
HETATM   38  O2  UNL     1     -25.202   5.017  -3.892  1.00  0.00    -0.388 OA
ATOM     39  H2  UNL     1     -25.047   4.556  -4.708  1.00  0.00     0.210 HD
ENDBRANCH  35  38
ENDBRANCH  33  35
ENDBRANCH  32  33
ENDBRANCH  30  32
ENDBRANCH  25  29
ENDBRANCH   1  21
TORSDOF 12
ENDMDL
