MODEL 1
REMARK VINA RESULT: -6.423660288      0.000      0.000
REMARK  8 active torsions:
REMARK  status: ('A' for Active; 'I' for Inactive)
REMARK    1  A    between atoms: O1_2  and  C2_3 
REMARK    2  A    between atoms: C2_3  and  C3_5 
REMARK    3  A    between atoms: C4_6  and  N1_7 
REMARK    4  A    between atoms: N1_7  and  C5_9 
REMARK    5  A    between atoms: C5_9  and  C6_13 
REMARK    6  A    between atoms: C6_13  and  C12_26 
REMARK    7  A    between atoms: N3_14  and  N4_16 
REMARK       I    between atoms: N4_16  and  C7_18 
REMARK    8  A    between atoms: C7_18  and  C8_20 
ROOT
HETATM    1  C5  UNL     1     -14.269   7.737  -2.313  1.00  0.00     0.134 C 
HETATM    2  N2  UNL     1     -13.875   8.768  -2.959  1.00  0.00    -0.384 N 
ATOM      3  H21 UNL     1     -13.027   9.247  -2.658  1.00  0.00     0.157 HD
ATOM      4  H22 UNL     1     -14.417   9.086  -3.763  1.00  0.00     0.157 HD
ENDROOT
BRANCH   1   5
HETATM    5  N1  UNL     1     -15.453   7.068  -2.734  1.00  0.00    -0.320 N 
ATOM      6  H1  UNL     1     -15.402   6.075  -2.963  1.00  0.00     0.169 HD
BRANCH   5   7
HETATM    7  C4  UNL     1     -16.700   7.731  -2.847  1.00  0.00     0.166 A 
HETATM    8  C3  UNL     1     -17.745   7.675  -1.975  1.00  0.00     0.099 A 
HETATM    9  C15 UNL     1     -18.728   8.499  -2.540  1.00  0.00    -0.012 A 
HETATM   10  C13 UNL     1     -18.226   9.008  -3.718  1.00  0.00     0.058 A 
HETATM   11  C16 UNL     1     -20.068   8.742  -1.918  1.00  0.00     0.052 C 
HETATM   12  O5  UNL     1     -17.027   8.530  -3.863  1.00  0.00    -0.297 OA
HETATM   13  C14 UNL     1     -18.961   9.937  -4.634  1.00  0.00     0.077 C 
BRANCH   8  14
HETATM   14  C2  UNL     1     -17.860   6.940  -0.729  1.00  0.00     0.297 C 
HETATM   15  O2  UNL     1     -17.370   7.467   0.330  1.00  0.00    -0.259 OA
BRANCH  14  16
HETATM   16  O1  UNL     1     -18.449   5.715  -0.558  1.00  0.00    -0.322 OA
HETATM   17  C1  UNL     1     -19.768   5.524  -0.082  1.00  0.00     0.213 C 
ENDBRANCH  14  16
ENDBRANCH   8  14
ENDBRANCH   5   7
ENDBRANCH   1   5
BRANCH   1  18
HETATM   18  C6  UNL     1     -13.493   7.283  -1.162  1.00  0.00     0.176 C 
HETATM   19  N3  UNL     1     -13.662   7.755   0.021  1.00  0.00    -0.290 N 
ATOM     20  H3  UNL     1     -13.075   7.380   0.767  1.00  0.00     0.187 HD
BRANCH  19  21
HETATM   21  N4  UNL     1     -14.585   8.741   0.363  1.00  0.00    -0.264 N 
HETATM   22  C7  UNL     1     -14.517   9.390   1.633  1.00  0.00     0.293 C 
HETATM   23  O3  UNL     1     -13.618   9.072   2.452  1.00  0.00    -0.264 OA
ATOM     24  H4  UNL     1     -15.316   9.001  -0.299  1.00  0.00     0.190 HD
BRANCH  22  25
HETATM   25  C8  UNL     1     -15.467  10.423   2.019  1.00  0.00     0.146 A 
HETATM   26  C9  UNL     1     -16.597  10.761   1.308  1.00  0.00     0.046 A 
HETATM   27  C10 UNL     1     -17.219  11.766   1.991  1.00  0.00     0.048 A 
HETATM   28  C11 UNL     1     -16.450  12.013   3.100  1.00  0.00     0.122 A 
HETATM   29 BR1  UNL     1     -16.878  13.340   4.405  1.00  0.00    -0.023 Br
HETATM   30  O4  UNL     1     -15.428  11.201   3.080  1.00  0.00    -0.298 OA
ENDBRANCH  22  25
ENDBRANCH  19  21
BRANCH  18  31
HETATM   31  C12 UNL     1     -12.454   6.231  -1.335  1.00  0.00     0.437 C 
HETATM   32  F1  UNL     1     -11.557   6.579  -2.331  1.00  0.00    -0.164 F 
HETATM   33  F2  UNL     1     -13.080   5.058  -1.709  1.00  0.00    -0.164 F 
HETATM   34  F3  UNL     1     -11.745   6.051  -0.184  1.00  0.00    -0.164 F 
ENDBRANCH  18  31
ENDBRANCH   1  18
TORSDOF 8
ENDMDL
MODEL 2
REMARK VINA RESULT: -6.319206633      4.771      6.552
REMARK  8 active torsions:
REMARK  status: ('A' for Active; 'I' for Inactive)
REMARK    1  A    between atoms: O1_2  and  C2_3 
REMARK    2  A    between atoms: C2_3  and  C3_5 
REMARK    3  A    between atoms: C4_6  and  N1_7 
REMARK    4  A    between atoms: N1_7  and  C5_9 
REMARK    5  A    between atoms: C5_9  and  C6_13 
REMARK    6  A    between atoms: C6_13  and  C12_26 
REMARK    7  A    between atoms: N3_14  and  N4_16 
REMARK       I    between atoms: N4_16  and  C7_18 
REMARK    8  A    between atoms: C7_18  and  C8_20 
ROOT
HETATM    1  C5  UNL     1      -8.913   4.579  -1.725  1.00  0.00     0.134 C 
HETATM    2  N2  UNL     1      -8.579   3.955  -0.659  1.00  0.00    -0.384 N 
ATOM      3  H21 UNL     1      -7.859   4.354  -0.056  1.00  0.00     0.157 HD
ATOM      4  H22 UNL     1      -9.042   3.074  -0.435  1.00  0.00     0.157 HD
ENDROOT
BRANCH   1   5
HETATM    5  N1  UNL     1      -9.918   4.021  -2.565  1.00  0.00    -0.320 N 
ATOM      6  H1  UNL     1      -9.750   3.113  -2.997  1.00  0.00     0.169 HD
BRANCH   5   7
HETATM    7  C4  UNL     1     -11.144   4.684  -2.823  1.00  0.00     0.166 A 
HETATM    8  C3  UNL     1     -11.864   4.666  -3.978  1.00  0.00     0.099 A 
HETATM    9  C15 UNL     1     -12.981   5.471  -3.719  1.00  0.00    -0.012 A 
HETATM   10  C13 UNL     1     -12.877   5.932  -2.424  1.00  0.00     0.058 A 
HETATM   11  C16 UNL     1     -14.062   5.742  -4.718  1.00  0.00     0.052 C 
HETATM   12  O5  UNL     1     -11.779   5.445  -1.930  1.00  0.00    -0.297 OA
HETATM   13  C14 UNL     1     -13.869   6.828  -1.749  1.00  0.00     0.077 C 
BRANCH   8  14
HETATM   14  C2  UNL     1     -11.578   3.980  -5.225  1.00  0.00     0.297 C 
HETATM   15  O2  UNL     1     -10.500   4.282  -5.847  1.00  0.00    -0.259 OA
BRANCH  14  16
HETATM   16  O1  UNL     1     -12.353   3.022  -5.823  1.00  0.00    -0.322 OA
HETATM   17  C1  UNL     1     -11.841   1.948  -6.591  1.00  0.00     0.213 C 
ENDBRANCH  14  16
ENDBRANCH   8  14
ENDBRANCH   5   7
ENDBRANCH   1   5
BRANCH   1  18
HETATM   18  C6  UNL     1      -8.250   5.840  -2.045  1.00  0.00     0.176 C 
HETATM   19  N3  UNL     1      -8.679   6.977  -1.626  1.00  0.00    -0.290 N 
ATOM     20  H3  UNL     1      -8.153   7.808  -1.897  1.00  0.00     0.187 HD
BRANCH  19  21
HETATM   21  N4  UNL     1      -9.806   7.160  -0.828  1.00  0.00    -0.264 N 
HETATM   22  C7  UNL     1     -10.025   8.400  -0.155  1.00  0.00     0.293 C 
HETATM   23  O3  UNL     1      -9.196   9.336  -0.281  1.00  0.00    -0.264 OA
ATOM     24  H4  UNL     1     -10.481   6.402  -0.724  1.00  0.00     0.190 HD
BRANCH  22  25
HETATM   25  C8  UNL     1     -11.193   8.622   0.685  1.00  0.00     0.146 A 
HETATM   26  C9  UNL     1     -11.220   8.473   2.053  1.00  0.00     0.046 A 
HETATM   27  C10 UNL     1     -12.486   8.770   2.468  1.00  0.00     0.048 A 
HETATM   28  C11 UNL     1     -13.196   9.092   1.339  1.00  0.00     0.122 A 
HETATM   29 BR1  UNL     1     -15.039   9.592   1.360  1.00  0.00    -0.023 Br
HETATM   30  O4  UNL     1     -12.399   8.993   0.310  1.00  0.00    -0.298 OA
ENDBRANCH  22  25
ENDBRANCH  19  21
BRANCH  18  31
HETATM   31  C12 UNL     1      -7.025   5.842  -2.891  1.00  0.00     0.437 C 
HETATM   32  F1  UNL     1      -6.102   4.919  -2.428  1.00  0.00    -0.164 F 
HETATM   33  F2  UNL     1      -6.451   7.097  -2.824  1.00  0.00    -0.164 F 
HETATM   34  F3  UNL     1      -7.323   5.518  -4.181  1.00  0.00    -0.164 F 
ENDBRANCH  18  31
ENDBRANCH   1  18
TORSDOF 8
ENDMDL
MODEL 3
REMARK VINA RESULT: -6.270391659      6.806      9.903
REMARK  8 active torsions:
REMARK  status: ('A' for Active; 'I' for Inactive)
REMARK    1  A    between atoms: O1_2  and  C2_3 
REMARK    2  A    between atoms: C2_3  and  C3_5 
REMARK    3  A    between atoms: C4_6  and  N1_7 
REMARK    4  A    between atoms: N1_7  and  C5_9 
REMARK    5  A    between atoms: C5_9  and  C6_13 
REMARK    6  A    between atoms: C6_13  and  C12_26 
REMARK    7  A    between atoms: N3_14  and  N4_16 
REMARK       I    between atoms: N4_16  and  C7_18 
REMARK    8  A    between atoms: C7_18  and  C8_20 
ROOT
HETATM    1  C5  UNL     1     -11.637   5.069  -2.658  1.00  0.00     0.134 C 
HETATM    2  N2  UNL     1     -12.092   5.100  -1.463  1.00  0.00    -0.384 N 
ATOM      3  H21 UNL     1     -12.519   4.261  -1.073  1.00  0.00     0.157 HD
ATOM      4  H22 UNL     1     -12.016   5.965  -0.927  1.00  0.00     0.157 HD
ENDROOT
BRANCH   1   5
HETATM    5  N1  UNL     1     -11.040   6.242  -3.201  1.00  0.00    -0.320 N 
ATOM      6  H1  UNL     1     -11.586   6.822  -3.838  1.00  0.00     0.169 HD
BRANCH   5   7
HETATM    7  C4  UNL     1      -9.714   6.632  -2.889  1.00  0.00     0.166 A 
HETATM    8  C3  UNL     1      -9.318   7.501  -1.919  1.00  0.00     0.099 A 
HETATM    9  C15 UNL     1      -7.921   7.542  -2.022  1.00  0.00    -0.012 A 
HETATM   10  C13 UNL     1      -7.549   6.698  -3.046  1.00  0.00     0.058 A 
HETATM   11  C16 UNL     1      -7.046   8.378  -1.141  1.00  0.00     0.052 C 
HETATM   12  O5  UNL     1      -8.636   6.181  -3.532  1.00  0.00    -0.297 OA
HETATM   13  C14 UNL     1      -6.138   6.451  -3.485  1.00  0.00     0.077 C 
BRANCH   8  14
HETATM   14  C2  UNL     1     -10.125   8.243  -0.968  1.00  0.00     0.297 C 
HETATM   15  O2  UNL     1     -10.321   9.490  -1.185  1.00  0.00    -0.259 OA
BRANCH  14  16
HETATM   16  O1  UNL     1     -10.715   7.743   0.163  1.00  0.00    -0.322 OA
HETATM   17  C1  UNL     1     -11.076   8.526   1.286  1.00  0.00     0.213 C 
ENDBRANCH  14  16
ENDBRANCH   8  14
ENDBRANCH   5   7
ENDBRANCH   1   5
BRANCH   1  18
HETATM   18  C6  UNL     1     -11.748   3.831  -3.426  1.00  0.00     0.176 C 
HETATM   19  N3  UNL     1     -10.833   2.929  -3.425  1.00  0.00    -0.290 N 
ATOM     20  H3  UNL     1     -10.993   2.095  -3.990  1.00  0.00     0.187 HD
BRANCH  19  21
HETATM   21  N4  UNL     1      -9.639   3.003  -2.710  1.00  0.00    -0.264 N 
HETATM   22  C7  UNL     1      -8.384   2.887  -3.381  1.00  0.00     0.293 C 
HETATM   23  O3  UNL     1      -8.352   2.717  -4.625  1.00  0.00    -0.264 OA
ATOM     24  H4  UNL     1      -9.662   3.141  -1.700  1.00  0.00     0.190 HD
BRANCH  22  25
HETATM   25  C8  UNL     1      -7.120   2.961  -2.662  1.00  0.00     0.146 A 
HETATM   26  C9  UNL     1      -6.975   3.396  -1.364  1.00  0.00     0.046 A 
HETATM   27  C10 UNL     1      -5.647   3.317  -1.056  1.00  0.00     0.048 A 
HETATM   28  C11 UNL     1      -5.020   2.836  -2.177  1.00  0.00     0.122 A 
HETATM   29 BR1  UNL     1      -3.137   2.533  -2.283  1.00  0.00    -0.023 Br
HETATM   30  O4  UNL     1      -5.921   2.639  -3.100  1.00  0.00    -0.298 OA
ENDBRANCH  22  25
ENDBRANCH  19  21
BRANCH  18  31
HETATM   31  C12 UNL     1     -12.958   3.576  -4.254  1.00  0.00     0.437 C 
HETATM   32  F1  UNL     1     -13.546   4.765  -4.651  1.00  0.00    -0.164 F 
HETATM   33  F2  UNL     1     -13.871   2.878  -3.488  1.00  0.00    -0.164 F 
HETATM   34  F3  UNL     1     -12.639   2.875  -5.380  1.00  0.00    -0.164 F 
ENDBRANCH  18  31
ENDBRANCH   1  18
TORSDOF 8
ENDMDL
MODEL 4
REMARK VINA RESULT: -6.234437153      3.806      5.829
REMARK  8 active torsions:
REMARK  status: ('A' for Active; 'I' for Inactive)
REMARK    1  A    between atoms: O1_2  and  C2_3 
REMARK    2  A    between atoms: C2_3  and  C3_5 
REMARK    3  A    between atoms: C4_6  and  N1_7 
REMARK    4  A    between atoms: N1_7  and  C5_9 
REMARK    5  A    between atoms: C5_9  and  C6_13 
REMARK    6  A    between atoms: C6_13  and  C12_26 
REMARK    7  A    between atoms: N3_14  and  N4_16 
REMARK       I    between atoms: N4_16  and  C7_18 
REMARK    8  A    between atoms: C7_18  and  C8_20 
ROOT
HETATM    1  C5  UNL     1     -15.216   8.549  -1.145  1.00  0.00     0.134 C 
HETATM    2  N2  UNL     1     -15.024   9.446  -2.036  1.00  0.00    -0.384 N 
ATOM      3  H21 UNL     1     -14.587  10.327  -1.766  1.00  0.00     0.157 HD
ATOM      4  H22 UNL     1     -15.312   9.259  -2.997  1.00  0.00     0.157 HD
ENDROOT
BRANCH   1   5
HETATM    5  N1  UNL     1     -15.826   7.319  -1.521  1.00  0.00    -0.320 N 
ATOM      6  H1  UNL     1     -15.241   6.578  -1.909  1.00  0.00     0.169 HD
BRANCH   5   7
HETATM    7  C4  UNL     1     -17.217   7.087  -1.378  1.00  0.00     0.166 A 
HETATM    8  C3  UNL     1     -18.231   7.734  -2.015  1.00  0.00     0.099 A 
HETATM    9  C15 UNL     1     -19.401   7.137  -1.528  1.00  0.00    -0.012 A 
HETATM   10  C13 UNL     1     -19.033   6.162  -0.625  1.00  0.00     0.058 A 
HETATM   11  C16 UNL     1     -20.779   7.534  -1.956  1.00  0.00     0.052 C 
HETATM   12  O5  UNL     1     -17.735   6.165  -0.565  1.00  0.00    -0.297 OA
HETATM   13  C14 UNL     1     -19.985   5.284   0.126  1.00  0.00     0.077 C 
BRANCH   8  14
HETATM   14  C2  UNL     1     -18.163   8.809  -2.988  1.00  0.00     0.297 C 
HETATM   15  O2  UNL     1     -18.187   8.501  -4.231  1.00  0.00    -0.259 OA
BRANCH  14  16
HETATM   16  O1  UNL     1     -18.072  10.148  -2.716  1.00  0.00    -0.322 OA
HETATM   17  C1  UNL     1     -18.411  10.734  -1.473  1.00  0.00     0.213 C 
ENDBRANCH  14  16
ENDBRANCH   8  14
ENDBRANCH   5   7
ENDBRANCH   1   5
BRANCH   1  18
HETATM   18  C6  UNL     1     -14.805   8.818   0.231  1.00  0.00     0.176 C 
HETATM   19  N3  UNL     1     -13.781   8.262   0.772  1.00  0.00    -0.290 N 
ATOM     20  H3  UNL     1     -13.566   8.508   1.738  1.00  0.00     0.187 HD
BRANCH  19  21
HETATM   21  N4  UNL     1     -12.941   7.348   0.138  1.00  0.00    -0.264 N 
HETATM   22  C7  UNL     1     -11.733   7.785  -0.484  1.00  0.00     0.293 C 
HETATM   23  O3  UNL     1     -11.421   9.002  -0.462  1.00  0.00    -0.264 OA
ATOM     24  H4  UNL     1     -13.192   6.360   0.118  1.00  0.00     0.190 HD
BRANCH  22  25
HETATM   25  C8  UNL     1     -10.835   6.855  -1.154  1.00  0.00     0.146 A 
HETATM   26  C9  UNL     1     -11.234   5.843  -1.998  1.00  0.00     0.046 A 
HETATM   27  C10 UNL     1     -10.106   5.199  -2.419  1.00  0.00     0.048 A 
HETATM   28  C11 UNL     1      -9.051   5.837  -1.819  1.00  0.00     0.122 A 
HETATM   29 BR1  UNL     1      -7.228   5.327  -2.074  1.00  0.00    -0.023 Br
HETATM   30  O4  UNL     1      -9.521   6.806  -1.082  1.00  0.00    -0.298 OA
ENDBRANCH  22  25
ENDBRANCH  19  21
BRANCH  18  31
HETATM   31  C12 UNL     1     -15.585   9.771   1.067  1.00  0.00     0.437 C 
HETATM   32  F1  UNL     1     -15.093   9.814   2.361  1.00  0.00    -0.164 F 
HETATM   33  F2  UNL     1     -16.895   9.335   1.118  1.00  0.00    -0.164 F 
HETATM   34  F3  UNL     1     -15.519  11.035   0.557  1.00  0.00    -0.164 F 
ENDBRANCH  18  31
ENDBRANCH   1  18
TORSDOF 8
ENDMDL
MODEL 5
REMARK VINA RESULT: -6.185204982      2.440      3.820
REMARK  8 active torsions:
REMARK  status: ('A' for Active; 'I' for Inactive)
REMARK    1  A    between atoms: O1_2  and  C2_3 
REMARK    2  A    between atoms: C2_3  and  C3_5 
REMARK    3  A    between atoms: C4_6  and  N1_7 
REMARK    4  A    between atoms: N1_7  and  C5_9 
REMARK    5  A    between atoms: C5_9  and  C6_13 
REMARK    6  A    between atoms: C6_13  and  C12_26 
REMARK    7  A    between atoms: N3_14  and  N4_16 
REMARK       I    between atoms: N4_16  and  C7_18 
REMARK    8  A    between atoms: C7_18  and  C8_20 
ROOT
HETATM    1  C5  UNL     1     -15.144   8.471  -0.994  1.00  0.00     0.134 C 
HETATM    2  N2  UNL     1     -14.892   9.451  -1.776  1.00  0.00    -0.384 N 
ATOM      3  H21 UNL     1     -14.435  10.282  -1.399  1.00  0.00     0.157 HD
ATOM      4  H22 UNL     1     -15.153   9.380  -2.760  1.00  0.00     0.157 HD
ENDROOT
BRANCH   1   5
HETATM    5  N1  UNL     1     -15.781   7.312  -1.521  1.00  0.00    -0.320 N 
ATOM      6  H1  UNL     1     -15.216   6.620  -2.012  1.00  0.00     0.169 HD
BRANCH   5   7
HETATM    7  C4  UNL     1     -17.173   7.086  -1.386  1.00  0.00     0.166 A 
HETATM    8  C3  UNL     1     -18.180   7.730  -2.039  1.00  0.00     0.099 A 
HETATM    9  C15 UNL     1     -19.356   7.141  -1.556  1.00  0.00    -0.012 A 
HETATM   10  C13 UNL     1     -18.999   6.175  -0.640  1.00  0.00     0.058 A 
HETATM   11  C16 UNL     1     -20.729   7.538  -2.000  1.00  0.00     0.052 C 
HETATM   12  O5  UNL     1     -17.702   6.174  -0.568  1.00  0.00    -0.297 OA
HETATM   13  C14 UNL     1     -19.960   5.308   0.113  1.00  0.00     0.077 C 
BRANCH   8  14
HETATM   14  C2  UNL     1     -18.100   8.794  -3.023  1.00  0.00     0.297 C 
HETATM   15  O2  UNL     1     -17.885   9.986  -2.607  1.00  0.00    -0.259 OA
BRANCH  14  16
HETATM   16  O1  UNL     1     -18.234   8.660  -4.379  1.00  0.00    -0.322 OA
HETATM   17  C1  UNL     1     -19.329   9.157  -5.125  1.00  0.00     0.213 C 
ENDBRANCH  14  16
ENDBRANCH   8  14
ENDBRANCH   5   7
ENDBRANCH   1   5
BRANCH   1  18
HETATM   18  C6  UNL     1     -14.770   8.575   0.415  1.00  0.00     0.176 C 
HETATM   19  N3  UNL     1     -15.544   9.086   1.304  1.00  0.00    -0.290 N 
ATOM     20  H3  UNL     1     -15.203   9.118   2.264  1.00  0.00     0.187 HD
BRANCH  19  21
HETATM   21  N4  UNL     1     -16.816   9.599   1.055  1.00  0.00    -0.264 N 
HETATM   22  C7  UNL     1     -17.011  11.004   0.892  1.00  0.00     0.293 C 
HETATM   23  O3  UNL     1     -16.032  11.787   0.974  1.00  0.00    -0.264 OA
ATOM     24  H4  UNL     1     -17.613   8.967   0.988  1.00  0.00     0.190 HD
BRANCH  22  25
HETATM   25  C8  UNL     1     -18.327  11.571   0.631  1.00  0.00     0.146 A 
HETATM   26  C9  UNL     1     -18.659  12.897   0.792  1.00  0.00     0.046 A 
HETATM   27  C10 UNL     1     -19.974  13.030   0.448  1.00  0.00     0.048 A 
HETATM   28  C11 UNL     1     -20.405  11.779   0.087  1.00  0.00     0.122 A 
HETATM   29 BR1  UNL     1     -22.188  11.404  -0.487  1.00  0.00    -0.023 Br
HETATM   30  O4  UNL     1     -19.406  10.948   0.208  1.00  0.00    -0.298 OA
ENDBRANCH  22  25
ENDBRANCH  19  21
BRANCH  18  31
HETATM   31  C12 UNL     1     -13.443   8.077   0.870  1.00  0.00     0.437 C 
HETATM   32  F1  UNL     1     -13.568   7.309   2.015  1.00  0.00    -0.164 F 
HETATM   33  F2  UNL     1     -12.647   9.166   1.166  1.00  0.00    -0.164 F 
HETATM   34  F3  UNL     1     -12.859   7.300  -0.087  1.00  0.00    -0.164 F 
ENDBRANCH  18  31
ENDBRANCH   1  18
TORSDOF 8
ENDMDL
