MODEL 1
REMARK VINA RESULT: -7.510471397      0.000      0.000
REMARK  5 active torsions:
REMARK  status: ('A' for Active; 'I' for Inactive)
REMARK    1  A    between atoms: C5_8  and  C6_9 
REMARK    2  A    between atoms: C8_11  and  C9_13 
REMARK       I    between atoms: C9_13  and  N2_15 
REMARK    3  A    between atoms: N2_15  and  C10_17 
REMARK    4  A    between atoms: C13_23  and  C14_24 
REMARK    5  A    between atoms: C20_33  and  C21_34 
ROOT
HETATM    1  C6  UNL     1     -12.497   6.863  -1.879  1.00  0.00     0.047 A 
HETATM    2  C7  UNL     1     -12.295   5.587  -2.038  1.00  0.00     0.057 A 
HETATM    3  C8  UNL     1     -13.067   4.808  -3.042  1.00  0.00     0.208 A 
HETATM    4  F1  UNL     1     -13.782   3.880  -2.249  1.00  0.00    -0.228 F 
HETATM    5  C19 UNL     1     -14.026   5.522  -3.896  1.00  0.00     0.115 A 
HETATM    6  C20 UNL     1     -14.155   6.955  -3.617  1.00  0.00     0.050 A 
HETATM    7  N7  UNL     1     -13.465   7.524  -2.716  1.00  0.00    -0.358 N 
ATOM      8  H7  UNL     1     -13.606   8.524  -2.575  1.00  0.00     0.165 HD
ENDROOT
BRANCH   3   9
HETATM    9  C9  UNL     1     -12.083   4.032  -3.891  1.00  0.00     0.266 C 
HETATM   10  O2  UNL     1     -12.047   2.826  -3.733  1.00  0.00    -0.269 OA
HETATM   11  N2  UNL     1     -11.267   4.711  -4.809  1.00  0.00    -0.321 N 
ATOM     12  H2  UNL     1     -11.350   5.724  -4.891  1.00  0.00     0.169 HD
BRANCH  11  13
HETATM   13  C10 UNL     1     -10.330   4.027  -5.624  1.00  0.00     0.079 A 
HETATM   14  C11 UNL     1     -10.449   3.695  -6.928  1.00  0.00     0.139 A 
HETATM   15  N3  UNL     1      -9.330   3.069  -7.299  1.00  0.00    -0.308 N 
HETATM   16  N4  UNL     1      -8.513   3.004  -6.248  1.00  0.00    -0.296 N 
ATOM     17  H3  UNL     1      -9.134   2.702  -8.230  1.00  0.00     0.186 HD
HETATM   18  C12 UNL     1      -7.233   2.371  -6.341  1.00  0.00     0.177 C 
HETATM   19  C13 UNL     1      -9.061   3.572  -5.187  1.00  0.00     0.085 A 
BRANCH  19  20
HETATM   20  C14 UNL     1      -8.594   3.743  -3.808  1.00  0.00     0.175 C 
HETATM   21  C15 UNL     1      -7.526   4.729  -3.575  1.00  0.00     0.044 C 
HETATM   22  C16 UNL     1      -7.229   4.854  -2.097  1.00  0.00     0.084 C 
HETATM   23  C17 UNL     1      -7.287   3.543  -1.371  1.00  0.00     0.264 C 
HETATM   24  F2  UNL     1      -7.552   3.784  -0.023  1.00  0.00    -0.204 F 
HETATM   25  F3  UNL     1      -6.056   2.903  -1.426  1.00  0.00    -0.204 F 
HETATM   26  C18 UNL     1      -8.322   2.608  -1.883  1.00  0.00     0.247 C 
HETATM   27  O3  UNL     1      -8.217   2.484  -3.258  1.00  0.00    -0.374 OA
ENDBRANCH  19  20
ENDBRANCH  11  13
ENDBRANCH   3   9
BRANCH   1  28
HETATM   28  C5  UNL     1     -11.759   7.657  -0.910  1.00  0.00     0.046 A 
HETATM   29  C2  UNL     1     -10.476   8.109  -0.889  1.00  0.00     0.043 A 
HETATM   30  C1  UNL     1      -9.444   7.977  -1.924  1.00  0.00     0.071 C 
HETATM   31  N1  UNL     1     -10.302   8.763   0.297  1.00  0.00    -0.265 N 
HETATM   32  O1  UNL     1     -11.397   8.721   0.960  1.00  0.00    -0.242 OA
ATOM     33  H1  UNL     1      -9.439   9.213   0.605  1.00  0.00     0.194 HD
HETATM   34  C3  UNL     1     -12.316   8.071   0.293  1.00  0.00     0.087 A 
HETATM   35  C4  UNL     1     -13.696   7.832   0.761  1.00  0.00     0.080 C 
ENDBRANCH   1  28
BRANCH   6  36
HETATM   36  C21 UNL     1     -15.133   7.775  -4.443  1.00  0.00     0.241 C 
HETATM   37  F4  UNL     1     -14.826   9.089  -4.581  1.00  0.00    -0.214 F 
HETATM   38  C22 UNL     1     -15.592   7.081  -5.709  1.00  0.00     0.200 C 
HETATM   39  N5  UNL     1     -16.866   7.743  -5.374  1.00  0.00    -0.140 NA
HETATM   40  N6  UNL     1     -16.478   7.560  -4.012  1.00  0.00    -0.097 NA
ENDBRANCH   6  36
TORSDOF 5
ENDMDL
MODEL 2
REMARK VINA RESULT: -7.409257964      0.395      1.342
REMARK  5 active torsions:
REMARK  status: ('A' for Active; 'I' for Inactive)
REMARK    1  A    between atoms: C5_8  and  C6_9 
REMARK    2  A    between atoms: C8_11  and  C9_13 
REMARK       I    between atoms: C9_13  and  N2_15 
REMARK    3  A    between atoms: N2_15  and  C10_17 
REMARK    4  A    between atoms: C13_23  and  C14_24 
REMARK    5  A    between atoms: C20_33  and  C21_34 
ROOT
HETATM    1  C6  UNL     1     -12.395   6.760  -1.956  1.00  0.00     0.047 A 
HETATM    2  C7  UNL     1     -12.212   5.484  -2.138  1.00  0.00     0.057 A 
HETATM    3  C8  UNL     1     -13.003   4.733  -3.148  1.00  0.00     0.208 A 
HETATM    4  F1  UNL     1     -13.724   3.801  -2.366  1.00  0.00    -0.228 F 
HETATM    5  C19 UNL     1     -13.959   5.475  -3.982  1.00  0.00     0.115 A 
HETATM    6  C20 UNL     1     -14.066   6.905  -3.678  1.00  0.00     0.050 A 
HETATM    7  N7  UNL     1     -13.360   7.448  -2.774  1.00  0.00    -0.358 N 
ATOM      8  H7  UNL     1     -13.486   8.448  -2.614  1.00  0.00     0.165 HD
ENDROOT
BRANCH   3   9
HETATM    9  C9  UNL     1     -12.037   3.958  -4.019  1.00  0.00     0.266 C 
HETATM   10  O2  UNL     1     -12.083   2.744  -3.951  1.00  0.00    -0.269 OA
HETATM   11  N2  UNL     1     -11.144   4.648  -4.854  1.00  0.00    -0.321 N 
ATOM     12  H2  UNL     1     -11.160   5.667  -4.863  1.00  0.00     0.169 HD
BRANCH  11  13
HETATM   13  C10 UNL     1     -10.220   3.964  -5.686  1.00  0.00     0.079 A 
HETATM   14  C11 UNL     1     -10.367   3.620  -6.983  1.00  0.00     0.139 A 
HETATM   15  N3  UNL     1      -9.252   3.002  -7.375  1.00  0.00    -0.308 N 
HETATM   16  N4  UNL     1      -8.409   2.953  -6.344  1.00  0.00    -0.296 N 
ATOM     17  H3  UNL     1      -9.074   2.628  -8.308  1.00  0.00     0.186 HD
HETATM   18  C12 UNL     1      -7.126   2.330  -6.461  1.00  0.00     0.177 C 
HETATM   19  C13 UNL     1      -8.937   3.525  -5.275  1.00  0.00     0.085 A 
BRANCH  19  20
HETATM   20  C14 UNL     1      -8.439   3.712  -3.908  1.00  0.00     0.175 C 
HETATM   21  C15 UNL     1      -7.297   4.623  -3.725  1.00  0.00     0.044 C 
HETATM   22  C16 UNL     1      -6.972   4.780  -2.257  1.00  0.00     0.084 C 
HETATM   23  C17 UNL     1      -7.117   3.506  -1.480  1.00  0.00     0.264 C 
HETATM   24  F2  UNL     1      -7.344   3.817  -0.140  1.00  0.00    -0.204 F 
HETATM   25  F3  UNL     1      -5.939   2.773  -1.525  1.00  0.00    -0.204 F 
HETATM   26  C18 UNL     1      -8.226   2.633  -1.944  1.00  0.00     0.247 C 
HETATM   27  O3  UNL     1      -8.150   2.450  -3.315  1.00  0.00    -0.374 OA
ENDBRANCH  19  20
ENDBRANCH  11  13
ENDBRANCH   3   9
BRANCH   1  28
HETATM   28  C5  UNL     1     -11.638   7.526  -0.980  1.00  0.00     0.046 A 
HETATM   29  C2  UNL     1     -11.985   8.075   0.217  1.00  0.00     0.043 A 
HETATM   30  C1  UNL     1     -13.266   7.983   0.926  1.00  0.00     0.071 C 
HETATM   31  N1  UNL     1     -10.886   8.734   0.688  1.00  0.00    -0.265 N 
HETATM   32  O1  UNL     1      -9.929   8.602  -0.154  1.00  0.00    -0.242 OA
ATOM     33  H1  UNL     1     -10.835   9.249   1.567  1.00  0.00     0.194 HD
HETATM   34  C3  UNL     1     -10.311   7.887  -1.180  1.00  0.00     0.087 A 
HETATM   35  C4  UNL     1      -9.462   7.538  -2.337  1.00  0.00     0.080 C 
ENDBRANCH   1  28
BRANCH   6  36
HETATM   36  C21 UNL     1     -15.039   7.751  -4.482  1.00  0.00     0.241 C 
HETATM   37  F4  UNL     1     -14.713   9.063  -4.603  1.00  0.00    -0.214 F 
HETATM   38  C22 UNL     1     -15.520   7.084  -5.754  1.00  0.00     0.200 C 
HETATM   39  N5  UNL     1     -16.780   7.760  -5.397  1.00  0.00    -0.140 NA
HETATM   40  N6  UNL     1     -16.383   7.549  -4.041  1.00  0.00    -0.097 NA
ENDBRANCH   6  36
TORSDOF 5
ENDMDL
MODEL 3
REMARK VINA RESULT: -7.256676585      6.886     10.423
REMARK  5 active torsions:
REMARK  status: ('A' for Active; 'I' for Inactive)
REMARK    1  A    between atoms: C5_8  and  C6_9 
REMARK    2  A    between atoms: C8_11  and  C9_13 
REMARK       I    between atoms: C9_13  and  N2_15 
REMARK    3  A    between atoms: N2_15  and  C10_17 
REMARK    4  A    between atoms: C13_23  and  C14_24 
REMARK    5  A    between atoms: C20_33  and  C21_34 
ROOT
HETATM    1  C6  UNL     1     -20.735   8.473  -1.534  1.00  0.00     0.047 A 
HETATM    2  C7  UNL     1     -19.469   8.329  -1.803  1.00  0.00     0.057 A 
HETATM    3  C8  UNL     1     -18.506   9.438  -1.571  1.00  0.00     0.208 A 
HETATM    4  F1  UNL     1     -18.026   9.724  -2.870  1.00  0.00    -0.228 F 
HETATM    5  C19 UNL     1     -19.004  10.685  -0.975  1.00  0.00     0.115 A 
HETATM    6  C20 UNL     1     -20.447  10.716  -0.718  1.00  0.00     0.050 A 
HETATM    7  N7  UNL     1     -21.191   9.720  -0.976  1.00  0.00    -0.358 N 
ATOM      8  H7  UNL     1     -22.187   9.810  -0.773  1.00  0.00     0.165 HD
ENDROOT
BRANCH   3   9
HETATM    9  C9  UNL     1     -17.350   8.892  -0.759  1.00  0.00     0.266 C 
HETATM   10  O2  UNL     1     -17.616   8.077   0.104  1.00  0.00    -0.269 OA
HETATM   11  N2  UNL     1     -16.044   9.334  -1.023  1.00  0.00    -0.321 N 
ATOM     12  H2  UNL     1     -15.892  10.019  -1.763  1.00  0.00     0.169 HD
BRANCH  11  13
HETATM   13  C10 UNL     1     -14.930   8.853  -0.288  1.00  0.00     0.079 A 
HETATM   14  C11 UNL     1     -14.153   7.784  -0.563  1.00  0.00     0.139 A 
HETATM   15  N3  UNL     1     -13.215   7.701   0.382  1.00  0.00    -0.308 N 
HETATM   16  N4  UNL     1     -13.393   8.702   1.245  1.00  0.00    -0.296 N 
ATOM     17  H3  UNL     1     -12.484   6.991   0.436  1.00  0.00     0.186 HD
HETATM   18  C12 UNL     1     -12.540   8.863   2.382  1.00  0.00     0.177 C 
HETATM   19  C13 UNL     1     -14.427   9.448   0.895  1.00  0.00     0.085 A 
BRANCH  19  20
HETATM   20  C14 UNL     1     -15.042  10.631   1.507  1.00  0.00     0.175 C 
HETATM   21  C15 UNL     1     -16.204  10.410   2.383  1.00  0.00     0.044 C 
HETATM   22  C16 UNL     1     -16.656  11.711   3.006  1.00  0.00     0.084 C 
HETATM   23  C17 UNL     1     -16.566  12.878   2.068  1.00  0.00     0.264 C 
HETATM   24  F2  UNL     1     -16.457  14.051   2.814  1.00  0.00    -0.204 F 
HETATM   25  F3  UNL     1     -17.729  12.988   1.318  1.00  0.00    -0.204 F 
HETATM   26  C18 UNL     1     -15.413  12.819   1.132  1.00  0.00     0.247 C 
HETATM   27  O3  UNL     1     -15.369  11.587   0.503  1.00  0.00    -0.374 OA
ENDBRANCH  19  20
ENDBRANCH  11  13
ENDBRANCH   3   9
BRANCH   1  28
HETATM   28  C5  UNL     1     -21.704   7.410  -1.745  1.00  0.00     0.046 A 
HETATM   29  C2  UNL     1     -22.918   7.392  -2.361  1.00  0.00     0.043 A 
HETATM   30  C1  UNL     1     -23.592   8.477  -3.083  1.00  0.00     0.071 C 
HETATM   31  N1  UNL     1     -23.420   6.130  -2.217  1.00  0.00    -0.265 N 
HETATM   32  O1  UNL     1     -22.579   5.420  -1.562  1.00  0.00    -0.242 OA
ATOM     33  H1  UNL     1     -24.320   5.806  -2.573  1.00  0.00     0.194 HD
HETATM   34  C3  UNL     1     -21.524   6.126  -1.248  1.00  0.00     0.087 A 
HETATM   35  C4  UNL     1     -20.359   5.622  -0.492  1.00  0.00     0.080 C 
ENDBRANCH   1  28
BRANCH   6  36
HETATM   36  C21 UNL     1     -21.055  11.970  -0.114  1.00  0.00     0.241 C 
HETATM   37  F4  UNL     1     -20.844  13.117  -0.808  1.00  0.00    -0.214 F 
HETATM   38  C22 UNL     1     -22.467  11.776   0.401  1.00  0.00     0.200 C 
HETATM   39  N5  UNL     1     -22.000  12.702   1.448  1.00  0.00    -0.140 NA
HETATM   40  N6  UNL     1     -20.723  12.088   1.270  1.00  0.00    -0.097 NA
ENDBRANCH   6  36
TORSDOF 5
ENDMDL
MODEL 4
REMARK VINA RESULT: -7.238668251      4.257      6.667
REMARK  5 active torsions:
REMARK  status: ('A' for Active; 'I' for Inactive)
REMARK    1  A    between atoms: C5_8  and  C6_9 
REMARK    2  A    between atoms: C8_11  and  C9_13 
REMARK       I    between atoms: C9_13  and  N2_15 
REMARK    3  A    between atoms: N2_15  and  C10_17 
REMARK    4  A    between atoms: C13_23  and  C14_24 
REMARK    5  A    between atoms: C20_33  and  C21_34 
ROOT
HETATM    1  C6  UNL     1     -18.078   7.985  -1.685  1.00  0.00     0.047 A 
HETATM    2  C7  UNL     1     -17.283   7.829  -2.704  1.00  0.00     0.057 A 
HETATM    3  C8  UNL     1     -15.871   8.291  -2.651  1.00  0.00     0.208 A 
HETATM    4  F1  UNL     1     -15.817   9.281  -3.660  1.00  0.00    -0.228 F 
HETATM    5  C19 UNL     1     -15.372   8.877  -1.400  1.00  0.00     0.115 A 
HETATM    6  C20 UNL     1     -16.367   8.993  -0.331  1.00  0.00     0.050 A 
HETATM    7  N7  UNL     1     -17.561   8.590  -0.485  1.00  0.00    -0.358 N 
ATOM      8  H7  UNL     1     -18.202   8.702   0.301  1.00  0.00     0.165 HD
ENDROOT
BRANCH   3   9
HETATM    9  C9  UNL     1     -14.985   7.141  -3.083  1.00  0.00     0.266 C 
HETATM   10  O2  UNL     1     -15.069   6.783  -4.243  1.00  0.00    -0.269 OA
HETATM   11  N2  UNL     1     -14.119   6.543  -2.154  1.00  0.00    -0.321 N 
ATOM     12  H2  UNL     1     -14.098   6.893  -1.197  1.00  0.00     0.169 HD
BRANCH  11  13
HETATM   13  C10 UNL     1     -13.272   5.462  -2.512  1.00  0.00     0.079 A 
HETATM   14  C11 UNL     1     -13.620   4.184  -2.771  1.00  0.00     0.139 A 
HETATM   15  N3  UNL     1     -12.511   3.507  -3.077  1.00  0.00    -0.308 N 
HETATM   16  N4  UNL     1     -11.474   4.342  -3.013  1.00  0.00    -0.296 N 
ATOM     17  H3  UNL     1     -12.465   2.517  -3.319  1.00  0.00     0.186 HD
HETATM   18  C12 UNL     1     -10.142   3.893  -3.279  1.00  0.00     0.177 C 
HETATM   19  C13 UNL     1     -11.867   5.558  -2.673  1.00  0.00     0.085 A 
BRANCH  19  20
HETATM   20  C14 UNL     1     -11.131   6.807  -2.451  1.00  0.00     0.175 C 
HETATM   21  C15 UNL     1     -11.120   7.349  -1.082  1.00  0.00     0.044 C 
HETATM   22  C16 UNL     1     -10.243   8.578  -1.003  1.00  0.00     0.084 C 
HETATM   23  C17 UNL     1     -10.345   9.455  -2.216  1.00  0.00     0.264 C 
HETATM   24  F2  UNL     1      -9.178  10.210  -2.327  1.00  0.00    -0.204 F 
HETATM   25  F3  UNL     1     -11.391  10.357  -2.075  1.00  0.00    -0.204 F 
HETATM   26  C18 UNL     1     -10.538   8.714  -3.489  1.00  0.00     0.247 C 
HETATM   27  O3  UNL     1     -11.576   7.807  -3.362  1.00  0.00    -0.374 OA
ENDBRANCH  19  20
ENDBRANCH  11  13
ENDBRANCH   3   9
BRANCH   1  28
HETATM   28  C5  UNL     1     -19.463   7.544  -1.701  1.00  0.00     0.046 A 
HETATM   29  C2  UNL     1     -20.091   6.488  -1.115  1.00  0.00     0.043 A 
HETATM   30  C1  UNL     1     -19.532   5.487  -0.199  1.00  0.00     0.071 C 
HETATM   31  N1  UNL     1     -21.396   6.528  -1.513  1.00  0.00    -0.265 N 
HETATM   32  O1  UNL     1     -21.565   7.535  -2.286  1.00  0.00    -0.242 OA
ATOM     33  H1  UNL     1     -22.120   5.863  -1.239  1.00  0.00     0.194 HD
HETATM   34  C3  UNL     1     -20.444   8.191  -2.442  1.00  0.00     0.087 A 
HETATM   35  C4  UNL     1     -20.277   9.404  -3.269  1.00  0.00     0.080 C 
ENDBRANCH   1  28
BRANCH   6  36
HETATM   36  C21 UNL     1     -15.946   9.600   0.997  1.00  0.00     0.241 C 
HETATM   37  F4  UNL     1     -15.055   8.873   1.717  1.00  0.00    -0.214 F 
HETATM   38  C22 UNL     1     -15.659  11.086   0.925  1.00  0.00     0.200 C 
HETATM   39  N5  UNL     1     -16.272  11.068   2.265  1.00  0.00    -0.140 NA
HETATM   40  N6  UNL     1     -17.082  10.005   1.762  1.00  0.00    -0.097 NA
ENDBRANCH   6  36
TORSDOF 5
ENDMDL
MODEL 5
REMARK VINA RESULT: -7.163646330      4.015      9.775
REMARK  5 active torsions:
REMARK  status: ('A' for Active; 'I' for Inactive)
REMARK    1  A    between atoms: C5_8  and  C6_9 
REMARK    2  A    between atoms: C8_11  and  C9_13 
REMARK       I    between atoms: C9_13  and  N2_15 
REMARK    3  A    between atoms: N2_15  and  C10_17 
REMARK    4  A    between atoms: C13_23  and  C14_24 
REMARK    5  A    between atoms: C20_33  and  C21_34 
ROOT
HETATM    1  C6  UNL     1     -13.537   7.308  -2.083  1.00  0.00     0.047 A 
HETATM    2  C7  UNL     1     -14.300   7.568  -1.060  1.00  0.00     0.057 A 
HETATM    3  C8  UNL     1     -13.739   8.161   0.183  1.00  0.00     0.208 A 
HETATM    4  F1  UNL     1     -13.978   7.161   1.154  1.00  0.00    -0.228 F 
HETATM    5  C19 UNL     1     -12.311   8.505   0.213  1.00  0.00     0.115 A 
HETATM    6  C20 UNL     1     -11.567   8.163  -1.003  1.00  0.00     0.050 A 
HETATM    7  N7  UNL     1     -12.136   7.633  -2.006  1.00  0.00    -0.358 N 
ATOM      8  H7  UNL     1     -11.558   7.421  -2.820  1.00  0.00     0.165 HD
ENDROOT
BRANCH   3   9
HETATM    9  C9  UNL     1     -14.577   9.369   0.545  1.00  0.00     0.266 C 
HETATM   10  O2  UNL     1     -14.287  10.424   0.013  1.00  0.00    -0.269 OA
HETATM   11  N2  UNL     1     -15.634   9.235   1.459  1.00  0.00    -0.321 N 
ATOM     12  H2  UNL     1     -15.824   8.320   1.868  1.00  0.00     0.169 HD
BRANCH  11  13
HETATM   13  C10 UNL     1     -16.445  10.338   1.830  1.00  0.00     0.079 A 
HETATM   14  C11 UNL     1     -16.353  11.100   2.941  1.00  0.00     0.139 A 
HETATM   15  N3  UNL     1     -17.306  12.032   2.882  1.00  0.00    -0.308 N 
HETATM   16  N4  UNL     1     -17.994  11.865   1.752  1.00  0.00    -0.296 N 
ATOM     17  H3  UNL     1     -17.480  12.752   3.584  1.00  0.00     0.186 HD
HETATM   18  C12 UNL     1     -19.095  12.716   1.420  1.00  0.00     0.177 C 
HETATM   19  C13 UNL     1     -17.520  10.844   1.058  1.00  0.00     0.085 A 
BRANCH  19  20
HETATM   20  C14 UNL     1     -17.926  10.245  -0.217  1.00  0.00     0.175 C 
HETATM   21  C15 UNL     1     -19.150  10.766  -0.848  1.00  0.00     0.044 C 
HETATM   22  C16 UNL     1     -19.374  10.114  -2.194  1.00  0.00     0.084 C 
HETATM   23  C17 UNL     1     -19.017   8.658  -2.211  1.00  0.00     0.264 C 
HETATM   24  F2  UNL     1     -18.723   8.280  -3.521  1.00  0.00    -0.204 F 
HETATM   25  F3  UNL     1     -20.101   7.888  -1.809  1.00  0.00    -0.204 F 
HETATM   26  C18 UNL     1     -17.854   8.305  -1.358  1.00  0.00     0.247 C 
HETATM   27  O3  UNL     1     -18.016   8.829  -0.087  1.00  0.00    -0.374 OA
ENDBRANCH  19  20
ENDBRANCH  11  13
ENDBRANCH   3   9
BRANCH   1  28
HETATM   28  C5  UNL     1     -14.051   6.730  -3.313  1.00  0.00     0.046 A 
HETATM   29  C2  UNL     1     -14.868   7.226  -4.283  1.00  0.00     0.043 A 
HETATM   30  C1  UNL     1     -15.430   8.577  -4.400  1.00  0.00     0.071 C 
HETATM   31  N1  UNL     1     -15.066   6.225  -5.190  1.00  0.00    -0.265 N 
HETATM   32  O1  UNL     1     -14.418   5.186  -4.811  1.00  0.00    -0.242 OA
ATOM     33  H1  UNL     1     -15.637   6.293  -6.032  1.00  0.00     0.194 HD
HETATM   34  C3  UNL     1     -13.785   5.420  -3.691  1.00  0.00     0.087 A 
HETATM   35  C4  UNL     1     -12.943   4.443  -2.971  1.00  0.00     0.080 C 
ENDBRANCH   1  28
BRANCH   6  36
HETATM   36  C21 UNL     1     -10.080   8.470  -1.060  1.00  0.00     0.241 C 
HETATM   37  F4  UNL     1      -9.276   7.422  -1.371  1.00  0.00    -0.214 F 
HETATM   38  C22 UNL     1      -9.752   9.769  -1.768  1.00  0.00     0.200 C 
HETATM   39  N5  UNL     1      -8.712   9.844  -0.726  1.00  0.00    -0.140 NA
HETATM   40  N6  UNL     1      -9.654   9.170   0.110  1.00  0.00    -0.097 NA
ENDBRANCH   6  36
TORSDOF 5
ENDMDL
