MODEL 1
REMARK VINA RESULT: -6.350048675      0.000      0.000
REMARK  9 active torsions:
REMARK  status: ('A' for Active; 'I' for Inactive)
REMARK    1  A    between atoms: C3_6  and  N3_7 
REMARK       I    between atoms: N3_7  and  C4_9 
REMARK    2  A    between atoms: C4_9  and  C5_11 
REMARK    3  A    between atoms: C7_15  and  C8_16 
REMARK    4  A    between atoms: C12_22  and  N6_23 
REMARK    5  A    between atoms: C15_26  and  N7_28 
REMARK    6  A    between atoms: C17_32  and  N8_34 
REMARK    7  A    between atoms: N9_39  and  C20_41 
REMARK    8  A    between atoms: C20_41  and  C21_42 
REMARK    9  A    between atoms: C21_42  and  C22_45 
ROOT
HETATM    1  N6  UNL     1     -10.527   6.739  -3.618  1.00  0.00    -0.318 N 
HETATM    2  C13 UNL     1     -11.152   7.024  -4.884  1.00  0.00     0.135 C 
HETATM    3  C14 UNL     1     -12.348   6.266  -5.265  1.00  0.00     0.061 C 
HETATM    4  C15 UNL     1     -12.654   5.035  -4.471  1.00  0.00     0.161 C 
HETATM    5  C16 UNL     1     -11.801   3.865  -4.906  1.00  0.00     0.049 C 
HETATM    6  C17 UNL     1     -12.489   5.321  -2.995  1.00  0.00     0.209 C 
HETATM    7  C18 UNL     1     -13.360   6.516  -2.709  1.00  0.00     0.057 C 
HETATM    8  C19 UNL     1     -11.008   5.644  -2.851  1.00  0.00     0.120 C 
HETATM    9  N9  UNL     1     -10.337   4.939  -2.062  1.00  0.00    -0.371 N 
ATOM     10  H9  UNL     1     -10.928   4.222  -1.642  1.00  0.00     0.161 HD
ENDROOT
BRANCH   1  11
HETATM   11  C12 UNL     1      -9.463   7.515  -3.102  1.00  0.00     0.154 A 
HETATM   12  N1  UNL     1      -8.158   7.446  -3.403  1.00  0.00    -0.279 N 
HETATM   13  C1  UNL     1      -7.486   6.593  -4.393  1.00  0.00     0.179 C 
HETATM   14  N2  UNL     1      -7.470   8.302  -2.662  1.00  0.00    -0.306 N 
HETATM   15  C2  UNL     1      -8.305   8.970  -1.844  1.00  0.00     0.141 A 
ATOM     16  H2  UNL     1      -6.460   8.435  -2.705  1.00  0.00     0.186 HD
HETATM   17  C3  UNL     1      -9.571   8.500  -2.094  1.00  0.00     0.098 A 
BRANCH  17  18
HETATM   18  N3  UNL     1     -10.769   8.915  -1.508  1.00  0.00    -0.317 N 
HETATM   19  C4  UNL     1     -11.452   8.318  -0.419  1.00  0.00     0.274 C 
HETATM   20  O1  UNL     1     -10.923   7.273   0.096  1.00  0.00    -0.266 OA
ATOM     21  H3  UNL     1     -11.204   9.746  -1.911  1.00  0.00     0.169 HD
BRANCH  19  22
HETATM   22  C5  UNL     1     -12.685   8.813   0.133  1.00  0.00     0.116 A 
HETATM   23  C6  UNL     1     -12.906   8.740   1.489  1.00  0.00     0.123 A 
HETATM   24  N4  UNL     1     -14.025   9.180   2.073  1.00  0.00    -0.365 N 
HETATM   25  C7  UNL     1     -15.001   9.725   1.332  1.00  0.00     0.028 A 
ATOM     26  H4  UNL     1     -14.137   9.102   3.084  1.00  0.00     0.165 HD
HETATM   27  C11 UNL     1     -14.813   9.813  -0.026  1.00  0.00     0.114 A 
HETATM   28  N5  UNL     1     -13.663   9.359  -0.613  1.00  0.00    -0.358 N 
ATOM     29  H5  UNL     1     -13.547   9.435  -1.624  1.00  0.00     0.165 HD
BRANCH  25  30
HETATM   30  C8  UNL     1     -16.256  10.219   1.975  1.00  0.00     0.037 A 
HETATM   31  C9  UNL     1     -16.599  11.678   1.922  1.00  0.00     0.011 A 
HETATM   32  C10 UNL     1     -16.116  11.090   3.198  1.00  0.00     0.011 A 
ENDBRANCH  25  30
ENDBRANCH  19  22
ENDBRANCH  17  18
ENDBRANCH   1  11
BRANCH   6  33
HETATM   33  N8  UNL     1     -12.880   4.240  -2.161  1.00  0.00    -0.061 N 
ATOM     34  H83 UNL     1     -13.356   3.519  -2.704  1.00  0.00     0.275 HD
ATOM     35  H82 UNL     1     -12.065   3.709  -1.854  1.00  0.00     0.275 HD
ATOM     36  H81 UNL     1     -13.448   4.525  -1.363  1.00  0.00     0.275 HD
ENDBRANCH   6  33
BRANCH   9  37
HETATM   37  C20 UNL     1      -9.050   4.832  -1.586  1.00  0.00     0.210 C 
BRANCH  37  38
HETATM   38  C21 UNL     1      -8.302   3.631  -2.175  1.00  0.00     0.354 C 
HETATM   39  F1  UNL     1      -8.777   2.455  -1.559  1.00  0.00    -0.194 F 
HETATM   40  F2  UNL     1      -8.425   3.576  -3.523  1.00  0.00    -0.194 F 
BRANCH  38  41
HETATM   41  C22 UNL     1      -6.828   3.655  -1.811  1.00  0.00     0.456 C 
HETATM   42  F3  UNL     1      -6.348   2.371  -2.111  1.00  0.00    -0.165 F 
HETATM   43  F4  UNL     1      -6.649   3.865  -0.458  1.00  0.00    -0.165 F 
HETATM   44  F5  UNL     1      -6.075   4.509  -2.548  1.00  0.00    -0.165 F 
ENDBRANCH  38  41
ENDBRANCH  37  38
ENDBRANCH   9  37
BRANCH   4  45
HETATM   45  N7  UNL     1     -14.037   4.635  -4.677  1.00  0.00    -0.068 N 
ATOM     46  H73 UNL     1     -14.362   4.857  -5.619  1.00  0.00     0.275 HD
ATOM     47  H72 UNL     1     -14.138   3.621  -4.718  1.00  0.00     0.275 HD
ATOM     48  H71 UNL     1     -14.634   5.049  -3.961  1.00  0.00     0.275 HD
ENDBRANCH   4  45
TORSDOF 9
ENDMDL
MODEL 2
REMARK VINA RESULT: -6.197663898      6.317      8.713
REMARK  9 active torsions:
REMARK  status: ('A' for Active; 'I' for Inactive)
REMARK    1  A    between atoms: C3_6  and  N3_7 
REMARK       I    between atoms: N3_7  and  C4_9 
REMARK    2  A    between atoms: C4_9  and  C5_11 
REMARK    3  A    between atoms: C7_15  and  C8_16 
REMARK    4  A    between atoms: C12_22  and  N6_23 
REMARK    5  A    between atoms: C15_26  and  N7_28 
REMARK    6  A    between atoms: C17_32  and  N8_34 
REMARK    7  A    between atoms: N9_39  and  C20_41 
REMARK    8  A    between atoms: C20_41  and  C21_42 
REMARK    9  A    between atoms: C21_42  and  C22_45 
ROOT
HETATM    1  N6  UNL     1     -16.707   9.815  -3.179  1.00  0.00    -0.318 N 
HETATM    2  C13 UNL     1     -16.193  10.682  -4.208  1.00  0.00     0.135 C 
HETATM    3  C14 UNL     1     -16.994  11.840  -4.617  1.00  0.00     0.061 C 
HETATM    4  C15 UNL     1     -18.424  11.868  -4.176  1.00  0.00     0.161 C 
HETATM    5  C16 UNL     1     -19.292  10.987  -5.045  1.00  0.00     0.049 C 
HETATM    6  C17 UNL     1     -18.520  11.474  -2.719  1.00  0.00     0.209 C 
HETATM    7  C18 UNL     1     -17.591  12.401  -1.981  1.00  0.00     0.057 C 
HETATM    8  C19 UNL     1     -18.027  10.033  -2.699  1.00  0.00     0.120 C 
HETATM    9  N9  UNL     1     -18.806   9.161  -2.250  1.00  0.00    -0.371 N 
ATOM     10  H9  UNL     1     -19.690   9.589  -1.974  1.00  0.00     0.161 HD
ENDROOT
BRANCH   1  11
HETATM   11  C12 UNL     1     -15.945   8.764  -2.617  1.00  0.00     0.154 A 
HETATM   12  N1  UNL     1     -15.528   7.631  -3.202  1.00  0.00    -0.279 N 
HETATM   13  C1  UNL     1     -15.691   7.203  -4.598  1.00  0.00     0.179 C 
HETATM   14  N2  UNL     1     -14.889   6.871  -2.326  1.00  0.00    -0.306 N 
HETATM   15  C2  UNL     1     -14.862   7.482  -1.127  1.00  0.00     0.141 A 
ATOM     16  H2  UNL     1     -14.478   5.959  -2.530  1.00  0.00     0.186 HD
HETATM   17  C3  UNL     1     -15.519   8.679  -1.272  1.00  0.00     0.098 A 
BRANCH  17  18
HETATM   18  N3  UNL     1     -15.720   9.668  -0.307  1.00  0.00    -0.317 N 
HETATM   19  C4  UNL     1     -16.716   9.704   0.700  1.00  0.00     0.274 C 
HETATM   20  O1  UNL     1     -17.539   8.725   0.740  1.00  0.00    -0.266 OA
ATOM     21  H3  UNL     1     -15.073  10.457  -0.329  1.00  0.00     0.169 HD
BRANCH  19  22
HETATM   22  C5  UNL     1     -16.853  10.762   1.666  1.00  0.00     0.116 A 
HETATM   23  C6  UNL     1     -17.857  11.691   1.526  1.00  0.00     0.123 A 
HETATM   24  N4  UNL     1     -18.047  12.699   2.382  1.00  0.00    -0.365 N 
HETATM   25  C7  UNL     1     -17.238  12.843   3.442  1.00  0.00     0.028 A 
ATOM     26  H4  UNL     1     -18.809  13.361   2.230  1.00  0.00     0.165 HD
HETATM   27  C11 UNL     1     -16.224  11.932   3.613  1.00  0.00     0.114 A 
HETATM   28  N5  UNL     1     -16.039  10.904   2.729  1.00  0.00    -0.358 N 
ATOM     29  H5  UNL     1     -15.278  10.240   2.877  1.00  0.00     0.165 HD
BRANCH  25  30
HETATM   30  C8  UNL     1     -17.441  13.968   4.404  1.00  0.00     0.037 A 
HETATM   31  C9  UNL     1     -17.091  13.785   5.851  1.00  0.00     0.011 A 
HETATM   32  C10 UNL     1     -18.520  13.807   5.446  1.00  0.00     0.011 A 
ENDBRANCH  25  30
ENDBRANCH  19  22
ENDBRANCH  17  18
ENDBRANCH   1  11
BRANCH   6  33
HETATM   33  N8  UNL     1     -19.830  11.593  -2.185  1.00  0.00    -0.061 N 
ATOM     34  H83 UNL     1     -19.915  12.442  -1.625  1.00  0.00     0.275 HD
ATOM     35  H82 UNL     1     -20.502  11.808  -2.922  1.00  0.00     0.275 HD
ATOM     36  H81 UNL     1     -20.129  10.777  -1.651  1.00  0.00     0.275 HD
ENDBRANCH   6  33
BRANCH   9  37
HETATM   37  C20 UNL     1     -18.841   7.806  -2.012  1.00  0.00     0.210 C 
BRANCH  37  38
HETATM   38  C21 UNL     1     -20.218   7.324  -1.543  1.00  0.00     0.354 C 
HETATM   39  F1  UNL     1     -20.764   8.291  -0.673  1.00  0.00    -0.194 F 
HETATM   40  F2  UNL     1     -21.041   7.068  -2.587  1.00  0.00    -0.194 F 
BRANCH  38  41
HETATM   41  C22 UNL     1     -20.112   6.083  -0.677  1.00  0.00     0.456 C 
HETATM   42  F3  UNL     1     -18.805   5.607  -0.862  1.00  0.00    -0.165 F 
HETATM   43  F4  UNL     1     -20.981   5.097  -1.104  1.00  0.00    -0.165 F 
HETATM   44  F5  UNL     1     -20.235   6.307   0.656  1.00  0.00    -0.165 F 
ENDBRANCH  38  41
ENDBRANCH  37  38
ENDBRANCH   9  37
BRANCH   4  45
HETATM   45  N7  UNL     1     -18.959  13.216  -4.290  1.00  0.00    -0.068 N 
ATOM     46  H73 UNL     1     -18.504  13.863  -3.646  1.00  0.00     0.275 HD
ATOM     47  H72 UNL     1     -18.687  13.660  -5.167  1.00  0.00     0.275 HD
ATOM     48  H71 UNL     1     -19.971  13.204  -4.166  1.00  0.00     0.275 HD
ENDBRANCH   4  45
TORSDOF 9
ENDMDL
MODEL 3
REMARK VINA RESULT: -6.078938837      4.904      6.543
REMARK  9 active torsions:
REMARK  status: ('A' for Active; 'I' for Inactive)
REMARK    1  A    between atoms: C3_6  and  N3_7 
REMARK       I    between atoms: N3_7  and  C4_9 
REMARK    2  A    between atoms: C4_9  and  C5_11 
REMARK    3  A    between atoms: C7_15  and  C8_16 
REMARK    4  A    between atoms: C12_22  and  N6_23 
REMARK    5  A    between atoms: C15_26  and  N7_28 
REMARK    6  A    between atoms: C17_32  and  N8_34 
REMARK    7  A    between atoms: N9_39  and  C20_41 
REMARK    8  A    between atoms: C20_41  and  C21_42 
REMARK    9  A    between atoms: C21_42  and  C22_45 
ROOT
HETATM    1  N6  UNL     1     -14.755   8.952  -2.657  1.00  0.00    -0.318 N 
HETATM    2  C13 UNL     1     -14.646  10.248  -3.275  1.00  0.00     0.135 C 
HETATM    3  C14 UNL     1     -14.887  10.364  -4.717  1.00  0.00     0.061 C 
HETATM    4  C15 UNL     1     -14.915   9.093  -5.505  1.00  0.00     0.161 C 
HETATM    5  C16 UNL     1     -13.519   8.591  -5.801  1.00  0.00     0.049 C 
HETATM    6  C17 UNL     1     -15.733   8.052  -4.775  1.00  0.00     0.209 C 
HETATM    7  C18 UNL     1     -17.073   8.690  -4.519  1.00  0.00     0.057 C 
HETATM    8  C19 UNL     1     -14.955   7.815  -3.488  1.00  0.00     0.120 C 
HETATM    9  N9  UNL     1     -14.570   6.647  -3.251  1.00  0.00    -0.371 N 
ATOM     10  H9  UNL     1     -14.846   6.026  -4.012  1.00  0.00     0.161 HD
ENDROOT
BRANCH   1  11
HETATM   11  C12 UNL     1     -14.686   8.766  -1.258  1.00  0.00     0.154 A 
HETATM   12  N1  UNL     1     -13.597   8.708  -0.476  1.00  0.00    -0.279 N 
HETATM   13  C1  UNL     1     -12.187   8.884  -0.850  1.00  0.00     0.179 C 
HETATM   14  N2  UNL     1     -13.944   8.463   0.778  1.00  0.00    -0.306 N 
HETATM   15  C2  UNL     1     -15.283   8.353   0.867  1.00  0.00     0.141 A 
ATOM     16  H2  UNL     1     -13.295   8.372   1.559  1.00  0.00     0.186 HD
HETATM   17  C3  UNL     1     -15.785   8.538  -0.398  1.00  0.00     0.098 A 
BRANCH  17  18
HETATM   18  N3  UNL     1     -17.124   8.542  -0.795  1.00  0.00    -0.317 N 
HETATM   19  C4  UNL     1     -17.943   7.423  -1.087  1.00  0.00     0.274 C 
HETATM   20  O1  UNL     1     -17.406   6.266  -0.982  1.00  0.00    -0.266 OA
ATOM     21  H3  UNL     1     -17.564   9.458  -0.886  1.00  0.00     0.169 HD
BRANCH  19  22
HETATM   22  C5  UNL     1     -19.323   7.512  -1.486  1.00  0.00     0.116 A 
HETATM   23  C6  UNL     1     -20.206   6.523  -1.119  1.00  0.00     0.123 A 
HETATM   24  N4  UNL     1     -21.501   6.538  -1.451  1.00  0.00    -0.365 N 
HETATM   25  C7  UNL     1     -21.997   7.550  -2.176  1.00  0.00     0.028 A 
ATOM     26  H4  UNL     1     -22.112   5.778  -1.151  1.00  0.00     0.165 HD
HETATM   27  C11 UNL     1     -21.142   8.555  -2.561  1.00  0.00     0.114 A 
HETATM   28  N5  UNL     1     -19.818   8.529  -2.215  1.00  0.00    -0.358 N 
ATOM     29  H5  UNL     1     -19.203   9.286  -2.513  1.00  0.00     0.165 HD
BRANCH  25  30
HETATM   30  C8  UNL     1     -23.442   7.576  -2.554  1.00  0.00     0.037 A 
HETATM   31  C9  UNL     1     -24.238   6.305  -2.550  1.00  0.00     0.011 A 
HETATM   32  C10 UNL     1     -23.836   6.907  -3.848  1.00  0.00     0.011 A 
ENDBRANCH  25  30
ENDBRANCH  19  22
ENDBRANCH  17  18
ENDBRANCH   1  11
BRANCH   6  33
HETATM   33  N8  UNL     1     -15.914   6.853  -5.514  1.00  0.00    -0.061 N 
ATOM     34  H83 UNL     1     -16.405   7.038  -6.388  1.00  0.00     0.275 HD
ATOM     35  H82 UNL     1     -15.024   6.521  -5.886  1.00  0.00     0.275 HD
ATOM     36  H81 UNL     1     -16.381   6.116  -4.986  1.00  0.00     0.275 HD
ENDBRANCH   6  33
BRANCH   9  37
HETATM   37  C20 UNL     1     -13.890   5.942  -2.285  1.00  0.00     0.210 C 
BRANCH  37  38
HETATM   38  C21 UNL     1     -12.532   5.427  -2.776  1.00  0.00     0.354 C 
HETATM   39  F1  UNL     1     -12.062   6.286  -3.791  1.00  0.00    -0.194 F 
HETATM   40  F2  UNL     1     -11.642   5.317  -1.761  1.00  0.00    -0.194 F 
BRANCH  38  41
HETATM   41  C22 UNL     1     -12.660   4.085  -3.473  1.00  0.00     0.456 C 
HETATM   42  F3  UNL     1     -13.778   3.466  -2.891  1.00  0.00    -0.165 F 
HETATM   43  F4  UNL     1     -11.561   3.284  -3.226  1.00  0.00    -0.165 F 
HETATM   44  F5  UNL     1     -12.930   4.157  -4.800  1.00  0.00    -0.165 F 
ENDBRANCH  38  41
ENDBRANCH  37  38
ENDBRANCH   9  37
BRANCH   4  45
HETATM   45  N7  UNL     1     -15.554   9.314  -6.793  1.00  0.00    -0.068 N 
ATOM     46  H73 UNL     1     -16.546   9.076  -6.772  1.00  0.00     0.275 HD
ATOM     47  H72 UNL     1     -15.642  10.307  -7.009  1.00  0.00     0.275 HD
ATOM     48  H71 UNL     1     -15.057   8.808  -7.525  1.00  0.00     0.275 HD
ENDBRANCH   4  45
TORSDOF 9
ENDMDL
MODEL 4
REMARK VINA RESULT: -5.998554043      3.248      5.435
REMARK  9 active torsions:
REMARK  status: ('A' for Active; 'I' for Inactive)
REMARK    1  A    between atoms: C3_6  and  N3_7 
REMARK       I    between atoms: N3_7  and  C4_9 
REMARK    2  A    between atoms: C4_9  and  C5_11 
REMARK    3  A    between atoms: C7_15  and  C8_16 
REMARK    4  A    between atoms: C12_22  and  N6_23 
REMARK    5  A    between atoms: C15_26  and  N7_28 
REMARK    6  A    between atoms: C17_32  and  N8_34 
REMARK    7  A    between atoms: N9_39  and  C20_41 
REMARK    8  A    between atoms: C20_41  and  C21_42 
REMARK    9  A    between atoms: C21_42  and  C22_45 
ROOT
HETATM    1  N6  UNL     1     -10.102   5.667  -4.068  1.00  0.00    -0.318 N 
HETATM    2  C13 UNL     1     -10.055   6.895  -4.820  1.00  0.00     0.135 C 
HETATM    3  C14 UNL     1      -9.138   6.987  -5.960  1.00  0.00     0.061 C 
HETATM    4  C15 UNL     1      -8.087   5.928  -6.074  1.00  0.00     0.161 C 
HETATM    5  C16 UNL     1      -6.924   6.195  -5.145  1.00  0.00     0.049 C 
HETATM    6  C17 UNL     1      -8.697   4.569  -5.820  1.00  0.00     0.209 C 
HETATM    7  C18 UNL     1      -9.850   4.450  -6.781  1.00  0.00     0.057 C 
HETATM    8  C19 UNL     1      -9.163   4.644  -4.372  1.00  0.00     0.120 C 
HETATM    9  N9  UNL     1      -8.702   3.799  -3.571  1.00  0.00    -0.371 N 
ATOM     10  H9  UNL     1      -8.047   3.181  -4.051  1.00  0.00     0.161 HD
ENDROOT
BRANCH   1  11
HETATM   11  C12 UNL     1     -11.055   5.433  -3.050  1.00  0.00     0.154 A 
HETATM   12  N1  UNL     1     -12.165   4.682  -3.103  1.00  0.00    -0.279 N 
HETATM   13  C1  UNL     1     -12.659   3.848  -4.208  1.00  0.00     0.179 C 
HETATM   14  N2  UNL     1     -12.829   4.762  -1.960  1.00  0.00    -0.306 N 
HETATM   15  C2  UNL     1     -12.173   5.573  -1.108  1.00  0.00     0.141 A 
ATOM     16  H2  UNL     1     -13.705   4.281  -1.755  1.00  0.00     0.186 HD
HETATM   17  C3  UNL     1     -11.049   6.015  -1.762  1.00  0.00     0.098 A 
BRANCH  17  18
HETATM   18  N3  UNL     1     -10.047   6.855  -1.269  1.00  0.00    -0.317 N 
HETATM   19  C4  UNL     1     -10.003   8.270  -1.319  1.00  0.00     0.274 C 
HETATM   20  O1  UNL     1     -10.987   8.863  -1.883  1.00  0.00    -0.266 OA
ATOM     21  H3  UNL     1      -9.254   6.395  -0.821  1.00  0.00     0.169 HD
BRANCH  19  22
HETATM   22  C5  UNL     1      -8.932   9.066  -0.781  1.00  0.00     0.116 A 
HETATM   23  C6  UNL     1      -7.908   9.480  -1.600  1.00  0.00     0.123 A 
HETATM   24  N4  UNL     1      -6.882  10.222  -1.173  1.00  0.00    -0.365 N 
HETATM   25  C7  UNL     1      -6.814  10.599   0.112  1.00  0.00     0.028 A 
ATOM     26  H4  UNL     1      -6.149  10.502  -1.825  1.00  0.00     0.165 HD
HETATM   27  C11 UNL     1      -7.821  10.202   0.959  1.00  0.00     0.114 A 
HETATM   28  N5  UNL     1      -8.867   9.443   0.510  1.00  0.00    -0.358 N 
ATOM     29  H5  UNL     1      -9.602   9.160   1.158  1.00  0.00     0.165 HD
BRANCH  25  30
HETATM   30  C8  UNL     1      -5.671  11.426   0.601  1.00  0.00     0.037 A 
HETATM   31  C9  UNL     1      -4.352  11.374  -0.111  1.00  0.00     0.011 A 
HETATM   32  C10 UNL     1      -4.494  10.701   1.206  1.00  0.00     0.011 A 
ENDBRANCH  25  30
ENDBRANCH  19  22
ENDBRANCH  17  18
ENDBRANCH   1  11
BRANCH   6  33
HETATM   33  N8  UNL     1      -7.793   3.494  -6.030  1.00  0.00    -0.061 N 
ATOM     34  H83 UNL     1      -6.832   3.833  -6.070  1.00  0.00     0.275 HD
ATOM     35  H82 UNL     1      -7.731   2.907  -5.198  1.00  0.00     0.275 HD
ATOM     36  H81 UNL     1      -8.012   2.932  -6.853  1.00  0.00     0.275 HD
ENDBRANCH   6  33
BRANCH   9  37
HETATM   37  C20 UNL     1      -8.805   3.444  -2.246  1.00  0.00     0.210 C 
BRANCH  37  38
HETATM   38  C21 UNL     1      -7.609   3.917  -1.413  1.00  0.00     0.354 C 
HETATM   39  F1  UNL     1      -7.428   5.300  -1.625  1.00  0.00    -0.194 F 
HETATM   40  F2  UNL     1      -7.767   3.629  -0.099  1.00  0.00    -0.194 F 
BRANCH  38  41
HETATM   41  C22 UNL     1      -6.309   3.307  -1.902  1.00  0.00     0.456 C 
HETATM   42  F3  UNL     1      -5.499   3.186  -0.762  1.00  0.00    -0.165 F 
HETATM   43  F4  UNL     1      -5.662   4.147  -2.788  1.00  0.00    -0.165 F 
HETATM   44  F5  UNL     1      -6.424   2.052  -2.405  1.00  0.00    -0.165 F 
ENDBRANCH  38  41
ENDBRANCH  37  38
ENDBRANCH   9  37
BRANCH   4  45
HETATM   45  N7  UNL     1      -7.540   5.906  -7.422  1.00  0.00    -0.068 N 
ATOM     46  H73 UNL     1      -8.137   5.388  -8.067  1.00  0.00     0.275 HD
ATOM     47  H72 UNL     1      -7.593   6.821  -7.870  1.00  0.00     0.275 HD
ATOM     48  H71 UNL     1      -6.587   5.543  -7.410  1.00  0.00     0.275 HD
ENDBRANCH   4  45
TORSDOF 9
ENDMDL
MODEL 5
REMARK VINA RESULT: -5.977268844      7.423     10.481
REMARK  9 active torsions:
REMARK  status: ('A' for Active; 'I' for Inactive)
REMARK    1  A    between atoms: C3_6  and  N3_7 
REMARK       I    between atoms: N3_7  and  C4_9 
REMARK    2  A    between atoms: C4_9  and  C5_11 
REMARK    3  A    between atoms: C7_15  and  C8_16 
REMARK    4  A    between atoms: C12_22  and  N6_23 
REMARK    5  A    between atoms: C15_26  and  N7_28 
REMARK    6  A    between atoms: C17_32  and  N8_34 
REMARK    7  A    between atoms: N9_39  and  C20_41 
REMARK    8  A    between atoms: C20_41  and  C21_42 
REMARK    9  A    between atoms: C21_42  and  C22_45 
ROOT
HETATM    1  N6  UNL     1     -16.595  11.715  -0.647  1.00  0.00    -0.318 N 
HETATM    2  C13 UNL     1     -15.581  11.465  -1.638  1.00  0.00     0.135 C 
HETATM    3  C14 UNL     1     -14.978  10.129  -1.706  1.00  0.00     0.061 C 
HETATM    4  C15 UNL     1     -15.219   9.215  -0.547  1.00  0.00     0.161 C 
HETATM    5  C16 UNL     1     -14.312   9.541   0.618  1.00  0.00     0.049 C 
HETATM    6  C17 UNL     1     -16.676   9.267  -0.145  1.00  0.00     0.209 C 
HETATM    7  C18 UNL     1     -17.458   8.957  -1.394  1.00  0.00     0.057 C 
HETATM    8  C19 UNL     1     -16.875  10.705   0.314  1.00  0.00     0.120 C 
HETATM    9  N9  UNL     1     -17.282  10.888   1.485  1.00  0.00    -0.371 N 
ATOM     10  H9  UNL     1     -17.401   9.992   1.959  1.00  0.00     0.161 HD
ENDROOT
BRANCH   1  11
HETATM   11  C12 UNL     1     -17.335  12.919  -0.601  1.00  0.00     0.154 A 
HETATM   12  N1  UNL     1     -16.929  14.133  -0.199  1.00  0.00    -0.279 N 
HETATM   13  C1  UNL     1     -15.592  14.556   0.241  1.00  0.00     0.179 C 
HETATM   14  N2  UNL     1     -17.934  14.994  -0.249  1.00  0.00    -0.306 N 
HETATM   15  C2  UNL     1     -19.044  14.372  -0.690  1.00  0.00     0.141 A 
ATOM     16  H2  UNL     1     -17.876  15.979   0.008  1.00  0.00     0.186 HD
HETATM   17  C3  UNL     1     -18.704  13.062  -0.923  1.00  0.00     0.098 A 
BRANCH  17  18
HETATM   18  N3  UNL     1     -19.519  12.040  -1.416  1.00  0.00    -0.317 N 
HETATM   19  C4  UNL     1     -20.374  11.184  -0.678  1.00  0.00     0.274 C 
HETATM   20  O1  UNL     1     -20.411  11.350   0.590  1.00  0.00    -0.266 OA
ATOM     21  H3  UNL     1     -19.497  11.894  -2.426  1.00  0.00     0.169 HD
BRANCH  19  22
HETATM   22  C5  UNL     1     -21.190  10.154  -1.265  1.00  0.00     0.116 A 
HETATM   23  C6  UNL     1     -22.372   9.791  -0.662  1.00  0.00     0.123 A 
HETATM   24  N4  UNL     1     -23.182   8.846  -1.148  1.00  0.00    -0.365 N 
HETATM   25  C7  UNL     1     -22.860   8.200  -2.278  1.00  0.00     0.028 A 
ATOM     26  H4  UNL     1     -24.048   8.616  -0.659  1.00  0.00     0.165 HD
HETATM   27  C11 UNL     1     -21.686   8.538  -2.907  1.00  0.00     0.114 A 
HETATM   28  N5  UNL     1     -20.864   9.507  -2.399  1.00  0.00    -0.358 N 
ATOM     29  H5  UNL     1     -19.997   9.740  -2.884  1.00  0.00     0.165 HD
BRANCH  25  30
HETATM   30  C8  UNL     1     -23.758   7.141  -2.829  1.00  0.00     0.037 A 
HETATM   31  C9  UNL     1     -25.001   6.754  -2.086  1.00  0.00     0.011 A 
HETATM   32  C10 UNL     1     -23.835   5.833  -2.081  1.00  0.00     0.011 A 
ENDBRANCH  25  30
ENDBRANCH  19  22
ENDBRANCH  17  18
ENDBRANCH   1  11
BRANCH   6  33
HETATM   33  N8  UNL     1     -17.017   8.335   0.871  1.00  0.00    -0.061 N 
ATOM     34  H83 UNL     1     -16.926   7.378   0.528  1.00  0.00     0.275 HD
ATOM     35  H82 UNL     1     -16.307   8.321   1.602  1.00  0.00     0.275 HD
ATOM     36  H81 UNL     1     -17.944   8.488   1.270  1.00  0.00     0.275 HD
ENDBRANCH   6  33
BRANCH   9  37
HETATM   37  C20 UNL     1     -17.618  11.921   2.330  1.00  0.00     0.210 C 
BRANCH  37  38
HETATM   38  C21 UNL     1     -16.517  12.230   3.350  1.00  0.00     0.354 C 
HETATM   39  F1  UNL     1     -16.179  11.040   4.027  1.00  0.00    -0.194 F 
HETATM   40  F2  UNL     1     -15.435  12.798   2.764  1.00  0.00    -0.194 F 
BRANCH  38  41
HETATM   41  C22 UNL     1     -17.017  13.141   4.456  1.00  0.00     0.456 C 
HETATM   42  F3  UNL     1     -16.759  14.447   4.011  1.00  0.00    -0.165 F 
HETATM   43  F4  UNL     1     -16.307  12.948   5.625  1.00  0.00    -0.165 F 
HETATM   44  F5  UNL     1     -18.355  13.087   4.676  1.00  0.00    -0.165 F 
ENDBRANCH  38  41
ENDBRANCH  37  38
ENDBRANCH   9  37
BRANCH   4  45
HETATM   45  N7  UNL     1     -14.928   7.840  -0.922  1.00  0.00    -0.068 N 
ATOM     46  H73 UNL     1     -15.779   7.295  -1.066  1.00  0.00     0.275 HD
ATOM     47  H72 UNL     1     -14.547   7.775  -1.866  1.00  0.00     0.275 HD
ATOM     48  H71 UNL     1     -14.312   7.409  -0.233  1.00  0.00     0.275 HD
ENDBRANCH   4  45
TORSDOF 9
ENDMDL
