MODEL 1
REMARK VINA RESULT: -6.496851472      0.000      0.000
REMARK  9 active torsions:
REMARK  status: ('A' for Active; 'I' for Inactive)
REMARK    1  A    between atoms: O1_2  and  C2_3 
REMARK    2  A    between atoms: C2_3  and  C3_5 
REMARK    3  A    between atoms: C4_6  and  N1_7 
REMARK       I    between atoms: N1_7  and  C5_9 
REMARK    4  A    between atoms: C5_9  and  C6_11 
REMARK    5  A    between atoms: C6_11  and  N2_12 
REMARK    6  A    between atoms: C6_11  and  N4_26 
REMARK    7  A    between atoms: N2_12  and  C7_14 
REMARK    8  A    between atoms: C12_21  and  N3_22 
REMARK    9  A    between atoms: C15_29  and  C16_30 
ROOT
HETATM    1  C6  UNL     1     -16.874   9.352  -1.210  1.00  0.00     0.294 C 
ENDROOT
BRANCH   1   2
HETATM    2  C5  UNL     1     -15.668   8.461  -1.260  1.00  0.00     0.266 C 
HETATM    3  N1  UNL     1     -14.749   8.587  -2.316  1.00  0.00    -0.317 N 
ATOM      4  H1  UNL     1     -14.893   9.311  -3.019  1.00  0.00     0.169 HD
HETATM    5  O3  UNL     1     -15.533   7.600  -0.320  1.00  0.00    -0.269 OA
BRANCH   3   6
HETATM    6  C4  UNL     1     -13.606   7.714  -2.425  1.00  0.00     0.094 A 
HETATM    7  C3  UNL     1     -12.342   7.859  -1.938  1.00  0.00     0.080 A 
HETATM    8  C18 UNL     1     -11.470   6.840  -2.206  1.00  0.00    -0.026 A 
HETATM    9  C17 UNL     1     -11.917   5.786  -2.916  1.00  0.00    -0.008 A 
HETATM   10  C19 UNL     1      -9.994   6.577  -1.943  1.00  0.00     0.041 C 
HETATM   11  S1  UNL     1     -13.545   6.184  -3.226  1.00  0.00    -0.075 SA
HETATM   12  C21 UNL     1     -10.838   4.749  -3.118  1.00  0.00     0.047 C 
HETATM   13  C20 UNL     1      -9.891   5.080  -2.006  1.00  0.00     0.010 C 
BRANCH   7  14
HETATM   14  C2  UNL     1     -11.966   9.086  -1.176  1.00  0.00     0.296 C 
HETATM   15  O2  UNL     1     -11.084   9.859  -1.511  1.00  0.00    -0.259 OA
BRANCH  14  16
HETATM   16  O1  UNL     1     -12.638   9.441   0.022  1.00  0.00    -0.322 OA
HETATM   17  C1  UNL     1     -12.461   8.653   1.190  1.00  0.00     0.213 C 
ENDBRANCH  14  16
ENDBRANCH   7  14
ENDBRANCH   3   6
ENDBRANCH   1   2
BRANCH   1  18
HETATM   18  N2  UNL     1     -17.112   9.903   0.083  1.00  0.00    -0.386 N 
ATOM     19  H2  UNL     1     -17.475   9.322   0.838  1.00  0.00     0.156 HD
BRANCH  18  20
HETATM   20  C7  UNL     1     -16.832  11.279   0.297  1.00  0.00     0.115 C 
HETATM   21  C8  UNL     1     -15.857  11.624   1.321  1.00  0.00     0.105 C 
HETATM   22  C9  UNL     1     -16.434  11.708   2.695  1.00  0.00     0.245 C 
HETATM   23  F1  UNL     1     -15.523  12.439   3.484  1.00  0.00    -0.206 F 
HETATM   24  F2  UNL     1     -16.513  10.462   3.272  1.00  0.00    -0.206 F 
HETATM   25  C10 UNL     1     -17.723  12.454   2.788  1.00  0.00     0.081 C 
HETATM   26  C11 UNL     1     -18.730  12.121   1.719  1.00  0.00     0.040 C 
HETATM   27  C12 UNL     1     -18.126  12.094   0.348  1.00  0.00     0.206 C 
BRANCH  27  28
HETATM   28  N3  UNL     1     -17.992  13.365  -0.257  1.00  0.00    -0.073 N 
ATOM     29  H33 UNL     1     -17.021  13.550  -0.510  1.00  0.00     0.274 HD
ATOM     30  H32 UNL     1     -18.410  13.374  -1.187  1.00  0.00     0.274 HD
ATOM     31  H31 UNL     1     -18.369  14.117   0.322  1.00  0.00     0.274 HD
ENDBRANCH  27  28
ENDBRANCH  18  20
ENDBRANCH   1  18
BRANCH   1  32
HETATM   32  N4  UNL     1     -18.064   8.507  -1.427  1.00  0.00    -0.270 N 
HETATM   33  C13 UNL     1     -19.032   8.691  -2.286  1.00  0.00     0.115 A 
HETATM   34  C14 UNL     1     -19.990   7.680  -2.103  1.00  0.00     0.054 A 
HETATM   35  C15 UNL     1     -19.483   6.900  -1.067  1.00  0.00     0.133 A 
HETATM   36  N5  UNL     1     -18.313   7.449  -0.698  1.00  0.00    -0.292 N 
ATOM     37  H5  UNL     1     -17.709   7.094   0.043  1.00  0.00     0.187 HD
BRANCH  35  38
HETATM   38  C16 UNL     1     -20.103   5.715  -0.456  1.00  0.00     0.433 C 
HETATM   39  F3  UNL     1     -19.237   4.655  -0.443  1.00  0.00    -0.165 F 
HETATM   40  F4  UNL     1     -21.250   5.387  -1.163  1.00  0.00    -0.165 F 
HETATM   41  F5  UNL     1     -20.506   5.989   0.856  1.00  0.00    -0.165 F 
ENDBRANCH  35  38
ENDBRANCH   1  32
TORSDOF 9
ENDMDL
MODEL 2
REMARK VINA RESULT: -6.465184194      2.872      7.040
REMARK  9 active torsions:
REMARK  status: ('A' for Active; 'I' for Inactive)
REMARK    1  A    between atoms: O1_2  and  C2_3 
REMARK    2  A    between atoms: C2_3  and  C3_5 
REMARK    3  A    between atoms: C4_6  and  N1_7 
REMARK       I    between atoms: N1_7  and  C5_9 
REMARK    4  A    between atoms: C5_9  and  C6_11 
REMARK    5  A    between atoms: C6_11  and  N2_12 
REMARK    6  A    between atoms: C6_11  and  N4_26 
REMARK    7  A    between atoms: N2_12  and  C7_14 
REMARK    8  A    between atoms: C12_21  and  N3_22 
REMARK    9  A    between atoms: C15_29  and  C16_30 
ROOT
HETATM    1  C6  UNL     1     -15.683   8.248  -0.659  1.00  0.00     0.294 C 
ENDROOT
BRANCH   1   2
HETATM    2  C5  UNL     1     -15.798   9.459   0.218  1.00  0.00     0.266 C 
HETATM    3  N1  UNL     1     -16.801   9.518   1.201  1.00  0.00    -0.317 N 
ATOM      4  H1  UNL     1     -17.418   8.717   1.334  1.00  0.00     0.169 HD
HETATM    5  O3  UNL     1     -14.963  10.411   0.019  1.00  0.00    -0.269 OA
BRANCH   3   6
HETATM    6  C4  UNL     1     -16.975  10.687   2.028  1.00  0.00     0.094 A 
HETATM    7  C3  UNL     1     -17.861  11.717   1.914  1.00  0.00     0.080 A 
HETATM    8  C18 UNL     1     -17.781  12.690   2.872  1.00  0.00    -0.026 A 
HETATM    9  C17 UNL     1     -16.855  12.560   3.841  1.00  0.00    -0.008 A 
HETATM   10  C19 UNL     1     -18.481  14.017   3.131  1.00  0.00     0.041 C 
HETATM   11  S1  UNL     1     -16.077  11.096   3.446  1.00  0.00    -0.075 SA
HETATM   12  C21 UNL     1     -16.903  13.709   4.820  1.00  0.00     0.047 C 
HETATM   13  C20 UNL     1     -18.291  14.227   4.606  1.00  0.00     0.010 C 
BRANCH   7  14
HETATM   14  C2  UNL     1     -18.832  11.752   0.782  1.00  0.00     0.296 C 
HETATM   15  O2  UNL     1     -20.040  11.851   0.917  1.00  0.00    -0.259 OA
BRANCH  14  16
HETATM   16  O1  UNL     1     -18.393  11.673  -0.564  1.00  0.00    -0.322 OA
HETATM   17  C1  UNL     1     -17.535  12.676  -1.087  1.00  0.00     0.213 C 
ENDBRANCH  14  16
ENDBRANCH   7  14
ENDBRANCH   3   6
ENDBRANCH   1   2
BRANCH   1  18
HETATM   18  N2  UNL     1     -15.032   8.512  -1.899  1.00  0.00    -0.386 N 
ATOM     19  H2  UNL     1     -15.202   9.383  -2.402  1.00  0.00     0.156 HD
BRANCH  18  20
HETATM   20  C7  UNL     1     -14.142   7.536  -2.420  1.00  0.00     0.115 C 
HETATM   21  C8  UNL     1     -13.470   6.653  -1.477  1.00  0.00     0.105 C 
HETATM   22  C9  UNL     1     -12.221   7.231  -0.899  1.00  0.00     0.245 C 
HETATM   23  F1  UNL     1     -11.476   6.161  -0.366  1.00  0.00    -0.206 F 
HETATM   24  F2  UNL     1     -12.506   8.057   0.163  1.00  0.00    -0.206 F 
HETATM   25  C10 UNL     1     -11.316   7.883  -1.892  1.00  0.00     0.081 C 
HETATM   26  C11 UNL     1     -12.004   8.780  -2.888  1.00  0.00     0.040 C 
HETATM   27  C12 UNL     1     -13.226   8.148  -3.482  1.00  0.00     0.206 C 
BRANCH  27  28
HETATM   28  N3  UNL     1     -12.964   7.260  -4.552  1.00  0.00    -0.073 N 
ATOM     29  H33 UNL     1     -13.469   6.382  -4.432  1.00  0.00     0.274 HD
ATOM     30  H32 UNL     1     -13.401   7.586  -5.413  1.00  0.00     0.274 HD
ATOM     31  H31 UNL     1     -11.966   7.093  -4.687  1.00  0.00     0.274 HD
ENDBRANCH  27  28
ENDBRANCH  18  20
ENDBRANCH   1  18
BRANCH   1  32
HETATM   32  N4  UNL     1     -17.045   7.869  -1.081  1.00  0.00    -0.270 N 
HETATM   33  C13 UNL     1     -17.765   8.399  -2.035  1.00  0.00     0.115 A 
HETATM   34  C14 UNL     1     -19.023   7.773  -2.045  1.00  0.00     0.054 A 
HETATM   35  C15 UNL     1     -18.956   6.836  -1.017  1.00  0.00     0.133 A 
HETATM   36  N5  UNL     1     -17.734   6.940  -0.469  1.00  0.00    -0.292 N 
ATOM     37  H5  UNL     1     -17.393   6.377   0.310  1.00  0.00     0.187 HD
BRANCH  35  38
HETATM   38  C16 UNL     1     -20.017   5.919  -0.575  1.00  0.00     0.433 C 
HETATM   39  F3  UNL     1     -21.050   5.888  -1.473  1.00  0.00    -0.165 F 
HETATM   40  F4  UNL     1     -20.477   6.322   0.669  1.00  0.00    -0.165 F 
HETATM   41  F5  UNL     1     -19.514   4.622  -0.415  1.00  0.00    -0.165 F 
ENDBRANCH  35  38
ENDBRANCH   1  32
TORSDOF 9
ENDMDL
MODEL 3
REMARK VINA RESULT: -6.454125239      3.307      7.453
REMARK  9 active torsions:
REMARK  status: ('A' for Active; 'I' for Inactive)
REMARK    1  A    between atoms: O1_2  and  C2_3 
REMARK    2  A    between atoms: C2_3  and  C3_5 
REMARK    3  A    between atoms: C4_6  and  N1_7 
REMARK       I    between atoms: N1_7  and  C5_9 
REMARK    4  A    between atoms: C5_9  and  C6_11 
REMARK    5  A    between atoms: C6_11  and  N2_12 
REMARK    6  A    between atoms: C6_11  and  N4_26 
REMARK    7  A    between atoms: N2_12  and  C7_14 
REMARK    8  A    between atoms: C12_21  and  N3_22 
REMARK    9  A    between atoms: C15_29  and  C16_30 
ROOT
HETATM    1  C6  UNL     1     -15.117   8.593   0.092  1.00  0.00     0.294 C 
ENDROOT
BRANCH   1   2
HETATM    2  C5  UNL     1     -15.458   9.866   0.808  1.00  0.00     0.266 C 
HETATM    3  N1  UNL     1     -16.526   9.891   1.722  1.00  0.00    -0.317 N 
ATOM      4  H1  UNL     1     -17.036   9.030   1.917  1.00  0.00     0.169 HD
HETATM    5  O3  UNL     1     -14.749  10.900   0.540  1.00  0.00    -0.269 OA
BRANCH   3   6
HETATM    6  C4  UNL     1     -16.916  11.109   2.390  1.00  0.00     0.094 A 
HETATM    7  C3  UNL     1     -17.947  11.960   2.129  1.00  0.00     0.080 A 
HETATM    8  C18 UNL     1     -18.061  13.043   2.957  1.00  0.00    -0.026 A 
HETATM    9  C17 UNL     1     -17.166  13.183   3.953  1.00  0.00    -0.008 A 
HETATM   10  C19 UNL     1     -18.971  14.261   3.031  1.00  0.00     0.041 C 
HETATM   11  S1  UNL     1     -16.152  11.827   3.762  1.00  0.00    -0.075 SA
HETATM   12  C21 UNL     1     -17.434  14.420   4.776  1.00  0.00     0.047 C 
HETATM   13  C20 UNL     1     -18.877  14.677   4.471  1.00  0.00     0.010 C 
BRANCH   7  14
HETATM   14  C2  UNL     1     -18.866  11.699   0.981  1.00  0.00     0.296 C 
HETATM   15  O2  UNL     1     -20.055  11.970   0.979  1.00  0.00    -0.259 OA
BRANCH  14  16
HETATM   16  O1  UNL     1     -18.393  11.106  -0.217  1.00  0.00    -0.322 OA
HETATM   17  C1  UNL     1     -17.790  11.914  -1.215  1.00  0.00     0.213 C 
ENDBRANCH  14  16
ENDBRANCH   7  14
ENDBRANCH   3   6
ENDBRANCH   1   2
BRANCH   1  18
HETATM   18  N2  UNL     1     -13.899   8.671  -0.643  1.00  0.00    -0.386 N 
ATOM     19  H2  UNL     1     -13.799   9.327  -1.417  1.00  0.00     0.156 HD
BRANCH  18  20
HETATM   20  C7  UNL     1     -12.828   7.814  -0.275  1.00  0.00     0.115 C 
HETATM   21  C8  UNL     1     -11.573   8.431   0.134  1.00  0.00     0.105 C 
HETATM   22  C9  UNL     1     -10.674   8.777  -1.006  1.00  0.00     0.245 C 
HETATM   23  F1  UNL     1      -9.381   8.954  -0.476  1.00  0.00    -0.206 F 
HETATM   24  F2  UNL     1     -11.023   9.988  -1.557  1.00  0.00    -0.206 F 
HETATM   25  C10 UNL     1     -10.534   7.708  -2.039  1.00  0.00     0.081 C 
HETATM   26  C11 UNL     1     -11.822   7.048  -2.452  1.00  0.00     0.040 C 
HETATM   27  C12 UNL     1     -12.677   6.670  -1.280  1.00  0.00     0.206 C 
BRANCH  27  28
HETATM   28  N3  UNL     1     -12.318   5.449  -0.664  1.00  0.00    -0.073 N 
ATOM     29  H33 UNL     1     -12.587   5.442   0.320  1.00  0.00     0.274 HD
ATOM     30  H32 UNL     1     -12.902   4.684  -1.001  1.00  0.00     0.274 HD
ATOM     31  H31 UNL     1     -11.327   5.231  -0.775  1.00  0.00     0.274 HD
ENDBRANCH  27  28
ENDBRANCH  18  20
ENDBRANCH   1  18
BRANCH   1  32
HETATM   32  N4  UNL     1     -16.124   8.391  -0.967  1.00  0.00    -0.270 N 
HETATM   33  C13 UNL     1     -15.959   8.494  -2.260  1.00  0.00     0.115 A 
HETATM   34  C14 UNL     1     -17.199   8.282  -2.886  1.00  0.00     0.054 A 
HETATM   35  C15 UNL     1     -18.085   8.047  -1.838  1.00  0.00     0.133 A 
HETATM   36  N5  UNL     1     -17.377   8.125  -0.699  1.00  0.00    -0.292 N 
ATOM     37  H5  UNL     1     -17.761   7.996   0.237  1.00  0.00     0.187 HD
BRANCH  35  38
HETATM   38  C16 UNL     1     -19.530   7.790  -1.932  1.00  0.00     0.433 C 
HETATM   39  F3  UNL     1     -19.822   6.488  -1.625  1.00  0.00    -0.165 F 
HETATM   40  F4  UNL     1     -19.961   8.085  -3.216  1.00  0.00    -0.165 F 
HETATM   41  F5  UNL     1     -20.240   8.632  -1.068  1.00  0.00    -0.165 F 
ENDBRANCH  35  38
ENDBRANCH   1  32
TORSDOF 9
ENDMDL
MODEL 4
REMARK VINA RESULT: -6.418748994      3.158      7.881
REMARK  9 active torsions:
REMARK  status: ('A' for Active; 'I' for Inactive)
REMARK    1  A    between atoms: O1_2  and  C2_3 
REMARK    2  A    between atoms: C2_3  and  C3_5 
REMARK    3  A    between atoms: C4_6  and  N1_7 
REMARK       I    between atoms: N1_7  and  C5_9 
REMARK    4  A    between atoms: C5_9  and  C6_11 
REMARK    5  A    between atoms: C6_11  and  N2_12 
REMARK    6  A    between atoms: C6_11  and  N4_26 
REMARK    7  A    between atoms: N2_12  and  C7_14 
REMARK    8  A    between atoms: C12_21  and  N3_22 
REMARK    9  A    between atoms: C15_29  and  C16_30 
ROOT
HETATM    1  C6  UNL     1     -16.110  10.231  -0.238  1.00  0.00     0.294 C 
ENDROOT
BRANCH   1   2
HETATM    2  C5  UNL     1     -17.514   9.831  -0.582  1.00  0.00     0.266 C 
HETATM    3  N1  UNL     1     -17.755   9.019  -1.705  1.00  0.00    -0.317 N 
ATOM      4  H1  UNL     1     -16.966   8.679  -2.254  1.00  0.00     0.169 HD
HETATM    5  O3  UNL     1     -18.452  10.264   0.176  1.00  0.00    -0.269 OA
BRANCH   3   6
HETATM    6  C4  UNL     1     -19.096   8.658  -2.096  1.00  0.00     0.094 A 
HETATM    7  C3  UNL     1     -19.876   7.616  -1.692  1.00  0.00     0.080 A 
HETATM    8  C18 UNL     1     -21.123   7.545  -2.249  1.00  0.00    -0.026 A 
HETATM    9  C17 UNL     1     -21.484   8.492  -3.135  1.00  0.00    -0.008 A 
HETATM   10  C19 UNL     1     -22.292   6.573  -2.170  1.00  0.00     0.041 C 
HETATM   11  S1  UNL     1     -20.108   9.496  -3.217  1.00  0.00    -0.075 SA
HETATM   12  C21 UNL     1     -22.887   8.275  -3.647  1.00  0.00     0.047 C 
HETATM   13  C20 UNL     1     -23.470   7.414  -2.571  1.00  0.00     0.010 C 
BRANCH   7  14
HETATM   14  C2  UNL     1     -19.352   6.621  -0.711  1.00  0.00     0.296 C 
HETATM   15  O2  UNL     1     -18.226   6.156  -0.740  1.00  0.00    -0.259 OA
BRANCH  14  16
HETATM   16  O1  UNL     1     -20.160   6.144   0.353  1.00  0.00    -0.322 OA
HETATM   17  C1  UNL     1     -20.457   4.759   0.448  1.00  0.00     0.213 C 
ENDBRANCH  14  16
ENDBRANCH   7  14
ENDBRANCH   3   6
ENDBRANCH   1   2
BRANCH   1  18
HETATM   18  N2  UNL     1     -15.213   9.126  -0.166  1.00  0.00    -0.386 N 
ATOM     19  H2  UNL     1     -15.349   8.387   0.523  1.00  0.00     0.156 HD
BRANCH  18  20
HETATM   20  C7  UNL     1     -14.123   9.076  -1.077  1.00  0.00     0.115 C 
HETATM   21  C8  UNL     1     -14.383   8.584  -2.423  1.00  0.00     0.105 C 
HETATM   22  C9  UNL     1     -14.323   7.097  -2.540  1.00  0.00     0.245 C 
HETATM   23  F1  UNL     1     -14.167   6.795  -3.908  1.00  0.00    -0.206 F 
HETATM   24  F2  UNL     1     -15.515   6.526  -2.163  1.00  0.00    -0.206 F 
HETATM   25  C10 UNL     1     -13.155   6.462  -1.861  1.00  0.00     0.081 C 
HETATM   26  C11 UNL     1     -12.863   6.981  -0.478  1.00  0.00     0.040 C 
HETATM   27  C12 UNL     1     -12.884   8.478  -0.408  1.00  0.00     0.206 C 
BRANCH  27  28
HETATM   28  N3  UNL     1     -11.685   9.099  -0.829  1.00  0.00    -0.073 N 
ATOM     29  H33 UNL     1     -10.901   8.448  -0.790  1.00  0.00     0.274 HD
ATOM     30  H32 UNL     1     -11.700   9.280  -1.833  1.00  0.00     0.274 HD
ATOM     31  H31 UNL     1     -11.480   9.951  -0.306  1.00  0.00     0.274 HD
ENDBRANCH  27  28
ENDBRANCH  18  20
ENDBRANCH   1  18
BRANCH   1  32
HETATM   32  N4  UNL     1     -16.115  10.735   1.149  1.00  0.00    -0.270 N 
HETATM   33  C13 UNL     1     -15.654  10.143   2.219  1.00  0.00     0.115 A 
HETATM   34  C14 UNL     1     -15.927  10.956   3.332  1.00  0.00     0.054 A 
HETATM   35  C15 UNL     1     -16.581  12.065   2.803  1.00  0.00     0.133 A 
HETATM   36  N5  UNL     1     -16.666  11.876   1.476  1.00  0.00    -0.292 N 
ATOM     37  H5  UNL     1     -17.097  12.527   0.819  1.00  0.00     0.187 HD
BRANCH  35  38
HETATM   38  C16 UNL     1     -17.114  13.222   3.539  1.00  0.00     0.433 C 
HETATM   39  F3  UNL     1     -16.774  14.398   2.925  1.00  0.00    -0.165 F 
HETATM   40  F4  UNL     1     -16.622  13.201   4.835  1.00  0.00    -0.165 F 
HETATM   41  F5  UNL     1     -18.508  13.146   3.638  1.00  0.00    -0.165 F 
ENDBRANCH  35  38
ENDBRANCH   1  32
TORSDOF 9
ENDMDL
MODEL 5
REMARK VINA RESULT: -6.368718039      3.322      7.103
REMARK  9 active torsions:
REMARK  status: ('A' for Active; 'I' for Inactive)
REMARK    1  A    between atoms: O1_2  and  C2_3 
REMARK    2  A    between atoms: C2_3  and  C3_5 
REMARK    3  A    between atoms: C4_6  and  N1_7 
REMARK       I    between atoms: N1_7  and  C5_9 
REMARK    4  A    between atoms: C5_9  and  C6_11 
REMARK    5  A    between atoms: C6_11  and  N2_12 
REMARK    6  A    between atoms: C6_11  and  N4_26 
REMARK    7  A    between atoms: N2_12  and  C7_14 
REMARK    8  A    between atoms: C12_21  and  N3_22 
REMARK    9  A    between atoms: C15_29  and  C16_30 
ROOT
HETATM    1  C6  UNL     1     -15.710   7.636  -0.969  1.00  0.00     0.294 C 
ENDROOT
BRANCH   1   2
HETATM    2  C5  UNL     1     -16.497   8.550  -0.077  1.00  0.00     0.266 C 
HETATM    3  N1  UNL     1     -16.163   9.914  -0.003  1.00  0.00    -0.317 N 
ATOM      4  H1  UNL     1     -15.410  10.276  -0.587  1.00  0.00     0.169 HD
HETATM    5  O3  UNL     1     -17.455   8.032   0.598  1.00  0.00    -0.269 OA
BRANCH   3   6
HETATM    6  C4  UNL     1     -16.864  10.812   0.882  1.00  0.00     0.094 A 
HETATM    7  C3  UNL     1     -18.122  11.328   0.791  1.00  0.00     0.080 A 
HETATM    8  C18 UNL     1     -18.508  12.159   1.807  1.00  0.00    -0.026 A 
HETATM    9  C17 UNL     1     -17.636  12.398   2.805  1.00  0.00    -0.008 A 
HETATM   10  C19 UNL     1     -19.742  12.996   2.113  1.00  0.00     0.041 C 
HETATM   11  S1  UNL     1     -16.269  11.484   2.358  1.00  0.00    -0.075 SA
HETATM   12  C21 UNL     1     -18.218  13.325   3.845  1.00  0.00     0.047 C 
HETATM   13  C20 UNL     1     -19.686  13.165   3.604  1.00  0.00     0.010 C 
BRANCH   7  14
HETATM   14  C2  UNL     1     -18.988  10.995  -0.377  1.00  0.00     0.296 C 
HETATM   15  O2  UNL     1     -20.137  10.596  -0.288  1.00  0.00    -0.259 OA
BRANCH  14  16
HETATM   16  O1  UNL     1     -18.513  11.132  -1.706  1.00  0.00    -0.322 OA
HETATM   17  C1  UNL     1     -18.217  12.421  -2.221  1.00  0.00     0.213 C 
ENDBRANCH  14  16
ENDBRANCH   7  14
ENDBRANCH   3   6
ENDBRANCH   1   2
BRANCH   1  18
HETATM   18  N2  UNL     1     -14.325   7.965  -1.028  1.00  0.00    -0.386 N 
ATOM     19  H2  UNL     1     -13.986   8.681  -1.671  1.00  0.00     0.156 HD
BRANCH  18  20
HETATM   20  C7  UNL     1     -13.426   7.275  -0.173  1.00  0.00     0.115 C 
HETATM   21  C8  UNL     1     -13.495   7.554   1.255  1.00  0.00     0.105 C 
HETATM   22  C9  UNL     1     -12.700   8.746   1.673  1.00  0.00     0.245 C 
HETATM   23  F1  UNL     1     -12.509   8.651   3.065  1.00  0.00    -0.206 F 
HETATM   24  F2  UNL     1     -13.411   9.906   1.470  1.00  0.00    -0.206 F 
HETATM   25  C10 UNL     1     -11.328   8.819   1.091  1.00  0.00     0.081 C 
HETATM   26  C11 UNL     1     -11.242   8.509  -0.380  1.00  0.00     0.040 C 
HETATM   27  C12 UNL     1     -12.011   7.278  -0.755  1.00  0.00     0.206 C 
BRANCH  27  28
HETATM   28  N3  UNL     1     -11.323   6.065  -0.520  1.00  0.00    -0.073 N 
ATOM     29  H33 UNL     1     -11.797   5.506   0.190  1.00  0.00     0.274 HD
ATOM     30  H32 UNL     1     -11.412   5.434  -1.315  1.00  0.00     0.274 HD
ATOM     31  H31 UNL     1     -10.343   6.211  -0.275  1.00  0.00     0.274 HD
ENDBRANCH  27  28
ENDBRANCH  18  20
ENDBRANCH   1  18
BRANCH   1  32
HETATM   32  N4  UNL     1     -16.158   7.868  -2.356  1.00  0.00    -0.270 N 
HETATM   33  C13 UNL     1     -15.476   7.700  -3.458  1.00  0.00     0.115 A 
HETATM   34  C14 UNL     1     -16.272   8.103  -4.543  1.00  0.00     0.054 A 
HETATM   35  C15 UNL     1     -17.470   8.513  -3.964  1.00  0.00     0.133 A 
HETATM   36  N5  UNL     1     -17.343   8.348  -2.637  1.00  0.00    -0.292 N 
ATOM     37  H5  UNL     1     -18.064   8.564  -1.949  1.00  0.00     0.187 HD
BRANCH  35  38
HETATM   38  C16 UNL     1     -18.653   9.056  -4.649  1.00  0.00     0.433 C 
HETATM   39  F3  UNL     1     -18.512  10.396  -4.893  1.00  0.00    -0.165 F 
HETATM   40  F4  UNL     1     -19.775   8.829  -3.866  1.00  0.00    -0.165 F 
HETATM   41  F5  UNL     1     -18.870   8.393  -5.862  1.00  0.00    -0.165 F 
ENDBRANCH  35  38
ENDBRANCH   1  32
TORSDOF 9
ENDMDL
