MODEL 1
REMARK VINA RESULT: -5.924451637      0.000      0.000
REMARK  9 active torsions:
REMARK  status: ('A' for Active; 'I' for Inactive)
REMARK    1  A    between atoms: C2_2  and  C3_4 
REMARK    2  A    between atoms: C3_4  and  N1_5 
REMARK    3  A    between atoms: C3_4  and  C11_21 
REMARK    4  A    between atoms: N1_5  and  C4_7 
REMARK    5  A    between atoms: C4_7  and  N2_8 
REMARK    6  A    between atoms: C4_7  and  C10_17 
REMARK       I    between atoms: N2_8  and  C5_10 
REMARK    7  A    between atoms: C5_10  and  O2_12 
REMARK    8  A    between atoms: O2_12  and  C6_13 
REMARK       I    between atoms: C11_21  and  N3_23 
REMARK    9  A    between atoms: C12_24  and  O4_25 
ROOT
HETATM    1  C11 UNL     1     -13.643   6.607  -1.875  1.00  0.00     0.257 C 
HETATM    2  O3  UNL     1     -14.891   6.668  -2.192  1.00  0.00    -0.270 OA
HETATM    3  N3  UNL     1     -13.220   7.384  -0.812  1.00  0.00    -0.241 N 
HETATM    4  C12 UNL     1     -11.972   7.531  -0.353  1.00  0.00     0.191 A 
HETATM    5  C13 UNL     1     -12.019   8.396   0.753  1.00  0.00     0.189 A 
HETATM    6  C14 UNL     1     -10.936   8.843   1.564  1.00  0.00     0.124 C 
HETATM    7  N4  UNL     1     -10.057   9.199   2.222  1.00  0.00    -0.190 NA
HETATM    8  N5  UNL     1     -13.319   8.746   0.918  1.00  0.00    -0.222 N 
HETATM    9  N6  UNL     1     -14.086   9.483   1.704  1.00  0.00    -0.266 N 
ATOM     10  H6  UNL     1     -13.759  10.041   2.493  1.00  0.00     0.190 HD
HETATM   11  C15 UNL     1     -15.354   9.385   1.304  1.00  0.00     0.206 A 
HETATM   12  F2  UNL     1     -16.469   9.978   1.829  1.00  0.00    -0.185 F 
HETATM   13  C16 UNL     1     -15.344   8.540   0.217  1.00  0.00     0.113 A 
HETATM   14  C17 UNL     1     -14.037   8.129  -0.031  1.00  0.00     0.144 A 
ENDROOT
BRANCH   4  15
HETATM   15  O4  UNL     1     -10.763   7.016  -0.758  1.00  0.00    -0.343 OA
ATOM     16  H4  UNL     1      -9.866   7.294  -0.617  1.00  0.00     0.219 HD
ENDBRANCH   4  15
BRANCH   1  17
HETATM   17  C3  UNL     1     -12.846   5.680  -2.737  1.00  0.00     0.206 C 
BRANCH  17  18
HETATM   18  C2  UNL     1     -13.909   4.893  -3.524  1.00  0.00     0.197 C 
HETATM   19  C1  UNL     1     -13.455   3.434  -3.636  1.00  0.00     0.048 C 
HETATM   20  F1  UNL     1     -14.039   5.307  -4.822  1.00  0.00    -0.247 F 
ENDBRANCH  17  18
BRANCH  17  21
HETATM   21  N1  UNL     1     -12.067   6.492  -3.587  1.00  0.00    -0.383 N 
ATOM     22  H1  UNL     1     -12.413   7.425  -3.809  1.00  0.00     0.156 HD
BRANCH  21  23
HETATM   23  C4  UNL     1     -10.850   6.093  -4.144  1.00  0.00     0.237 C 
BRANCH  23  24
HETATM   24  N2  UNL     1     -10.049   5.263  -3.250  1.00  0.00    -0.312 N 
HETATM   25  C5  UNL     1      -9.732   3.945  -3.637  1.00  0.00     0.363 C 
HETATM   26  O1  UNL     1     -10.130   3.488  -4.733  1.00  0.00    -0.238 OA
ATOM     27  H2  UNL     1      -9.723   5.632  -2.356  1.00  0.00     0.167 HD
BRANCH  25  28
HETATM   28  O2  UNL     1      -8.977   3.111  -2.833  1.00  0.00    -0.294 OA
BRANCH  28  29
HETATM   29  C6  UNL     1      -7.605   3.174  -2.626  1.00  0.00     0.061 C 
HETATM   30  C7  UNL     1      -7.026   1.768  -2.852  1.00  0.00     0.046 C 
HETATM   31  C8  UNL     1      -7.230   3.551  -1.207  1.00  0.00     0.046 C 
HETATM   32  C9  UNL     1      -6.854   4.092  -3.552  1.00  0.00     0.046 C 
ENDBRANCH  28  29
ENDBRANCH  25  28
ENDBRANCH  23  24
BRANCH  23  33
HETATM   33  C10 UNL     1     -10.050   7.416  -4.317  1.00  0.00     0.225 C 
HETATM   34 CL1  UNL     1     -11.119   8.704  -3.726  1.00  0.00    -0.080 Cl
HETATM   35 CL2  UNL     1      -8.581   7.394  -3.331  1.00  0.00    -0.080 Cl
HETATM   36 CL3  UNL     1      -9.719   7.712  -6.021  1.00  0.00    -0.080 Cl
ENDBRANCH  23  33
ENDBRANCH  21  23
ENDBRANCH  17  21
ENDBRANCH   1  17
TORSDOF 9
ENDMDL
MODEL 2
REMARK VINA RESULT: -5.692738461      5.581      8.760
REMARK  9 active torsions:
REMARK  status: ('A' for Active; 'I' for Inactive)
REMARK    1  A    between atoms: C2_2  and  C3_4 
REMARK    2  A    between atoms: C3_4  and  N1_5 
REMARK    3  A    between atoms: C3_4  and  C11_21 
REMARK    4  A    between atoms: N1_5  and  C4_7 
REMARK    5  A    between atoms: C4_7  and  N2_8 
REMARK    6  A    between atoms: C4_7  and  C10_17 
REMARK       I    between atoms: N2_8  and  C5_10 
REMARK    7  A    between atoms: C5_10  and  O2_12 
REMARK    8  A    between atoms: O2_12  and  C6_13 
REMARK       I    between atoms: C11_21  and  N3_23 
REMARK    9  A    between atoms: C12_24  and  O4_25 
ROOT
HETATM    1  C11 UNL     1     -17.948   8.898  -2.701  1.00  0.00     0.257 C 
HETATM    2  O3  UNL     1     -18.307   9.957  -3.343  1.00  0.00    -0.270 OA
HETATM    3  N3  UNL     1     -18.949   8.137  -2.124  1.00  0.00    -0.241 N 
HETATM    4  C12 UNL     1     -18.810   7.046  -1.362  1.00  0.00     0.191 A 
HETATM    5  C13 UNL     1     -20.095   6.595  -1.019  1.00  0.00     0.189 A 
HETATM    6  C14 UNL     1     -20.445   5.467  -0.221  1.00  0.00     0.124 C 
HETATM    7  N4  UNL     1     -20.723   4.550   0.421  1.00  0.00    -0.190 NA
HETATM    8  N5  UNL     1     -20.976   7.450  -1.597  1.00  0.00    -0.222 N 
HETATM    9  N6  UNL     1     -22.278   7.652  -1.711  1.00  0.00    -0.266 N 
ATOM     10  H6  UNL     1     -23.004   7.072  -1.288  1.00  0.00     0.190 HD
HETATM   11  C15 UNL     1     -22.494   8.731  -2.463  1.00  0.00     0.206 A 
HETATM   12  F2  UNL     1     -23.684   9.294  -2.835  1.00  0.00    -0.185 F 
HETATM   13  C16 UNL     1     -21.250   9.200  -2.819  1.00  0.00     0.113 A 
HETATM   14  C17 UNL     1     -20.274   8.378  -2.263  1.00  0.00     0.144 A 
ENDROOT
BRANCH   4  15
HETATM   15  O4  UNL     1     -17.708   6.364  -0.905  1.00  0.00    -0.343 OA
ATOM     16  H4  UNL     1     -17.500   5.964  -0.069  1.00  0.00     0.219 HD
ENDBRANCH   4  15
BRANCH   1  17
HETATM   17  C3  UNL     1     -16.471   8.669  -2.691  1.00  0.00     0.206 C 
BRANCH  17  18
HETATM   18  C2  UNL     1     -15.964   9.436  -3.926  1.00  0.00     0.197 C 
HETATM   19  C1  UNL     1     -14.900   8.586  -4.628  1.00  0.00     0.048 C 
HETATM   20  F1  UNL     1     -15.314  10.599  -3.613  1.00  0.00    -0.247 F 
ENDBRANCH  17  18
BRANCH  17  21
HETATM   21  N1  UNL     1     -15.984   9.235  -1.494  1.00  0.00    -0.383 N 
ATOM     22  H1  UNL     1     -15.935  10.251  -1.429  1.00  0.00     0.156 HD
BRANCH  21  23
HETATM   23  C4  UNL     1     -15.564   8.485  -0.394  1.00  0.00     0.237 C 
BRANCH  23  24
HETATM   24  N2  UNL     1     -15.553   9.244   0.853  1.00  0.00    -0.312 N 
HETATM   25  C5  UNL     1     -16.745   9.854   1.296  1.00  0.00     0.363 C 
HETATM   26  O1  UNL     1     -17.801   9.748   0.632  1.00  0.00    -0.238 OA
ATOM     27  H2  UNL     1     -14.695   9.333   1.397  1.00  0.00     0.167 HD
BRANCH  25  28
HETATM   28  O2  UNL     1     -16.797  10.586   2.468  1.00  0.00    -0.294 OA
BRANCH  28  29
HETATM   29  C6  UNL     1     -16.867  11.969   2.582  1.00  0.00     0.061 C 
HETATM   30  C7  UNL     1     -16.336  12.358   3.971  1.00  0.00     0.046 C 
HETATM   31  C8  UNL     1     -18.283  12.503   2.517  1.00  0.00     0.046 C 
HETATM   32  C9  UNL     1     -16.045  12.741   1.585  1.00  0.00     0.046 C 
ENDBRANCH  28  29
ENDBRANCH  25  28
ENDBRANCH  23  24
BRANCH  23  33
HETATM   33  C10 UNL     1     -14.075   8.154  -0.695  1.00  0.00     0.225 C 
HETATM   34 CL1  UNL     1     -13.311   7.896   0.886  1.00  0.00    -0.080 Cl
HETATM   35 CL2  UNL     1     -13.943   6.665  -1.644  1.00  0.00    -0.080 Cl
HETATM   36 CL3  UNL     1     -13.287   9.524  -1.472  1.00  0.00    -0.080 Cl
ENDBRANCH  23  33
ENDBRANCH  21  23
ENDBRANCH  17  21
ENDBRANCH   1  17
TORSDOF 9
ENDMDL
MODEL 3
REMARK VINA RESULT: -5.619375593      5.262      9.279
REMARK  9 active torsions:
REMARK  status: ('A' for Active; 'I' for Inactive)
REMARK    1  A    between atoms: C2_2  and  C3_4 
REMARK    2  A    between atoms: C3_4  and  N1_5 
REMARK    3  A    between atoms: C3_4  and  C11_21 
REMARK    4  A    between atoms: N1_5  and  C4_7 
REMARK    5  A    between atoms: C4_7  and  N2_8 
REMARK    6  A    between atoms: C4_7  and  C10_17 
REMARK       I    between atoms: N2_8  and  C5_10 
REMARK    7  A    between atoms: C5_10  and  O2_12 
REMARK    8  A    between atoms: O2_12  and  C6_13 
REMARK       I    between atoms: C11_21  and  N3_23 
REMARK    9  A    between atoms: C12_24  and  O4_25 
ROOT
HETATM    1  C11 UNL     1     -15.222   9.208   0.394  1.00  0.00     0.257 C 
HETATM    2  O3  UNL     1     -15.499   9.245   1.653  1.00  0.00    -0.270 OA
HETATM    3  N3  UNL     1     -13.889   9.106   0.041  1.00  0.00    -0.241 N 
HETATM    4  C12 UNL     1     -13.365   9.118  -1.190  1.00  0.00     0.191 A 
HETATM    5  C13 UNL     1     -11.975   8.966  -1.069  1.00  0.00     0.189 A 
HETATM    6  C14 UNL     1     -11.003   8.920  -2.110  1.00  0.00     0.124 C 
HETATM    7  N4  UNL     1     -10.219   8.879  -2.956  1.00  0.00    -0.190 NA
HETATM    8  N5  UNL     1     -11.708   8.868   0.258  1.00  0.00    -0.222 N 
HETATM    9  N6  UNL     1     -10.688   8.717   1.086  1.00  0.00    -0.266 N 
ATOM     10  H6  UNL     1      -9.710   8.630   0.807  1.00  0.00     0.190 HD
HETATM   11  C15 UNL     1     -11.136   8.695   2.341  1.00  0.00     0.206 A 
HETATM   12  F2  UNL     1     -10.429   8.556   3.504  1.00  0.00    -0.185 F 
HETATM   13  C16 UNL     1     -12.502   8.842   2.259  1.00  0.00     0.113 A 
HETATM   14  C17 UNL     1     -12.870   8.953   0.920  1.00  0.00     0.144 A 
ENDROOT
BRANCH   4  15
HETATM   15  O4  UNL     1     -13.926   9.246  -2.439  1.00  0.00    -0.343 OA
ATOM     16  H4  UNL     1     -14.758   8.968  -2.802  1.00  0.00     0.219 HD
ENDBRANCH   4  15
BRANCH   1  17
HETATM   17  C3  UNL     1     -16.424   9.284  -0.492  1.00  0.00     0.206 C 
BRANCH  17  18
HETATM   18  C2  UNL     1     -16.740   7.814  -0.822  1.00  0.00     0.197 C 
HETATM   19  C1  UNL     1     -17.064   7.705  -2.315  1.00  0.00     0.048 C 
HETATM   20  F1  UNL     1     -17.865   7.347  -0.198  1.00  0.00    -0.247 F 
ENDBRANCH  17  18
BRANCH  17  21
HETATM   21  N1  UNL     1     -17.452   9.875   0.274  1.00  0.00    -0.383 N 
ATOM     22  H1  UNL     1     -18.139   9.260   0.709  1.00  0.00     0.156 HD
BRANCH  21  23
HETATM   23  C4  UNL     1     -17.582  11.250   0.470  1.00  0.00     0.237 C 
BRANCH  23  24
HETATM   24  N2  UNL     1     -17.843  11.614   1.859  1.00  0.00    -0.312 N 
HETATM   25  C5  UNL     1     -16.828  12.250   2.604  1.00  0.00     0.363 C 
HETATM   26  O1  UNL     1     -15.716  12.500   2.085  1.00  0.00    -0.238 OA
ATOM     27  H2  UNL     1     -18.747  11.412   2.286  1.00  0.00     0.167 HD
BRANCH  25  28
HETATM   28  O2  UNL     1     -17.015  12.618   3.924  1.00  0.00    -0.294 OA
BRANCH  28  29
HETATM   29  C6  UNL     1     -17.668  13.754   4.386  1.00  0.00     0.061 C 
HETATM   30  C7  UNL     1     -17.243  13.987   5.844  1.00  0.00     0.046 C 
HETATM   31  C8  UNL     1     -19.176  13.607   4.414  1.00  0.00     0.046 C 
HETATM   32  C9  UNL     1     -17.352  15.026   3.646  1.00  0.00     0.046 C 
ENDBRANCH  28  29
ENDBRANCH  25  28
ENDBRANCH  23  24
BRANCH  23  33
HETATM   33  C10 UNL     1     -18.871  11.633  -0.312  1.00  0.00     0.225 C 
HETATM   34 CL1  UNL     1     -19.946  12.394   0.878  1.00  0.00    -0.080 Cl
HETATM   35 CL2  UNL     1     -18.507  12.806  -1.586  1.00  0.00    -0.080 Cl
HETATM   36 CL3  UNL     1     -19.666  10.187  -0.928  1.00  0.00    -0.080 Cl
ENDBRANCH  23  33
ENDBRANCH  21  23
ENDBRANCH  17  21
ENDBRANCH   1  17
TORSDOF 9
ENDMDL
MODEL 4
REMARK VINA RESULT: -5.407936691      8.712     10.875
REMARK  9 active torsions:
REMARK  status: ('A' for Active; 'I' for Inactive)
REMARK    1  A    between atoms: C2_2  and  C3_4 
REMARK    2  A    between atoms: C3_4  and  N1_5 
REMARK    3  A    between atoms: C3_4  and  C11_21 
REMARK    4  A    between atoms: N1_5  and  C4_7 
REMARK    5  A    between atoms: C4_7  and  N2_8 
REMARK    6  A    between atoms: C4_7  and  C10_17 
REMARK       I    between atoms: N2_8  and  C5_10 
REMARK    7  A    between atoms: C5_10  and  O2_12 
REMARK    8  A    between atoms: O2_12  and  C6_13 
REMARK       I    between atoms: C11_21  and  N3_23 
REMARK    9  A    between atoms: C12_24  and  O4_25 
ROOT
HETATM    1  C11 UNL     1     -20.110  13.256   2.400  1.00  0.00     0.257 C 
HETATM    2  O3  UNL     1     -20.634  14.216   3.083  1.00  0.00    -0.270 OA
HETATM    3  N3  UNL     1     -18.871  12.794   2.802  1.00  0.00    -0.241 N 
HETATM    4  C12 UNL     1     -18.114  11.861   2.212  1.00  0.00     0.191 A 
HETATM    5  C13 UNL     1     -16.951  11.699   2.982  1.00  0.00     0.189 A 
HETATM    6  C14 UNL     1     -15.857  10.818   2.744  1.00  0.00     0.124 C 
HETATM    7  N4  UNL     1     -14.975  10.099   2.550  1.00  0.00    -0.190 NA
HETATM    8  N5  UNL     1     -17.053  12.559   4.027  1.00  0.00    -0.222 N 
HETATM    9  N6  UNL     1     -16.384  12.943   5.101  1.00  0.00    -0.266 N 
ATOM     10  H6  UNL     1     -15.475  12.582   5.391  1.00  0.00     0.190 HD
HETATM   11  C15 UNL     1     -17.083  13.878   5.746  1.00  0.00     0.206 A 
HETATM   12  F2  UNL     1     -16.767  14.545   6.897  1.00  0.00    -0.185 F 
HETATM   13  C16 UNL     1     -18.234  14.062   5.015  1.00  0.00     0.113 A 
HETATM   14  C17 UNL     1     -18.216  13.214   3.910  1.00  0.00     0.144 A 
ENDROOT
BRANCH   4  15
HETATM   15  O4  UNL     1     -18.282  11.110   1.073  1.00  0.00    -0.343 OA
ATOM     16  H4  UNL     1     -18.181  11.309   0.150  1.00  0.00     0.219 HD
ENDBRANCH   4  15
BRANCH   1  17
HETATM   17  C3  UNL     1     -20.958  12.796   1.257  1.00  0.00     0.206 C 
BRANCH  17  18
HETATM   18  C2  UNL     1     -22.258  13.607   1.405  1.00  0.00     0.197 C 
HETATM   19  C1  UNL     1     -23.444  12.636   1.397  1.00  0.00     0.048 C 
HETATM   20  F1  UNL     1     -22.500  14.442   0.347  1.00  0.00    -0.247 F 
ENDBRANCH  17  18
BRANCH  17  21
HETATM   21  N1  UNL     1     -20.264  13.141   0.077  1.00  0.00    -0.383 N 
ATOM     22  H1  UNL     1     -19.660  13.962   0.099  1.00  0.00     0.156 HD
BRANCH  21  23
HETATM   23  C4  UNL     1     -20.356  12.424  -1.117  1.00  0.00     0.237 C 
BRANCH  23  24
HETATM   24  N2  UNL     1     -20.209  10.983  -0.939  1.00  0.00    -0.312 N 
HETATM   25  C5  UNL     1     -21.349  10.158  -1.045  1.00  0.00     0.363 C 
HETATM   26  O1  UNL     1     -22.473  10.652  -1.288  1.00  0.00    -0.238 OA
ATOM     27  H2  UNL     1     -19.295  10.577  -0.741  1.00  0.00     0.167 HD
BRANCH  25  28
HETATM   28  O2  UNL     1     -21.273   8.786  -0.886  1.00  0.00    -0.294 OA
BRANCH  28  29
HETATM   29  C6  UNL     1     -20.955   7.853  -1.865  1.00  0.00     0.061 C 
HETATM   30  C7  UNL     1     -22.266   7.226  -2.366  1.00  0.00     0.046 C 
HETATM   31  C8  UNL     1     -20.119   6.701  -1.344  1.00  0.00     0.046 C 
HETATM   32  C9  UNL     1     -20.259   8.403  -3.080  1.00  0.00     0.046 C 
ENDBRANCH  28  29
ENDBRANCH  25  28
ENDBRANCH  23  24
BRANCH  23  33
HETATM   33  C10 UNL     1     -19.113  12.874  -1.936  1.00  0.00     0.225 C 
HETATM   34 CL1  UNL     1     -19.757  13.669  -3.387  1.00  0.00    -0.080 Cl
HETATM   35 CL2  UNL     1     -18.149  14.043  -1.023  1.00  0.00    -0.080 Cl
HETATM   36 CL3  UNL     1     -18.176  11.472  -2.446  1.00  0.00    -0.080 Cl
ENDBRANCH  23  33
ENDBRANCH  21  23
ENDBRANCH  17  21
ENDBRANCH   1  17
TORSDOF 9
ENDMDL
MODEL 5
REMARK VINA RESULT: -5.377323231      2.446      3.842
REMARK  9 active torsions:
REMARK  status: ('A' for Active; 'I' for Inactive)
REMARK    1  A    between atoms: C2_2  and  C3_4 
REMARK    2  A    between atoms: C3_4  and  N1_5 
REMARK    3  A    between atoms: C3_4  and  C11_21 
REMARK    4  A    between atoms: N1_5  and  C4_7 
REMARK    5  A    between atoms: C4_7  and  N2_8 
REMARK    6  A    between atoms: C4_7  and  C10_17 
REMARK       I    between atoms: N2_8  and  C5_10 
REMARK    7  A    between atoms: C5_10  and  O2_12 
REMARK    8  A    between atoms: O2_12  and  C6_13 
REMARK       I    between atoms: C11_21  and  N3_23 
REMARK    9  A    between atoms: C12_24  and  O4_25 
ROOT
HETATM    1  C11 UNL     1     -11.269   8.569  -2.207  1.00  0.00     0.257 C 
HETATM    2  O3  UNL     1     -10.035   8.677  -1.850  1.00  0.00    -0.270 OA
HETATM    3  N3  UNL     1     -12.216   8.495  -1.202  1.00  0.00    -0.241 N 
HETATM    4  C12 UNL     1     -13.536   8.314  -1.333  1.00  0.00     0.191 A 
HETATM    5  C13 UNL     1     -14.102   8.328  -0.048  1.00  0.00     0.189 A 
HETATM    6  C14 UNL     1     -15.473   8.174   0.309  1.00  0.00     0.124 C 
HETATM    7  N4  UNL     1     -16.585   8.053   0.593  1.00  0.00    -0.190 NA
HETATM    8  N5  UNL     1     -13.081   8.518   0.825  1.00  0.00    -0.222 N 
HETATM    9  N6  UNL     1     -12.857   8.637   2.123  1.00  0.00    -0.266 N 
ATOM     10  H6  UNL     1     -13.570   8.593   2.852  1.00  0.00     0.190 HD
HETATM   11  C15 UNL     1     -11.553   8.822   2.332  1.00  0.00     0.206 A 
HETATM   12  F2  UNL     1     -10.888   8.991   3.515  1.00  0.00    -0.185 F 
HETATM   13  C16 UNL     1     -10.965   8.814   1.088  1.00  0.00     0.113 A 
HETATM   14  C17 UNL     1     -11.947   8.619   0.119  1.00  0.00     0.144 A 
ENDROOT
BRANCH   4  15
HETATM   15  O4  UNL     1     -14.346   8.131  -2.428  1.00  0.00    -0.343 OA
ATOM     16  H4  UNL     1     -14.164   7.910  -3.334  1.00  0.00     0.219 HD
ENDBRANCH   4  15
BRANCH   1  17
HETATM   17  C3  UNL     1     -11.469   8.540  -3.689  1.00  0.00     0.206 C 
BRANCH  17  18
HETATM   18  C2  UNL     1     -10.136   9.057  -4.257  1.00  0.00     0.197 C 
HETATM   19  C1  UNL     1     -10.389  10.392  -4.966  1.00  0.00     0.048 C 
HETATM   20  F1  UNL     1      -9.612   8.252  -5.232  1.00  0.00    -0.247 F 
ENDBRANCH  17  18
BRANCH  17  21
HETATM   21  N1  UNL     1     -11.693   7.192  -4.039  1.00  0.00    -0.383 N 
ATOM     22  H1  UNL     1     -12.128   6.996  -4.940  1.00  0.00     0.156 HD
BRANCH  21  23
HETATM   23  C4  UNL     1     -11.354   6.110  -3.225  1.00  0.00     0.237 C 
BRANCH  23  24
HETATM   24  N2  UNL     1     -10.060   5.521  -3.553  1.00  0.00    -0.312 N 
HETATM   25  C5  UNL     1      -9.119   5.314  -2.524  1.00  0.00     0.363 C 
HETATM   26  O1  UNL     1      -9.385   5.630  -1.342  1.00  0.00    -0.238 OA
ATOM     27  H2  UNL     1      -9.839   5.262  -4.515  1.00  0.00     0.167 HD
BRANCH  25  28
HETATM   28  O2  UNL     1      -7.876   4.761  -2.773  1.00  0.00    -0.294 OA
BRANCH  28  29
HETATM   29  C6  UNL     1      -7.354   3.602  -2.211  1.00  0.00     0.061 C 
HETATM   30  C7  UNL     1      -6.343   3.007  -3.204  1.00  0.00     0.046 C 
HETATM   31  C8  UNL     1      -8.395   2.525  -1.986  1.00  0.00     0.046 C 
HETATM   32  C9  UNL     1      -6.612   3.792  -0.916  1.00  0.00     0.046 C 
ENDBRANCH  28  29
ENDBRANCH  25  28
ENDBRANCH  23  24
BRANCH  23  33
HETATM   33  C10 UNL     1     -12.410   5.020  -3.568  1.00  0.00     0.225 C 
HETATM   34 CL1  UNL     1     -13.358   5.679  -4.916  1.00  0.00    -0.080 Cl
HETATM   35 CL2  UNL     1     -11.621   3.527  -4.098  1.00  0.00    -0.080 Cl
HETATM   36 CL3  UNL     1     -13.494   4.767  -2.203  1.00  0.00    -0.080 Cl
ENDBRANCH  23  33
ENDBRANCH  21  23
ENDBRANCH  17  21
ENDBRANCH   1  17
TORSDOF 9
ENDMDL
