MODEL 1
REMARK VINA RESULT: -6.703801501      0.000      0.000
REMARK  9 active torsions:
REMARK  status: ('A' for Active; 'I' for Inactive)
REMARK    1  A    between atoms: C2_2  and  C3_3 
REMARK    2  A    between atoms: C3_3  and  C4_4 
REMARK    3  A    between atoms: C4_4  and  C5_5 
REMARK    4  A    between atoms: C5_5  and  C6_6 
REMARK    5  A    between atoms: C7_7  and  C8_8 
REMARK    6  A    between atoms: C7_7  and  C10_10 
REMARK    7  A    between atoms: C11_11  and  N1_12 
REMARK    8  A    between atoms: N1_12  and  C12_13 
REMARK    9  A    between atoms: C12_13  and  C13_14 
ROOT
HETATM    1  C10 UNL     1     -22.110 -39.932 -23.691  1.00  0.00     0.036 C 
HETATM    2  C11 UNL     1     -20.899 -39.889 -24.465  1.00  0.00     0.204 C 
ENDROOT
BRANCH   1   3
HETATM    3  C7  UNL     1     -22.108 -40.241 -22.365  1.00  0.00    -0.036 C 
HETATM    4  C6  UNL     1     -20.817 -40.543 -21.803  1.00  0.00     0.007 C 
BRANCH   4   5
HETATM    5  C5  UNL     1     -20.419 -41.874 -21.353  1.00  0.00    -0.026 C 
BRANCH   5   6
HETATM    6  C4  UNL     1     -21.144 -43.114 -21.633  1.00  0.00     0.031 C 
BRANCH   6   7
HETATM    7  C3  UNL     1     -20.544 -43.809 -22.866  1.00  0.00     0.030 C 
BRANCH   7   8
HETATM    8  C2  UNL     1     -19.103 -44.009 -22.718  1.00  0.00    -0.037 C 
HETATM    9  C1  UNL     1     -18.608 -45.140 -22.284  1.00  0.00     0.007 C 
ENDBRANCH   7   8
ENDBRANCH   6   7
ENDBRANCH   5   6
ENDBRANCH   4   5
BRANCH   3  10
HETATM   10  C8  UNL     1     -23.377 -40.157 -21.730  1.00  0.00     0.001 C 
HETATM   11  C9  UNL     1     -24.307 -40.994 -21.415  1.00  0.00     0.012 C 
ENDBRANCH   3  10
ENDBRANCH   1   3
BRANCH   2  12
HETATM   12  N1  UNL     1     -20.576 -38.592 -25.024  1.00  0.00    -0.044 N 
HETATM   13  C15 UNL     1     -20.674 -38.584 -26.473  1.00  0.00     0.243 C 
HETATM   14  C16 UNL     1     -20.639 -37.122 -26.801  1.00  0.00     0.030 C 
HETATM   15  C17 UNL     1     -21.404 -36.497 -25.663  1.00  0.00     0.030 C 
HETATM   16  C18 UNL     1     -21.385 -37.529 -24.534  1.00  0.00     0.243 C 
BRANCH  12  17
HETATM   17  C12 UNL     1     -19.193 -38.306 -24.687  1.00  0.00     0.269 C 
BRANCH  17  18
HETATM   18  C13 UNL     1     -18.417 -39.549 -24.414  1.00  0.00    -0.009 C 
HETATM   19  C14 UNL     1     -17.441 -39.584 -23.520  1.00  0.00     0.008 C 
ENDBRANCH  17  18
ENDBRANCH  12  17
ENDBRANCH   2  12
TORSDOF 9
ENDMDL
MODEL 2
REMARK VINA RESULT: -6.702718623      2.464      5.947
REMARK  9 active torsions:
REMARK  status: ('A' for Active; 'I' for Inactive)
REMARK    1  A    between atoms: C2_2  and  C3_3 
REMARK    2  A    between atoms: C3_3  and  C4_4 
REMARK    3  A    between atoms: C4_4  and  C5_5 
REMARK    4  A    between atoms: C5_5  and  C6_6 
REMARK    5  A    between atoms: C7_7  and  C8_8 
REMARK    6  A    between atoms: C7_7  and  C10_10 
REMARK    7  A    between atoms: C11_11  and  N1_12 
REMARK    8  A    between atoms: N1_12  and  C12_13 
REMARK    9  A    between atoms: C12_13  and  C13_14 
ROOT
HETATM    1  C10 UNL     1     -18.680 -42.347 -24.096  1.00  0.00     0.036 C 
HETATM    2  C11 UNL     1     -20.029 -41.965 -24.410  1.00  0.00     0.204 C 
ENDROOT
BRANCH   1   3
HETATM    3  C7  UNL     1     -17.641 -41.472 -24.195  1.00  0.00    -0.036 C 
HETATM    4  C6  UNL     1     -16.436 -42.006 -24.775  1.00  0.00     0.007 C 
BRANCH   4   5
HETATM    5  C5  UNL     1     -15.204 -42.231 -24.025  1.00  0.00    -0.026 C 
BRANCH   5   6
HETATM    6  C4  UNL     1     -14.144 -41.242 -23.824  1.00  0.00     0.031 C 
BRANCH   6   7
HETATM    7  C3  UNL     1     -14.307 -40.565 -22.453  1.00  0.00     0.030 C 
BRANCH   7   8
HETATM    8  C2  UNL     1     -13.882 -39.167 -22.493  1.00  0.00    -0.037 C 
HETATM    9  C1  UNL     1     -13.878 -38.482 -23.607  1.00  0.00     0.007 C 
ENDBRANCH   7   8
ENDBRANCH   6   7
ENDBRANCH   5   6
ENDBRANCH   4   5
BRANCH   3  10
HETATM   10  C8  UNL     1     -17.930 -40.149 -23.763  1.00  0.00     0.001 C 
HETATM   11  C9  UNL     1     -17.809 -38.967 -24.268  1.00  0.00     0.012 C 
ENDBRANCH   3  10
ENDBRANCH   1   3
BRANCH   2  12
HETATM   12  N1  UNL     1     -20.960 -42.039 -23.303  1.00  0.00    -0.044 N 
HETATM   13  C15 UNL     1     -22.076 -42.924 -23.587  1.00  0.00     0.243 C 
HETATM   14  C16 UNL     1     -22.702 -43.114 -22.240  1.00  0.00     0.030 C 
HETATM   15  C17 UNL     1     -21.516 -43.135 -21.310  1.00  0.00     0.030 C 
HETATM   16  C18 UNL     1     -20.375 -42.467 -22.079  1.00  0.00     0.243 C 
BRANCH  12  17
HETATM   17  C12 UNL     1     -21.508 -40.709 -23.107  1.00  0.00     0.269 C 
BRANCH  17  18
HETATM   18  C13 UNL     1     -21.777 -40.019 -24.401  1.00  0.00    -0.009 C 
HETATM   19  C14 UNL     1     -21.799 -38.699 -24.500  1.00  0.00     0.008 C 
ENDBRANCH  17  18
ENDBRANCH  12  17
ENDBRANCH   2  12
TORSDOF 9
ENDMDL
MODEL 3
REMARK VINA RESULT: -6.687962431      1.068      1.877
REMARK  9 active torsions:
REMARK  status: ('A' for Active; 'I' for Inactive)
REMARK    1  A    between atoms: C2_2  and  C3_3 
REMARK    2  A    between atoms: C3_3  and  C4_4 
REMARK    3  A    between atoms: C4_4  and  C5_5 
REMARK    4  A    between atoms: C5_5  and  C6_6 
REMARK    5  A    between atoms: C7_7  and  C8_8 
REMARK    6  A    between atoms: C7_7  and  C10_10 
REMARK    7  A    between atoms: C11_11  and  N1_12 
REMARK    8  A    between atoms: N1_12  and  C12_13 
REMARK    9  A    between atoms: C12_13  and  C13_14 
ROOT
HETATM    1  C10 UNL     1     -21.696 -38.781 -22.494  1.00  0.00     0.036 C 
HETATM    2  C11 UNL     1     -22.224 -38.615 -23.821  1.00  0.00     0.204 C 
ENDROOT
BRANCH   1   3
HETATM    3  C7  UNL     1     -21.862 -39.935 -21.791  1.00  0.00    -0.036 C 
HETATM    4  C6  UNL     1     -20.647 -40.563 -21.340  1.00  0.00     0.007 C 
BRANCH   4   5
HETATM    5  C5  UNL     1     -20.144 -41.829 -21.865  1.00  0.00    -0.026 C 
BRANCH   5   6
HETATM    6  C4  UNL     1     -20.746 -43.143 -21.628  1.00  0.00     0.031 C 
BRANCH   6   7
HETATM    7  C3  UNL     1     -20.380 -44.104 -22.769  1.00  0.00     0.030 C 
BRANCH   7   8
HETATM    8  C2  UNL     1     -18.936 -44.320 -22.844  1.00  0.00    -0.037 C 
HETATM    9  C1  UNL     1     -18.339 -45.229 -22.117  1.00  0.00     0.007 C 
ENDBRANCH   7   8
ENDBRANCH   6   7
ENDBRANCH   5   6
ENDBRANCH   4   5
BRANCH   3  10
HETATM   10  C8  UNL     1     -23.215 -40.307 -21.562  1.00  0.00     0.001 C 
HETATM   11  C9  UNL     1     -23.942 -41.343 -21.814  1.00  0.00     0.012 C 
ENDBRANCH   3  10
ENDBRANCH   1   3
BRANCH   2  12
HETATM   12  N1  UNL     1     -21.230 -38.396 -24.852  1.00  0.00    -0.044 N 
HETATM   13  C15 UNL     1     -21.407 -37.117 -25.517  1.00  0.00     0.243 C 
HETATM   14  C16 UNL     1     -20.123 -36.954 -26.271  1.00  0.00     0.030 C 
HETATM   15  C17 UNL     1     -19.100 -37.557 -25.342  1.00  0.00     0.030 C 
HETATM   16  C18 UNL     1     -19.887 -38.456 -24.387  1.00  0.00     0.243 C 
BRANCH  12  17
HETATM   17  C12 UNL     1     -21.412 -39.429 -25.856  1.00  0.00     0.269 C 
BRANCH  17  18
HETATM   18  C13 UNL     1     -20.983 -40.769 -25.364  1.00  0.00    -0.009 C 
HETATM   19  C14 UNL     1     -21.813 -41.800 -25.322  1.00  0.00     0.008 C 
ENDBRANCH  17  18
ENDBRANCH  12  17
ENDBRANCH   2  12
TORSDOF 9
ENDMDL
MODEL 4
REMARK VINA RESULT: -6.623005561      2.245      5.443
REMARK  9 active torsions:
REMARK  status: ('A' for Active; 'I' for Inactive)
REMARK    1  A    between atoms: C2_2  and  C3_3 
REMARK    2  A    between atoms: C3_3  and  C4_4 
REMARK    3  A    between atoms: C4_4  and  C5_5 
REMARK    4  A    between atoms: C5_5  and  C6_6 
REMARK    5  A    between atoms: C7_7  and  C8_8 
REMARK    6  A    between atoms: C7_7  and  C10_10 
REMARK    7  A    between atoms: C11_11  and  N1_12 
REMARK    8  A    between atoms: N1_12  and  C12_13 
REMARK    9  A    between atoms: C12_13  and  C13_14 
ROOT
HETATM    1  C10 UNL     1     -19.008 -41.551 -23.437  1.00  0.00     0.036 C 
HETATM    2  C11 UNL     1     -20.257 -41.479 -24.144  1.00  0.00     0.204 C 
ENDROOT
BRANCH   1   3
HETATM    3  C7  UNL     1     -17.870 -40.981 -23.923  1.00  0.00    -0.036 C 
HETATM    4  C6  UNL     1     -16.910 -41.897 -24.481  1.00  0.00     0.007 C 
BRANCH   4   5
HETATM    5  C5  UNL     1     -15.616 -42.189 -23.870  1.00  0.00    -0.026 C 
BRANCH   5   6
HETATM    6  C4  UNL     1     -14.474 -41.273 -23.830  1.00  0.00     0.031 C 
BRANCH   6   7
HETATM    7  C3  UNL     1     -14.381 -40.608 -22.448  1.00  0.00     0.030 C 
BRANCH   7   8
HETATM    8  C2  UNL     1     -13.778 -39.279 -22.533  1.00  0.00    -0.037 C 
HETATM    9  C1  UNL     1     -13.884 -38.545 -23.610  1.00  0.00     0.007 C 
ENDBRANCH   7   8
ENDBRANCH   6   7
ENDBRANCH   5   6
ENDBRANCH   4   5
BRANCH   3  10
HETATM   10  C8  UNL     1     -17.837 -39.561 -23.857  1.00  0.00     0.001 C 
HETATM   11  C9  UNL     1     -18.026 -38.595 -24.691  1.00  0.00     0.012 C 
ENDBRANCH   3  10
ENDBRANCH   1   3
BRANCH   2  12
HETATM   12  N1  UNL     1     -21.315 -40.776 -23.447  1.00  0.00    -0.044 N 
HETATM   13  C15 UNL     1     -22.476 -41.620 -23.226  1.00  0.00     0.243 C 
HETATM   14  C16 UNL     1     -23.274 -40.835 -22.230  1.00  0.00     0.030 C 
HETATM   15  C17 UNL     1     -22.214 -40.205 -21.362  1.00  0.00     0.030 C 
HETATM   16  C18 UNL     1     -20.926 -40.242 -22.187  1.00  0.00     0.243 C 
BRANCH  12  17
HETATM   17  C12 UNL     1     -21.740 -39.678 -24.297  1.00  0.00     0.269 C 
BRANCH  17  18
HETATM   18  C13 UNL     1     -21.346 -39.888 -25.719  1.00  0.00    -0.009 C 
HETATM   19  C14 UNL     1     -21.273 -38.886 -26.582  1.00  0.00     0.008 C 
ENDBRANCH  17  18
ENDBRANCH  12  17
ENDBRANCH   2  12
TORSDOF 9
ENDMDL
MODEL 5
REMARK VINA RESULT: -6.603978749      2.186      4.748
REMARK  9 active torsions:
REMARK  status: ('A' for Active; 'I' for Inactive)
REMARK    1  A    between atoms: C2_2  and  C3_3 
REMARK    2  A    between atoms: C3_3  and  C4_4 
REMARK    3  A    between atoms: C4_4  and  C5_5 
REMARK    4  A    between atoms: C5_5  and  C6_6 
REMARK    5  A    between atoms: C7_7  and  C8_8 
REMARK    6  A    between atoms: C7_7  and  C10_10 
REMARK    7  A    between atoms: C11_11  and  N1_12 
REMARK    8  A    between atoms: N1_12  and  C12_13 
REMARK    9  A    between atoms: C12_13  and  C13_14 
ROOT
HETATM    1  C10 UNL     1     -18.305 -38.907 -24.954  1.00  0.00     0.036 C 
HETATM    2  C11 UNL     1     -19.443 -38.030 -24.915  1.00  0.00     0.204 C 
ENDROOT
BRANCH   1   3
HETATM    3  C7  UNL     1     -18.026 -39.772 -23.940  1.00  0.00    -0.036 C 
HETATM    4  C6  UNL     1     -16.628 -40.040 -23.724  1.00  0.00     0.007 C 
BRANCH   4   5
HETATM    5  C5  UNL     1     -15.995 -41.326 -24.000  1.00  0.00    -0.026 C 
BRANCH   5   6
HETATM    6  C4  UNL     1     -14.730 -41.787 -23.424  1.00  0.00     0.031 C 
BRANCH   6   7
HETATM    7  C3  UNL     1     -13.590 -40.841 -23.832  1.00  0.00     0.030 C 
BRANCH   7   8
HETATM    8  C2  UNL     1     -13.082 -40.089 -22.685  1.00  0.00    -0.037 C 
HETATM    9  C1  UNL     1     -13.686 -39.014 -22.248  1.00  0.00     0.007 C 
ENDBRANCH   7   8
ENDBRANCH   6   7
ENDBRANCH   5   6
ENDBRANCH   4   5
BRANCH   3  10
HETATM   10  C8  UNL     1     -19.160 -40.229 -23.215  1.00  0.00     0.001 C 
HETATM   11  C9  UNL     1     -19.882 -41.299 -23.210  1.00  0.00     0.012 C 
ENDBRANCH   3  10
ENDBRANCH   1   3
BRANCH   2  12
HETATM   12  N1  UNL     1     -20.422 -38.251 -25.960  1.00  0.00    -0.044 N 
HETATM   13  C15 UNL     1     -20.640 -37.061 -26.763  1.00  0.00     0.243 C 
HETATM   14  C16 UNL     1     -21.395 -37.590 -27.944  1.00  0.00     0.030 C 
HETATM   15  C17 UNL     1     -20.777 -38.946 -28.167  1.00  0.00     0.030 C 
HETATM   16  C18 UNL     1     -20.097 -39.314 -26.847  1.00  0.00     0.243 C 
BRANCH  12  17
HETATM   17  C12 UNL     1     -21.683 -38.566 -25.313  1.00  0.00     0.269 C 
BRANCH  17  18
HETATM   18  C13 UNL     1     -21.856 -37.821 -24.033  1.00  0.00    -0.009 C 
HETATM   19  C14 UNL     1     -22.482 -38.351 -22.992  1.00  0.00     0.008 C 
ENDBRANCH  17  18
ENDBRANCH  12  17
ENDBRANCH   2  12
TORSDOF 9
ENDMDL
