MODEL 1
REMARK VINA RESULT: -6.413173658      0.000      0.000
REMARK  10 active torsions:
REMARK  status: ('A' for Active; 'I' for Inactive)
REMARK    1  A    between atoms: C2_2  and  C3_3 
REMARK    2  A    between atoms: C3_3  and  N1_4 
REMARK    3  A    between atoms: N1_4  and  C4_5 
REMARK    4  A    between atoms: N1_4  and  C10_11 
REMARK    5  A    between atoms: C4_5  and  C5_6 
REMARK    6  A    between atoms: C5_6  and  C6_7 
REMARK    7  A    between atoms: C6_7  and  C7_8 
REMARK    8  A    between atoms: C7_8  and  C8_9 
REMARK    9  A    between atoms: C10_11  and  C12_13 
REMARK   10  A    between atoms: N2_15  and  C15_17 
ROOT
HETATM    1  N1  UNL     1     -19.197 -38.732 -24.683  1.00  0.00     0.096 N 
ENDROOT
BRANCH   1   2
HETATM    2  C3  UNL     1     -19.522 -37.507 -25.426  1.00  0.00     0.299 C 
BRANCH   2   3
HETATM    3  C2  UNL     1     -20.978 -37.255 -25.528  1.00  0.00    -0.007 C 
HETATM    4  C1  UNL     1     -21.690 -36.620 -24.593  1.00  0.00     0.008 C 
ENDBRANCH   2   3
ENDBRANCH   1   2
BRANCH   1   5
HETATM    5  C4  UNL     1     -17.765 -38.930 -24.710  1.00  0.00     0.273 C 
BRANCH   5   6
HETATM    6  C5  UNL     1     -17.192 -39.496 -23.442  1.00  0.00     0.030 C 
BRANCH   6   7
HETATM    7  C6  UNL     1     -15.711 -39.757 -23.563  1.00  0.00     0.002 C 
BRANCH   7   8
HETATM    8  C7  UNL     1     -14.877 -38.935 -22.651  1.00  0.00    -0.000 C 
BRANCH   8   9
HETATM    9  C8  UNL     1     -13.532 -39.550 -22.327  1.00  0.00    -0.005 C 
HETATM   10  C9  UNL     1     -12.855 -40.110 -23.553  1.00  0.00     0.005 C 
ENDBRANCH   8   9
ENDBRANCH   7   8
ENDBRANCH   6   7
ENDBRANCH   5   6
ENDBRANCH   1   5
BRANCH   1  11
HETATM   11  C10 UNL     1     -19.947 -39.822 -25.201  1.00  0.00     0.226 C 
HETATM   12  C11 UNL     1     -19.259 -40.628 -26.278  1.00  0.00     0.043 C 
BRANCH  11  13
HETATM   13  C12 UNL     1     -20.698 -40.584 -24.210  1.00  0.00     0.072 C 
HETATM   14  C13 UNL     1     -22.161 -40.731 -24.184  1.00  0.00     0.251 C 
HETATM   15  N2  UNL     1     -22.045 -40.874 -22.710  1.00  0.00    -0.051 N 
HETATM   16  C14 UNL     1     -21.626 -42.170 -22.278  1.00  0.00     0.278 C 
HETATM   17  C17 UNL     1     -20.915 -39.932 -22.853  1.00  0.00     0.251 C 
BRANCH  15  18
HETATM   18  C15 UNL     1     -23.134 -40.337 -21.992  1.00  0.00     0.192 C 
HETATM   19  C16 UNL     1     -23.946 -41.168 -21.351  1.00  0.00     0.037 C 
ENDBRANCH  15  18
ENDBRANCH  11  13
ENDBRANCH   1  11
TORSDOF 10
ENDMDL
MODEL 2
REMARK VINA RESULT: -6.331825830      3.450      5.334
REMARK  10 active torsions:
REMARK  status: ('A' for Active; 'I' for Inactive)
REMARK    1  A    between atoms: C2_2  and  C3_3 
REMARK    2  A    between atoms: C3_3  and  N1_4 
REMARK    3  A    between atoms: N1_4  and  C4_5 
REMARK    4  A    between atoms: N1_4  and  C10_11 
REMARK    5  A    between atoms: C4_5  and  C5_6 
REMARK    6  A    between atoms: C5_6  and  C6_7 
REMARK    7  A    between atoms: C6_7  and  C7_8 
REMARK    8  A    between atoms: C7_8  and  C8_9 
REMARK    9  A    between atoms: C10_11  and  C12_13 
REMARK   10  A    between atoms: N2_15  and  C15_17 
ROOT
HETATM    1  N1  UNL     1     -21.810 -40.301 -23.215  1.00  0.00     0.096 N 
ENDROOT
BRANCH   1   2
HETATM    2  C3  UNL     1     -22.624 -39.331 -22.469  1.00  0.00     0.299 C 
BRANCH   2   3
HETATM    3  C2  UNL     1     -23.649 -39.967 -21.610  1.00  0.00    -0.007 C 
HETATM    4  C1  UNL     1     -24.024 -41.244 -21.720  1.00  0.00     0.008 C 
ENDBRANCH   2   3
ENDBRANCH   1   2
BRANCH   1   5
HETATM    5  C4  UNL     1     -20.488 -40.349 -22.632  1.00  0.00     0.273 C 
BRANCH   5   6
HETATM    6  C5  UNL     1     -20.293 -41.444 -21.622  1.00  0.00     0.030 C 
BRANCH   6   7
HETATM    7  C6  UNL     1     -20.694 -42.791 -22.173  1.00  0.00     0.002 C 
BRANCH   7   8
HETATM    8  C7  UNL     1     -19.904 -43.924 -21.628  1.00  0.00    -0.000 C 
BRANCH   8   9
HETATM    9  C8  UNL     1     -19.232 -44.770 -22.689  1.00  0.00    -0.005 C 
HETATM   10  C9  UNL     1     -18.064 -45.547 -22.136  1.00  0.00     0.005 C 
ENDBRANCH   8   9
ENDBRANCH   7   8
ENDBRANCH   6   7
ENDBRANCH   5   6
ENDBRANCH   1   5
BRANCH   1  11
HETATM   11  C10 UNL     1     -21.827 -39.981 -24.599  1.00  0.00     0.226 C 
HETATM   12  C11 UNL     1     -21.663 -38.515 -24.927  1.00  0.00     0.043 C 
BRANCH  11  13
HETATM   13  C12 UNL     1     -21.111 -40.915 -25.460  1.00  0.00     0.072 C 
HETATM   14  C13 UNL     1     -20.913 -40.754 -26.908  1.00  0.00     0.251 C 
HETATM   15  N2  UNL     1     -20.880 -42.236 -26.992  1.00  0.00    -0.051 N 
HETATM   16  C14 UNL     1     -19.632 -42.817 -26.603  1.00  0.00     0.278 C 
HETATM   17  C17 UNL     1     -21.849 -42.178 -25.878  1.00  0.00     0.251 C 
BRANCH  15  18
HETATM   18  C15 UNL     1     -21.426 -42.758 -28.184  1.00  0.00     0.192 C 
HETATM   19  C16 UNL     1     -20.754 -43.700 -28.834  1.00  0.00     0.037 C 
ENDBRANCH  15  18
ENDBRANCH  11  13
ENDBRANCH   1  11
TORSDOF 10
ENDMDL
MODEL 3
REMARK VINA RESULT: -6.236373586      1.189      1.473
REMARK  10 active torsions:
REMARK  status: ('A' for Active; 'I' for Inactive)
REMARK    1  A    between atoms: C2_2  and  C3_3 
REMARK    2  A    between atoms: C3_3  and  N1_4 
REMARK    3  A    between atoms: N1_4  and  C4_5 
REMARK    4  A    between atoms: N1_4  and  C10_11 
REMARK    5  A    between atoms: C4_5  and  C5_6 
REMARK    6  A    between atoms: C5_6  and  C6_7 
REMARK    7  A    between atoms: C6_7  and  C7_8 
REMARK    8  A    between atoms: C7_8  and  C8_9 
REMARK    9  A    between atoms: C10_11  and  C12_13 
REMARK   10  A    between atoms: N2_15  and  C15_17 
ROOT
HETATM    1  N1  UNL     1     -19.932 -39.529 -25.096  1.00  0.00     0.096 N 
ENDROOT
BRANCH   1   2
HETATM    2  C3  UNL     1     -20.067 -38.210 -25.728  1.00  0.00     0.299 C 
BRANCH   2   3
HETATM    3  C2  UNL     1     -21.399 -37.596 -25.518  1.00  0.00    -0.007 C 
HETATM    4  C1  UNL     1     -21.805 -37.080 -24.355  1.00  0.00     0.008 C 
ENDBRANCH   2   3
ENDBRANCH   1   2
BRANCH   1   5
HETATM    5  C4  UNL     1     -18.530 -39.881 -25.042  1.00  0.00     0.273 C 
BRANCH   5   6
HETATM    6  C5  UNL     1     -17.773 -39.240 -23.914  1.00  0.00     0.030 C 
BRANCH   6   7
HETATM    7  C6  UNL     1     -16.304 -39.588 -23.956  1.00  0.00     0.002 C 
BRANCH   7   8
HETATM    8  C7  UNL     1     -15.553 -39.176 -22.744  1.00  0.00    -0.000 C 
BRANCH   8   9
HETATM    9  C8  UNL     1     -14.106 -38.820 -23.010  1.00  0.00    -0.005 C 
HETATM   10  C9  UNL     1     -13.170 -39.945 -22.645  1.00  0.00     0.005 C 
ENDBRANCH   8   9
ENDBRANCH   7   8
ENDBRANCH   6   7
ENDBRANCH   5   6
ENDBRANCH   1   5
BRANCH   1  11
HETATM   11  C10 UNL     1     -20.746 -40.475 -25.777  1.00  0.00     0.226 C 
HETATM   12  C11 UNL     1     -20.070 -41.215 -26.908  1.00  0.00     0.043 C 
BRANCH  11  13
HETATM   13  C12 UNL     1     -21.620 -41.269 -24.922  1.00  0.00     0.072 C 
HETATM   14  C13 UNL     1     -22.127 -40.852 -23.607  1.00  0.00     0.251 C 
HETATM   15  N2  UNL     1     -22.162 -42.293 -23.248  1.00  0.00    -0.051 N 
HETATM   16  C14 UNL     1     -23.289 -43.001 -23.769  1.00  0.00     0.278 C 
HETATM   17  C17 UNL     1     -20.976 -42.392 -24.123  1.00  0.00     0.251 C 
BRANCH  15  18
HETATM   18  C15 UNL     1     -21.879 -42.556 -21.890  1.00  0.00     0.192 C 
HETATM   19  C16 UNL     1     -22.763 -43.240 -21.176  1.00  0.00     0.037 C 
ENDBRANCH  15  18
ENDBRANCH  11  13
ENDBRANCH   1  11
TORSDOF 10
ENDMDL
MODEL 4
REMARK VINA RESULT: -6.167836131      2.215      3.708
REMARK  10 active torsions:
REMARK  status: ('A' for Active; 'I' for Inactive)
REMARK    1  A    between atoms: C2_2  and  C3_3 
REMARK    2  A    between atoms: C3_3  and  N1_4 
REMARK    3  A    between atoms: N1_4  and  C4_5 
REMARK    4  A    between atoms: N1_4  and  C10_11 
REMARK    5  A    between atoms: C4_5  and  C5_6 
REMARK    6  A    between atoms: C5_6  and  C6_7 
REMARK    7  A    between atoms: C6_7  and  C7_8 
REMARK    8  A    between atoms: C7_8  and  C8_9 
REMARK    9  A    between atoms: C10_11  and  C12_13 
REMARK   10  A    between atoms: N2_15  and  C15_17 
ROOT
HETATM    1  N1  UNL     1     -17.665 -42.084 -24.319  1.00  0.00     0.096 N 
ENDROOT
BRANCH   1   2
HETATM    2  C3  UNL     1     -18.503 -43.289 -24.265  1.00  0.00     0.299 C 
BRANCH   2   3
HETATM    3  C2  UNL     1     -18.028 -44.286 -23.277  1.00  0.00    -0.007 C 
HETATM    4  C1  UNL     1     -18.815 -44.861 -22.364  1.00  0.00     0.008 C 
ENDBRANCH   2   3
ENDBRANCH   1   2
BRANCH   1   5
HETATM    5  C4  UNL     1     -16.333 -42.420 -23.867  1.00  0.00     0.273 C 
BRANCH   5   6
HETATM    6  C5  UNL     1     -15.237 -42.026 -24.816  1.00  0.00     0.030 C 
BRANCH   6   7
HETATM    7  C6  UNL     1     -14.039 -41.466 -24.089  1.00  0.00     0.002 C 
BRANCH   7   8
HETATM    8  C7  UNL     1     -14.358 -40.883 -22.761  1.00  0.00    -0.000 C 
BRANCH   8   9
HETATM    9  C8  UNL     1     -13.605 -39.607 -22.453  1.00  0.00    -0.005 C 
HETATM   10  C9  UNL     1     -13.857 -38.538 -23.488  1.00  0.00     0.005 C 
ENDBRANCH   8   9
ENDBRANCH   7   8
ENDBRANCH   6   7
ENDBRANCH   5   6
ENDBRANCH   1   5
BRANCH   1  11
HETATM   11  C10 UNL     1     -18.283 -41.035 -23.585  1.00  0.00     0.226 C 
HETATM   12  C11 UNL     1     -17.748 -39.649 -23.861  1.00  0.00     0.043 C 
BRANCH  11  13
HETATM   13  C12 UNL     1     -19.730 -41.148 -23.443  1.00  0.00     0.072 C 
HETATM   14  C13 UNL     1     -20.697 -40.079 -23.734  1.00  0.00     0.251 C 
HETATM   15  N2  UNL     1     -21.571 -40.694 -22.702  1.00  0.00    -0.051 N 
HETATM   16  C14 UNL     1     -22.287 -41.847 -23.151  1.00  0.00     0.278 C 
HETATM   17  C17 UNL     1     -20.299 -41.040 -22.036  1.00  0.00     0.251 C 
BRANCH  15  18
HETATM   18  C15 UNL     1     -22.348 -39.765 -21.977  1.00  0.00     0.192 C 
HETATM   19  C16 UNL     1     -23.574 -40.111 -21.607  1.00  0.00     0.037 C 
ENDBRANCH  15  18
ENDBRANCH  11  13
ENDBRANCH   1  11
TORSDOF 10
ENDMDL
MODEL 5
REMARK VINA RESULT: -6.121050055      3.547      6.150
REMARK  10 active torsions:
REMARK  status: ('A' for Active; 'I' for Inactive)
REMARK    1  A    between atoms: C2_2  and  C3_3 
REMARK    2  A    between atoms: C3_3  and  N1_4 
REMARK    3  A    between atoms: N1_4  and  C4_5 
REMARK    4  A    between atoms: N1_4  and  C10_11 
REMARK    5  A    between atoms: C4_5  and  C5_6 
REMARK    6  A    between atoms: C5_6  and  C6_7 
REMARK    7  A    between atoms: C6_7  and  C7_8 
REMARK    8  A    between atoms: C7_8  and  C8_9 
REMARK    9  A    between atoms: C10_11  and  C12_13 
REMARK   10  A    between atoms: N2_15  and  C15_17 
ROOT
HETATM    1  N1  UNL     1     -21.337 -41.308 -23.649  1.00  0.00     0.096 N 
ENDROOT
BRANCH   1   2
HETATM    2  C3  UNL     1     -20.231 -41.539 -22.710  1.00  0.00     0.299 C 
BRANCH   2   3
HETATM    3  C2  UNL     1     -20.672 -42.121 -21.421  1.00  0.00    -0.007 C 
HETATM    4  C1  UNL     1     -20.349 -43.351 -21.011  1.00  0.00     0.008 C 
ENDBRANCH   2   3
ENDBRANCH   1   2
BRANCH   1   5
HETATM    5  C4  UNL     1     -22.397 -40.605 -22.960  1.00  0.00     0.273 C 
BRANCH   5   6
HETATM    6  C5  UNL     1     -22.365 -39.113 -23.129  1.00  0.00     0.030 C 
BRANCH   6   7
HETATM    7  C6  UNL     1     -21.838 -38.714 -24.486  1.00  0.00     0.002 C 
BRANCH   7   8
HETATM    8  C7  UNL     1     -21.482 -37.277 -24.596  1.00  0.00    -0.000 C 
BRANCH   8   9
HETATM    9  C8  UNL     1     -21.283 -36.801 -26.019  1.00  0.00    -0.005 C 
HETATM   10  C9  UNL     1     -20.843 -37.917 -26.933  1.00  0.00     0.005 C 
ENDBRANCH   8   9
ENDBRANCH   7   8
ENDBRANCH   6   7
ENDBRANCH   5   6
ENDBRANCH   1   5
BRANCH   1  11
HETATM   11  C10 UNL     1     -21.737 -42.540 -24.233  1.00  0.00     0.226 C 
HETATM   12  C11 UNL     1     -23.196 -42.895 -24.062  1.00  0.00     0.043 C 
BRANCH  11  13
HETATM   13  C12 UNL     1     -21.157 -42.823 -25.541  1.00  0.00     0.072 C 
HETATM   14  C13 UNL     1     -20.669 -41.810 -26.489  1.00  0.00     0.251 C 
HETATM   15  N2  UNL     1     -21.021 -42.764 -27.572  1.00  0.00    -0.051 N 
HETATM   16  C14 UNL     1     -20.066 -43.810 -27.765  1.00  0.00     0.278 C 
HETATM   17  C17 UNL     1     -22.121 -43.160 -26.669  1.00  0.00     0.251 C 
BRANCH  15  18
HETATM   18  C15 UNL     1     -21.466 -42.147 -28.760  1.00  0.00     0.192 C 
HETATM   19  C16 UNL     1     -21.473 -42.855 -29.882  1.00  0.00     0.037 C 
ENDBRANCH  15  18
ENDBRANCH  11  13
ENDBRANCH   1  11
TORSDOF 10
ENDMDL
