MODEL 1
REMARK VINA RESULT: -6.837831439      0.000      0.000
REMARK  11 active torsions:
REMARK  status: ('A' for Active; 'I' for Inactive)
REMARK    1  A    between atoms: C2_2  and  C3_3 
REMARK    2  A    between atoms: C3_3  and  C4_4 
REMARK    3  A    between atoms: C4_4  and  C5_5 
REMARK    4  A    between atoms: C5_5  and  C6_6 
REMARK    5  A    between atoms: C5_5  and  C8_8 
REMARK    6  A    between atoms: N1_9  and  C9_10 
REMARK    7  A    between atoms: N1_9  and  C16_17 
REMARK    8  A    between atoms: C9_10  and  C10_11 
REMARK    9  A    between atoms: C11_12  and  C12_13 
REMARK   10  A    between atoms: C12_13  and  C13_14 
REMARK   11  A    between atoms: C16_17  and  C17_18 
ROOT
HETATM    1  C8  UNL     1     -19.722 -42.026 -23.425  1.00  0.00     0.072 C 
HETATM    2  N1  UNL     1     -19.826 -40.683 -23.649  1.00  0.00    -0.362 N 
ENDROOT
BRANCH   2   3
HETATM    3  C9  UNL     1     -18.987 -40.159 -24.715  1.00  0.00     0.220 C 
BRANCH   3   4
HETATM    4  C10 UNL     1     -17.605 -40.466 -24.334  1.00  0.00    -0.086 C 
HETATM    5  C11 UNL     1     -16.470 -40.708 -24.002  1.00  0.00    -0.104 C 
BRANCH   5   6
HETATM    6  C12 UNL     1     -15.098 -41.001 -23.572  1.00  0.00     0.098 C 
BRANCH   6   7
HETATM    7  C13 UNL     1     -14.665 -39.938 -22.585  1.00  0.00    -0.003 A 
HETATM    8  C14 UNL     1     -13.172 -39.796 -22.429  1.00  0.00     0.006 A 
HETATM    9  C15 UNL     1     -13.977 -38.733 -23.141  1.00  0.00     0.006 A 
ENDBRANCH   6   7
ENDBRANCH   5   6
ENDBRANCH   3   4
ENDBRANCH   2   3
BRANCH   2  10
HETATM   10  C16 UNL     1     -20.737 -39.782 -23.132  1.00  0.00     0.064 C 
BRANCH  10  11
HETATM   11  C17 UNL     1     -21.826 -39.251 -24.005  1.00  0.00     0.040 C 
HETATM   12  C18 UNL     1     -22.216 -37.884 -23.423  1.00  0.00     0.010 C 
ENDBRANCH  10  11
ENDBRANCH   2  10
BRANCH   1  13
HETATM   13  C5  UNL     1     -20.483 -42.735 -22.364  1.00  0.00     0.046 C 
BRANCH  13  14
HETATM   14  C4  UNL     1     -21.826 -43.253 -22.887  1.00  0.00     0.017 C 
BRANCH  14  15
HETATM   15  C3  UNL     1     -22.942 -43.095 -21.889  1.00  0.00     0.027 C 
BRANCH  15  16
HETATM   16  C2  UNL     1     -23.743 -41.921 -22.323  1.00  0.00    -0.037 C 
HETATM   17  C1  UNL     1     -23.998 -40.966 -21.450  1.00  0.00     0.007 C 
ENDBRANCH  15  16
ENDBRANCH  14  15
ENDBRANCH  13  14
BRANCH  13  18
HETATM   18  C6  UNL     1     -19.840 -43.876 -21.711  1.00  0.00    -0.027 C 
HETATM   19  C7  UNL     1     -19.020 -44.723 -22.349  1.00  0.00     0.007 C 
ENDBRANCH  13  18
ENDBRANCH   1  13
TORSDOF 11
ENDMDL
MODEL 2
REMARK VINA RESULT: -6.726864210      1.444      2.859
REMARK  11 active torsions:
REMARK  status: ('A' for Active; 'I' for Inactive)
REMARK    1  A    between atoms: C2_2  and  C3_3 
REMARK    2  A    between atoms: C3_3  and  C4_4 
REMARK    3  A    between atoms: C4_4  and  C5_5 
REMARK    4  A    between atoms: C5_5  and  C6_6 
REMARK    5  A    between atoms: C5_5  and  C8_8 
REMARK    6  A    between atoms: N1_9  and  C9_10 
REMARK    7  A    between atoms: N1_9  and  C16_17 
REMARK    8  A    between atoms: C9_10  and  C10_11 
REMARK    9  A    between atoms: C11_12  and  C12_13 
REMARK   10  A    between atoms: C12_13  and  C13_14 
REMARK   11  A    between atoms: C16_17  and  C17_18 
ROOT
HETATM    1  C8  UNL     1     -19.986 -41.558 -23.978  1.00  0.00     0.072 C 
HETATM    2  N1  UNL     1     -20.242 -40.477 -24.772  1.00  0.00    -0.362 N 
ENDROOT
BRANCH   2   3
HETATM    3  C9  UNL     1     -19.119 -40.002 -25.566  1.00  0.00     0.220 C 
BRANCH   3   4
HETATM    4  C10 UNL     1     -18.052 -39.684 -24.611  1.00  0.00    -0.086 C 
HETATM    5  C11 UNL     1     -17.186 -39.430 -23.809  1.00  0.00    -0.104 C 
BRANCH   5   6
HETATM    6  C12 UNL     1     -16.143 -39.141 -22.819  1.00  0.00     0.098 C 
BRANCH   6   7
HETATM    7  C13 UNL     1     -14.831 -39.702 -23.324  1.00  0.00    -0.003 A 
HETATM    8  C14 UNL     1     -13.755 -38.672 -23.557  1.00  0.00     0.006 A 
HETATM    9  C15 UNL     1     -13.661 -39.634 -22.396  1.00  0.00     0.006 A 
ENDBRANCH   6   7
ENDBRANCH   5   6
ENDBRANCH   3   4
ENDBRANCH   2   3
BRANCH   2  10
HETATM   10  C16 UNL     1     -21.452 -39.879 -25.065  1.00  0.00     0.064 C 
BRANCH  10  11
HETATM   11  C17 UNL     1     -21.572 -38.392 -25.016  1.00  0.00     0.040 C 
HETATM   12  C18 UNL     1     -22.064 -38.045 -23.602  1.00  0.00     0.010 C 
ENDBRANCH  10  11
ENDBRANCH   2  10
BRANCH   1  13
HETATM   13  C5  UNL     1     -21.002 -42.168 -23.082  1.00  0.00     0.046 C 
BRANCH  13  14
HETATM   14  C4  UNL     1     -20.833 -43.688 -22.995  1.00  0.00     0.017 C 
BRANCH  14  15
HETATM   15  C3  UNL     1     -19.788 -44.104 -21.995  1.00  0.00     0.027 C 
BRANCH  15  16
HETATM   16  C2  UNL     1     -18.804 -44.943 -22.727  1.00  0.00    -0.037 C 
HETATM   17  C1  UNL     1     -17.949 -45.672 -22.036  1.00  0.00     0.007 C 
ENDBRANCH  15  16
ENDBRANCH  14  15
ENDBRANCH  13  14
BRANCH  13  18
HETATM   18  C6  UNL     1     -21.064 -41.692 -21.700  1.00  0.00    -0.027 C 
HETATM   19  C7  UNL     1     -20.506 -40.544 -21.291  1.00  0.00     0.007 C 
ENDBRANCH  13  18
ENDBRANCH   1  13
TORSDOF 11
ENDMDL
MODEL 3
REMARK VINA RESULT: -6.713114525      1.345      2.985
REMARK  11 active torsions:
REMARK  status: ('A' for Active; 'I' for Inactive)
REMARK    1  A    between atoms: C2_2  and  C3_3 
REMARK    2  A    between atoms: C3_3  and  C4_4 
REMARK    3  A    between atoms: C4_4  and  C5_5 
REMARK    4  A    between atoms: C5_5  and  C6_6 
REMARK    5  A    between atoms: C5_5  and  C8_8 
REMARK    6  A    between atoms: N1_9  and  C9_10 
REMARK    7  A    between atoms: N1_9  and  C16_17 
REMARK    8  A    between atoms: C9_10  and  C10_11 
REMARK    9  A    between atoms: C11_12  and  C12_13 
REMARK   10  A    between atoms: C12_13  and  C13_14 
REMARK   11  A    between atoms: C16_17  and  C17_18 
ROOT
HETATM    1  C8  UNL     1     -19.587 -40.077 -23.153  1.00  0.00     0.072 C 
HETATM    2  N1  UNL     1     -19.717 -39.279 -24.254  1.00  0.00    -0.362 N 
ENDROOT
BRANCH   2   3
HETATM    3  C9  UNL     1     -18.513 -38.571 -24.660  1.00  0.00     0.220 C 
BRANCH   3   4
HETATM    4  C10 UNL     1     -17.387 -39.415 -24.251  1.00  0.00    -0.086 C 
HETATM    5  C11 UNL     1     -16.444 -40.096 -23.922  1.00  0.00    -0.104 C 
BRANCH   5   6
HETATM    6  C12 UNL     1     -15.285 -40.900 -23.521  1.00  0.00     0.098 C 
BRANCH   6   7
HETATM    7  C13 UNL     1     -14.507 -40.136 -22.471  1.00  0.00    -0.003 A 
HETATM    8  C14 UNL     1     -13.038 -39.976 -22.770  1.00  0.00     0.006 A 
HETATM    9  C15 UNL     1     -13.976 -38.794 -22.862  1.00  0.00     0.006 A 
ENDBRANCH   6   7
ENDBRANCH   5   6
ENDBRANCH   3   4
ENDBRANCH   2   3
BRANCH   2  10
HETATM   10  C16 UNL     1     -20.773 -39.183 -25.139  1.00  0.00     0.064 C 
BRANCH  10  11
HETATM   11  C17 UNL     1     -21.374 -37.848 -25.429  1.00  0.00     0.040 C 
HETATM   12  C18 UNL     1     -21.970 -37.347 -24.105  1.00  0.00     0.010 C 
ENDBRANCH  10  11
ENDBRANCH   2  10
BRANCH   1  13
HETATM   13  C5  UNL     1     -20.711 -40.858 -22.577  1.00  0.00     0.046 C 
BRANCH  13  14
HETATM   14  C4  UNL     1     -20.217 -42.146 -21.910  1.00  0.00     0.017 C 
BRANCH  14  15
HETATM   15  C3  UNL     1     -19.455 -43.037 -22.854  1.00  0.00     0.027 C 
BRANCH  15  16
HETATM   16  C2  UNL     1     -19.480 -44.402 -22.269  1.00  0.00    -0.037 C 
HETATM   17  C1  UNL     1     -18.409 -45.165 -22.383  1.00  0.00     0.007 C 
ENDBRANCH  15  16
ENDBRANCH  14  15
ENDBRANCH  13  14
BRANCH  13  18
HETATM   18  C6  UNL     1     -21.564 -40.197 -21.588  1.00  0.00    -0.027 C 
HETATM   19  C7  UNL     1     -22.892 -40.080 -21.723  1.00  0.00     0.007 C 
ENDBRANCH  13  18
ENDBRANCH   1  13
TORSDOF 11
ENDMDL
MODEL 4
REMARK VINA RESULT: -6.650419884      1.319      1.783
REMARK  11 active torsions:
REMARK  status: ('A' for Active; 'I' for Inactive)
REMARK    1  A    between atoms: C2_2  and  C3_3 
REMARK    2  A    between atoms: C3_3  and  C4_4 
REMARK    3  A    between atoms: C4_4  and  C5_5 
REMARK    4  A    between atoms: C5_5  and  C6_6 
REMARK    5  A    between atoms: C5_5  and  C8_8 
REMARK    6  A    between atoms: N1_9  and  C9_10 
REMARK    7  A    between atoms: N1_9  and  C16_17 
REMARK    8  A    between atoms: C9_10  and  C10_11 
REMARK    9  A    between atoms: C11_12  and  C12_13 
REMARK   10  A    between atoms: C12_13  and  C13_14 
REMARK   11  A    between atoms: C16_17  and  C17_18 
ROOT
HETATM    1  C8  UNL     1     -19.610 -40.660 -23.594  1.00  0.00     0.072 C 
HETATM    2  N1  UNL     1     -19.230 -39.607 -24.378  1.00  0.00    -0.362 N 
ENDROOT
BRANCH   2   3
HETATM    3  C9  UNL     1     -18.289 -39.925 -25.441  1.00  0.00     0.220 C 
BRANCH   3   4
HETATM    4  C10 UNL     1     -17.066 -40.387 -24.777  1.00  0.00    -0.086 C 
HETATM    5  C11 UNL     1     -16.056 -40.783 -24.245  1.00  0.00    -0.104 C 
BRANCH   5   6
HETATM    6  C12 UNL     1     -14.822 -41.273 -23.623  1.00  0.00     0.098 C 
BRANCH   6   7
HETATM    7  C13 UNL     1     -14.441 -40.333 -22.499  1.00  0.00    -0.003 A 
HETATM    8  C14 UNL     1     -13.014 -39.849 -22.540  1.00  0.00     0.006 A 
HETATM    9  C15 UNL     1     -14.155 -38.913 -22.869  1.00  0.00     0.006 A 
ENDBRANCH   6   7
ENDBRANCH   5   6
ENDBRANCH   3   4
ENDBRANCH   2   3
BRANCH   2  10
HETATM   10  C16 UNL     1     -19.741 -38.325 -24.421  1.00  0.00     0.064 C 
BRANCH  10  11
HETATM   11  C17 UNL     1     -20.925 -38.031 -25.282  1.00  0.00     0.040 C 
HETATM   12  C18 UNL     1     -21.643 -36.837 -24.635  1.00  0.00     0.010 C 
ENDBRANCH  10  11
ENDBRANCH   2  10
BRANCH   1  13
HETATM   13  C5  UNL     1     -20.544 -40.524 -22.448  1.00  0.00     0.046 C 
BRANCH  13  14
HETATM   14  C4  UNL     1     -22.004 -40.658 -22.893  1.00  0.00     0.017 C 
BRANCH  14  15
HETATM   15  C3  UNL     1     -22.869 -39.525 -22.412  1.00  0.00     0.027 C 
BRANCH  15  16
HETATM   16  C2  UNL     1     -23.877 -40.115 -21.494  1.00  0.00    -0.037 C 
HETATM   17  C1  UNL     1     -24.134 -41.406 -21.574  1.00  0.00     0.007 C 
ENDBRANCH  15  16
ENDBRANCH  14  15
ENDBRANCH  13  14
BRANCH  13  18
HETATM   18  C6  UNL     1     -20.381 -41.447 -21.324  1.00  0.00    -0.027 C 
HETATM   19  C7  UNL     1     -20.618 -42.763 -21.412  1.00  0.00     0.007 C 
ENDBRANCH  13  18
ENDBRANCH   1  13
TORSDOF 11
ENDMDL
MODEL 5
REMARK VINA RESULT: -6.605107999      1.405      3.055
REMARK  11 active torsions:
REMARK  status: ('A' for Active; 'I' for Inactive)
REMARK    1  A    between atoms: C2_2  and  C3_3 
REMARK    2  A    between atoms: C3_3  and  C4_4 
REMARK    3  A    between atoms: C4_4  and  C5_5 
REMARK    4  A    between atoms: C5_5  and  C6_6 
REMARK    5  A    between atoms: C5_5  and  C8_8 
REMARK    6  A    between atoms: N1_9  and  C9_10 
REMARK    7  A    between atoms: N1_9  and  C16_17 
REMARK    8  A    between atoms: C9_10  and  C10_11 
REMARK    9  A    between atoms: C11_12  and  C12_13 
REMARK   10  A    between atoms: C12_13  and  C13_14 
REMARK   11  A    between atoms: C16_17  and  C17_18 
ROOT
HETATM    1  C8  UNL     1     -19.806 -41.829 -22.585  1.00  0.00     0.072 C 
HETATM    2  N1  UNL     1     -19.834 -41.129 -23.758  1.00  0.00    -0.362 N 
ENDROOT
BRANCH   2   3
HETATM    3  C9  UNL     1     -19.109 -39.868 -23.752  1.00  0.00     0.220 C 
BRANCH   3   4
HETATM    4  C10 UNL     1     -17.687 -40.216 -23.823  1.00  0.00    -0.086 C 
HETATM    5  C11 UNL     1     -16.510 -40.485 -23.869  1.00  0.00    -0.104 C 
BRANCH   5   6
HETATM    6  C12 UNL     1     -15.078 -40.801 -23.900  1.00  0.00     0.098 C 
BRANCH   6   7
HETATM    7  C13 UNL     1     -14.436 -40.254 -22.643  1.00  0.00    -0.003 A 
HETATM    8  C14 UNL     1     -12.964 -39.954 -22.768  1.00  0.00     0.006 A 
HETATM    9  C15 UNL     1     -13.973 -38.833 -22.678  1.00  0.00     0.006 A 
ENDBRANCH   6   7
ENDBRANCH   5   6
ENDBRANCH   3   4
ENDBRANCH   2   3
BRANCH   2  10
HETATM   10  C16 UNL     1     -20.299 -41.524 -24.997  1.00  0.00     0.064 C 
BRANCH  10  11
HETATM   11  C17 UNL     1     -21.734 -41.308 -25.350  1.00  0.00     0.040 C 
HETATM   12  C18 UNL     1     -22.341 -42.704 -25.561  1.00  0.00     0.010 C 
ENDBRANCH  10  11
ENDBRANCH   2  10
BRANCH   1  13
HETATM   13  C5  UNL     1     -20.507 -43.124 -22.395  1.00  0.00     0.046 C 
BRANCH  13  14
HETATM   14  C4  UNL     1     -19.542 -44.223 -21.937  1.00  0.00     0.017 C 
BRANCH  14  15
HETATM   15  C3  UNL     1     -18.796 -44.859 -23.079  1.00  0.00     0.027 C 
BRANCH  15  16
HETATM   16  C2  UNL     1     -19.800 -45.161 -24.131  1.00  0.00    -0.037 C 
HETATM   17  C1  UNL     1     -19.428 -45.123 -25.396  1.00  0.00     0.007 C 
ENDBRANCH  15  16
ENDBRANCH  14  15
ENDBRANCH  13  14
BRANCH  13  18
HETATM   18  C6  UNL     1     -21.629 -43.160 -21.456  1.00  0.00    -0.027 C 
HETATM   19  C7  UNL     1     -22.912 -43.156 -21.843  1.00  0.00     0.007 C 
ENDBRANCH  13  18
ENDBRANCH   1  13
TORSDOF 11
ENDMDL
