MODEL 1
REMARK VINA RESULT: -6.370774583      0.000      0.000
REMARK  11 active torsions:
REMARK  status: ('A' for Active; 'I' for Inactive)
REMARK    1  A    between atoms: C2_2  and  C3_3 
REMARK    2  A    between atoms: C3_3  and  C4_4 
REMARK    3  A    between atoms: C4_4  and  C5_5 
REMARK    4  A    between atoms: N1_9  and  C9_10 
REMARK    5  A    between atoms: C9_10  and  C10_11 
REMARK    6  A    between atoms: C10_11  and  C11_12 
REMARK    7  A    between atoms: C11_12  and  C12_13 
REMARK    8  A    between atoms: C12_13  and  C13_14 
REMARK    9  A    between atoms: C13_14  and  C14_15 
REMARK   10  A    between atoms: C14_15  and  C15_16 
REMARK   11  A    between atoms: C15_16  and  C16_17 
ROOT
HETATM    1  C5  UNL     1     -16.397 -39.517 -24.379  1.00  0.00     0.089 C 
HETATM    2  C6  UNL     1     -16.127 -40.911 -24.846  1.00  0.00     0.031 C 
HETATM    3  C7  UNL     1     -17.250 -41.635 -24.092  1.00  0.00     0.046 C 
HETATM    4  C8  UNL     1     -18.339 -40.604 -24.328  1.00  0.00     0.064 C 
HETATM    5  N1  UNL     1     -17.869 -39.450 -24.482  1.00  0.00    -0.365 N 
ENDROOT
BRANCH   5   6
HETATM    6  C9  UNL     1     -18.483 -38.211 -24.804  1.00  0.00     0.090 C 
BRANCH   6   7
HETATM    7  C10 UNL     1     -19.911 -38.123 -24.871  1.00  0.00     0.013 C 
BRANCH   7   8
HETATM    8  C11 UNL     1     -20.734 -37.266 -24.379  1.00  0.00    -0.025 C 
BRANCH   8   9
HETATM    9  C12 UNL     1     -22.056 -37.659 -23.753  1.00  0.00     0.027 C 
BRANCH   9  10
HETATM   10  C13 UNL     1     -22.110 -39.185 -23.744  1.00  0.00     0.004 C 
BRANCH  10  11
HETATM   11  C14 UNL     1     -22.688 -39.691 -22.467  1.00  0.00     0.000 C 
BRANCH  11  12
HETATM   12  C15 UNL     1     -21.831 -39.875 -21.296  1.00  0.00    -0.000 C 
BRANCH  12  13
HETATM   13  C16 UNL     1     -20.548 -40.582 -21.398  1.00  0.00    -0.005 C 
HETATM   14  C17 UNL     1     -20.643 -42.047 -21.599  1.00  0.00     0.005 C 
ENDBRANCH  12  13
ENDBRANCH  11  12
ENDBRANCH  10  11
ENDBRANCH   9  10
ENDBRANCH   8   9
ENDBRANCH   7   8
ENDBRANCH   6   7
ENDBRANCH   5   6
BRANCH   1  15
HETATM   15  C4  UNL     1     -15.972 -39.327 -22.968  1.00  0.00     0.029 C 
BRANCH  15  16
HETATM   16  C3  UNL     1     -14.622 -38.675 -22.914  1.00  0.00     0.028 C 
BRANCH  16  17
HETATM   17  C2  UNL     1     -13.567 -39.676 -22.499  1.00  0.00    -0.037 C 
HETATM   18  C1  UNL     1     -12.772 -40.154 -23.426  1.00  0.00     0.007 C 
ENDBRANCH  16  17
ENDBRANCH  15  16
ENDBRANCH   1  15
TORSDOF 11
ENDMDL
MODEL 2
REMARK VINA RESULT: -6.363753448      2.045      6.404
REMARK  11 active torsions:
REMARK  status: ('A' for Active; 'I' for Inactive)
REMARK    1  A    between atoms: C2_2  and  C3_3 
REMARK    2  A    between atoms: C3_3  and  C4_4 
REMARK    3  A    between atoms: C4_4  and  C5_5 
REMARK    4  A    between atoms: N1_9  and  C9_10 
REMARK    5  A    between atoms: C9_10  and  C10_11 
REMARK    6  A    between atoms: C10_11  and  C11_12 
REMARK    7  A    between atoms: C11_12  and  C12_13 
REMARK    8  A    between atoms: C12_13  and  C13_14 
REMARK    9  A    between atoms: C13_14  and  C14_15 
REMARK   10  A    between atoms: C14_15  and  C15_16 
REMARK   11  A    between atoms: C15_16  and  C16_17 
ROOT
HETATM    1  C5  UNL     1     -21.955 -42.349 -22.533  1.00  0.00     0.089 C 
HETATM    2  C6  UNL     1     -23.344 -42.594 -23.026  1.00  0.00     0.031 C 
HETATM    3  C7  UNL     1     -24.108 -41.717 -22.025  1.00  0.00     0.046 C 
HETATM    4  C8  UNL     1     -23.149 -40.540 -22.027  1.00  0.00     0.064 C 
HETATM    5  N1  UNL     1     -21.976 -40.890 -22.302  1.00  0.00    -0.365 N 
ENDROOT
BRANCH   5   6
HETATM    6  C9  UNL     1     -20.784 -40.143 -22.499  1.00  0.00     0.090 C 
BRANCH   6   7
HETATM    7  C10 UNL     1     -19.832 -40.571 -23.479  1.00  0.00     0.013 C 
BRANCH   7   8
HETATM    8  C11 UNL     1     -18.547 -40.538 -23.488  1.00  0.00    -0.025 C 
BRANCH   8   9
HETATM    9  C12 UNL     1     -17.699 -41.610 -24.141  1.00  0.00     0.027 C 
BRANCH   9  10
HETATM   10  C13 UNL     1     -16.260 -41.101 -24.144  1.00  0.00     0.004 C 
BRANCH  10  11
HETATM   11  C14 UNL     1     -16.210 -39.638 -23.862  1.00  0.00     0.000 C 
BRANCH  11  12
HETATM   12  C15 UNL     1     -15.450 -39.138 -22.716  1.00  0.00    -0.000 C 
BRANCH  12  13
HETATM   13  C16 UNL     1     -14.020 -38.825 -22.832  1.00  0.00    -0.005 C 
HETATM   14  C17 UNL     1     -13.100 -39.971 -22.641  1.00  0.00     0.005 C 
ENDBRANCH  12  13
ENDBRANCH  11  12
ENDBRANCH  10  11
ENDBRANCH   9  10
ENDBRANCH   8   9
ENDBRANCH   7   8
ENDBRANCH   6   7
ENDBRANCH   5   6
BRANCH   1  15
HETATM   15  C4  UNL     1     -21.697 -43.067 -21.258  1.00  0.00     0.029 C 
BRANCH  15  16
HETATM   16  C3  UNL     1     -20.251 -43.454 -21.160  1.00  0.00     0.028 C 
BRANCH  16  17
HETATM   17  C2  UNL     1     -19.807 -44.161 -22.420  1.00  0.00    -0.037 C 
HETATM   18  C1  UNL     1     -18.734 -44.913 -22.360  1.00  0.00     0.007 C 
ENDBRANCH  16  17
ENDBRANCH  15  16
ENDBRANCH   1  15
TORSDOF 11
ENDMDL
MODEL 3
REMARK VINA RESULT: -6.343243534      1.926      6.322
REMARK  11 active torsions:
REMARK  status: ('A' for Active; 'I' for Inactive)
REMARK    1  A    between atoms: C2_2  and  C3_3 
REMARK    2  A    between atoms: C3_3  and  C4_4 
REMARK    3  A    between atoms: C4_4  and  C5_5 
REMARK    4  A    between atoms: N1_9  and  C9_10 
REMARK    5  A    between atoms: C9_10  and  C10_11 
REMARK    6  A    between atoms: C10_11  and  C11_12 
REMARK    7  A    between atoms: C11_12  and  C12_13 
REMARK    8  A    between atoms: C12_13  and  C13_14 
REMARK    9  A    between atoms: C13_14  and  C14_15 
REMARK   10  A    between atoms: C14_15  and  C15_16 
REMARK   11  A    between atoms: C15_16  and  C16_17 
ROOT
HETATM    1  C5  UNL     1     -21.884 -42.132 -22.363  1.00  0.00     0.089 C 
HETATM    2  C6  UNL     1     -23.273 -41.909 -21.860  1.00  0.00     0.031 C 
HETATM    3  C7  UNL     1     -23.185 -40.403 -21.581  1.00  0.00     0.046 C 
HETATM    4  C8  UNL     1     -22.408 -40.019 -22.828  1.00  0.00     0.064 C 
HETATM    5  N1  UNL     1     -21.699 -40.964 -23.250  1.00  0.00    -0.365 N 
ENDROOT
BRANCH   5   6
HETATM    6  C9  UNL     1     -20.885 -41.098 -24.405  1.00  0.00     0.090 C 
BRANCH   6   7
HETATM    7  C10 UNL     1     -19.475 -40.858 -24.312  1.00  0.00     0.013 C 
BRANCH   7   8
HETATM    8  C11 UNL     1     -18.776 -40.227 -23.438  1.00  0.00    -0.025 C 
BRANCH   8   9
HETATM    9  C12 UNL     1     -17.328 -39.844 -23.661  1.00  0.00     0.027 C 
BRANCH   9  10
HETATM   10  C13 UNL     1     -16.624 -41.073 -24.231  1.00  0.00     0.004 C 
BRANCH  10  11
HETATM   11  C14 UNL     1     -15.143 -40.919 -24.167  1.00  0.00     0.000 C 
BRANCH  11  12
HETATM   12  C15 UNL     1     -14.460 -40.938 -22.873  1.00  0.00    -0.000 C 
BRANCH  12  13
HETATM   13  C16 UNL     1     -13.655 -39.794 -22.424  1.00  0.00    -0.005 C 
HETATM   14  C17 UNL     1     -13.907 -38.520 -23.136  1.00  0.00     0.005 C 
ENDBRANCH  12  13
ENDBRANCH  11  12
ENDBRANCH  10  11
ENDBRANCH   9  10
ENDBRANCH   8   9
ENDBRANCH   7   8
ENDBRANCH   6   7
ENDBRANCH   5   6
BRANCH   1  15
HETATM   15  C4  UNL     1     -20.894 -42.096 -21.254  1.00  0.00     0.029 C 
BRANCH  15  16
HETATM   16  C3  UNL     1     -20.328 -43.465 -21.018  1.00  0.00     0.028 C 
BRANCH  16  17
HETATM   17  C2  UNL     1     -19.732 -44.019 -22.291  1.00  0.00    -0.037 C 
HETATM   18  C1  UNL     1     -18.788 -44.923 -22.188  1.00  0.00     0.007 C 
ENDBRANCH  16  17
ENDBRANCH  15  16
ENDBRANCH   1  15
TORSDOF 11
ENDMDL
MODEL 4
REMARK VINA RESULT: -6.326164338      1.394      6.441
REMARK  11 active torsions:
REMARK  status: ('A' for Active; 'I' for Inactive)
REMARK    1  A    between atoms: C2_2  and  C3_3 
REMARK    2  A    between atoms: C3_3  and  C4_4 
REMARK    3  A    between atoms: C4_4  and  C5_5 
REMARK    4  A    between atoms: N1_9  and  C9_10 
REMARK    5  A    between atoms: C9_10  and  C10_11 
REMARK    6  A    between atoms: C10_11  and  C11_12 
REMARK    7  A    between atoms: C11_12  and  C12_13 
REMARK    8  A    between atoms: C12_13  and  C13_14 
REMARK    9  A    between atoms: C13_14  and  C14_15 
REMARK   10  A    between atoms: C14_15  and  C15_16 
REMARK   11  A    between atoms: C15_16  and  C16_17 
ROOT
HETATM    1  C5  UNL     1     -20.624 -39.022 -25.623  1.00  0.00     0.089 C 
HETATM    2  C6  UNL     1     -21.002 -38.517 -26.978  1.00  0.00     0.031 C 
HETATM    3  C7  UNL     1     -20.890 -37.011 -26.708  1.00  0.00     0.046 C 
HETATM    4  C8  UNL     1     -19.615 -37.056 -25.884  1.00  0.00     0.064 C 
HETATM    5  N1  UNL     1     -19.476 -38.153 -25.292  1.00  0.00    -0.365 N 
ENDROOT
BRANCH   5   6
HETATM    6  C9  UNL     1     -18.424 -38.675 -24.494  1.00  0.00     0.090 C 
BRANCH   6   7
HETATM    7  C10 UNL     1     -17.841 -39.940 -24.827  1.00  0.00     0.013 C 
BRANCH   7   8
HETATM    8  C11 UNL     1     -16.647 -40.392 -24.679  1.00  0.00    -0.025 C 
BRANCH   8   9
HETATM    9  C12 UNL     1     -16.344 -41.856 -24.434  1.00  0.00     0.027 C 
BRANCH   9  10
HETATM   10  C13 UNL     1     -15.139 -41.911 -23.498  1.00  0.00     0.004 C 
BRANCH  10  11
HETATM   11  C14 UNL     1     -13.899 -41.471 -24.196  1.00  0.00     0.000 C 
BRANCH  11  12
HETATM   12  C15 UNL     1     -13.012 -40.491 -23.568  1.00  0.00    -0.000 C 
BRANCH  12  13
HETATM   13  C16 UNL     1     -13.471 -39.666 -22.442  1.00  0.00    -0.005 C 
HETATM   14  C17 UNL     1     -14.142 -38.398 -22.815  1.00  0.00     0.005 C 
ENDBRANCH  12  13
ENDBRANCH  11  12
ENDBRANCH  10  11
ENDBRANCH   9  10
ENDBRANCH   8   9
ENDBRANCH   7   8
ENDBRANCH   6   7
ENDBRANCH   5   6
BRANCH   1  15
HETATM   15  C4  UNL     1     -21.722 -38.817 -24.643  1.00  0.00     0.029 C 
BRANCH  15  16
HETATM   16  C3  UNL     1     -21.921 -40.054 -23.817  1.00  0.00     0.028 C 
BRANCH  16  17
HETATM   17  C2  UNL     1     -21.326 -39.870 -22.439  1.00  0.00    -0.037 C 
HETATM   18  C1  UNL     1     -20.415 -40.726 -22.042  1.00  0.00     0.007 C 
ENDBRANCH  16  17
ENDBRANCH  15  16
ENDBRANCH   1  15
TORSDOF 11
ENDMDL
MODEL 5
REMARK VINA RESULT: -6.306462718      3.850      5.833
REMARK  11 active torsions:
REMARK  status: ('A' for Active; 'I' for Inactive)
REMARK    1  A    between atoms: C2_2  and  C3_3 
REMARK    2  A    between atoms: C3_3  and  C4_4 
REMARK    3  A    between atoms: C4_4  and  C5_5 
REMARK    4  A    between atoms: N1_9  and  C9_10 
REMARK    5  A    between atoms: C9_10  and  C10_11 
REMARK    6  A    between atoms: C10_11  and  C11_12 
REMARK    7  A    between atoms: C11_12  and  C12_13 
REMARK    8  A    between atoms: C12_13  and  C13_14 
REMARK    9  A    between atoms: C13_14  and  C14_15 
REMARK   10  A    between atoms: C14_15  and  C15_16 
REMARK   11  A    between atoms: C15_16  and  C16_17 
ROOT
HETATM    1  C5  UNL     1     -20.962 -39.489 -23.943  1.00  0.00     0.089 C 
HETATM    2  C6  UNL     1     -20.404 -38.243 -24.550  1.00  0.00     0.031 C 
HETATM    3  C7  UNL     1     -21.695 -37.416 -24.621  1.00  0.00     0.046 C 
HETATM    4  C8  UNL     1     -22.250 -37.807 -23.262  1.00  0.00     0.064 C 
HETATM    5  N1  UNL     1     -21.849 -38.939 -22.898  1.00  0.00    -0.365 N 
ENDROOT
BRANCH   5   6
HETATM    6  C9  UNL     1     -22.031 -39.668 -21.693  1.00  0.00     0.090 C 
BRANCH   6   7
HETATM    7  C10 UNL     1     -23.304 -40.259 -21.408  1.00  0.00     0.013 C 
BRANCH   7   8
HETATM    8  C11 UNL     1     -23.759 -41.442 -21.620  1.00  0.00    -0.025 C 
BRANCH   8   9
HETATM    9  C12 UNL     1     -22.941 -42.534 -22.279  1.00  0.00     0.027 C 
BRANCH   9  10
HETATM   10  C13 UNL     1     -22.300 -43.349 -21.159  1.00  0.00     0.004 C 
BRANCH  10  11
HETATM   11  C14 UNL     1     -20.827 -43.130 -21.115  1.00  0.00     0.000 C 
BRANCH  11  12
HETATM   12  C15 UNL     1     -20.039 -43.192 -22.347  1.00  0.00    -0.000 C 
BRANCH  12  13
HETATM   13  C16 UNL     1     -19.661 -44.481 -22.941  1.00  0.00    -0.005 C 
HETATM   14  C17 UNL     1     -18.537 -45.182 -22.276  1.00  0.00     0.005 C 
ENDBRANCH  12  13
ENDBRANCH  11  12
ENDBRANCH  10  11
ENDBRANCH   9  10
ENDBRANCH   8   9
ENDBRANCH   7   8
ENDBRANCH   6   7
ENDBRANCH   5   6
BRANCH   1  15
HETATM   15  C4  UNL     1     -21.753 -40.267 -24.931  1.00  0.00     0.029 C 
BRANCH  15  16
HETATM   16  C3  UNL     1     -20.945 -41.415 -25.459  1.00  0.00     0.028 C 
BRANCH  16  17
HETATM   17  C2  UNL     1     -21.840 -42.592 -25.772  1.00  0.00    -0.037 C 
HETATM   18  C1  UNL     1     -21.779 -43.112 -26.975  1.00  0.00     0.007 C 
ENDBRANCH  16  17
ENDBRANCH  15  16
ENDBRANCH   1  15
TORSDOF 11
ENDMDL
