MODEL 1
REMARK VINA RESULT: -7.963281037      0.000      0.000
REMARK  6 active torsions:
REMARK  status: ('A' for Active; 'I' for Inactive)
REMARK    1  A    between atoms: C2_2  and  C3_3 
REMARK    2  A    between atoms: C3_3  and  C4_4 
REMARK    3  A    between atoms: C4_4  and  C5_5 
REMARK    4  A    between atoms: C5_5  and  C6_6 
REMARK    5  A    between atoms: C16_17  and  C17_18 
REMARK    6  A    between atoms: C19_21  and  O3_22 
ROOT
HETATM    1  C6  UNL     1      -6.308  -3.161   9.463  1.00  0.00    -0.004 C 
HETATM    2  C7  UNL     1      -7.179  -2.632   8.347  1.00  0.00     0.022 C 
HETATM    3  C8  UNL     1      -8.339  -1.973   9.070  1.00  0.00     0.021 C 
HETATM    4  C9  UNL     1      -9.585  -1.915   8.243  1.00  0.00     0.024 C 
HETATM    5  C10 UNL     1      -7.861  -0.624   9.482  1.00  0.00     0.135 C 
HETATM    6  O1  UNL     1      -7.902   0.320   8.684  1.00  0.00    -0.297 OA
HETATM    7  C11 UNL     1      -7.342  -0.427  10.840  1.00  0.00     0.080 C 
HETATM    8  C12 UNL     1      -6.665  -1.646  11.430  1.00  0.00     0.018 C 
HETATM    9  C13 UNL     1      -7.012  -2.914  10.746  1.00  0.00    -0.024 C 
HETATM   10  C14 UNL     1      -8.487  -2.788  10.326  1.00  0.00     0.011 C 
HETATM   11  C15 UNL     1      -8.949  -4.188  10.074  1.00  0.00     0.016 C 
HETATM   12  C16 UNL     1      -8.087  -5.024  10.971  1.00  0.00     0.029 C 
HETATM   13  C21 UNL     1      -7.071  -4.131  11.623  1.00  0.00    -0.032 C 
HETATM   14  C22 UNL     1      -7.365  -3.808  13.067  1.00  0.00     0.016 C 
HETATM   15  C23 UNL     1      -5.722  -4.869  11.669  1.00  0.00     0.016 C 
ENDROOT
BRANCH  12  16
HETATM   16  C17 UNL     1      -8.853  -5.869  11.904  1.00  0.00    -0.026 A 
HETATM   17  C18 UNL     1      -9.741  -5.457  12.854  1.00  0.00     0.152 A 
HETATM   18  O2  UNL     1     -10.193  -6.512  13.463  1.00  0.00    -0.300 OA
HETATM   19  C19 UNL     1      -9.664  -7.610  12.982  1.00  0.00     0.183 A 
HETATM   20  C20 UNL     1      -8.796  -7.246  11.977  1.00  0.00     0.073 A 
BRANCH  19  21
HETATM   21  O3  UNL     1      -9.965  -8.881  13.443  1.00  0.00    -0.341 OA
ATOM     22  H3  UNL     1      -9.632  -9.243  14.255  1.00  0.00     0.220 HD
ENDBRANCH  19  21
ENDBRANCH  12  16
BRANCH   1  23
HETATM   23  C5  UNL     1      -4.940  -2.567   9.363  1.00  0.00     0.006 C 
BRANCH  23  24
HETATM   24  C4  UNL     1      -3.892  -3.658   9.326  1.00  0.00     0.004 C 
BRANCH  24  25
HETATM   25  C3  UNL     1      -4.104  -4.447   8.040  1.00  0.00     0.026 C 
BRANCH  25  26
HETATM   26  C2  UNL     1      -3.486  -5.801   8.149  1.00  0.00    -0.037 C 
HETATM   27  C1  UNL     1      -3.419  -6.445   9.306  1.00  0.00     0.007 C 
ENDBRANCH  25  26
ENDBRANCH  24  25
ENDBRANCH  23  24
ENDBRANCH   1  23
TORSDOF 6
ENDMDL
MODEL 2
REMARK VINA RESULT: -7.921293528      2.830      5.868
REMARK  6 active torsions:
REMARK  status: ('A' for Active; 'I' for Inactive)
REMARK    1  A    between atoms: C2_2  and  C3_3 
REMARK    2  A    between atoms: C3_3  and  C4_4 
REMARK    3  A    between atoms: C4_4  and  C5_5 
REMARK    4  A    between atoms: C5_5  and  C6_6 
REMARK    5  A    between atoms: C16_17  and  C17_18 
REMARK    6  A    between atoms: C19_21  and  O3_22 
ROOT
HETATM    1  C6  UNL     1      -5.330  -3.244   8.824  1.00  0.00    -0.004 C 
HETATM    2  C7  UNL     1      -4.098  -2.800   9.580  1.00  0.00     0.022 C 
HETATM    3  C8  UNL     1      -4.652  -2.193  10.856  1.00  0.00     0.021 C 
HETATM    4  C9  UNL     1      -3.736  -1.179  11.466  1.00  0.00     0.024 C 
HETATM    5  C10 UNL     1      -4.934  -3.335  11.771  1.00  0.00     0.135 C 
HETATM    6  O1  UNL     1      -4.029  -3.814  12.464  1.00  0.00    -0.297 OA
HETATM    7  C11 UNL     1      -6.293  -3.883  11.842  1.00  0.00     0.080 C 
HETATM    8  C12 UNL     1      -7.072  -3.784  10.547  1.00  0.00     0.018 C 
HETATM    9  C13 UNL     1      -6.520  -2.796   9.589  1.00  0.00    -0.024 C 
HETATM   10  C14 UNL     1      -5.982  -1.629  10.437  1.00  0.00     0.011 C 
HETATM   11  C15 UNL     1      -5.865  -0.474   9.493  1.00  0.00     0.016 C 
HETATM   12  C16 UNL     1      -6.915  -0.741   8.458  1.00  0.00     0.029 C 
HETATM   13  C21 UNL     1      -7.529  -2.083   8.737  1.00  0.00    -0.032 C 
HETATM   14  C22 UNL     1      -8.899  -2.020   9.365  1.00  0.00     0.016 C 
HETATM   15  C23 UNL     1      -7.761  -2.807   7.399  1.00  0.00     0.016 C 
ENDROOT
BRANCH  12  16
HETATM   16  C17 UNL     1      -7.884   0.358   8.304  1.00  0.00    -0.026 A 
HETATM   17  C18 UNL     1      -8.957   0.403   7.462  1.00  0.00     0.152 A 
HETATM   18  O2  UNL     1      -9.551   1.546   7.631  1.00  0.00    -0.300 OA
HETATM   19  C19 UNL     1      -8.945   2.274   8.537  1.00  0.00     0.183 A 
HETATM   20  C20 UNL     1      -7.867   1.551   8.998  1.00  0.00     0.073 A 
BRANCH  19  21
HETATM   21  O3  UNL     1      -9.363   3.538   8.920  1.00  0.00    -0.341 OA
ATOM     22  H3  UNL     1      -9.992   3.702   9.612  1.00  0.00     0.220 HD
ENDBRANCH  19  21
ENDBRANCH  12  16
BRANCH   1  23
HETATM   23  C5  UNL     1      -5.260  -4.713   8.559  1.00  0.00     0.006 C 
BRANCH  23  24
HETATM   24  C4  UNL     1      -3.985  -5.056   7.819  1.00  0.00     0.004 C 
BRANCH  24  25
HETATM   25  C3  UNL     1      -3.286  -6.157   8.605  1.00  0.00     0.026 C 
BRANCH  25  26
HETATM   26  C2  UNL     1      -4.042  -6.467   9.855  1.00  0.00    -0.037 C 
HETATM   27  C1  UNL     1      -3.435  -6.936  10.937  1.00  0.00     0.007 C 
ENDBRANCH  25  26
ENDBRANCH  24  25
ENDBRANCH  23  24
ENDBRANCH   1  23
TORSDOF 6
ENDMDL
MODEL 3
REMARK VINA RESULT: -7.869787203      2.198      6.180
REMARK  6 active torsions:
REMARK  status: ('A' for Active; 'I' for Inactive)
REMARK    1  A    between atoms: C2_2  and  C3_3 
REMARK    2  A    between atoms: C3_3  and  C4_4 
REMARK    3  A    between atoms: C4_4  and  C5_5 
REMARK    4  A    between atoms: C5_5  and  C6_6 
REMARK    5  A    between atoms: C16_17  and  C17_18 
REMARK    6  A    between atoms: C19_21  and  O3_22 
ROOT
HETATM    1  C6  UNL     1      -6.893  -3.141   9.945  1.00  0.00    -0.004 C 
HETATM    2  C7  UNL     1      -6.315  -2.946  11.328  1.00  0.00     0.022 C 
HETATM    3  C8  UNL     1      -7.375  -2.139  12.056  1.00  0.00     0.021 C 
HETATM    4  C9  UNL     1      -6.819  -1.327  13.183  1.00  0.00     0.024 C 
HETATM    5  C10 UNL     1      -8.405  -3.116  12.506  1.00  0.00     0.135 C 
HETATM    6  O1  UNL     1      -8.247  -3.744  13.560  1.00  0.00    -0.297 OA
HETATM    7  C11 UNL     1      -9.606  -3.324  11.690  1.00  0.00     0.080 C 
HETATM    8  C12 UNL     1      -9.388  -3.136  10.203  1.00  0.00     0.018 C 
HETATM    9  C13 UNL     1      -8.161  -2.374   9.869  1.00  0.00    -0.024 C 
HETATM   10  C14 UNL     1      -8.003  -1.310  10.969  1.00  0.00     0.011 C 
HETATM   11  C15 UNL     1      -7.078  -0.283  10.397  1.00  0.00     0.016 C 
HETATM   12  C16 UNL     1      -7.307  -0.368   8.918  1.00  0.00     0.029 C 
HETATM   13  C21 UNL     1      -8.248  -1.507   8.647  1.00  0.00    -0.032 C 
HETATM   14  C22 UNL     1      -9.658  -1.081   8.319  1.00  0.00     0.016 C 
HETATM   15  C23 UNL     1      -7.775  -2.248   7.385  1.00  0.00     0.016 C 
ENDROOT
BRANCH  12  16
HETATM   16  C17 UNL     1      -7.701   0.914   8.308  1.00  0.00    -0.026 A 
HETATM   17  C18 UNL     1      -7.933   1.163   6.987  1.00  0.00     0.152 A 
HETATM   18  O2  UNL     1      -8.252   2.417   6.866  1.00  0.00    -0.300 OA
HETATM   19  C19 UNL     1      -8.251   3.027   8.026  1.00  0.00     0.183 A 
HETATM   20  C20 UNL     1      -7.902   2.100   8.982  1.00  0.00     0.073 A 
BRANCH  19  21
HETATM   21  O3  UNL     1      -8.555   4.368   8.195  1.00  0.00    -0.341 OA
ATOM     22  H3  UNL     1      -9.320   4.684   8.660  1.00  0.00     0.220 HD
ENDBRANCH  19  21
ENDBRANCH  12  16
BRANCH   1  23
HETATM   23  C5  UNL     1      -7.012  -4.600   9.647  1.00  0.00     0.006 C 
BRANCH  23  24
HETATM   24  C4  UNL     1      -5.641  -5.215   9.463  1.00  0.00     0.004 C 
BRANCH  24  25
HETATM   25  C3  UNL     1      -4.998  -4.537   8.261  1.00  0.00     0.026 C 
BRANCH  25  26
HETATM   26  C2  UNL     1      -3.710  -5.206   7.910  1.00  0.00    -0.037 C 
HETATM   27  C1  UNL     1      -3.197  -6.168   8.666  1.00  0.00     0.007 C 
ENDBRANCH  25  26
ENDBRANCH  24  25
ENDBRANCH  23  24
ENDBRANCH   1  23
TORSDOF 6
ENDMDL
MODEL 4
REMARK VINA RESULT: -7.832722839      2.731      6.662
REMARK  6 active torsions:
REMARK  status: ('A' for Active; 'I' for Inactive)
REMARK    1  A    between atoms: C2_2  and  C3_3 
REMARK    2  A    between atoms: C3_3  and  C4_4 
REMARK    3  A    between atoms: C4_4  and  C5_5 
REMARK    4  A    between atoms: C5_5  and  C6_6 
REMARK    5  A    between atoms: C16_17  and  C17_18 
REMARK    6  A    between atoms: C19_21  and  O3_22 
ROOT
HETATM    1  C6  UNL     1      -5.568  -1.691  10.376  1.00  0.00    -0.004 C 
HETATM    2  C7  UNL     1      -6.353  -2.322  11.503  1.00  0.00     0.022 C 
HETATM    3  C8  UNL     1      -7.796  -1.978  11.181  1.00  0.00     0.021 C 
HETATM    4  C9  UNL     1      -8.675  -1.953  12.391  1.00  0.00     0.024 C 
HETATM    5  C10 UNL     1      -8.244  -2.973  10.167  1.00  0.00     0.135 C 
HETATM    6  O1  UNL     1      -8.654  -4.084  10.525  1.00  0.00    -0.297 OA
HETATM    7  C11 UNL     1      -8.196  -2.622   8.743  1.00  0.00     0.080 C 
HETATM    8  C12 UNL     1      -7.080  -1.667   8.375  1.00  0.00     0.018 C 
HETATM    9  C13 UNL     1      -6.519  -0.927   9.531  1.00  0.00    -0.024 C 
HETATM   10  C14 UNL     1      -7.699  -0.651  10.479  1.00  0.00     0.011 C 
HETATM   11  C15 UNL     1      -7.239   0.459  11.371  1.00  0.00     0.016 C 
HETATM   12  C16 UNL     1      -6.248   1.212  10.536  1.00  0.00     0.029 C 
HETATM   13  C21 UNL     1      -6.053   0.471   9.245  1.00  0.00    -0.032 C 
HETATM   14  C22 UNL     1      -6.747   1.097   8.060  1.00  0.00     0.016 C 
HETATM   15  C23 UNL     1      -4.561   0.512   8.872  1.00  0.00     0.016 C 
ENDROOT
BRANCH  12  16
HETATM   16  C17 UNL     1      -6.570   2.641  10.383  1.00  0.00    -0.026 A 
HETATM   17  C18 UNL     1      -7.810   3.204  10.290  1.00  0.00     0.152 A 
HETATM   18  O2  UNL     1      -7.657   4.488  10.161  1.00  0.00    -0.300 OA
HETATM   19  C19 UNL     1      -6.391   4.825  10.163  1.00  0.00     0.183 A 
HETATM   20  C20 UNL     1      -5.654   3.670  10.303  1.00  0.00     0.073 A 
BRANCH  19  21
HETATM   21  O3  UNL     1      -5.937   6.128  10.042  1.00  0.00    -0.341 OA
ATOM     22  H3  UNL     1      -5.945   6.760  10.750  1.00  0.00     0.220 HD
ENDBRANCH  19  21
ENDBRANCH  12  16
BRANCH   1  23
HETATM   23  C5  UNL     1      -4.778  -2.738   9.660  1.00  0.00     0.006 C 
BRANCH  23  24
HETATM   24  C4  UNL     1      -4.858  -4.057  10.398  1.00  0.00     0.004 C 
BRANCH  24  25
HETATM   25  C3  UNL     1      -5.230  -5.126   9.379  1.00  0.00     0.026 C 
BRANCH  25  26
HETATM   26  C2  UNL     1      -4.522  -4.885   8.087  1.00  0.00    -0.037 C 
HETATM   27  C1  UNL     1      -3.411  -5.536   7.769  1.00  0.00     0.007 C 
ENDBRANCH  25  26
ENDBRANCH  24  25
ENDBRANCH  23  24
ENDBRANCH   1  23
TORSDOF 6
ENDMDL
MODEL 5
REMARK VINA RESULT: -7.678351493      1.448      2.185
REMARK  6 active torsions:
REMARK  status: ('A' for Active; 'I' for Inactive)
REMARK    1  A    between atoms: C2_2  and  C3_3 
REMARK    2  A    between atoms: C3_3  and  C4_4 
REMARK    3  A    between atoms: C4_4  and  C5_5 
REMARK    4  A    between atoms: C5_5  and  C6_6 
REMARK    5  A    between atoms: C16_17  and  C17_18 
REMARK    6  A    between atoms: C19_21  and  O3_22 
ROOT
HETATM    1  C6  UNL     1      -6.103  -4.471  11.088  1.00  0.00    -0.004 C 
HETATM    2  C7  UNL     1      -6.875  -3.848   9.948  1.00  0.00     0.022 C 
HETATM    3  C8  UNL     1      -8.208  -3.475  10.571  1.00  0.00     0.021 C 
HETATM    4  C9  UNL     1      -9.321  -3.410   9.573  1.00  0.00     0.024 C 
HETATM    5  C10 UNL     1      -7.991  -2.180  11.274  1.00  0.00     0.135 C 
HETATM    6  O1  UNL     1      -8.056  -1.115  10.649  1.00  0.00    -0.297 OA
HETATM    7  C11 UNL     1      -7.703  -2.181  12.713  1.00  0.00     0.080 C 
HETATM    8  C12 UNL     1      -6.947  -3.402  13.195  1.00  0.00     0.018 C 
HETATM    9  C13 UNL     1      -7.008  -4.552  12.261  1.00  0.00    -0.024 C 
HETATM   10  C14 UNL     1      -8.413  -4.522  11.632  1.00  0.00     0.011 C 
HETATM   11  C15 UNL     1      -8.628  -5.894  11.079  1.00  0.00     0.016 C 
HETATM   12  C16 UNL     1      -7.791  -6.777  11.953  1.00  0.00     0.029 C 
HETATM   13  C21 UNL     1      -7.015  -5.909  12.902  1.00  0.00    -0.032 C 
HETATM   14  C22 UNL     1      -7.552  -5.898  14.312  1.00  0.00     0.016 C 
HETATM   15  C23 UNL     1      -5.594  -6.481  13.045  1.00  0.00     0.016 C 
ENDROOT
BRANCH  12  16
HETATM   16  C17 UNL     1      -8.550  -7.864  12.594  1.00  0.00    -0.026 A 
HETATM   17  C18 UNL     1      -9.876  -7.870  12.915  1.00  0.00     0.152 A 
HETATM   18  O2  UNL     1     -10.149  -9.013  13.467  1.00  0.00    -0.300 OA
HETATM   19  C19 UNL     1      -9.089  -9.780  13.538  1.00  0.00     0.183 A 
HETATM   20  C20 UNL     1      -8.036  -9.082  12.988  1.00  0.00     0.073 A 
BRANCH  19  21
HETATM   21  O3  UNL     1      -9.090 -11.055  14.080  1.00  0.00    -0.341 OA
ATOM     22  H3  UNL     1      -8.939 -11.845  13.576  1.00  0.00     0.220 HD
ENDBRANCH  19  21
ENDBRANCH  12  16
BRANCH   1  23
HETATM   23  C5  UNL     1      -4.834  -3.714  11.314  1.00  0.00     0.006 C 
BRANCH  23  24
HETATM   24  C4  UNL     1      -3.885  -3.915  10.152  1.00  0.00     0.004 C 
BRANCH  24  25
HETATM   25  C3  UNL     1      -3.606  -5.408  10.048  1.00  0.00     0.026 C 
BRANCH  25  26
HETATM   26  C2  UNL     1      -3.557  -5.833   8.618  1.00  0.00    -0.037 C 
HETATM   27  C1  UNL     1      -3.809  -4.984   7.631  1.00  0.00     0.007 C 
ENDBRANCH  25  26
ENDBRANCH  24  25
ENDBRANCH  23  24
ENDBRANCH   1  23
TORSDOF 6
ENDMDL
