MODEL 1
REMARK VINA RESULT: -7.916841655      0.000      0.000
REMARK  6 active torsions:
REMARK  status: ('A' for Active; 'I' for Inactive)
REMARK    1  A    between atoms: C2_2  and  C3_3 
REMARK    2  A    between atoms: C3_3  and  C4_4 
REMARK    3  A    between atoms: C4_4  and  C5_5 
REMARK    4  A    between atoms: C5_5  and  O1_6 
REMARK    5  A    between atoms: O1_6  and  N1_7 
REMARK    6  A    between atoms: C17_20  and  O2_21 
ROOT
HETATM    1  N1  UNL     1      -5.982  -3.889  11.660  1.00  0.00    -0.275 N 
ATOM      2  H1  UNL     1      -5.694  -3.193  12.347  1.00  0.00     0.193 HD
HETATM    3  C6  UNL     1      -6.452  -3.471  10.494  1.00  0.00     0.014 C 
HETATM    4  C7  UNL     1      -6.813  -4.601   9.643  1.00  0.00     0.055 C 
HETATM    5  C8  UNL     1      -7.937  -4.414   8.698  1.00  0.00     0.010 C 
HETATM    6  C9  UNL     1      -8.938  -3.459   9.345  1.00  0.00     0.034 C 
HETATM    7  C10 UNL     1      -8.509  -2.039   9.102  1.00  0.00    -0.076 C 
HETATM    8  C11 UNL     1      -7.456  -1.385   9.554  1.00  0.00    -0.064 C 
HETATM    9  C12 UNL     1      -6.436  -2.012  10.461  1.00  0.00     0.089 C 
HETATM   10  C13 UNL     1      -7.117   0.037   9.245  1.00  0.00    -0.015 C 
HETATM   11  C14 UNL     1      -5.906  -0.011   8.341  1.00  0.00     0.020 C 
HETATM   12  C15 UNL     1      -6.763   0.826  10.463  1.00  0.00     0.016 C 
HETATM   13  C16 UNL     1      -7.274   2.232  10.444  1.00  0.00     0.033 C 
HETATM   14  C17 UNL     1      -7.340   2.858   9.093  1.00  0.00     0.126 C 
HETATM   15  C18 UNL     1      -8.200   2.054   8.147  1.00  0.00    -0.017 C 
HETATM   16  C19 UNL     1      -9.602   2.678   8.255  1.00  0.00     0.018 C 
HETATM   17  C20 UNL     1      -7.750   2.240   6.739  1.00  0.00     0.018 C 
HETATM   18  C21 UNL     1      -8.318   0.649   8.602  1.00  0.00     0.008 C 
HETATM   19  C22 UNL     1      -8.861  -0.263   7.492  1.00  0.00     0.011 C 
HETATM   20  C23 UNL     1      -9.513  -1.411   8.218  1.00  0.00     0.035 C 
ENDROOT
BRANCH   1  21
HETATM   21  O1  UNL     1      -5.867  -5.209  11.983  1.00  0.00    -0.281 OA
BRANCH  21  22
HETATM   22  C5  UNL     1      -4.597  -5.795  12.195  1.00  0.00     0.201 C 
BRANCH  22  23
HETATM   23  C4  UNL     1      -4.165  -6.629  11.009  1.00  0.00     0.029 C 
BRANCH  23  24
HETATM   24  C3  UNL     1      -3.290  -5.760  10.134  1.00  0.00     0.002 C 
BRANCH  24  25
HETATM   25  C2  UNL     1      -3.507  -6.113   8.676  1.00  0.00    -0.004 C 
HETATM   26  C1  UNL     1      -3.720  -4.841   7.903  1.00  0.00     0.005 C 
ENDBRANCH  24  25
ENDBRANCH  23  24
ENDBRANCH  22  23
ENDBRANCH  21  22
ENDBRANCH   1  21
BRANCH  14  27
HETATM   27  O2  UNL     1      -7.874   4.153   9.276  1.00  0.00    -0.395 OA
ATOM     28  H2  UNL     1      -7.344   4.741   8.751  1.00  0.00     0.210 HD
ENDBRANCH  14  27
TORSDOF 6
ENDMDL
MODEL 2
REMARK VINA RESULT: -7.899681921      2.406      3.102
REMARK  6 active torsions:
REMARK  status: ('A' for Active; 'I' for Inactive)
REMARK    1  A    between atoms: C2_2  and  C3_3 
REMARK    2  A    between atoms: C3_3  and  C4_4 
REMARK    3  A    between atoms: C4_4  and  C5_5 
REMARK    4  A    between atoms: C5_5  and  O1_6 
REMARK    5  A    between atoms: O1_6  and  N1_7 
REMARK    6  A    between atoms: C17_20  and  O2_21 
ROOT
HETATM    1  N1  UNL     1      -7.181  -4.253  12.660  1.00  0.00    -0.275 N 
ATOM      2  H1  UNL     1      -6.988  -3.547  13.370  1.00  0.00     0.193 HD
HETATM    3  C6  UNL     1      -7.236  -3.877  11.391  1.00  0.00     0.014 C 
HETATM    4  C7  UNL     1      -7.521  -5.015  10.522  1.00  0.00     0.055 C 
HETATM    5  C8  UNL     1      -8.294  -4.756   9.287  1.00  0.00     0.010 C 
HETATM    6  C9  UNL     1      -9.270  -3.618   9.576  1.00  0.00     0.034 C 
HETATM    7  C10 UNL     1      -8.571  -2.298   9.404  1.00  0.00    -0.076 C 
HETATM    8  C11 UNL     1      -7.595  -1.761  10.111  1.00  0.00    -0.064 C 
HETATM    9  C12 UNL     1      -6.980  -2.443  11.300  1.00  0.00     0.089 C 
HETATM   10  C13 UNL     1      -6.963  -0.432   9.851  1.00  0.00    -0.015 C 
HETATM   11  C14 UNL     1      -5.572  -0.728   9.336  1.00  0.00     0.020 C 
HETATM   12  C15 UNL     1      -6.840   0.403  11.083  1.00  0.00     0.016 C 
HETATM   13  C16 UNL     1      -7.096   1.859  10.856  1.00  0.00     0.033 C 
HETATM   14  C17 UNL     1      -6.684   2.368   9.516  1.00  0.00     0.126 C 
HETATM   15  C18 UNL     1      -7.364   1.612   8.400  1.00  0.00    -0.017 C 
HETATM   16  C19 UNL     1      -8.623   2.433   8.072  1.00  0.00     0.018 C 
HETATM   17  C20 UNL     1      -6.517   1.610   7.174  1.00  0.00     0.018 C 
HETATM   18  C21 UNL     1      -7.825   0.282   8.863  1.00  0.00     0.008 C 
HETATM   19  C22 UNL     1      -8.176  -0.638   7.685  1.00  0.00     0.011 C 
HETATM   20  C23 UNL     1      -9.177  -1.616   8.242  1.00  0.00     0.035 C 
ENDROOT
BRANCH   1  21
HETATM   21  O1  UNL     1      -7.371  -5.542  13.060  1.00  0.00    -0.281 OA
BRANCH  21  22
HETATM   22  C5  UNL     1      -8.434  -5.882  13.929  1.00  0.00     0.201 C 
BRANCH  22  23
HETATM   23  C4  UNL     1      -9.729  -6.078  13.172  1.00  0.00     0.029 C 
BRANCH  23  24
HETATM   24  C3  UNL     1      -9.979  -7.566  13.070  1.00  0.00     0.002 C 
BRANCH  24  25
HETATM   25  C2  UNL     1      -9.605  -8.057  11.686  1.00  0.00    -0.004 C 
HETATM   26  C1  UNL     1      -9.279  -9.523  11.771  1.00  0.00     0.005 C 
ENDBRANCH  24  25
ENDBRANCH  23  24
ENDBRANCH  22  23
ENDBRANCH  21  22
ENDBRANCH   1  21
BRANCH  14  27
HETATM   27  O2  UNL     1      -7.036   3.736   9.481  1.00  0.00    -0.395 OA
ATOM     28  H2  UNL     1      -6.569   4.116   8.747  1.00  0.00     0.210 HD
ENDBRANCH  14  27
TORSDOF 6
ENDMDL
MODEL 3
REMARK VINA RESULT: -7.865135276      3.120      7.814
REMARK  6 active torsions:
REMARK  status: ('A' for Active; 'I' for Inactive)
REMARK    1  A    between atoms: C2_2  and  C3_3 
REMARK    2  A    between atoms: C3_3  and  C4_4 
REMARK    3  A    between atoms: C4_4  and  C5_5 
REMARK    4  A    between atoms: C5_5  and  O1_6 
REMARK    5  A    between atoms: O1_6  and  N1_7 
REMARK    6  A    between atoms: C17_20  and  O2_21 
ROOT
HETATM    1  N1  UNL     1      -6.134   3.972  10.305  1.00  0.00    -0.275 N 
ATOM      2  H1  UNL     1      -5.207   3.585  10.482  1.00  0.00     0.193 HD
HETATM    3  C6  UNL     1      -7.128   3.137  10.040  1.00  0.00     0.014 C 
HETATM    4  C7  UNL     1      -8.373   3.864   9.816  1.00  0.00     0.055 C 
HETATM    5  C8  UNL     1      -9.346   3.278   8.866  1.00  0.00     0.010 C 
HETATM    6  C9  UNL     1      -8.559   2.548   7.780  1.00  0.00     0.034 C 
HETATM    7  C10 UNL     1      -8.205   1.167   8.256  1.00  0.00    -0.076 C 
HETATM    8  C11 UNL     1      -7.393   0.790   9.225  1.00  0.00    -0.064 C 
HETATM    9  C12 UNL     1      -6.629   1.765  10.075  1.00  0.00     0.089 C 
HETATM   10  C13 UNL     1      -7.112  -0.623   9.623  1.00  0.00    -0.015 C 
HETATM   11  C14 UNL     1      -7.778  -0.817  10.967  1.00  0.00     0.020 C 
HETATM   12  C15 UNL     1      -5.653  -0.904   9.776  1.00  0.00     0.016 C 
HETATM   13  C16 UNL     1      -5.242  -2.257   9.288  1.00  0.00     0.033 C 
HETATM   14  C17 UNL     1      -6.269  -3.324   9.454  1.00  0.00     0.126 C 
HETATM   15  C18 UNL     1      -7.560  -2.967   8.756  1.00  0.00    -0.017 C 
HETATM   16  C19 UNL     1      -7.449  -3.607   7.361  1.00  0.00     0.018 C 
HETATM   17  C20 UNL     1      -8.720  -3.609   9.436  1.00  0.00     0.018 C 
HETATM   18  C21 UNL     1      -7.666  -1.504   8.552  1.00  0.00     0.008 C 
HETATM   19  C22 UNL     1      -9.099  -1.084   8.193  1.00  0.00     0.011 C 
HETATM   20  C23 UNL     1      -8.945   0.200   7.419  1.00  0.00     0.035 C 
ENDROOT
BRANCH   1  21
HETATM   21  O1  UNL     1      -6.295   5.325  10.353  1.00  0.00    -0.281 OA
BRANCH  21  22
HETATM   22  C5  UNL     1      -5.489   6.121  11.200  1.00  0.00     0.201 C 
BRANCH  22  23
HETATM   23  C4  UNL     1      -5.488   5.597  12.620  1.00  0.00     0.029 C 
BRANCH  23  24
HETATM   24  C3  UNL     1      -6.327   6.538  13.455  1.00  0.00     0.002 C 
BRANCH  24  25
HETATM   25  C2  UNL     1      -6.197   6.180  14.921  1.00  0.00    -0.004 C 
HETATM   26  C1  UNL     1      -7.287   6.884  15.683  1.00  0.00     0.005 C 
ENDBRANCH  24  25
ENDBRANCH  23  24
ENDBRANCH  22  23
ENDBRANCH  21  22
ENDBRANCH   1  21
BRANCH  14  27
HETATM   27  O2  UNL     1      -5.714  -4.503   8.908  1.00  0.00    -0.395 OA
ATOM     28  H2  UNL     1      -6.271  -4.751   8.179  1.00  0.00     0.210 HD
ENDBRANCH  14  27
TORSDOF 6
ENDMDL
MODEL 4
REMARK VINA RESULT: -7.622325883      1.691      2.823
REMARK  6 active torsions:
REMARK  status: ('A' for Active; 'I' for Inactive)
REMARK    1  A    between atoms: C2_2  and  C3_3 
REMARK    2  A    between atoms: C3_3  and  C4_4 
REMARK    3  A    between atoms: C4_4  and  C5_5 
REMARK    4  A    between atoms: C5_5  and  O1_6 
REMARK    5  A    between atoms: O1_6  and  N1_7 
REMARK    6  A    between atoms: C17_20  and  O2_21 
ROOT
HETATM    1  N1  UNL     1      -6.444  -3.839  12.196  1.00  0.00    -0.275 N 
ATOM      2  H1  UNL     1      -6.260  -3.110  12.886  1.00  0.00     0.193 HD
HETATM    3  C6  UNL     1      -6.724  -3.478  10.953  1.00  0.00     0.014 C 
HETATM    4  C7  UNL     1      -6.957  -4.648  10.111  1.00  0.00     0.055 C 
HETATM    5  C8  UNL     1      -7.919  -4.507   8.995  1.00  0.00     0.010 C 
HETATM    6  C9  UNL     1      -9.002  -3.522   9.433  1.00  0.00     0.034 C 
HETATM    7  C10 UNL     1      -8.531  -2.116   9.192  1.00  0.00    -0.076 C 
HETATM    8  C11 UNL     1      -7.556  -1.440   9.770  1.00  0.00    -0.064 C 
HETATM    9  C12 UNL     1      -6.693  -2.022  10.854  1.00  0.00     0.089 C 
HETATM   10  C13 UNL     1      -7.164  -0.034   9.451  1.00  0.00    -0.015 C 
HETATM   11  C14 UNL     1      -5.828  -0.125   8.748  1.00  0.00     0.020 C 
HETATM   12  C15 UNL     1      -6.998   0.813  10.669  1.00  0.00     0.016 C 
HETATM   13  C16 UNL     1      -7.490   2.216  10.504  1.00  0.00     0.033 C 
HETATM   14  C17 UNL     1      -7.342   2.776   9.131  1.00  0.00     0.126 C 
HETATM   15  C18 UNL     1      -8.050   1.927   8.102  1.00  0.00    -0.017 C 
HETATM   16  C19 UNL     1      -9.448   2.554   7.962  1.00  0.00     0.018 C 
HETATM   17  C20 UNL     1      -7.386   2.045   6.774  1.00  0.00     0.018 C 
HETATM   18  C21 UNL     1      -8.246   0.545   8.600  1.00  0.00     0.008 C 
HETATM   19  C22 UNL     1      -8.617  -0.419   7.464  1.00  0.00     0.011 C 
HETATM   20  C23 UNL     1      -9.381  -1.532   8.134  1.00  0.00     0.035 C 
ENDROOT
BRANCH   1  21
HETATM   21  O1  UNL     1      -6.389  -5.141  12.596  1.00  0.00    -0.281 OA
BRANCH  21  22
HETATM   22  C5  UNL     1      -7.196  -5.608  13.660  1.00  0.00     0.201 C 
BRANCH  22  23
HETATM   23  C4  UNL     1      -8.302  -6.512  13.163  1.00  0.00     0.029 C 
BRANCH  23  24
HETATM   24  C3  UNL     1      -9.377  -5.633  12.564  1.00  0.00     0.002 C 
BRANCH  24  25
HETATM   25  C2  UNL     1      -9.727  -4.518  13.529  1.00  0.00    -0.004 C 
HETATM   26  C1  UNL     1     -10.047  -3.281  12.734  1.00  0.00     0.005 C 
ENDBRANCH  24  25
ENDBRANCH  23  24
ENDBRANCH  22  23
ENDBRANCH  21  22
ENDBRANCH   1  21
BRANCH  14  27
HETATM   27  O2  UNL     1      -7.889   4.078   9.167  1.00  0.00    -0.395 OA
ATOM     28  H2  UNL     1      -8.061   4.324   8.266  1.00  0.00     0.210 HD
ENDBRANCH  14  27
TORSDOF 6
ENDMDL
MODEL 5
REMARK VINA RESULT: -7.522830149      3.343      5.802
REMARK  6 active torsions:
REMARK  status: ('A' for Active; 'I' for Inactive)
REMARK    1  A    between atoms: C2_2  and  C3_3 
REMARK    2  A    between atoms: C3_3  and  C4_4 
REMARK    3  A    between atoms: C4_4  and  C5_5 
REMARK    4  A    between atoms: C5_5  and  O1_6 
REMARK    5  A    between atoms: O1_6  and  N1_7 
REMARK    6  A    between atoms: C17_20  and  O2_21 
ROOT
HETATM    1  N1  UNL     1      -5.045  -8.920  11.190  1.00  0.00    -0.275 N 
ATOM      2  H1  UNL     1      -6.040  -9.142  11.158  1.00  0.00     0.193 HD
HETATM    3  C6  UNL     1      -4.673  -7.658  11.036  1.00  0.00     0.014 C 
HETATM    4  C7  UNL     1      -3.221  -7.530  11.110  1.00  0.00     0.055 C 
HETATM    5  C8  UNL     1      -2.586  -6.462  10.306  1.00  0.00     0.010 C 
HETATM    6  C9  UNL     1      -3.410  -6.283   9.032  1.00  0.00     0.034 C 
HETATM    7  C10 UNL     1      -4.573  -5.372   9.307  1.00  0.00    -0.076 C 
HETATM    8  C11 UNL     1      -5.631  -5.560  10.073  1.00  0.00    -0.064 C 
HETATM    9  C12 UNL     1      -5.857  -6.824  10.854  1.00  0.00     0.089 C 
HETATM   10  C13 UNL     1      -6.738  -4.578  10.282  1.00  0.00    -0.015 C 
HETATM   11  C14 UNL     1      -6.588  -4.079  11.702  1.00  0.00     0.020 C 
HETATM   12  C15 UNL     1      -8.092  -5.192  10.140  1.00  0.00     0.016 C 
HETATM   13  C16 UNL     1      -9.090  -4.307   9.463  1.00  0.00     0.033 C 
HETATM   14  C17 UNL     1      -8.910  -2.849   9.716  1.00  0.00     0.126 C 
HETATM   15  C18 UNL     1      -7.537  -2.377   9.301  1.00  0.00    -0.017 C 
HETATM   16  C19 UNL     1      -7.707  -1.874   7.857  1.00  0.00     0.018 C 
HETATM   17  C20 UNL     1      -7.113  -1.207  10.120  1.00  0.00     0.018 C 
HETATM   18  C21 UNL     1      -6.579  -3.507   9.254  1.00  0.00     0.008 C 
HETATM   19  C22 UNL     1      -5.126  -3.016   9.203  1.00  0.00     0.011 C 
HETATM   20  C23 UNL     1      -4.363  -4.130   8.535  1.00  0.00     0.035 C 
ENDROOT
BRANCH   1  21
HETATM   21  O1  UNL     1      -4.157  -9.935  11.390  1.00  0.00    -0.281 OA
BRANCH  21  22
HETATM   22  C5  UNL     1      -4.524 -11.083  12.131  1.00  0.00     0.201 C 
BRANCH  22  23
HETATM   23  C4  UNL     1      -5.796 -10.853  12.918  1.00  0.00     0.029 C 
BRANCH  23  24
HETATM   24  C3  UNL     1      -6.857 -11.769  12.349  1.00  0.00     0.002 C 
BRANCH  24  25
HETATM   25  C2  UNL     1      -8.198 -11.063  12.345  1.00  0.00    -0.004 C 
HETATM   26  C1  UNL     1      -9.284 -12.102  12.275  1.00  0.00     0.005 C 
ENDBRANCH  24  25
ENDBRANCH  23  24
ENDBRANCH  22  23
ENDBRANCH  21  22
ENDBRANCH   1  21
BRANCH  14  27
HETATM   27  O2  UNL     1      -9.913  -2.186   8.973  1.00  0.00    -0.395 OA
ATOM     28  H2  UNL     1      -9.534  -1.366   8.680  1.00  0.00     0.210 HD
ENDBRANCH  14  27
TORSDOF 6
ENDMDL
