MODEL 1
REMARK VINA RESULT: -7.360282466      0.000      0.000
REMARK  10 active torsions:
REMARK  status: ('A' for Active; 'I' for Inactive)
REMARK    1  A    between atoms: C2_2  and  C3_3 
REMARK    2  A    between atoms: C2_2  and  C11_12 
REMARK    3  A    between atoms: C3_3  and  C4_4 
REMARK    4  A    between atoms: C4_4  and  C5_5 
REMARK    5  A    between atoms: C5_5  and  C6_6 
REMARK    6  A    between atoms: C6_6  and  C7_7 
REMARK    7  A    between atoms: C11_12  and  C12_13 
REMARK    8  A    between atoms: C12_13  and  C13_14 
REMARK    9  A    between atoms: C13_14  and  C14_15 
REMARK   10  A    between atoms: C15_16  and  O2_17 
ROOT
HETATM    1  C13 UNL     1      -7.189  -6.194  12.635  1.00  0.00    -0.019 C 
ENDROOT
BRANCH   1   2
HETATM    2  C12 UNL     1      -6.723  -5.255  11.783  1.00  0.00    -0.003 C 
BRANCH   2   3
HETATM    3  C11 UNL     1      -6.888  -5.498  10.373  1.00  0.00     0.006 C 
BRANCH   3   4
HETATM    4  C2  UNL     1      -7.095  -4.463   9.538  1.00  0.00    -0.062 C 
HETATM    5  C1  UNL     1      -8.467  -3.989   9.307  1.00  0.00     0.048 C 
BRANCH   4   6
HETATM    6  C3  UNL     1      -5.940  -3.847   8.885  1.00  0.00     0.007 C 
BRANCH   6   7
HETATM    7  C4  UNL     1      -5.278  -4.470   7.955  1.00  0.00     0.001 C 
BRANCH   7   8
HETATM    8  C5  UNL     1      -3.833  -4.729   8.135  1.00  0.00     0.001 C 
BRANCH   8   9
HETATM    9  C6  UNL     1      -3.383  -5.931   8.453  1.00  0.00     0.013 C 
BRANCH   9  10
HETATM   10  C7  UNL     1      -3.430  -6.377   9.856  1.00  0.00    -0.012 A 
HETATM   11  C8  UNL     1      -3.838  -7.615  10.310  1.00  0.00     0.038 A 
HETATM   12  C9  UNL     1      -3.722  -7.599  11.678  1.00  0.00     0.142 A 
HETATM   13  O1  UNL     1      -3.276  -6.435  12.027  1.00  0.00    -0.334 OA
HETATM   14  C10 UNL     1      -3.086  -5.670  10.983  1.00  0.00     0.152 A 
ENDBRANCH   9  10
ENDBRANCH   8   9
ENDBRANCH   7   8
ENDBRANCH   6   7
ENDBRANCH   4   6
ENDBRANCH   3   4
ENDBRANCH   2   3
ENDBRANCH   1   2
BRANCH   1  15
HETATM   15  C14 UNL     1      -8.077  -7.258  12.148  1.00  0.00     0.045 C 
HETATM   16  C15 UNL     1      -9.512  -7.017  12.630  1.00  0.00     0.127 C 
HETATM   17  C16 UNL     1     -10.096  -8.405  12.928  1.00  0.00     0.038 C 
HETATM   18  C17 UNL     1      -9.151  -9.264  12.256  1.00  0.00     0.004 C 
HETATM   19  C18 UNL     1      -8.952 -10.660  12.501  1.00  0.00    -0.043 C 
HETATM   20  C23 UNL     1      -7.812  -8.618  12.654  1.00  0.00    -0.030 C 
HETATM   21  C19 UNL     1      -9.669 -11.465  11.402  1.00  0.00     0.015 C 
HETATM   22  C20 UNL     1      -9.383 -11.245  13.797  1.00  0.00     0.015 C 
HETATM   23  C21 UNL     1      -7.450 -10.870  12.247  1.00  0.00     0.010 C 
HETATM   24  C22 UNL     1      -6.914  -9.488  11.829  1.00  0.00     0.011 C 
HETATM   25  C24 UNL     1      -7.526  -8.661  14.092  1.00  0.00     0.016 C 
BRANCH  16  26
HETATM   26  O2  UNL     1      -9.568  -6.182  13.731  1.00  0.00    -0.395 OA
ATOM     27  H2  UNL     1      -9.104  -5.365  13.592  1.00  0.00     0.210 HD
ENDBRANCH  16  26
ENDBRANCH   1  15
TORSDOF 10
ENDMDL
MODEL 2
REMARK VINA RESULT: -7.310754774      1.416      3.019
REMARK  10 active torsions:
REMARK  status: ('A' for Active; 'I' for Inactive)
REMARK    1  A    between atoms: C2_2  and  C3_3 
REMARK    2  A    between atoms: C2_2  and  C11_12 
REMARK    3  A    between atoms: C3_3  and  C4_4 
REMARK    4  A    between atoms: C4_4  and  C5_5 
REMARK    5  A    between atoms: C5_5  and  C6_6 
REMARK    6  A    between atoms: C6_6  and  C7_7 
REMARK    7  A    between atoms: C11_12  and  C12_13 
REMARK    8  A    between atoms: C12_13  and  C13_14 
REMARK    9  A    between atoms: C13_14  and  C14_15 
REMARK   10  A    between atoms: C15_16  and  O2_17 
ROOT
HETATM    1  C13 UNL     1      -7.081  -6.480  12.078  1.00  0.00    -0.019 C 
ENDROOT
BRANCH   1   2
HETATM    2  C12 UNL     1      -6.102  -6.129  11.216  1.00  0.00    -0.003 C 
BRANCH   2   3
HETATM    3  C11 UNL     1      -4.752  -6.486  11.564  1.00  0.00     0.006 C 
BRANCH   3   4
HETATM    4  C2  UNL     1      -3.953  -7.055  10.643  1.00  0.00    -0.062 C 
HETATM    5  C1  UNL     1      -3.919  -8.520  10.526  1.00  0.00     0.048 C 
BRANCH   4   6
HETATM    6  C3  UNL     1      -3.142  -6.189   9.787  1.00  0.00     0.007 C 
BRANCH   6   7
HETATM    7  C4  UNL     1      -3.406  -6.053   8.520  1.00  0.00     0.001 C 
BRANCH   7   8
HETATM    8  C5  UNL     1      -3.865  -4.745   8.006  1.00  0.00     0.001 C 
BRANCH   8   9
HETATM    9  C6  UNL     1      -4.108  -3.731   8.820  1.00  0.00     0.013 C 
BRANCH   9  10
HETATM   10  C7  UNL     1      -5.500  -3.321   9.076  1.00  0.00    -0.012 A 
HETATM   11  C8  UNL     1      -6.632  -3.850   8.491  1.00  0.00     0.038 A 
HETATM   12  C9  UNL     1      -7.707  -3.177   9.016  1.00  0.00     0.142 A 
HETATM   13  O1  UNL     1      -7.258  -2.303   9.859  1.00  0.00    -0.334 OA
HETATM   14  C10 UNL     1      -5.952  -2.346   9.932  1.00  0.00     0.152 A 
ENDBRANCH   9  10
ENDBRANCH   8   9
ENDBRANCH   7   8
ENDBRANCH   6   7
ENDBRANCH   4   6
ENDBRANCH   3   4
ENDBRANCH   2   3
ENDBRANCH   1   2
BRANCH   1  15
HETATM   15  C14 UNL     1      -8.012  -7.564  11.738  1.00  0.00     0.045 C 
HETATM   16  C15 UNL     1      -9.433  -7.209  12.191  1.00  0.00     0.127 C 
HETATM   17  C16 UNL     1     -10.065  -8.523  12.670  1.00  0.00     0.038 C 
HETATM   18  C17 UNL     1      -9.158  -9.497  12.113  1.00  0.00     0.004 C 
HETATM   19  C18 UNL     1      -9.009 -10.855  12.537  1.00  0.00    -0.043 C 
HETATM   20  C23 UNL     1      -7.793  -8.855  12.416  1.00  0.00    -0.030 C 
HETATM   21  C19 UNL     1      -9.764 -11.770  11.556  1.00  0.00     0.015 C 
HETATM   22  C20 UNL     1      -9.449 -11.250  13.900  1.00  0.00     0.015 C 
HETATM   23  C21 UNL     1      -7.517 -11.153  12.306  1.00  0.00     0.010 C 
HETATM   24  C22 UNL     1      -6.934  -9.859  11.709  1.00  0.00     0.011 C 
HETATM   25  C24 UNL     1      -7.495  -8.721  13.847  1.00  0.00     0.016 C 
BRANCH  16  26
HETATM   26  O2  UNL     1      -9.448  -6.235  13.174  1.00  0.00    -0.395 OA
ATOM     27  H2  UNL     1     -10.303  -5.835  13.276  1.00  0.00     0.210 HD
ENDBRANCH  16  26
ENDBRANCH   1  15
TORSDOF 10
ENDMDL
MODEL 3
REMARK VINA RESULT: -7.264127465      1.298      2.897
REMARK  10 active torsions:
REMARK  status: ('A' for Active; 'I' for Inactive)
REMARK    1  A    between atoms: C2_2  and  C3_3 
REMARK    2  A    between atoms: C2_2  and  C11_12 
REMARK    3  A    between atoms: C3_3  and  C4_4 
REMARK    4  A    between atoms: C4_4  and  C5_5 
REMARK    5  A    between atoms: C5_5  and  C6_6 
REMARK    6  A    between atoms: C6_6  and  C7_7 
REMARK    7  A    between atoms: C11_12  and  C12_13 
REMARK    8  A    between atoms: C12_13  and  C13_14 
REMARK    9  A    between atoms: C13_14  and  C14_15 
REMARK   10  A    between atoms: C15_16  and  O2_17 
ROOT
HETATM    1  C13 UNL     1      -7.226  -6.287  12.542  1.00  0.00    -0.019 C 
ENDROOT
BRANCH   1   2
HETATM    2  C12 UNL     1      -6.247  -5.837  11.727  1.00  0.00    -0.003 C 
BRANCH   2   3
HETATM    3  C11 UNL     1      -4.885  -6.059  12.139  1.00  0.00     0.006 C 
BRANCH   3   4
HETATM    4  C2  UNL     1      -4.198  -7.103  11.640  1.00  0.00    -0.062 C 
HETATM    5  C1  UNL     1      -3.709  -8.146  12.552  1.00  0.00     0.048 C 
BRANCH   4   6
HETATM    6  C3  UNL     1      -3.961  -7.160  10.197  1.00  0.00     0.007 C 
BRANCH   6   7
HETATM    7  C4  UNL     1      -3.172  -6.309   9.609  1.00  0.00     0.001 C 
BRANCH   7   8
HETATM    8  C5  UNL     1      -3.403  -5.959   8.191  1.00  0.00     0.001 C 
BRANCH   8   9
HETATM    9  C6  UNL     1      -3.706  -4.724   7.827  1.00  0.00     0.013 C 
BRANCH   9  10
HETATM   10  C7  UNL     1      -4.692  -3.957   8.607  1.00  0.00    -0.012 A 
HETATM   11  C8  UNL     1      -4.421  -2.943   9.502  1.00  0.00     0.038 A 
HETATM   12  C9  UNL     1      -5.626  -2.511   9.998  1.00  0.00     0.142 A 
HETATM   13  O1  UNL     1      -6.561  -3.214   9.443  1.00  0.00    -0.334 OA
HETATM   14  C10 UNL     1      -6.060  -4.089   8.608  1.00  0.00     0.152 A 
ENDBRANCH   9  10
ENDBRANCH   8   9
ENDBRANCH   7   8
ENDBRANCH   6   7
ENDBRANCH   4   6
ENDBRANCH   3   4
ENDBRANCH   2   3
ENDBRANCH   1   2
BRANCH   1  15
HETATM   15  C14 UNL     1      -8.130  -7.353  12.091  1.00  0.00     0.045 C 
HETATM   16  C15 UNL     1      -9.547  -7.110  12.623  1.00  0.00     0.127 C 
HETATM   17  C16 UNL     1     -10.120  -8.496  12.948  1.00  0.00     0.038 C 
HETATM   18  C17 UNL     1      -9.200  -9.358  12.247  1.00  0.00     0.004 C 
HETATM   19  C18 UNL     1      -8.992 -10.753  12.491  1.00  0.00    -0.043 C 
HETATM   20  C23 UNL     1      -7.848  -8.711  12.594  1.00  0.00    -0.030 C 
HETATM   21  C19 UNL     1      -9.747 -11.564  11.422  1.00  0.00     0.015 C 
HETATM   22  C20 UNL     1      -9.376 -11.332  13.804  1.00  0.00     0.015 C 
HETATM   23  C21 UNL     1      -7.500 -10.964  12.185  1.00  0.00     0.010 C 
HETATM   24  C22 UNL     1      -6.979  -9.585  11.742  1.00  0.00     0.011 C 
HETATM   25  C24 UNL     1      -7.510  -8.746  14.021  1.00  0.00     0.016 C 
BRANCH  16  26
HETATM   26  O2  UNL     1      -9.564  -6.269  13.722  1.00  0.00    -0.395 OA
ATOM     27  H2  UNL     1      -9.341  -6.719  14.527  1.00  0.00     0.210 HD
ENDBRANCH  16  26
ENDBRANCH   1  15
TORSDOF 10
ENDMDL
MODEL 4
REMARK VINA RESULT: -7.250409617      1.502      3.076
REMARK  10 active torsions:
REMARK  status: ('A' for Active; 'I' for Inactive)
REMARK    1  A    between atoms: C2_2  and  C3_3 
REMARK    2  A    between atoms: C2_2  and  C11_12 
REMARK    3  A    between atoms: C3_3  and  C4_4 
REMARK    4  A    between atoms: C4_4  and  C5_5 
REMARK    5  A    between atoms: C5_5  and  C6_6 
REMARK    6  A    between atoms: C6_6  and  C7_7 
REMARK    7  A    between atoms: C11_12  and  C12_13 
REMARK    8  A    between atoms: C12_13  and  C13_14 
REMARK    9  A    between atoms: C13_14  and  C14_15 
REMARK   10  A    between atoms: C15_16  and  O2_17 
ROOT
HETATM    1  C13 UNL     1      -6.655  -6.162  12.214  1.00  0.00    -0.019 C 
ENDROOT
BRANCH   1   2
HETATM    2  C12 UNL     1      -5.389  -6.110  11.744  1.00  0.00    -0.003 C 
BRANCH   2   3
HETATM    3  C11 UNL     1      -5.161  -6.573  10.400  1.00  0.00     0.006 C 
BRANCH   3   4
HETATM    4  C2  UNL     1      -4.015  -6.254   9.770  1.00  0.00    -0.062 C 
HETATM    5  C1  UNL     1      -2.730  -6.620  10.382  1.00  0.00     0.048 C 
BRANCH   4   6
HETATM    6  C3  UNL     1      -4.093  -5.548   8.491  1.00  0.00     0.007 C 
BRANCH   6   7
HETATM    7  C4  UNL     1      -3.796  -4.285   8.397  1.00  0.00     0.001 C 
BRANCH   7   8
HETATM    8  C5  UNL     1      -4.266  -3.345   9.437  1.00  0.00     0.001 C 
BRANCH   8   9
HETATM    9  C6  UNL     1      -5.344  -2.601   9.257  1.00  0.00     0.013 C 
BRANCH   9  10
HETATM   10  C7  UNL     1      -6.671  -3.153   9.578  1.00  0.00    -0.012 A 
HETATM   11  C8  UNL     1      -7.433  -3.979   8.777  1.00  0.00     0.038 A 
HETATM   12  C9  UNL     1      -8.589  -4.251   9.465  1.00  0.00     0.142 A 
HETATM   13  O1  UNL     1      -8.532  -3.634  10.602  1.00  0.00    -0.334 OA
HETATM   14  C10 UNL     1      -7.413  -2.966  10.720  1.00  0.00     0.152 A 
ENDBRANCH   9  10
ENDBRANCH   8   9
ENDBRANCH   7   8
ENDBRANCH   6   7
ENDBRANCH   4   6
ENDBRANCH   3   4
ENDBRANCH   2   3
ENDBRANCH   1   2
BRANCH   1  15
HETATM   15  C14 UNL     1      -7.557  -7.239  11.788  1.00  0.00     0.045 C 
HETATM   16  C15 UNL     1      -9.019  -6.806  11.953  1.00  0.00     0.127 C 
HETATM   17  C16 UNL     1      -9.783  -8.061  12.400  1.00  0.00     0.038 C 
HETATM   18  C17 UNL     1      -8.836  -9.101  12.081  1.00  0.00     0.004 C 
HETATM   19  C18 UNL     1      -8.823 -10.428  12.617  1.00  0.00    -0.043 C 
HETATM   20  C23 UNL     1      -7.518  -8.482  12.580  1.00  0.00    -0.030 C 
HETATM   21  C19 UNL     1      -9.433 -11.390  11.581  1.00  0.00     0.015 C 
HETATM   22  C20 UNL     1      -9.513 -10.706  13.902  1.00  0.00     0.015 C 
HETATM   23  C21 UNL     1      -7.329 -10.789  12.678  1.00  0.00     0.010 C 
HETATM   24  C22 UNL     1      -6.594  -9.562  12.108  1.00  0.00     0.011 C 
HETATM   25  C24 UNL     1      -7.472  -8.250  14.029  1.00  0.00     0.016 C 
BRANCH  16  26
HETATM   26  O2  UNL     1      -9.164  -5.762  12.849  1.00  0.00    -0.395 OA
ATOM     27  H2  UNL     1      -9.576  -5.001  12.457  1.00  0.00     0.210 HD
ENDBRANCH  16  26
ENDBRANCH   1  15
TORSDOF 10
ENDMDL
MODEL 5
REMARK VINA RESULT: -7.198091468      1.332      2.326
REMARK  10 active torsions:
REMARK  status: ('A' for Active; 'I' for Inactive)
REMARK    1  A    between atoms: C2_2  and  C3_3 
REMARK    2  A    between atoms: C2_2  and  C11_12 
REMARK    3  A    between atoms: C3_3  and  C4_4 
REMARK    4  A    between atoms: C4_4  and  C5_5 
REMARK    5  A    between atoms: C5_5  and  C6_6 
REMARK    6  A    between atoms: C6_6  and  C7_7 
REMARK    7  A    between atoms: C11_12  and  C12_13 
REMARK    8  A    between atoms: C12_13  and  C13_14 
REMARK    9  A    between atoms: C13_14  and  C14_15 
REMARK   10  A    between atoms: C15_16  and  O2_17 
ROOT
HETATM    1  C13 UNL     1      -7.587  -5.532  12.970  1.00  0.00    -0.019 C 
ENDROOT
BRANCH   1   2
HETATM    2  C12 UNL     1      -7.096  -4.563  12.167  1.00  0.00    -0.003 C 
BRANCH   2   3
HETATM    3  C11 UNL     1      -7.796  -3.305  12.142  1.00  0.00     0.006 C 
BRANCH   3   4
HETATM    4  C2  UNL     1      -9.003  -3.223  11.552  1.00  0.00    -0.062 C 
HETATM    5  C1  UNL     1     -10.115  -2.588  12.273  1.00  0.00     0.048 C 
BRANCH   4   6
HETATM    6  C3  UNL     1      -9.164  -3.775  10.207  1.00  0.00     0.007 C 
BRANCH   6   7
HETATM    7  C4  UNL     1      -8.563  -3.244   9.183  1.00  0.00     0.001 C 
BRANCH   7   8
HETATM    8  C5  UNL     1      -7.487  -3.991   8.498  1.00  0.00     0.001 C 
BRANCH   8   9
HETATM    9  C6  UNL     1      -6.219  -3.632   8.611  1.00  0.00     0.013 C 
BRANCH   9  10
HETATM   10  C7  UNL     1      -5.174  -4.667   8.687  1.00  0.00    -0.012 A 
HETATM   11  C8  UNL     1      -4.106  -4.821   7.827  1.00  0.00     0.038 A 
HETATM   12  C9  UNL     1      -3.389  -5.905   8.267  1.00  0.00     0.142 A 
HETATM   13  O1  UNL     1      -3.980  -6.376   9.318  1.00  0.00    -0.334 OA
HETATM   14  C10 UNL     1      -5.047  -5.677   9.611  1.00  0.00     0.152 A 
ENDBRANCH   9  10
ENDBRANCH   8   9
ENDBRANCH   7   8
ENDBRANCH   6   7
ENDBRANCH   4   6
ENDBRANCH   3   4
ENDBRANCH   2   3
ENDBRANCH   1   2
BRANCH   1  15
HETATM   15  C14 UNL     1      -8.280  -6.690  12.390  1.00  0.00     0.045 C 
HETATM   16  C15 UNL     1      -9.785  -6.604  12.668  1.00  0.00     0.127 C 
HETATM   17  C16 UNL     1     -10.252  -8.046  12.914  1.00  0.00     0.038 C 
HETATM   18  C17 UNL     1      -9.138  -8.801  12.396  1.00  0.00     0.004 C 
HETATM   19  C18 UNL     1      -8.825 -10.165  12.696  1.00  0.00    -0.043 C 
HETATM   20  C23 UNL     1      -7.943  -8.009  12.957  1.00  0.00    -0.030 C 
HETATM   21  C19 UNL     1      -9.294 -11.052  11.528  1.00  0.00     0.015 C 
HETATM   22  C20 UNL     1      -9.364 -10.784  13.934  1.00  0.00     0.015 C 
HETATM   23  C21 UNL     1      -7.289 -10.211  12.653  1.00  0.00     0.010 C 
HETATM   24  C22 UNL     1      -6.852  -8.782  12.282  1.00  0.00     0.011 C 
HETATM   25  C24 UNL     1      -7.854  -8.010  14.422  1.00  0.00     0.016 C 
BRANCH  16  26
HETATM   26  O2  UNL     1     -10.081  -5.772  13.733  1.00  0.00    -0.395 OA
ATOM     27  H2  UNL     1     -11.008  -5.760  13.938  1.00  0.00     0.210 HD
ENDBRANCH  16  26
ENDBRANCH   1  15
TORSDOF 10
ENDMDL
