MODEL 1
REMARK VINA RESULT: -8.001281523      0.000      0.000
REMARK  11 active torsions:
REMARK  status: ('A' for Active; 'I' for Inactive)
REMARK    1  A    between atoms: O1_2  and  C2_3 
REMARK    2  A    between atoms: C2_3  and  C3_5 
REMARK    3  A    between atoms: C4_9  and  O3_10 
REMARK    4  A    between atoms: C4_9  and  C5_12 
REMARK    5  A    between atoms: C5_12  and  O4_13 
REMARK    6  A    between atoms: C8_17  and  O5_18 
REMARK    7  A    between atoms: C8_17  and  C9_20 
REMARK    8  A    between atoms: C9_20  and  O6_21 
REMARK    9  A    between atoms: C10_23  and  O7_24 
REMARK   10  A    between atoms: C10_23  and  C11_26 
REMARK   11  A    between atoms: C11_26  and  O8_27 
ROOT
HETATM    1  C3  UNL     1     131.565   7.308  74.095  1.00  0.00     0.201 C 
HETATM    2  N1  UNL     1     131.580   8.453  74.861  1.00  0.00    -0.309 N 
ATOM      3  H1  UNL     1     132.046   9.332  74.635  1.00  0.00     0.177 HD
HETATM    4  N2  UNL     1     130.833   8.173  76.007  1.00  0.00    -0.102 NA
HETATM    5  C4  UNL     1     129.781   7.305  75.579  1.00  0.00     0.175 C 
HETATM    6  C6  UNL     1     130.109   6.874  74.174  1.00  0.00     0.091 C 
HETATM    7  C7  UNL     1     129.230   7.526  73.167  1.00  0.00     0.056 C 
HETATM    8  C8  UNL     1     129.741   7.984  71.860  1.00  0.00     0.119 C 
HETATM    9  C10 UNL     1     131.115   7.570  71.515  1.00  0.00     0.175 C 
HETATM   10  C12 UNL     1     131.986   7.316  72.672  1.00  0.00     0.205 C 
HETATM   11  O9  UNL     1     133.175   7.086  72.393  1.00  0.00    -0.291 OA
ENDROOT
BRANCH   5  12
HETATM   12  O3  UNL     1     128.634   8.175  75.544  1.00  0.00    -0.370 OA
ATOM     13  H3  UNL     1     129.012   9.036  75.678  1.00  0.00     0.212 HD
ENDBRANCH   5  12
BRANCH   5  14
HETATM   14  C5  UNL     1     129.417   6.299  76.579  1.00  0.00     0.222 C 
BRANCH  14  15
HETATM   15  O4  UNL     1     129.342   4.987  76.197  1.00  0.00    -0.396 OA
ATOM     16  H4  UNL     1     129.899   4.684  75.489  1.00  0.00     0.209 HD
ENDBRANCH  14  15
ENDBRANCH   5  14
BRANCH   1  17
HETATM   17  C2  UNL     1     132.397   6.228  74.804  1.00  0.00     0.296 C 
HETATM   18  O2  UNL     1     133.432   6.474  75.455  1.00  0.00    -0.262 OA
BRANCH  17  19
HETATM   19  O1  UNL     1     131.978   4.921  74.707  1.00  0.00    -0.324 OA
HETATM   20  C1  UNL     1     132.618   3.862  74.062  1.00  0.00     0.213 C 
ENDBRANCH  17  19
ENDBRANCH   1  17
BRANCH   8  21
HETATM   21  O5  UNL     1     128.866   7.365  70.930  1.00  0.00    -0.384 OA
ATOM     22  H5  UNL     1     128.009   7.680  71.191  1.00  0.00     0.210 HD
ENDBRANCH   8  21
BRANCH   8  23
HETATM   23  C9  UNL     1     129.481   9.452  71.591  1.00  0.00     0.205 C 
BRANCH  23  24
HETATM   24  O6  UNL     1     128.479   9.786  70.763  1.00  0.00    -0.398 OA
ATOM     25  H6  UNL     1     127.787  10.349  71.090  1.00  0.00     0.209 HD
ENDBRANCH  23  24
ENDBRANCH   8  23
BRANCH   9  26
HETATM   26  O7  UNL     1     131.834   8.526  70.741  1.00  0.00    -0.377 OA
ATOM     27  H7  UNL     1     132.480   9.018  71.234  1.00  0.00     0.211 HD
ENDBRANCH   9  26
BRANCH   9  28
HETATM   28  C11 UNL     1     131.097   6.359  70.577  1.00  0.00     0.213 C 
BRANCH  28  29
HETATM   29  O8  UNL     1     131.001   5.148  71.221  1.00  0.00    -0.397 OA
ATOM     30  H8  UNL     1     130.351   4.560  70.853  1.00  0.00     0.209 HD
ENDBRANCH  28  29
ENDBRANCH   9  28
TORSDOF 11
ENDMDL
MODEL 2
REMARK VINA RESULT: -7.880002976      1.999      4.482
REMARK  11 active torsions:
REMARK  status: ('A' for Active; 'I' for Inactive)
REMARK    1  A    between atoms: O1_2  and  C2_3 
REMARK    2  A    between atoms: C2_3  and  C3_5 
REMARK    3  A    between atoms: C4_9  and  O3_10 
REMARK    4  A    between atoms: C4_9  and  C5_12 
REMARK    5  A    between atoms: C5_12  and  O4_13 
REMARK    6  A    between atoms: C8_17  and  O5_18 
REMARK    7  A    between atoms: C8_17  and  C9_20 
REMARK    8  A    between atoms: C9_20  and  O6_21 
REMARK    9  A    between atoms: C10_23  and  O7_24 
REMARK   10  A    between atoms: C10_23  and  C11_26 
REMARK   11  A    between atoms: C11_26  and  O8_27 
ROOT
HETATM    1  C3  UNL     1     129.732   8.668  73.321  1.00  0.00     0.201 C 
HETATM    2  N1  UNL     1     128.999   9.453  74.183  1.00  0.00    -0.309 N 
ATOM      3  H1  UNL     1     128.015   9.340  74.424  1.00  0.00     0.177 HD
HETATM    4  N2  UNL     1     129.869  10.435  74.662  1.00  0.00    -0.102 NA
HETATM    5  C4  UNL     1     131.144   9.799  74.773  1.00  0.00     0.175 C 
HETATM    6  C6  UNL     1     131.036   8.467  74.079  1.00  0.00     0.091 C 
HETATM    7  C7  UNL     1     131.005   7.333  75.041  1.00  0.00     0.056 C 
HETATM    8  C8  UNL     1     130.139   6.155  74.836  1.00  0.00     0.119 C 
HETATM    9  C10 UNL     1     129.470   6.057  73.525  1.00  0.00     0.175 C 
HETATM   10  C12 UNL     1     129.239   7.347  72.858  1.00  0.00     0.205 C 
HETATM   11  O9  UNL     1     128.569   7.285  71.813  1.00  0.00    -0.291 OA
ENDROOT
BRANCH   5  12
HETATM   12  O3  UNL     1     131.275   9.577  76.190  1.00  0.00    -0.370 OA
ATOM     13  H3  UNL     1     132.139   9.919  76.383  1.00  0.00     0.212 HD
ENDBRANCH   5  12
BRANCH   5  14
HETATM   14  C5  UNL     1     132.266  10.688  74.462  1.00  0.00     0.222 C 
BRANCH  14  15
HETATM   15  O4  UNL     1     133.298  10.207  73.703  1.00  0.00    -0.396 OA
ATOM     16  H4  UNL     1     134.068  10.750  73.580  1.00  0.00     0.209 HD
ENDBRANCH  14  15
ENDBRANCH   5  14
BRANCH   1  17
HETATM   17  C2  UNL     1     130.064   9.489  72.064  1.00  0.00     0.296 C 
HETATM   18  O2  UNL     1     129.285  10.324  71.563  1.00  0.00    -0.262 OA
BRANCH  17  19
HETATM   19  O1  UNL     1     131.282   9.283  71.460  1.00  0.00    -0.324 OA
HETATM   20  C1  UNL     1     131.530   8.822  70.166  1.00  0.00     0.213 C 
ENDBRANCH  17  19
ENDBRANCH   1  17
BRANCH   8  21
HETATM   21  O5  UNL     1     131.043   5.064  74.933  1.00  0.00    -0.384 OA
ATOM     22  H5  UNL     1     130.797   4.509  74.203  1.00  0.00     0.210 HD
ENDBRANCH   8  21
BRANCH   8  23
HETATM   23  C9  UNL     1     129.207   5.881  75.998  1.00  0.00     0.205 C 
BRANCH  23  24
HETATM   24  O6  UNL     1     128.227   6.760  76.257  1.00  0.00    -0.398 OA
ATOM     25  H6  UNL     1     127.342   6.549  75.983  1.00  0.00     0.209 HD
ENDBRANCH  23  24
ENDBRANCH   8  23
BRANCH   9  26
HETATM   26  O7  UNL     1     128.181   5.454  73.572  1.00  0.00    -0.377 OA
ATOM     27  H7  UNL     1     127.477   6.017  73.273  1.00  0.00     0.211 HD
ENDBRANCH   9  26
BRANCH   9  28
HETATM   28  C11 UNL     1     130.228   5.101  72.599  1.00  0.00     0.213 C 
BRANCH  28  29
HETATM   29  O8  UNL     1     129.426   4.202  71.935  1.00  0.00    -0.397 OA
ATOM     30  H8  UNL     1     129.854   3.381  71.720  1.00  0.00     0.209 HD
ENDBRANCH  28  29
ENDBRANCH   9  28
TORSDOF 11
ENDMDL
MODEL 3
REMARK VINA RESULT: -7.692113378      2.136      3.966
REMARK  11 active torsions:
REMARK  status: ('A' for Active; 'I' for Inactive)
REMARK    1  A    between atoms: O1_2  and  C2_3 
REMARK    2  A    between atoms: C2_3  and  C3_5 
REMARK    3  A    between atoms: C4_9  and  O3_10 
REMARK    4  A    between atoms: C4_9  and  C5_12 
REMARK    5  A    between atoms: C5_12  and  O4_13 
REMARK    6  A    between atoms: C8_17  and  O5_18 
REMARK    7  A    between atoms: C8_17  and  C9_20 
REMARK    8  A    between atoms: C9_20  and  O6_21 
REMARK    9  A    between atoms: C10_23  and  O7_24 
REMARK   10  A    between atoms: C10_23  and  C11_26 
REMARK   11  A    between atoms: C11_26  and  O8_27 
ROOT
HETATM    1  C3  UNL     1     129.800   6.663  72.748  1.00  0.00     0.201 C 
HETATM    2  N1  UNL     1     129.675   5.569  71.919  1.00  0.00    -0.309 N 
ATOM      3  H1  UNL     1     129.121   5.509  71.066  1.00  0.00     0.177 HD
HETATM    4  N2  UNL     1     130.460   4.558  72.479  1.00  0.00    -0.102 NA
HETATM    5  C4  UNL     1     131.590   5.218  73.052  1.00  0.00     0.175 C 
HETATM    6  C6  UNL     1     131.293   6.694  73.037  1.00  0.00     0.091 C 
HETATM    7  C7  UNL     1     132.090   7.417  72.010  1.00  0.00     0.056 C 
HETATM    8  C8  UNL     1     131.521   8.517  71.207  1.00  0.00     0.119 C 
HETATM    9  C10 UNL     1     130.193   9.009  71.622  1.00  0.00     0.175 C 
HETATM   10  C12 UNL     1     129.365   8.016  72.323  1.00  0.00     0.205 C 
HETATM   11  O9  UNL     1     128.203   8.382  72.568  1.00  0.00    -0.291 OA
ENDROOT
BRANCH   5  12
HETATM   12  O3  UNL     1     132.642   4.944  72.108  1.00  0.00    -0.370 OA
ATOM     13  H3  UNL     1     132.873   5.808  71.787  1.00  0.00     0.212 HD
ENDBRANCH   5  12
BRANCH   5  14
HETATM   14  C5  UNL     1     132.066   4.588  74.286  1.00  0.00     0.222 C 
BRANCH  14  15
HETATM   15  O4  UNL     1     132.247   5.367  75.396  1.00  0.00    -0.396 OA
ATOM     16  H4  UNL     1     132.420   4.944  76.230  1.00  0.00     0.209 HD
ENDBRANCH  14  15
ENDBRANCH   5  14
BRANCH   1  17
HETATM   17  C2  UNL     1     129.090   6.359  74.077  1.00  0.00     0.296 C 
HETATM   18  O2  UNL     1     129.470   6.804  75.178  1.00  0.00    -0.262 OA
BRANCH  17  19
HETATM   19  O1  UNL     1     127.980   5.546  74.046  1.00  0.00    -0.324 OA
HETATM   20  C1  UNL     1     126.919   5.509  74.952  1.00  0.00     0.213 C 
ENDBRANCH  17  19
ENDBRANCH   1  17
BRANCH   8  21
HETATM   21  O5  UNL     1     132.445   9.578  71.402  1.00  0.00    -0.384 OA
ATOM     22  H5  UNL     1     131.921  10.356  71.254  1.00  0.00     0.210 HD
ENDBRANCH   8  21
BRANCH   8  23
HETATM   23  C9  UNL     1     131.628   8.293  69.713  1.00  0.00     0.205 C 
BRANCH  23  24
HETATM   24  O6  UNL     1     130.966   7.260  69.169  1.00  0.00    -0.398 OA
ATOM     25  H6  UNL     1     130.130   7.425  68.749  1.00  0.00     0.209 HD
ENDBRANCH  23  24
ENDBRANCH   8  23
BRANCH   9  26
HETATM   26  O7  UNL     1     129.372   9.449  70.545  1.00  0.00    -0.377 OA
ATOM     27  H7  UNL     1     129.008  10.319  70.663  1.00  0.00     0.211 HD
ENDBRANCH   9  26
BRANCH   9  28
HETATM   28  C11 UNL     1     130.324  10.286  72.457  1.00  0.00     0.213 C 
BRANCH  28  29
HETATM   29  O8  UNL     1     130.440  10.068  73.810  1.00  0.00    -0.397 OA
ATOM     30  H8  UNL     1     130.490  10.861  74.331  1.00  0.00     0.209 HD
ENDBRANCH  28  29
ENDBRANCH   9  28
TORSDOF 11
ENDMDL
MODEL 4
REMARK VINA RESULT: -7.588837956      2.469      4.560
REMARK  11 active torsions:
REMARK  status: ('A' for Active; 'I' for Inactive)
REMARK    1  A    between atoms: O1_2  and  C2_3 
REMARK    2  A    between atoms: C2_3  and  C3_5 
REMARK    3  A    between atoms: C4_9  and  O3_10 
REMARK    4  A    between atoms: C4_9  and  C5_12 
REMARK    5  A    between atoms: C5_12  and  O4_13 
REMARK    6  A    between atoms: C8_17  and  O5_18 
REMARK    7  A    between atoms: C8_17  and  C9_20 
REMARK    8  A    between atoms: C9_20  and  O6_21 
REMARK    9  A    between atoms: C10_23  and  O7_24 
REMARK   10  A    between atoms: C10_23  and  C11_26 
REMARK   11  A    between atoms: C11_26  and  O8_27 
ROOT
HETATM    1  C3  UNL     1     129.486   7.744  73.144  1.00  0.00     0.201 C 
HETATM    2  N1  UNL     1     128.761   7.868  71.979  1.00  0.00    -0.309 N 
ATOM      3  H1  UNL     1     128.012   8.534  71.794  1.00  0.00     0.177 HD
HETATM    4  N2  UNL     1     129.255   6.901  71.101  1.00  0.00    -0.102 NA
HETATM    5  C4  UNL     1     130.656   6.815  71.369  1.00  0.00     0.175 C 
HETATM    6  C6  UNL     1     130.911   7.589  72.636  1.00  0.00     0.091 C 
HETATM    7  C7  UNL     1     131.603   8.881  72.376  1.00  0.00     0.056 C 
HETATM    8  C8  UNL     1     131.266  10.112  73.117  1.00  0.00     0.119 C 
HETATM    9  C10 UNL     1     130.366   9.952  74.275  1.00  0.00     0.175 C 
HETATM   10  C12 UNL     1     129.463   8.795  74.192  1.00  0.00     0.205 C 
HETATM   11  O9  UNL     1     128.620   8.721  75.102  1.00  0.00    -0.291 OA
ENDROOT
BRANCH   5  12
HETATM   12  O3  UNL     1     131.244   7.526  70.263  1.00  0.00    -0.370 OA
ATOM     13  H3  UNL     1     132.137   7.672  70.550  1.00  0.00     0.212 HD
ENDBRANCH   5  12
BRANCH   5  14
HETATM   14  C5  UNL     1     131.193   5.460  71.228  1.00  0.00     0.222 C 
BRANCH  14  15
HETATM   15  O4  UNL     1     130.406   4.399  71.583  1.00  0.00    -0.396 OA
ATOM     16  H4  UNL     1     130.399   3.627  71.027  1.00  0.00     0.209 HD
ENDBRANCH  14  15
ENDBRANCH   5  14
BRANCH   1  17
HETATM   17  C2  UNL     1     129.104   6.420  73.826  1.00  0.00     0.296 C 
HETATM   18  O2  UNL     1     129.918   5.702  74.440  1.00  0.00    -0.262 OA
BRANCH  17  19
HETATM   19  O1  UNL     1     127.795   6.006  73.744  1.00  0.00    -0.324 OA
HETATM   20  C1  UNL     1     126.968   5.569  74.781  1.00  0.00     0.213 C 
ENDBRANCH  17  19
ENDBRANCH   1  17
BRANCH   8  21
HETATM   21  O5  UNL     1     132.522  10.549  73.614  1.00  0.00    -0.384 OA
ATOM     22  H5  UNL     1     132.467  10.365  74.544  1.00  0.00     0.210 HD
ENDBRANCH   8  21
BRANCH   8  23
HETATM   23  C9  UNL     1     130.876  11.269  72.220  1.00  0.00     0.205 C 
BRANCH  23  24
HETATM   24  O6  UNL     1     129.795  11.139  71.437  1.00  0.00    -0.398 OA
ATOM     25  H6  UNL     1     129.553  11.862  70.870  1.00  0.00     0.209 HD
ENDBRANCH  23  24
ENDBRANCH   8  23
BRANCH   9  26
HETATM   26  O7  UNL     1     129.495  11.058  74.493  1.00  0.00    -0.377 OA
ATOM     27  H7  UNL     1     128.576  10.862  74.356  1.00  0.00     0.211 HD
ENDBRANCH   9  26
BRANCH   9  28
HETATM   28  C11 UNL     1     131.164   9.920  75.582  1.00  0.00     0.213 C 
BRANCH  28  29
HETATM   29  O8  UNL     1     130.545  10.547  76.637  1.00  0.00    -0.397 OA
ATOM     30  H8  UNL     1     130.183  11.400  76.428  1.00  0.00     0.209 HD
ENDBRANCH  28  29
ENDBRANCH   9  28
TORSDOF 11
ENDMDL
MODEL 5
REMARK VINA RESULT: -7.470251856      1.943      2.885
REMARK  11 active torsions:
REMARK  status: ('A' for Active; 'I' for Inactive)
REMARK    1  A    between atoms: O1_2  and  C2_3 
REMARK    2  A    between atoms: C2_3  and  C3_5 
REMARK    3  A    between atoms: C4_9  and  O3_10 
REMARK    4  A    between atoms: C4_9  and  C5_12 
REMARK    5  A    between atoms: C5_12  and  O4_13 
REMARK    6  A    between atoms: C8_17  and  O5_18 
REMARK    7  A    between atoms: C8_17  and  C9_20 
REMARK    8  A    between atoms: C9_20  and  O6_21 
REMARK    9  A    between atoms: C10_23  and  O7_24 
REMARK   10  A    between atoms: C10_23  and  C11_26 
REMARK   11  A    between atoms: C11_26  and  O8_27 
ROOT
HETATM    1  C3  UNL     1     132.426   6.876  73.534  1.00  0.00     0.201 C 
HETATM    2  N1  UNL     1     133.606   7.472  73.144  1.00  0.00    -0.309 N 
ATOM      3  H1  UNL     1     134.283   7.105  72.475  1.00  0.00     0.177 HD
HETATM    4  N2  UNL     1     133.692   8.676  73.845  1.00  0.00    -0.102 NA
HETATM    5  C4  UNL     1     132.351   9.157  73.953  1.00  0.00     0.175 C 
HETATM    6  C6  UNL     1     131.444   8.038  73.515  1.00  0.00     0.091 C 
HETATM    7  C7  UNL     1     130.840   8.294  72.179  1.00  0.00     0.056 C 
HETATM    8  C8  UNL     1     130.657   7.219  71.184  1.00  0.00     0.119 C 
HETATM    9  C10 UNL     1     130.900   5.843  71.656  1.00  0.00     0.175 C 
HETATM   10  C12 UNL     1     131.840   5.740  72.782  1.00  0.00     0.205 C 
HETATM   11  O9  UNL     1     132.144   4.580  73.107  1.00  0.00    -0.291 OA
ENDROOT
BRANCH   5  12
HETATM   12  O3  UNL     1     132.302  10.209  72.970  1.00  0.00    -0.370 OA
ATOM     13  H3  UNL     1     131.876  10.918  73.435  1.00  0.00     0.212 HD
ENDBRANCH   5  12
BRANCH   5  14
HETATM   14  C5  UNL     1     132.084   9.854  75.213  1.00  0.00     0.222 C 
BRANCH  14  15
HETATM   15  O4  UNL     1     131.167   9.323  76.079  1.00  0.00    -0.396 OA
ATOM     16  H4  UNL     1     130.258   9.589  76.004  1.00  0.00     0.209 HD
ENDBRANCH  14  15
ENDBRANCH   5  14
BRANCH   1  17
HETATM   17  C2  UNL     1     132.561   6.425  74.998  1.00  0.00     0.296 C 
HETATM   18  O2  UNL     1     133.612   5.958  75.480  1.00  0.00    -0.262 OA
BRANCH  17  19
HETATM   19  O1  UNL     1     131.459   6.537  75.813  1.00  0.00    -0.324 OA
HETATM   20  C1  UNL     1     130.409   5.630  75.964  1.00  0.00     0.213 C 
ENDBRANCH  17  19
ENDBRANCH   1  17
BRANCH   8  21
HETATM   21  O5  UNL     1     129.280   7.315  70.848  1.00  0.00    -0.384 OA
ATOM     22  H5  UNL     1     129.290   7.759  70.009  1.00  0.00     0.210 HD
ENDBRANCH   8  21
BRANCH   8  23
HETATM   23  C9  UNL     1     131.315   7.512  69.851  1.00  0.00     0.205 C 
BRANCH  23  24
HETATM   24  O6  UNL     1     130.702   7.106  68.729  1.00  0.00    -0.398 OA
ATOM     25  H6  UNL     1     130.487   7.753  68.067  1.00  0.00     0.209 HD
ENDBRANCH  23  24
ENDBRANCH   8  23
BRANCH   9  26
HETATM   26  O7  UNL     1     131.445   4.976  70.667  1.00  0.00    -0.377 OA
ATOM     27  H7  UNL     1     131.406   4.054  70.893  1.00  0.00     0.211 HD
ENDBRANCH   9  26
BRANCH   9  28
HETATM   28  C11 UNL     1     129.579   5.144  71.991  1.00  0.00     0.213 C 
BRANCH  28  29
HETATM   29  O8  UNL     1     129.583   3.788  71.761  1.00  0.00    -0.397 OA
ATOM     30  H8  UNL     1     129.050   3.287  72.367  1.00  0.00     0.209 HD
ENDBRANCH  28  29
ENDBRANCH   9  28
TORSDOF 11
ENDMDL
