MODEL 1
REMARK VINA RESULT: -8.261211684      0.000      0.000
REMARK  11 active torsions:
REMARK  status: ('A' for Active; 'I' for Inactive)
REMARK    1  A    between atoms: N1_1  and  N2_4 
REMARK    2  A    between atoms: N2_4  and  C1_5 
REMARK    3  A    between atoms: C1_5  and  O1_6 
REMARK    4  A    between atoms: C1_5  and  N3_8 
REMARK    5  A    between atoms: C5_15  and  O3_16 
REMARK    6  A    between atoms: C5_15  and  C6_18 
REMARK    7  A    between atoms: C6_18  and  O4_19 
REMARK    8  A    between atoms: C7_22  and  O6_23 
REMARK    9  A    between atoms: C7_22  and  C8_25 
REMARK   10  A    between atoms: C8_25  and  S1_26 
REMARK   11  A    between atoms: S1_26  and  N5_27 
ROOT
HETATM    1  N3  UNL     1     129.497   6.549  75.244  1.00  0.00    -0.210 N 
HETATM    2  N4  UNL     1     129.815   7.830  75.340  1.00  0.00    -0.290 N 
ATOM      3  H4  UNL     1     130.130   8.269  76.205  1.00  0.00     0.187 HD
HETATM    4  C2  UNL     1     129.680   8.485  74.190  1.00  0.00     0.106 A 
HETATM    5  C3  UNL     1     129.234   7.524  73.291  1.00  0.00     0.105 A 
HETATM    6  C4  UNL     1     129.136   6.357  73.970  1.00  0.00     0.279 A 
HETATM    7  O2  UNL     1     128.762   5.229  73.505  1.00  0.00    -0.266 OA
HETATM    8  C5  UNL     1     129.030   8.188  71.988  1.00  0.00     0.223 C 
HETATM    9  O5  UNL     1     129.152   9.526  72.205  1.00  0.00    -0.305 OA
HETATM   10  C7  UNL     1     129.781   9.723  73.443  1.00  0.00     0.226 C 
ENDROOT
BRANCH  10  11
HETATM   11  O6  UNL     1     129.033  10.723  74.071  1.00  0.00    -0.360 OA
ATOM     12  H6  UNL     1     128.178  10.796  73.662  1.00  0.00     0.213 HD
ENDBRANCH  10  11
BRANCH  10  13
HETATM   13  C8  UNL     1     131.157  10.184  73.206  1.00  0.00     0.238 C 
BRANCH  13  14
HETATM   14  S1  UNL     1     132.191  10.454  74.595  1.00  0.00     0.230 S 
HETATM   15  O7  UNL     1     132.758   9.216  75.204  1.00  0.00    -0.206 OA
HETATM   16  O8  UNL     1     133.335  11.409  74.311  1.00  0.00    -0.206 OA
BRANCH  14  17
HETATM   17  N5  UNL     1     131.274  11.297  75.846  1.00  0.00    -0.328 N 
ATOM     18  H52 UNL     1     131.494  11.272  76.842  1.00  0.00     0.168 HD
ATOM     19  H51 UNL     1     130.503  11.805  75.413  1.00  0.00     0.168 HD
ENDBRANCH  14  17
ENDBRANCH  13  14
ENDBRANCH  10  13
BRANCH   8  20
HETATM   20  O3  UNL     1     127.701   7.929  71.555  1.00  0.00    -0.360 OA
ATOM     21  H3  UNL     1     127.403   8.669  71.040  1.00  0.00     0.213 HD
ENDBRANCH   8  20
BRANCH   8  22
HETATM   22  C6  UNL     1     129.929   7.634  70.947  1.00  0.00     0.238 C 
BRANCH  22  23
HETATM   23  O4  UNL     1     129.999   6.232  71.022  1.00  0.00    -0.395 OA
ATOM     24  H4  UNL     1     130.662   5.886  70.436  1.00  0.00     0.209 HD
ENDBRANCH  22  23
ENDBRANCH   8  22
BRANCH   1  25
HETATM   25  C1  UNL     1     129.529   5.552  76.297  1.00  0.00     0.362 C 
BRANCH  25  26
HETATM   26  N2  UNL     1     130.022   6.058  77.537  1.00  0.00    -0.093 NA
BRANCH  26  27
HETATM   27  N1  UNL     1     129.281   5.645  78.642  1.00  0.00    -0.344 N 
ATOM     28  H12 UNL     1     128.658   6.275  79.148  1.00  0.00     0.172 HD
ATOM     29  H11 UNL     1     129.425   4.665  78.886  1.00  0.00     0.172 HD
ENDBRANCH  26  27
ENDBRANCH  25  26
BRANCH  25  30
HETATM   30  O1  UNL     1     128.231   5.049  76.544  1.00  0.00    -0.360 OA
ATOM     31  H1  UNL     1     128.210   4.161  76.208  1.00  0.00     0.213 HD
ENDBRANCH  25  30
ENDBRANCH   1  25
TORSDOF 11
ENDMDL
MODEL 2
REMARK VINA RESULT: -8.026249894      1.641      1.803
REMARK  11 active torsions:
REMARK  status: ('A' for Active; 'I' for Inactive)
REMARK    1  A    between atoms: N1_1  and  N2_4 
REMARK    2  A    between atoms: N2_4  and  C1_5 
REMARK    3  A    between atoms: C1_5  and  O1_6 
REMARK    4  A    between atoms: C1_5  and  N3_8 
REMARK    5  A    between atoms: C5_15  and  O3_16 
REMARK    6  A    between atoms: C5_15  and  C6_18 
REMARK    7  A    between atoms: C6_18  and  O4_19 
REMARK    8  A    between atoms: C7_22  and  O6_23 
REMARK    9  A    between atoms: C7_22  and  C8_25 
REMARK   10  A    between atoms: C8_25  and  S1_26 
REMARK   11  A    between atoms: S1_26  and  N5_27 
ROOT
HETATM    1  N3  UNL     1     129.125   6.782  75.330  1.00  0.00    -0.210 N 
HETATM    2  N4  UNL     1     129.667   7.989  75.337  1.00  0.00    -0.290 N 
ATOM      3  H4  UNL     1     129.977   8.463  76.185  1.00  0.00     0.187 HD
HETATM    4  C2  UNL     1     129.767   8.520  74.121  1.00  0.00     0.106 A 
HETATM    5  C3  UNL     1     129.234   7.556  73.274  1.00  0.00     0.105 A 
HETATM    6  C4  UNL     1     128.855   6.511  74.047  1.00  0.00     0.279 A 
HETATM    7  O2  UNL     1     128.320   5.421  73.653  1.00  0.00    -0.266 OA
HETATM    8  C5  UNL     1     129.282   8.090  71.898  1.00  0.00     0.223 C 
HETATM    9  O5  UNL     1     129.631   9.401  71.997  1.00  0.00    -0.305 OA
HETATM   10  C7  UNL     1     130.168   9.626  73.274  1.00  0.00     0.226 C 
ENDROOT
BRANCH  10  11
HETATM   11  O6  UNL     1     129.566  10.808  73.714  1.00  0.00    -0.360 OA
ATOM     12  H6  UNL     1     130.208  11.509  73.746  1.00  0.00     0.213 HD
ENDBRANCH  10  11
BRANCH  10  13
HETATM   13  C8  UNL     1     131.623   9.805  73.151  1.00  0.00     0.238 C 
BRANCH  13  14
HETATM   14  S1  UNL     1     132.227  10.777  71.824  1.00  0.00     0.230 S 
HETATM   15  O7  UNL     1     133.344  11.699  72.180  1.00  0.00    -0.206 OA
HETATM   16  O8  UNL     1     132.656   9.952  70.626  1.00  0.00    -0.206 OA
BRANCH  14  17
HETATM   17  N5  UNL     1     130.909  11.758  71.175  1.00  0.00    -0.328 N 
ATOM     18  H52 UNL     1     130.635  12.672  71.536  1.00  0.00     0.168 HD
ATOM     19  H51 UNL     1     130.477  11.265  70.394  1.00  0.00     0.168 HD
ENDBRANCH  14  17
ENDBRANCH  13  14
ENDBRANCH  10  13
BRANCH   8  20
HETATM   20  O3  UNL     1     127.973   8.022  71.345  1.00  0.00    -0.360 OA
ATOM     21  H3  UNL     1     128.035   8.174  70.409  1.00  0.00     0.213 HD
ENDBRANCH   8  20
BRANCH   8  22
HETATM   22  C6  UNL     1     130.153   7.269  71.024  1.00  0.00     0.238 C 
BRANCH  22  23
HETATM   23  O4  UNL     1     130.652   8.020  69.945  1.00  0.00    -0.395 OA
ATOM     24  H4  UNL     1     131.072   7.463  69.299  1.00  0.00     0.209 HD
ENDBRANCH  22  23
ENDBRANCH   8  22
BRANCH   1  25
HETATM   25  C1  UNL     1     128.870   5.923  76.471  1.00  0.00     0.362 C 
BRANCH  25  26
HETATM   26  N2  UNL     1     129.848   6.054  77.502  1.00  0.00    -0.093 NA
BRANCH  26  27
HETATM   27  N1  UNL     1     129.384   5.679  78.761  1.00  0.00    -0.344 N 
ATOM     28  H12 UNL     1     128.564   5.084  78.885  1.00  0.00     0.172 HD
ATOM     29  H11 UNL     1     129.940   6.054  79.529  1.00  0.00     0.172 HD
ENDBRANCH  26  27
ENDBRANCH  25  26
BRANCH  25  30
HETATM   30  O1  UNL     1     127.617   6.226  77.050  1.00  0.00    -0.360 OA
ATOM     31  H1  UNL     1     127.450   7.145  76.882  1.00  0.00     0.213 HD
ENDBRANCH  25  30
ENDBRANCH   1  25
TORSDOF 11
ENDMDL
MODEL 3
REMARK VINA RESULT: -8.006143895      0.808      1.034
REMARK  11 active torsions:
REMARK  status: ('A' for Active; 'I' for Inactive)
REMARK    1  A    between atoms: N1_1  and  N2_4 
REMARK    2  A    between atoms: N2_4  and  C1_5 
REMARK    3  A    between atoms: C1_5  and  O1_6 
REMARK    4  A    between atoms: C1_5  and  N3_8 
REMARK    5  A    between atoms: C5_15  and  O3_16 
REMARK    6  A    between atoms: C5_15  and  C6_18 
REMARK    7  A    between atoms: C6_18  and  O4_19 
REMARK    8  A    between atoms: C7_22  and  O6_23 
REMARK    9  A    between atoms: C7_22  and  C8_25 
REMARK   10  A    between atoms: C8_25  and  S1_26 
REMARK   11  A    between atoms: S1_26  and  N5_27 
ROOT
HETATM    1  N3  UNL     1     129.517   6.567  75.183  1.00  0.00    -0.210 N 
HETATM    2  N4  UNL     1     129.857   7.843  75.274  1.00  0.00    -0.290 N 
ATOM      3  H4  UNL     1     130.189   8.278  76.134  1.00  0.00     0.187 HD
HETATM    4  C2  UNL     1     129.718   8.500  74.125  1.00  0.00     0.106 A 
HETATM    5  C3  UNL     1     129.246   7.545  73.232  1.00  0.00     0.105 A 
HETATM    6  C4  UNL     1     129.138   6.381  73.913  1.00  0.00     0.279 A 
HETATM    7  O2  UNL     1     128.740   5.258  73.453  1.00  0.00    -0.266 OA
HETATM    8  C5  UNL     1     129.035   8.212  71.931  1.00  0.00     0.223 C 
HETATM    9  O5  UNL     1     129.180   9.548  72.146  1.00  0.00    -0.305 OA
HETATM   10  C7  UNL     1     129.828   9.735  73.376  1.00  0.00     0.226 C 
ENDROOT
BRANCH  10  11
HETATM   11  O6  UNL     1     129.104  10.748  74.012  1.00  0.00    -0.360 OA
ATOM     12  H6  UNL     1     129.683  11.271  74.555  1.00  0.00     0.213 HD
ENDBRANCH  10  11
BRANCH  10  13
HETATM   13  C8  UNL     1     131.209  10.175  73.120  1.00  0.00     0.238 C 
BRANCH  13  14
HETATM   14  S1  UNL     1     132.267  10.419  74.495  1.00  0.00     0.230 S 
HETATM   15  O7  UNL     1     133.183  11.591  74.381  1.00  0.00    -0.206 OA
HETATM   16  O8  UNL     1     131.521  10.527  75.811  1.00  0.00    -0.206 OA
BRANCH  14  17
HETATM   17  N5  UNL     1     133.264   8.980  74.725  1.00  0.00    -0.328 N 
ATOM     18  H52 UNL     1     133.334   8.456  75.597  1.00  0.00     0.168 HD
ATOM     19  H51 UNL     1     133.749   8.765  73.854  1.00  0.00     0.168 HD
ENDBRANCH  14  17
ENDBRANCH  13  14
ENDBRANCH  10  13
BRANCH   8  20
HETATM   20  O3  UNL     1     127.696   7.973  71.516  1.00  0.00    -0.360 OA
ATOM     21  H3  UNL     1     127.172   8.732  71.743  1.00  0.00     0.213 HD
ENDBRANCH   8  20
BRANCH   8  22
HETATM   22  C6  UNL     1     129.912   7.643  70.880  1.00  0.00     0.238 C 
BRANCH  22  23
HETATM   23  O4  UNL     1     129.982   6.242  70.971  1.00  0.00    -0.395 OA
ATOM     24  H4  UNL     1     130.821   5.916  70.669  1.00  0.00     0.209 HD
ENDBRANCH  22  23
ENDBRANCH   8  22
BRANCH   1  25
HETATM   25  C1  UNL     1     129.548   5.570  76.236  1.00  0.00     0.362 C 
BRANCH  25  26
HETATM   26  N2  UNL     1     130.034   6.078  77.478  1.00  0.00    -0.093 NA
BRANCH  26  27
HETATM   27  N1  UNL     1     129.283   5.671  78.578  1.00  0.00    -0.344 N 
ATOM     28  H12 UNL     1     129.563   4.889  79.171  1.00  0.00     0.172 HD
ATOM     29  H11 UNL     1     128.441   6.228  78.726  1.00  0.00     0.172 HD
ENDBRANCH  26  27
ENDBRANCH  25  26
BRANCH  25  30
HETATM   30  O1  UNL     1     128.250   5.064  76.477  1.00  0.00    -0.360 OA
ATOM     31  H1  UNL     1     127.995   4.575  75.705  1.00  0.00     0.213 HD
ENDBRANCH  25  30
ENDBRANCH   1  25
TORSDOF 11
ENDMDL
MODEL 4
REMARK VINA RESULT: -7.900987663      1.550      1.798
REMARK  11 active torsions:
REMARK  status: ('A' for Active; 'I' for Inactive)
REMARK    1  A    between atoms: N1_1  and  N2_4 
REMARK    2  A    between atoms: N2_4  and  C1_5 
REMARK    3  A    between atoms: C1_5  and  O1_6 
REMARK    4  A    between atoms: C1_5  and  N3_8 
REMARK    5  A    between atoms: C5_15  and  O3_16 
REMARK    6  A    between atoms: C5_15  and  C6_18 
REMARK    7  A    between atoms: C6_18  and  O4_19 
REMARK    8  A    between atoms: C7_22  and  O6_23 
REMARK    9  A    between atoms: C7_22  and  C8_25 
REMARK   10  A    between atoms: C8_25  and  S1_26 
REMARK   11  A    between atoms: S1_26  and  N5_27 
ROOT
HETATM    1  N3  UNL     1     128.888   6.902  75.040  1.00  0.00    -0.210 N 
HETATM    2  N4  UNL     1     129.430   8.100  74.893  1.00  0.00    -0.290 N 
ATOM      3  H4  UNL     1     129.496   8.785  75.647  1.00  0.00     0.187 HD
HETATM    4  C2  UNL     1     129.878   8.319  73.660  1.00  0.00     0.106 A 
HETATM    5  C3  UNL     1     129.589   7.148  72.970  1.00  0.00     0.105 A 
HETATM    6  C4  UNL     1     128.987   6.308  73.844  1.00  0.00     0.279 A 
HETATM    7  O2  UNL     1     128.565   5.127  73.606  1.00  0.00    -0.266 OA
HETATM    8  C5  UNL     1     130.033   7.328  71.573  1.00  0.00     0.223 C 
HETATM    9  O5  UNL     1     130.365   8.640  71.432  1.00  0.00    -0.305 OA
HETATM   10  C7  UNL     1     130.523   9.201  72.708  1.00  0.00     0.226 C 
ENDROOT
BRANCH  10  11
HETATM   11  O6  UNL     1     129.844  10.422  72.650  1.00  0.00    -0.360 OA
ATOM     12  H6  UNL     1     130.131  10.989  73.357  1.00  0.00     0.213 HD
ENDBRANCH  10  11
BRANCH  10  13
HETATM   13  C8  UNL     1     131.956   9.423  72.953  1.00  0.00     0.238 C 
BRANCH  13  14
HETATM   14  S1  UNL     1     132.505  11.064  73.230  1.00  0.00     0.230 S 
HETATM   15  O7  UNL     1     133.984  11.218  73.352  1.00  0.00    -0.206 OA
HETATM   16  O8  UNL     1     132.012  12.043  72.182  1.00  0.00    -0.206 OA
BRANCH  14  17
HETATM   17  N5  UNL     1     131.776  11.677  74.716  1.00  0.00    -0.328 N 
ATOM     18  H52 UNL     1     130.840  11.438  75.045  1.00  0.00     0.168 HD
ATOM     19  H51 UNL     1     132.437  12.299  75.182  1.00  0.00     0.168 HD
ENDBRANCH  14  17
ENDBRANCH  13  14
ENDBRANCH  10  13
BRANCH   8  20
HETATM   20  O3  UNL     1     128.933   7.056  70.714  1.00  0.00    -0.360 OA
ATOM     21  H3  UNL     1     129.213   7.189  69.816  1.00  0.00     0.213 HD
ENDBRANCH   8  20
BRANCH   8  22
HETATM   22  C6  UNL     1     131.100   6.365  71.212  1.00  0.00     0.238 C 
BRANCH  22  23
HETATM   23  O4  UNL     1     130.630   5.040  71.246  1.00  0.00    -0.395 OA
ATOM     24  H4  UNL     1     130.595   4.707  72.135  1.00  0.00     0.209 HD
ENDBRANCH  22  23
ENDBRANCH   8  22
BRANCH   1  25
HETATM   25  C1  UNL     1     128.306   6.339  76.244  1.00  0.00     0.362 C 
BRANCH  25  26
HETATM   26  N2  UNL     1     126.880   6.404  76.263  1.00  0.00    -0.093 NA
BRANCH  26  27
HETATM   27  N1  UNL     1     126.263   5.270  75.742  1.00  0.00    -0.344 N 
ATOM     28  H12 UNL     1     125.478   4.814  76.207  1.00  0.00     0.172 HD
ATOM     29  H11 UNL     1     126.671   4.950  74.863  1.00  0.00     0.172 HD
ENDBRANCH  26  27
ENDBRANCH  25  26
BRANCH  25  30
HETATM   30  O1  UNL     1     128.657   4.976  76.374  1.00  0.00    -0.360 OA
ATOM     31  H1  UNL     1     129.351   4.930  77.020  1.00  0.00     0.213 HD
ENDBRANCH  25  30
ENDBRANCH   1  25
TORSDOF 11
ENDMDL
MODEL 5
REMARK VINA RESULT: -7.870633122      3.389      6.528
REMARK  11 active torsions:
REMARK  status: ('A' for Active; 'I' for Inactive)
REMARK    1  A    between atoms: N1_1  and  N2_4 
REMARK    2  A    between atoms: N2_4  and  C1_5 
REMARK    3  A    between atoms: C1_5  and  O1_6 
REMARK    4  A    between atoms: C1_5  and  N3_8 
REMARK    5  A    between atoms: C5_15  and  O3_16 
REMARK    6  A    between atoms: C5_15  and  C6_18 
REMARK    7  A    between atoms: C6_18  and  O4_19 
REMARK    8  A    between atoms: C7_22  and  O6_23 
REMARK    9  A    between atoms: C7_22  and  C8_25 
REMARK   10  A    between atoms: C8_25  and  S1_26 
REMARK   11  A    between atoms: S1_26  and  N5_27 
ROOT
HETATM    1  N3  UNL     1     131.410  11.147  70.530  1.00  0.00    -0.210 N 
HETATM    2  N4  UNL     1     130.668  10.091  70.240  1.00  0.00    -0.290 N 
ATOM      3  H4  UNL     1     130.529   9.743  69.291  1.00  0.00     0.187 HD
HETATM    4  C2  UNL     1     130.121   9.530  71.316  1.00  0.00     0.106 A 
HETATM    5  C3  UNL     1     130.561  10.310  72.378  1.00  0.00     0.105 A 
HETATM    6  C4  UNL     1     131.345  11.285  71.860  1.00  0.00     0.279 A 
HETATM    7  O2  UNL     1     131.946  12.209  72.504  1.00  0.00    -0.266 OA
HETATM    8  C5  UNL     1     129.965   9.764  73.614  1.00  0.00     0.223 C 
HETATM    9  O5  UNL     1     129.046   8.837  73.230  1.00  0.00    -0.305 OA
HETATM   10  C7  UNL     1     129.288   8.494  71.891  1.00  0.00     0.226 C 
ENDROOT
BRANCH  10  11
HETATM   11  O6  UNL     1     128.028   8.501  71.286  1.00  0.00    -0.360 OA
ATOM     12  H6  UNL     1     127.414   7.993  71.805  1.00  0.00     0.213 HD
ENDBRANCH  10  11
BRANCH  10  13
HETATM   13  C8  UNL     1     129.872   7.144  71.847  1.00  0.00     0.238 C 
BRANCH  13  14
HETATM   14  S1  UNL     1     129.271   5.946  72.975  1.00  0.00     0.230 S 
HETATM   15  O7  UNL     1     129.133   4.571  72.414  1.00  0.00    -0.206 OA
HETATM   16  O8  UNL     1     130.093   5.858  74.247  1.00  0.00    -0.206 OA
BRANCH  14  17
HETATM   17  N5  UNL     1     127.684   6.446  73.565  1.00  0.00    -0.328 N 
ATOM     18  H52 UNL     1     127.100   7.159  73.126  1.00  0.00     0.168 HD
ATOM     19  H51 UNL     1     127.454   5.914  74.404  1.00  0.00     0.168 HD
ENDBRANCH  14  17
ENDBRANCH  13  14
ENDBRANCH  10  13
BRANCH   8  20
HETATM   20  O3  UNL     1     129.280  10.814  74.284  1.00  0.00    -0.360 OA
ATOM     21  H3  UNL     1     128.378  10.822  73.987  1.00  0.00     0.213 HD
ENDBRANCH   8  20
BRANCH   8  22
HETATM   22  C6  UNL     1     131.005   9.272  74.549  1.00  0.00     0.238 C 
BRANCH  22  23
HETATM   23  O4  UNL     1     130.449   8.463  75.556  1.00  0.00    -0.395 OA
ATOM     24  H4  UNL     1     130.247   7.593  75.230  1.00  0.00     0.209 HD
ENDBRANCH  22  23
ENDBRANCH   8  22
BRANCH   1  25
HETATM   25  C1  UNL     1     132.146  11.989  69.605  1.00  0.00     0.362 C 
BRANCH  25  26
HETATM   26  N2  UNL     1     131.437  13.171  69.235  1.00  0.00    -0.093 NA
BRANCH  26  27
HETATM   27  N1  UNL     1     131.709  14.264  70.056  1.00  0.00    -0.344 N 
ATOM     28  H12 UNL     1     132.092  15.137  69.693  1.00  0.00     0.172 HD
ATOM     29  H11 UNL     1     131.488  14.101  71.038  1.00  0.00     0.172 HD
ENDBRANCH  26  27
ENDBRANCH  25  26
BRANCH  25  30
HETATM   30  O1  UNL     1     133.369  12.404  70.178  1.00  0.00    -0.360 OA
ATOM     31  H1  UNL     1     133.570  13.257  69.813  1.00  0.00     0.213 HD
ENDBRANCH  25  30
ENDBRANCH   1  25
TORSDOF 11
ENDMDL
