MODEL 1
REMARK VINA RESULT: -8.260978460      0.000      0.000
REMARK  11 active torsions:
REMARK  status: ('A' for Active; 'I' for Inactive)
REMARK    1  A    between atoms: N1_1  and  N2_4 
REMARK       I    between atoms: N2_4  and  C1_5 
REMARK    2  A    between atoms: C1_5  and  C2_7 
REMARK    3  A    between atoms: C2_7  and  O2_8 
REMARK    4  A    between atoms: C2_7  and  C3_10 
REMARK    5  A    between atoms: C6_15  and  N4_16 
REMARK    6  A    between atoms: C7_20  and  O4_21 
REMARK    7  A    between atoms: O4_21  and  C8_22 
REMARK    8  A    between atoms: C9_23  and  N5_24 
REMARK    9  A    between atoms: C11_32  and  C12_33 
REMARK   10  A    between atoms: C12_33  and  O5_34 
REMARK   11  A    between atoms: C12_33  and  O6_36 
ROOT
HETATM    1  C3  UNL     1     129.674   8.529  72.714  1.00  0.00     0.061 C 
HETATM    2  C4  UNL     1     129.571   9.616  72.003  1.00  0.00     0.164 C 
HETATM    3  N3  UNL     1     128.751   9.867  70.888  1.00  0.00    -0.074 NA
HETATM    4  O3  UNL     1     130.377  10.753  72.359  1.00  0.00    -0.335 OA
HETATM    5  C5  UNL     1     130.436  11.032  73.731  1.00  0.00     0.212 C 
HETATM    6  C6  UNL     1     130.925   9.811  74.436  1.00  0.00     0.241 C 
HETATM    7  C7  UNL     1     130.728   8.490  73.834  1.00  0.00     0.194 C 
ENDROOT
BRANCH   7   8
HETATM    8  O4  UNL     1     131.942   8.038  73.301  1.00  0.00    -0.369 OA
BRANCH   8   9
HETATM    9  C8  UNL     1     133.064   8.480  73.946  1.00  0.00     0.190 C 
HETATM   10  C9  UNL     1     134.213   8.792  72.996  1.00  0.00     0.240 C 
HETATM   11  C10 UNL     1     135.457   8.219  73.641  1.00  0.00     0.268 C 
HETATM   12  N6  UNL     1     135.050   7.753  74.952  1.00  0.00    -0.062 N 
HETATM   13  C11 UNL     1     133.666   7.349  74.747  1.00  0.00     0.271 C 
ATOM     14  H62 UNL     1     135.648   7.029  75.349  1.00  0.00     0.277 HD
ATOM     15  H61 UNL     1     135.188   8.428  75.704  1.00  0.00     0.277 HD
BRANCH  10  16
HETATM   16  N5  UNL     1     134.408  10.213  72.828  1.00  0.00    -0.071 N 
ATOM     17  H53 UNL     1     135.031  10.589  73.543  1.00  0.00     0.274 HD
ATOM     18  H52 UNL     1     134.972  10.414  72.002  1.00  0.00     0.274 HD
ATOM     19  H51 UNL     1     133.524  10.722  72.805  1.00  0.00     0.274 HD
ENDBRANCH  10  16
BRANCH  13  20
HETATM   20  C12 UNL     1     133.662   6.065  73.992  1.00  0.00     0.287 C 
BRANCH  20  21
HETATM   21  O5  UNL     1     132.414   5.459  73.954  1.00  0.00    -0.369 OA
ATOM     22  H5  UNL     1     132.454   4.536  73.732  1.00  0.00     0.212 HD
ENDBRANCH  20  21
BRANCH  20  23
HETATM   23  O6  UNL     1     134.530   5.164  74.661  1.00  0.00    -0.369 OA
ATOM     24  H6  UNL     1     134.754   4.469  74.053  1.00  0.00     0.212 HD
ENDBRANCH  20  23
ENDBRANCH  13  20
ENDBRANCH   8   9
ENDBRANCH   7   8
BRANCH   1  25
HETATM   25  C2  UNL     1     128.931   7.322  72.487  1.00  0.00     0.163 C 
BRANCH  25  26
HETATM   26  C1  UNL     1     129.164   5.910  72.571  1.00  0.00     0.368 C 
HETATM   27  N2  UNL     1     130.256   5.352  71.787  1.00  0.00    -0.286 NA
HETATM   28  O1  UNL     1     128.490   5.153  73.266  1.00  0.00    -0.247 OA
BRANCH  27  29
HETATM   29  N1  UNL     1     131.188   4.868  71.119  1.00  0.00    -0.276 N 
ATOM     30  H12 UNL     1     130.609   5.157  71.908  1.00  0.00     0.191 HD
ATOM     31  H11 UNL     1     131.949   4.473  70.568  1.00  0.00     0.191 HD
ENDBRANCH  27  29
ENDBRANCH  25  26
BRANCH  25  32
HETATM   32  O2  UNL     1     127.667   7.523  72.087  1.00  0.00    -0.354 OA
ATOM     33  H2  UNL     1     127.668   8.175  71.395  1.00  0.00     0.218 HD
ENDBRANCH  25  32
ENDBRANCH   1  25
BRANCH   6  34
HETATM   34  N4  UNL     1     130.501   9.871  75.845  1.00  0.00    -0.070 N 
ATOM     35  H43 UNL     1     131.017  10.571  76.377  1.00  0.00     0.274 HD
ATOM     36  H42 UNL     1     129.569  10.268  75.954  1.00  0.00     0.274 HD
ATOM     37  H41 UNL     1     130.577   8.939  76.253  1.00  0.00     0.274 HD
ENDBRANCH   6  34
TORSDOF 11
ENDMDL
MODEL 2
REMARK VINA RESULT: -8.258251055      2.710      4.807
REMARK  11 active torsions:
REMARK  status: ('A' for Active; 'I' for Inactive)
REMARK    1  A    between atoms: N1_1  and  N2_4 
REMARK       I    between atoms: N2_4  and  C1_5 
REMARK    2  A    between atoms: C1_5  and  C2_7 
REMARK    3  A    between atoms: C2_7  and  O2_8 
REMARK    4  A    between atoms: C2_7  and  C3_10 
REMARK    5  A    between atoms: C6_15  and  N4_16 
REMARK    6  A    between atoms: C7_20  and  O4_21 
REMARK    7  A    between atoms: O4_21  and  C8_22 
REMARK    8  A    between atoms: C9_23  and  N5_24 
REMARK    9  A    between atoms: C11_32  and  C12_33 
REMARK   10  A    between atoms: C12_33  and  O5_34 
REMARK   11  A    between atoms: C12_33  and  O6_36 
ROOT
HETATM    1  C3  UNL     1     131.094   5.765  74.067  1.00  0.00     0.061 C 
HETATM    2  C4  UNL     1     131.845   4.843  73.535  1.00  0.00     0.164 C 
HETATM    3  N3  UNL     1     132.330   3.656  74.114  1.00  0.00    -0.074 NA
HETATM    4  O3  UNL     1     132.269   4.999  72.169  1.00  0.00    -0.335 OA
HETATM    5  C5  UNL     1     131.271   5.432  71.285  1.00  0.00     0.212 C 
HETATM    6  C6  UNL     1     130.711   6.715  71.803  1.00  0.00     0.241 C 
HETATM    7  C7  UNL     1     130.785   7.020  73.234  1.00  0.00     0.194 C 
ENDROOT
BRANCH   7   8
HETATM    8  O4  UNL     1     131.790   7.971  73.454  1.00  0.00    -0.369 OA
BRANCH   8   9
HETATM    9  C8  UNL     1     131.609   9.170  72.819  1.00  0.00     0.190 C 
HETATM   10  C9  UNL     1     132.919   9.828  72.407  1.00  0.00     0.240 C 
HETATM   11  C10 UNL     1     132.779  11.294  72.758  1.00  0.00     0.268 C 
HETATM   12  N6  UNL     1     131.409  11.471  73.195  1.00  0.00    -0.062 N 
HETATM   13  C11 UNL     1     131.083  10.189  73.802  1.00  0.00     0.271 C 
ATOM     14  H62 UNL     1     131.258  12.277  73.802  1.00  0.00     0.277 HD
ATOM     15  H61 UNL     1     130.765  11.770  72.462  1.00  0.00     0.277 HD
BRANCH  10  16
HETATM   16  N5  UNL     1     133.155   9.727  70.986  1.00  0.00    -0.071 N 
ATOM     17  H53 UNL     1     133.565   8.826  70.742  1.00  0.00     0.274 HD
ATOM     18  H52 UNL     1     132.278   9.649  70.471  1.00  0.00     0.274 HD
ATOM     19  H51 UNL     1     133.723  10.499  70.634  1.00  0.00     0.274 HD
ENDBRANCH  10  16
BRANCH  13  20
HETATM   20  C12 UNL     1     131.776  10.106  75.118  1.00  0.00     0.287 C 
BRANCH  20  21
HETATM   21  O5  UNL     1     131.339   9.045  75.898  1.00  0.00    -0.369 OA
ATOM     22  H5  UNL     1     130.591   9.265  76.441  1.00  0.00     0.212 HD
ENDBRANCH  20  21
BRANCH  20  23
HETATM   23  O6  UNL     1     131.480  11.290  75.841  1.00  0.00    -0.369 OA
ATOM     24  H6  UNL     1     130.808  11.082  76.479  1.00  0.00     0.212 HD
ENDBRANCH  20  23
ENDBRANCH  13  20
ENDBRANCH   8   9
ENDBRANCH   7   8
BRANCH   1  25
HETATM   25  C2  UNL     1     130.589   5.742  75.410  1.00  0.00     0.163 C 
BRANCH  25  26
HETATM   26  C1  UNL     1     129.316   5.590  76.054  1.00  0.00     0.368 C 
HETATM   27  N2  UNL     1     129.274   5.669  77.507  1.00  0.00    -0.286 NA
HETATM   28  O1  UNL     1     128.267   5.396  75.443  1.00  0.00    -0.247 OA
BRANCH  27  29
HETATM   29  N1  UNL     1     129.231   5.736  78.749  1.00  0.00    -0.276 N 
ATOM     30  H12 UNL     1     128.954   5.751  77.767  1.00  0.00     0.191 HD
ATOM     31  H11 UNL     1     129.201   5.789  79.767  1.00  0.00     0.191 HD
ENDBRANCH  27  29
ENDBRANCH  25  26
BRANCH  25  32
HETATM   32  O2  UNL     1     131.528   5.898  76.353  1.00  0.00    -0.354 OA
ATOM     33  H2  UNL     1     132.218   6.451  76.004  1.00  0.00     0.218 HD
ENDBRANCH  25  32
ENDBRANCH   1  25
BRANCH   6  34
HETATM   34  N4  UNL     1     129.364   6.909  71.242  1.00  0.00    -0.070 N 
ATOM     35  H43 UNL     1     129.047   7.875  71.317  1.00  0.00     0.274 HD
ATOM     36  H42 UNL     1     129.352   6.835  70.225  1.00  0.00     0.274 HD
ATOM     37  H41 UNL     1     128.722   6.253  71.687  1.00  0.00     0.274 HD
ENDBRANCH   6  34
TORSDOF 11
ENDMDL
MODEL 3
REMARK VINA RESULT: -8.164025907      3.421      5.720
REMARK  11 active torsions:
REMARK  status: ('A' for Active; 'I' for Inactive)
REMARK    1  A    between atoms: N1_1  and  N2_4 
REMARK       I    between atoms: N2_4  and  C1_5 
REMARK    2  A    between atoms: C1_5  and  C2_7 
REMARK    3  A    between atoms: C2_7  and  O2_8 
REMARK    4  A    between atoms: C2_7  and  C3_10 
REMARK    5  A    between atoms: C6_15  and  N4_16 
REMARK    6  A    between atoms: C7_20  and  O4_21 
REMARK    7  A    between atoms: O4_21  and  C8_22 
REMARK    8  A    between atoms: C9_23  and  N5_24 
REMARK    9  A    between atoms: C11_32  and  C12_33 
REMARK   10  A    between atoms: C12_33  and  O5_34 
REMARK   11  A    between atoms: C12_33  and  O6_36 
ROOT
HETATM    1  C3  UNL     1     132.283  12.145  71.624  1.00  0.00     0.061 C 
HETATM    2  C4  UNL     1     133.204  12.726  72.340  1.00  0.00     0.164 C 
HETATM    3  N3  UNL     1     134.038  13.806  71.998  1.00  0.00    -0.074 NA
HETATM    4  O3  UNL     1     133.448  12.245  73.673  1.00  0.00    -0.335 OA
HETATM    5  C5  UNL     1     132.296  11.974  74.425  1.00  0.00     0.212 C 
HETATM    6  C6  UNL     1     131.461  10.996  73.668  1.00  0.00     0.241 C 
HETATM    7  C7  UNL     1     131.577  10.911  72.210  1.00  0.00     0.194 C 
ENDROOT
BRANCH   7   8
HETATM    8  O4  UNL     1     132.306   9.765  71.869  1.00  0.00    -0.369 OA
BRANCH   8   9
HETATM    9  C8  UNL     1     131.929   8.619  72.515  1.00  0.00     0.190 C 
HETATM   10  C9  UNL     1     133.049   7.591  72.605  1.00  0.00     0.240 C 
HETATM   11  C10 UNL     1     132.416   6.254  72.281  1.00  0.00     0.268 C 
HETATM   12  N6  UNL     1     130.992   6.501  72.172  1.00  0.00    -0.062 N 
HETATM   13  C11 UNL     1     130.928   7.867  71.671  1.00  0.00     0.271 C 
ATOM     14  H62 UNL     1     130.485   5.819  71.609  1.00  0.00     0.277 HD
ATOM     15  H61 UNL     1     130.467   6.339  73.031  1.00  0.00     0.277 HD
BRANCH  10  16
HETATM   16  N5  UNL     1     133.610   7.512  73.933  1.00  0.00    -0.071 N 
ATOM     17  H53 UNL     1     134.628   7.577  73.910  1.00  0.00     0.274 HD
ATOM     18  H52 UNL     1     133.407   8.355  74.470  1.00  0.00     0.274 HD
ATOM     19  H51 UNL     1     133.305   6.675  74.430  1.00  0.00     0.274 HD
ENDBRANCH  10  16
BRANCH  13  20
HETATM   20  C12 UNL     1     131.309   7.854  70.231  1.00  0.00     0.287 C 
BRANCH  20  21
HETATM   21  O5  UNL     1     130.888   8.985  69.546  1.00  0.00    -0.369 OA
ATOM     22  H5  UNL     1     131.487   9.248  68.857  1.00  0.00     0.212 HD
ENDBRANCH  20  21
BRANCH  20  23
HETATM   23  O6  UNL     1     130.664   6.747  69.620  1.00  0.00    -0.369 OA
ATOM     24  H6  UNL     1     129.732   6.933  69.589  1.00  0.00     0.212 HD
ENDBRANCH  20  23
ENDBRANCH  13  20
ENDBRANCH   8   9
ENDBRANCH   7   8
BRANCH   1  25
HETATM   25  C2  UNL     1     131.923  12.519  70.285  1.00  0.00     0.163 C 
BRANCH  25  26
HETATM   26  C1  UNL     1     131.539  13.715  69.593  1.00  0.00     0.368 C 
HETATM   27  N2  UNL     1     131.634  14.978  70.312  1.00  0.00    -0.286 NA
HETATM   28  O1  UNL     1     131.134  13.726  68.433  1.00  0.00    -0.247 OA
BRANCH  27  29
HETATM   29  N1  UNL     1     131.713  16.061  70.920  1.00  0.00    -0.276 N 
ATOM     30  H12 UNL     1     131.390  15.143  70.613  1.00  0.00     0.191 HD
ATOM     31  H11 UNL     1     131.783  16.950  71.415  1.00  0.00     0.191 HD
ENDBRANCH  27  29
ENDBRANCH  25  26
BRANCH  25  32
HETATM   32  O2  UNL     1     131.938  11.505  69.409  1.00  0.00    -0.354 OA
ATOM     33  H2  UNL     1     131.828  10.691  69.887  1.00  0.00     0.218 HD
ENDBRANCH  25  32
ENDBRANCH   1  25
BRANCH   6  34
HETATM   34  N4  UNL     1     130.067  11.100  74.130  1.00  0.00    -0.070 N 
ATOM     35  H43 UNL     1     129.994  11.522  75.055  1.00  0.00     0.274 HD
ATOM     36  H42 UNL     1     129.537  11.800  73.612  1.00  0.00     0.274 HD
ATOM     37  H41 UNL     1     129.636  10.177  74.089  1.00  0.00     0.274 HD
ENDBRANCH   6  34
TORSDOF 11
ENDMDL
MODEL 4
REMARK VINA RESULT: -8.145387119      2.010      2.291
REMARK  11 active torsions:
REMARK  status: ('A' for Active; 'I' for Inactive)
REMARK    1  A    between atoms: N1_1  and  N2_4 
REMARK       I    between atoms: N2_4  and  C1_5 
REMARK    2  A    between atoms: C1_5  and  C2_7 
REMARK    3  A    between atoms: C2_7  and  O2_8 
REMARK    4  A    between atoms: C2_7  and  C3_10 
REMARK    5  A    between atoms: C6_15  and  N4_16 
REMARK    6  A    between atoms: C7_20  and  O4_21 
REMARK    7  A    between atoms: O4_21  and  C8_22 
REMARK    8  A    between atoms: C9_23  and  N5_24 
REMARK    9  A    between atoms: C11_32  and  C12_33 
REMARK   10  A    between atoms: C12_33  and  O5_34 
REMARK   11  A    between atoms: C12_33  and  O6_36 
ROOT
HETATM    1  C3  UNL     1     129.154   7.392  73.289  1.00  0.00     0.061 C 
HETATM    2  C4  UNL     1     128.865   8.182  72.294  1.00  0.00     0.164 C 
HETATM    3  N3  UNL     1     127.870   8.036  71.311  1.00  0.00    -0.074 NA
HETATM    4  O3  UNL     1     129.630   9.389  72.125  1.00  0.00    -0.335 OA
HETATM    5  C5  UNL     1     129.877  10.104  73.305  1.00  0.00     0.212 C 
HETATM    6  C6  UNL     1     130.555   9.194  74.273  1.00  0.00     0.241 C 
HETATM    7  C7  UNL     1     130.366   7.745  74.169  1.00  0.00     0.194 C 
ENDROOT
BRANCH   7   8
HETATM    8  O4  UNL     1     131.515   7.165  73.615  1.00  0.00    -0.369 OA
BRANCH   8   9
HETATM    9  C8  UNL     1     132.627   7.198  74.412  1.00  0.00     0.190 C 
HETATM   10  C9  UNL     1     133.899   7.533  73.644  1.00  0.00     0.240 C 
HETATM   11  C10 UNL     1     134.960   6.585  74.158  1.00  0.00     0.268 C 
HETATM   12  N6  UNL     1     134.355   5.867  75.262  1.00  0.00    -0.062 N 
HETATM   13  C11 UNL     1     132.950   5.801  74.887  1.00  0.00     0.271 C 
ATOM     14  H62 UNL     1     134.782   4.964  75.466  1.00  0.00     0.277 HD
ATOM     15  H61 UNL     1     134.531   6.276  76.180  1.00  0.00     0.277 HD
BRANCH  10  16
HETATM   16  N5  UNL     1     134.344   8.884  73.894  1.00  0.00    -0.071 N 
ATOM     17  H53 UNL     1     134.694   9.322  73.042  1.00  0.00     0.274 HD
ATOM     18  H52 UNL     1     133.556   9.504  74.081  1.00  0.00     0.274 HD
ATOM     19  H51 UNL     1     135.035   8.929  74.643  1.00  0.00     0.274 HD
ENDBRANCH  10  16
BRANCH  13  20
HETATM   20  C12 UNL     1     132.805   4.793  73.800  1.00  0.00     0.287 C 
BRANCH  20  21
HETATM   21  O5  UNL     1     131.482   4.464  73.536  1.00  0.00    -0.369 OA
ATOM     22  H5  UNL     1     130.944   4.427  74.317  1.00  0.00     0.212 HD
ENDBRANCH  20  21
BRANCH  20  23
HETATM   23  O6  UNL     1     133.442   3.599  74.225  1.00  0.00    -0.369 OA
ATOM     24  H6  UNL     1     132.869   3.168  74.849  1.00  0.00     0.212 HD
ENDBRANCH  20  23
ENDBRANCH  13  20
ENDBRANCH   8   9
ENDBRANCH   7   8
BRANCH   1  25
HETATM   25  C2  UNL     1     128.475   6.164  73.590  1.00  0.00     0.163 C 
BRANCH  25  26
HETATM   26  C1  UNL     1     127.587   5.672  74.603  1.00  0.00     0.368 C 
HETATM   27  N2  UNL     1     128.151   5.358  75.908  1.00  0.00    -0.286 NA
HETATM   28  O1  UNL     1     126.384   5.501  74.423  1.00  0.00    -0.247 OA
BRANCH  27  29
HETATM   29  N1  UNL     1     128.625   5.088  77.026  1.00  0.00    -0.276 N 
ATOM     30  H12 UNL     1     128.047   5.059  76.186  1.00  0.00     0.191 HD
ATOM     31  H11 UNL     1     129.018   4.871  77.942  1.00  0.00     0.191 HD
ENDBRANCH  27  29
ENDBRANCH  25  26
BRANCH  25  32
HETATM   32  O2  UNL     1     128.702   5.180  72.707  1.00  0.00    -0.354 OA
ATOM     33  H2  UNL     1     129.091   4.445  73.167  1.00  0.00     0.218 HD
ENDBRANCH  25  32
ENDBRANCH   1  25
BRANCH   6  34
HETATM   34  N4  UNL     1     130.346   9.706  75.637  1.00  0.00    -0.070 N 
ATOM     35  H43 UNL     1     129.360   9.728  75.897  1.00  0.00     0.274 HD
ATOM     36  H42 UNL     1     130.666   9.052  76.351  1.00  0.00     0.274 HD
ATOM     37  H41 UNL     1     130.791  10.620  75.720  1.00  0.00     0.274 HD
ENDBRANCH   6  34
TORSDOF 11
ENDMDL
MODEL 5
REMARK VINA RESULT: -8.089030207      2.031      4.104
REMARK  11 active torsions:
REMARK  status: ('A' for Active; 'I' for Inactive)
REMARK    1  A    between atoms: N1_1  and  N2_4 
REMARK       I    between atoms: N2_4  and  C1_5 
REMARK    2  A    between atoms: C1_5  and  C2_7 
REMARK    3  A    between atoms: C2_7  and  O2_8 
REMARK    4  A    between atoms: C2_7  and  C3_10 
REMARK    5  A    between atoms: C6_15  and  N4_16 
REMARK    6  A    between atoms: C7_20  and  O4_21 
REMARK    7  A    between atoms: O4_21  and  C8_22 
REMARK    8  A    between atoms: C9_23  and  N5_24 
REMARK    9  A    between atoms: C11_32  and  C12_33 
REMARK   10  A    between atoms: C12_33  and  O5_34 
REMARK   11  A    between atoms: C12_33  and  O6_36 
ROOT
HETATM    1  C3  UNL     1     130.582   6.085  73.309  1.00  0.00     0.061 C 
HETATM    2  C4  UNL     1     129.694   5.581  72.499  1.00  0.00     0.164 C 
HETATM    3  N3  UNL     1     129.440   4.231  72.195  1.00  0.00    -0.074 NA
HETATM    4  O3  UNL     1     128.820   6.477  71.789  1.00  0.00    -0.335 OA
HETATM    5  C5  UNL     1     128.291   7.522  72.558  1.00  0.00     0.212 C 
HETATM    6  C6  UNL     1     129.424   8.279  73.164  1.00  0.00     0.241 C 
HETATM    7  C7  UNL     1     130.712   7.615  73.384  1.00  0.00     0.194 C 
ENDROOT
BRANCH   7   8
HETATM    8  O4  UNL     1     131.626   8.043  72.412  1.00  0.00    -0.369 OA
BRANCH   8   9
HETATM    9  C8  UNL     1     131.551   9.368  72.083  1.00  0.00     0.190 C 
HETATM   10  C9  UNL     1     131.722   9.621  70.590  1.00  0.00     0.240 C 
HETATM   11  C10 UNL     1     132.639  10.820  70.471  1.00  0.00     0.268 C 
HETATM   12  N6  UNL     1     132.840  11.305  71.822  1.00  0.00    -0.062 N 
HETATM   13  C11 UNL     1     132.758  10.095  72.628  1.00  0.00     0.271 C 
ATOM     14  H62 UNL     1     133.695  11.845  71.955  1.00  0.00     0.277 HD
ATOM     15  H61 UNL     1     132.201  12.048  72.105  1.00  0.00     0.277 HD
BRANCH  10  16
HETATM   16  N5  UNL     1     130.471   9.947  69.947  1.00  0.00    -0.071 N 
ATOM     17  H53 UNL     1     130.140  10.870  70.228  1.00  0.00     0.274 HD
ATOM     18  H52 UNL     1     130.602  10.119  68.950  1.00  0.00     0.274 HD
ATOM     19  H51 UNL     1     129.758   9.235  70.109  1.00  0.00     0.274 HD
ENDBRANCH  10  16
BRANCH  13  20
HETATM   20  C12 UNL     1     134.014   9.318  72.431  1.00  0.00     0.287 C 
BRANCH  20  21
HETATM   21  O5  UNL     1     134.154   8.273  73.334  1.00  0.00    -0.369 OA
ATOM     22  H5  UNL     1     134.619   7.527  72.972  1.00  0.00     0.212 HD
ENDBRANCH  20  21
BRANCH  20  23
HETATM   23  O6  UNL     1     135.107  10.195  72.653  1.00  0.00    -0.369 OA
ATOM     24  H6  UNL     1     135.789   9.704  73.097  1.00  0.00     0.212 HD
ENDBRANCH  20  23
ENDBRANCH  13  20
ENDBRANCH   8   9
ENDBRANCH   7   8
BRANCH   1  25
HETATM   25  C2  UNL     1     131.513   5.320  74.090  1.00  0.00     0.163 C 
BRANCH  25  26
HETATM   26  C1  UNL     1     132.788   4.694  73.893  1.00  0.00     0.368 C 
HETATM   27  N2  UNL     1     133.953   5.316  74.507  1.00  0.00    -0.286 NA
HETATM   28  O1  UNL     1     132.945   3.668  73.234  1.00  0.00    -0.247 OA
BRANCH  27  29
HETATM   29  N1  UNL     1     134.953   5.841  75.028  1.00  0.00    -0.276 N 
ATOM     30  H12 UNL     1     134.144   5.239  74.874  1.00  0.00     0.191 HD
ATOM     31  H11 UNL     1     135.773   6.274  75.451  1.00  0.00     0.191 HD
ENDBRANCH  27  29
ENDBRANCH  25  26
BRANCH  25  32
HETATM   32  O2  UNL     1     131.125   5.110  75.356  1.00  0.00    -0.354 OA
ATOM     33  H2  UNL     1     130.204   5.331  75.431  1.00  0.00     0.218 HD
ENDBRANCH  25  32
ENDBRANCH   1  25
BRANCH   6  34
HETATM   34  N4  UNL     1     128.937   8.999  74.352  1.00  0.00    -0.070 N 
ATOM     35  H43 UNL     1     129.671   9.543  74.805  1.00  0.00     0.274 HD
ATOM     36  H42 UNL     1     128.316   9.771  74.112  1.00  0.00     0.274 HD
ATOM     37  H41 UNL     1     128.500   8.331  74.988  1.00  0.00     0.274 HD
ENDBRANCH   6  34
TORSDOF 11
ENDMDL
