MODEL 1
REMARK VINA RESULT: -8.410252600      0.000      0.000
REMARK  10 active torsions:
REMARK  status: ('A' for Active; 'I' for Inactive)
REMARK    1  A    between atoms: C2_2  and  O1_3 
REMARK    2  A    between atoms: C2_2  and  O2_5 
REMARK    3  A    between atoms: C2_2  and  C3_7 
REMARK       I    between atoms: C3_7  and  N1_9 
REMARK    4  A    between atoms: N1_9  and  S1_11 
REMARK    5  A    between atoms: S1_11  and  O6_14 
REMARK    6  A    between atoms: O6_14  and  C4_15 
REMARK    7  A    between atoms: C5_16  and  C6_17 
REMARK    8  A    between atoms: C6_17  and  N2_18 
REMARK    9  A    between atoms: C6_17  and  O7_22 
REMARK   10  A    between atoms: C7_26  and  N4_27 
ROOT
HETATM    1  C4  UNL     1     129.605   6.113  73.230  1.00  0.00     0.186 A 
HETATM    2  C5  UNL     1     130.871   5.704  72.863  1.00  0.00     0.122 A 
HETATM    3  N3  UNL     1     131.353   6.100  71.648  1.00  0.00    -0.188 N 
ATOM      4  H3  UNL     1     132.289   5.802  71.369  1.00  0.00     0.184 HD
HETATM    5  C7  UNL     1     130.637   6.869  70.804  1.00  0.00     0.679 A 
HETATM    6  N5  UNL     1     129.396   7.286  71.138  1.00  0.00    -0.154 N 
ATOM      7  H5  UNL     1     128.848   7.870  70.507  1.00  0.00     0.187 HD
HETATM    8  C8  UNL     1     128.907   6.904  72.331  1.00  0.00     0.296 A 
HETATM    9  O8  UNL     1     127.753   7.277  72.667  1.00  0.00    -0.264 OA
ENDROOT
BRANCH   1  10
HETATM   10  O6  UNL     1     129.066   5.726  74.473  1.00  0.00    -0.208 OA
BRANCH  10  11
HETATM   11  S1  UNL     1     128.960   6.802  75.766  1.00  0.00     0.369 S 
HETATM   12  O4  UNL     1     127.654   6.626  76.503  1.00  0.00    -0.175 OA
HETATM   13  O5  UNL     1     130.046   6.559  76.801  1.00  0.00    -0.175 OA
BRANCH  11  14
HETATM   14  N1  UNL     1     129.128   8.432  75.247  1.00  0.00    -0.226 N 
HETATM   15  C3  UNL     1     130.416   9.061  75.162  1.00  0.00     0.294 C 
HETATM   16  O3  UNL     1     131.425   8.392  75.462  1.00  0.00    -0.266 OA
ATOM     17  H1  UNL     1     128.295   8.964  74.995  1.00  0.00     0.184 HD
BRANCH  15  18
HETATM   18  C2  UNL     1     130.578  10.462  74.735  1.00  0.00     0.240 C 
HETATM   19  C1  UNL     1     131.540  10.532  73.580  1.00  0.00     0.090 C 
BRANCH  18  20
HETATM   20  O1  UNL     1     131.063  11.269  75.762  1.00  0.00    -0.358 OA
ATOM     21  H1  UNL     1     130.596  12.096  75.741  1.00  0.00     0.213 HD
ENDBRANCH  18  20
BRANCH  18  22
HETATM   22  O2  UNL     1     129.337  11.012  74.360  1.00  0.00    -0.358 OA
ATOM     23  H2  UNL     1     128.632  10.439  74.635  1.00  0.00     0.213 HD
ENDBRANCH  18  22
ENDBRANCH  15  18
ENDBRANCH  11  14
ENDBRANCH  10  11
ENDBRANCH   1  10
BRANCH   2  24
HETATM   24  C6  UNL     1     131.719   4.869  73.731  1.00  0.00     0.371 C 
BRANCH  24  25
HETATM   25  N2  UNL     1     132.283   5.682  74.814  1.00  0.00    -0.047 N 
ATOM     26  H23 UNL     1     132.942   6.379  74.466  1.00  0.00     0.277 HD
ATOM     27  H22 UNL     1     131.592   6.317  75.214  1.00  0.00     0.277 HD
ATOM     28  H21 UNL     1     132.703   5.079  75.521  1.00  0.00     0.277 HD
ENDBRANCH  24  25
BRANCH  24  29
HETATM   29  O7  UNL     1     132.789   4.416  72.967  1.00  0.00    -0.365 OA
ATOM     30  H7  UNL     1     133.580   4.811  73.315  1.00  0.00     0.212 HD
ENDBRANCH  24  29
ENDBRANCH   2  24
BRANCH   5  31
HETATM   31  N4  UNL     1     131.113   7.224  69.661  1.00  0.00    -0.234 N 
ATOM     32  H42 UNL     1     131.009   8.197  69.375  1.00  0.00     0.174 HD
ATOM     33  H41 UNL     1     131.580   6.551  69.054  1.00  0.00     0.174 HD
ENDBRANCH   5  31
TORSDOF 10
ENDMDL
MODEL 2
REMARK VINA RESULT: -8.114628067      2.531      4.133
REMARK  10 active torsions:
REMARK  status: ('A' for Active; 'I' for Inactive)
REMARK    1  A    between atoms: C2_2  and  O1_3 
REMARK    2  A    between atoms: C2_2  and  O2_5 
REMARK    3  A    between atoms: C2_2  and  C3_7 
REMARK       I    between atoms: C3_7  and  N1_9 
REMARK    4  A    between atoms: N1_9  and  S1_11 
REMARK    5  A    between atoms: S1_11  and  O6_14 
REMARK    6  A    between atoms: O6_14  and  C4_15 
REMARK    7  A    between atoms: C5_16  and  C6_17 
REMARK    8  A    between atoms: C6_17  and  N2_18 
REMARK    9  A    between atoms: C6_17  and  O7_22 
REMARK   10  A    between atoms: C7_26  and  N4_27 
ROOT
HETATM    1  C4  UNL     1     129.761   6.315  75.019  1.00  0.00     0.186 A 
HETATM    2  C5  UNL     1     128.975   5.976  73.937  1.00  0.00     0.122 A 
HETATM    3  N3  UNL     1     127.669   5.646  74.163  1.00  0.00    -0.188 N 
ATOM      4  H3  UNL     1     127.080   5.394  73.369  1.00  0.00     0.184 HD
HETATM    5  C7  UNL     1     127.130   5.642  75.399  1.00  0.00     0.679 A 
HETATM    6  N5  UNL     1     127.876   5.972  76.476  1.00  0.00    -0.154 N 
ATOM      7  H5  UNL     1     127.477   5.973  77.415  1.00  0.00     0.187 HD
HETATM    8  C8  UNL     1     129.164   6.298  76.269  1.00  0.00     0.296 A 
HETATM    9  O8  UNL     1     129.882   6.609  77.255  1.00  0.00    -0.264 OA
ENDROOT
BRANCH   1  10
HETATM   10  O6  UNL     1     131.115   6.660  74.833  1.00  0.00    -0.208 OA
BRANCH  10  11
HETATM   11  S1  UNL     1     131.622   8.266  74.780  1.00  0.00     0.369 S 
HETATM   12  O4  UNL     1     130.887   9.093  75.807  1.00  0.00    -0.175 OA
HETATM   13  O5  UNL     1     133.096   8.411  75.122  1.00  0.00    -0.175 OA
BRANCH  11  14
HETATM   14  N1  UNL     1     131.409   8.945  73.215  1.00  0.00    -0.226 N 
HETATM   15  C3  UNL     1     130.152   9.504  72.806  1.00  0.00     0.294 C 
HETATM   16  O3  UNL     1     129.207   9.501  73.621  1.00  0.00    -0.266 OA
ATOM     17  H1  UNL     1     132.193   8.950  72.563  1.00  0.00     0.184 HD
BRANCH  15  18
HETATM   18  C2  UNL     1     129.947  10.076  71.464  1.00  0.00     0.240 C 
HETATM   19  C1  UNL     1     130.982   9.529  70.517  1.00  0.00     0.090 C 
BRANCH  18  20
HETATM   20  O1  UNL     1     130.042  11.466  71.467  1.00  0.00    -0.358 OA
ATOM     21  H1  UNL     1     129.166  11.828  71.396  1.00  0.00     0.213 HD
ENDBRANCH  18  20
BRANCH  18  22
HETATM   22  O2  UNL     1     128.656   9.775  70.989  1.00  0.00    -0.358 OA
ATOM     23  H2  UNL     1     128.663   8.937  70.540  1.00  0.00     0.213 HD
ENDBRANCH  18  22
ENDBRANCH  15  18
ENDBRANCH  11  14
ENDBRANCH  10  11
ENDBRANCH   1  10
BRANCH   2  24
HETATM   24  C6  UNL     1     129.485   5.964  72.556  1.00  0.00     0.371 C 
BRANCH  24  25
HETATM   25  N2  UNL     1     128.671   6.845  71.712  1.00  0.00    -0.047 N 
ATOM     26  H23 UNL     1     128.278   6.350  70.911  1.00  0.00     0.277 HD
ATOM     27  H22 UNL     1     127.797   7.109  72.167  1.00  0.00     0.277 HD
ATOM     28  H21 UNL     1     129.216   7.659  71.429  1.00  0.00     0.277 HD
ENDBRANCH  24  25
BRANCH  24  29
HETATM   29  O7  UNL     1     129.332   4.674  72.059  1.00  0.00    -0.365 OA
ATOM     30  H7  UNL     1     129.115   4.744  71.138  1.00  0.00     0.212 HD
ENDBRANCH  24  29
ENDBRANCH   2  24
BRANCH   5  31
HETATM   31  N4  UNL     1     125.897   5.321  75.586  1.00  0.00    -0.234 N 
ATOM     32  H42 UNL     1     125.175   5.926  75.195  1.00  0.00     0.174 HD
ATOM     33  H41 UNL     1     125.644   4.486  76.114  1.00  0.00     0.174 HD
ENDBRANCH   5  31
TORSDOF 10
ENDMDL
MODEL 3
REMARK VINA RESULT: -8.083371100      5.974      8.181
REMARK  10 active torsions:
REMARK  status: ('A' for Active; 'I' for Inactive)
REMARK    1  A    between atoms: C2_2  and  O1_3 
REMARK    2  A    between atoms: C2_2  and  O2_5 
REMARK    3  A    between atoms: C2_2  and  C3_7 
REMARK       I    between atoms: C3_7  and  N1_9 
REMARK    4  A    between atoms: N1_9  and  S1_11 
REMARK    5  A    between atoms: S1_11  and  O6_14 
REMARK    6  A    between atoms: O6_14  and  C4_15 
REMARK    7  A    between atoms: C5_16  and  C6_17 
REMARK    8  A    between atoms: C6_17  and  N2_18 
REMARK    9  A    between atoms: C6_17  and  O7_22 
REMARK   10  A    between atoms: C7_26  and  N4_27 
ROOT
HETATM    1  C4  UNL     1     133.410  14.176  71.391  1.00  0.00     0.186 A 
HETATM    2  C5  UNL     1     134.596  13.694  71.906  1.00  0.00     0.122 A 
HETATM    3  N3  UNL     1     135.670  14.536  71.960  1.00  0.00    -0.188 N 
ATOM      4  H3  UNL     1     136.550  14.188  72.339  1.00  0.00     0.184 HD
HETATM    5  C7  UNL     1     135.607  15.812  71.529  1.00  0.00     0.679 A 
HETATM    6  N5  UNL     1     134.458  16.312  71.023  1.00  0.00    -0.154 N 
ATOM      7  H5  UNL     1     134.401  17.277  70.697  1.00  0.00     0.187 HD
HETATM    8  C8  UNL     1     133.393  15.494  70.963  1.00  0.00     0.296 A 
HETATM    9  O8  UNL     1     132.310  15.934  70.495  1.00  0.00    -0.264 OA
ENDROOT
BRANCH   1  10
HETATM   10  O6  UNL     1     132.277  13.341  71.314  1.00  0.00    -0.208 OA
BRANCH  10  11
HETATM   11  S1  UNL     1     131.793  12.636  69.863  1.00  0.00     0.369 S 
HETATM   12  O4  UNL     1     131.274  13.681  68.906  1.00  0.00    -0.175 OA
HETATM   13  O5  UNL     1     132.950  11.964  69.141  1.00  0.00    -0.175 OA
BRANCH  11  14
HETATM   14  N1  UNL     1     130.599  11.424  70.116  1.00  0.00    -0.226 N 
HETATM   15  C3  UNL     1     130.740  10.439  71.151  1.00  0.00     0.294 C 
HETATM   16  O3  UNL     1     131.751  10.485  71.881  1.00  0.00    -0.266 OA
ATOM     17  H1  UNL     1     129.773  11.405  69.518  1.00  0.00     0.184 HD
BRANCH  15  18
HETATM   18  C2  UNL     1     129.736   9.384  71.372  1.00  0.00     0.240 C 
HETATM   19  C1  UNL     1     129.603   9.113  72.846  1.00  0.00     0.090 C 
BRANCH  18  20
HETATM   20  O1  UNL     1     130.078   8.195  70.733  1.00  0.00    -0.358 OA
ATOM     21  H1  UNL     1     129.523   8.093  69.969  1.00  0.00     0.213 HD
ENDBRANCH  18  20
BRANCH  18  22
HETATM   22  O2  UNL     1     128.490   9.768  70.841  1.00  0.00    -0.358 OA
ATOM     23  H2  UNL     1     128.618  10.321  70.079  1.00  0.00     0.213 HD
ENDBRANCH  18  22
ENDBRANCH  15  18
ENDBRANCH  11  14
ENDBRANCH  10  11
ENDBRANCH   1  10
BRANCH   2  24
HETATM   24  C6  UNL     1     134.744  12.315  72.403  1.00  0.00     0.371 C 
BRANCH  24  25
HETATM   25  N2  UNL     1     134.649  11.366  71.288  1.00  0.00    -0.047 N 
ATOM     26  H23 UNL     1     133.744  11.416  70.820  1.00  0.00     0.277 HD
ATOM     27  H22 UNL     1     135.239  11.640  70.502  1.00  0.00     0.277 HD
ATOM     28  H21 UNL     1     134.860  10.423  71.614  1.00  0.00     0.277 HD
ENDBRANCH  24  25
BRANCH  24  29
HETATM   29  O7  UNL     1     133.672  12.053  73.249  1.00  0.00    -0.365 OA
ATOM     30  H7  UNL     1     133.994  11.521  73.967  1.00  0.00     0.212 HD
ENDBRANCH  24  29
ENDBRANCH   2  24
BRANCH   5  31
HETATM   31  N4  UNL     1     136.636  16.585  71.586  1.00  0.00    -0.234 N 
ATOM     32  H42 UNL     1     137.384  16.444  70.908  1.00  0.00     0.174 HD
ATOM     33  H41 UNL     1     136.705  17.318  72.292  1.00  0.00     0.174 HD
ENDBRANCH   5  31
TORSDOF 10
ENDMDL
MODEL 4
REMARK VINA RESULT: -8.003715577      3.108      5.173
REMARK  10 active torsions:
REMARK  status: ('A' for Active; 'I' for Inactive)
REMARK    1  A    between atoms: C2_2  and  O1_3 
REMARK    2  A    between atoms: C2_2  and  O2_5 
REMARK    3  A    between atoms: C2_2  and  C3_7 
REMARK       I    between atoms: C3_7  and  N1_9 
REMARK    4  A    between atoms: N1_9  and  S1_11 
REMARK    5  A    between atoms: S1_11  and  O6_14 
REMARK    6  A    between atoms: O6_14  and  C4_15 
REMARK    7  A    between atoms: C5_16  and  C6_17 
REMARK    8  A    between atoms: C6_17  and  N2_18 
REMARK    9  A    between atoms: C6_17  and  O7_22 
REMARK   10  A    between atoms: C7_26  and  N4_27 
ROOT
HETATM    1  C4  UNL     1     129.736   6.352  74.689  1.00  0.00     0.186 A 
HETATM    2  C5  UNL     1     128.702   6.385  73.777  1.00  0.00     0.122 A 
HETATM    3  N3  UNL     1     127.457   6.007  74.195  1.00  0.00    -0.188 N 
ATOM      4  H3  UNL     1     126.686   6.028  73.527  1.00  0.00     0.184 HD
HETATM    5  C7  UNL     1     127.212   5.606  75.458  1.00  0.00     0.679 A 
HETATM    6  N5  UNL     1     128.206   5.566  76.373  1.00  0.00    -0.154 N 
ATOM      7  H5  UNL     1     128.029   5.267  77.332  1.00  0.00     0.187 HD
HETATM    8  C8  UNL     1     129.436   5.935  75.976  1.00  0.00     0.296 A 
HETATM    9  O8  UNL     1     130.380   5.907  76.808  1.00  0.00    -0.264 OA
ENDROOT
BRANCH   1  10
HETATM   10  O6  UNL     1     131.038   6.731  74.302  1.00  0.00    -0.208 OA
BRANCH  10  11
HETATM   11  S1  UNL     1     132.156   5.607  73.734  1.00  0.00     0.369 S 
HETATM   12  O4  UNL     1     131.550   4.225  73.687  1.00  0.00    -0.175 OA
HETATM   13  O5  UNL     1     132.594   5.907  72.309  1.00  0.00    -0.175 OA
BRANCH  11  14
HETATM   14  N1  UNL     1     133.582   5.592  74.695  1.00  0.00    -0.226 N 
HETATM   15  C3  UNL     1     134.430   6.746  74.793  1.00  0.00     0.294 C 
HETATM   16  O3  UNL     1     134.105   7.777  74.171  1.00  0.00    -0.266 OA
ATOM     17  H1  UNL     1     133.830   4.746  75.206  1.00  0.00     0.184 HD
BRANCH  15  18
HETATM   18  C2  UNL     1     135.664   6.747  75.600  1.00  0.00     0.240 C 
HETATM   19  C1  UNL     1     136.763   7.442  74.843  1.00  0.00     0.090 C 
BRANCH  18  20
HETATM   20  O1  UNL     1     136.087   5.456  75.907  1.00  0.00    -0.358 OA
ATOM     21  H1  UNL     1     135.535   4.839  75.441  1.00  0.00     0.213 HD
ENDBRANCH  18  20
BRANCH  18  22
HETATM   22  O2  UNL     1     135.449   7.391  76.833  1.00  0.00    -0.358 OA
ATOM     23  H2  UNL     1     135.898   6.921  77.526  1.00  0.00     0.213 HD
ENDBRANCH  18  22
ENDBRANCH  15  18
ENDBRANCH  11  14
ENDBRANCH  10  11
ENDBRANCH   1  10
BRANCH   2  24
HETATM   24  C6  UNL     1     128.885   6.817  72.381  1.00  0.00     0.371 C 
BRANCH  24  25
HETATM   25  N2  UNL     1     129.685   5.827  71.651  1.00  0.00    -0.047 N 
ATOM     26  H23 UNL     1     130.438   5.446  72.223  1.00  0.00     0.277 HD
ATOM     27  H22 UNL     1     129.168   4.962  71.490  1.00  0.00     0.277 HD
ATOM     28  H21 UNL     1     130.033   6.232  70.782  1.00  0.00     0.277 HD
ENDBRANCH  24  25
BRANCH  24  29
HETATM   29  O7  UNL     1     129.620   7.997  72.397  1.00  0.00    -0.365 OA
ATOM     30  H7  UNL     1     130.398   7.860  71.870  1.00  0.00     0.212 HD
ENDBRANCH  24  29
ENDBRANCH   2  24
BRANCH   5  31
HETATM   31  N4  UNL     1     126.030   5.249  75.825  1.00  0.00    -0.234 N 
ATOM     32  H42 UNL     1     125.807   4.254  75.835  1.00  0.00     0.174 HD
ATOM     33  H41 UNL     1     125.332   5.941  76.098  1.00  0.00     0.174 HD
ENDBRANCH   5  31
TORSDOF 10
ENDMDL
MODEL 5
REMARK VINA RESULT: -7.922012436      2.062      4.638
REMARK  10 active torsions:
REMARK  status: ('A' for Active; 'I' for Inactive)
REMARK    1  A    between atoms: C2_2  and  O1_3 
REMARK    2  A    between atoms: C2_2  and  O2_5 
REMARK    3  A    between atoms: C2_2  and  C3_7 
REMARK       I    between atoms: C3_7  and  N1_9 
REMARK    4  A    between atoms: N1_9  and  S1_11 
REMARK    5  A    between atoms: S1_11  and  O6_14 
REMARK    6  A    between atoms: O6_14  and  C4_15 
REMARK    7  A    between atoms: C5_16  and  C6_17 
REMARK    8  A    between atoms: C6_17  and  N2_18 
REMARK    9  A    between atoms: C6_17  and  O7_22 
REMARK   10  A    between atoms: C7_26  and  N4_27 
ROOT
HETATM    1  C4  UNL     1     129.881   9.680  73.132  1.00  0.00     0.186 A 
HETATM    2  C5  UNL     1     129.573   9.094  71.920  1.00  0.00     0.122 A 
HETATM    3  N3  UNL     1     130.051   9.675  70.780  1.00  0.00    -0.188 N 
ATOM      4  H3  UNL     1     129.828   9.249  69.880  1.00  0.00     0.184 HD
HETATM    5  C7  UNL     1     130.805  10.792  70.801  1.00  0.00     0.679 A 
HETATM    6  N5  UNL     1     131.124  11.385  71.973  1.00  0.00    -0.154 N 
ATOM      7  H5  UNL     1     131.696  12.229  72.000  1.00  0.00     0.187 HD
HETATM    8  C8  UNL     1     130.660  10.825  73.104  1.00  0.00     0.296 A 
HETATM    9  O8  UNL     1     130.941  11.357  74.210  1.00  0.00    -0.264 OA
ENDROOT
BRANCH   1  10
HETATM   10  O6  UNL     1     129.407   9.116  74.334  1.00  0.00    -0.208 OA
BRANCH  10  11
HETATM   11  S1  UNL     1     130.433   8.308  75.398  1.00  0.00     0.369 S 
HETATM   12  O4  UNL     1     131.208   9.290  76.244  1.00  0.00    -0.175 OA
HETATM   13  O5  UNL     1     129.666   7.441  76.383  1.00  0.00    -0.175 OA
BRANCH  11  14
HETATM   14  N1  UNL     1     131.517   7.266  74.564  1.00  0.00    -0.226 N 
HETATM   15  C3  UNL     1     131.076   6.021  74.003  1.00  0.00     0.294 C 
HETATM   16  O3  UNL     1     129.874   5.709  74.121  1.00  0.00    -0.266 OA
ATOM     17  H1  UNL     1     132.495   7.539  74.465  1.00  0.00     0.184 HD
BRANCH  15  18
HETATM   18  C2  UNL     1     131.994   5.108  73.298  1.00  0.00     0.240 C 
HETATM   19  C1  UNL     1     133.415   5.559  73.507  1.00  0.00     0.090 C 
BRANCH  18  20
HETATM   20  O1  UNL     1     131.741   5.067  71.929  1.00  0.00    -0.358 OA
ATOM     21  H1  UNL     1     131.036   5.674  71.735  1.00  0.00     0.213 HD
ENDBRANCH  18  20
BRANCH  18  22
HETATM   22  O2  UNL     1     131.836   3.790  73.764  1.00  0.00    -0.358 OA
ATOM     23  H2  UNL     1     130.918   3.544  73.736  1.00  0.00     0.213 HD
ENDBRANCH  18  22
ENDBRANCH  15  18
ENDBRANCH  11  14
ENDBRANCH  10  11
ENDBRANCH   1  10
BRANCH   2  24
HETATM   24  C6  UNL     1     128.762   7.870  71.812  1.00  0.00     0.371 C 
BRANCH  24  25
HETATM   25  N2  UNL     1     129.470   6.867  71.009  1.00  0.00    -0.047 N 
ATOM     26  H23 UNL     1     128.835   6.334  70.416  1.00  0.00     0.277 HD
ATOM     27  H22 UNL     1     130.036   7.295  70.276  1.00  0.00     0.277 HD
ATOM     28  H21 UNL     1     130.024   6.263  71.616  1.00  0.00     0.277 HD
ENDBRANCH  24  25
BRANCH  24  29
HETATM   29  O7  UNL     1     127.599   8.193  71.120  1.00  0.00    -0.365 OA
ATOM     30  H7  UNL     1     126.873   8.128  71.729  1.00  0.00     0.212 HD
ENDBRANCH  24  29
ENDBRANCH   2  24
BRANCH   5  31
HETATM   31  N4  UNL     1     131.239  11.324  69.711  1.00  0.00    -0.234 N 
ATOM     32  H42 UNL     1     130.580  11.458  68.944  1.00  0.00     0.174 HD
ATOM     33  H41 UNL     1     132.215  11.601  69.613  1.00  0.00     0.174 HD
ENDBRANCH   5  31
TORSDOF 10
ENDMDL
