MODEL 1
REMARK VINA RESULT: -8.839654224      0.000      0.000
REMARK  7 active torsions:
REMARK  status: ('A' for Active; 'I' for Inactive)
REMARK    1  A    between atoms: N1_1  and  N2_4 
REMARK    2  A    between atoms: N2_4  and  C1_6 
REMARK       I    between atoms: N4_9  and  C2_10 
REMARK       I    between atoms: C2_10  and  N5_12 
REMARK    3  A    between atoms: N5_12  and  N6_14 
REMARK    4  A    between atoms: N7_19  and  C4_20 
REMARK    5  A    between atoms: C6_22  and  C7_23 
REMARK    6  A    between atoms: C9_28  and  O4_29 
REMARK    7  A    between atoms: C10_31  and  O5_32 
ROOT
HETATM    1  C1  UNL     1     131.395   6.211  72.130  1.00  0.00     0.718 A 
HETATM    2  N3  UNL     1     130.521   5.604  72.935  1.00  0.00    -0.115 N 
ATOM      3  H3  UNL     1     130.217   4.638  72.816  1.00  0.00     0.206 HD
HETATM    4  N4  UNL     1     130.092   6.398  73.905  1.00  0.00    -0.137 N 
HETATM    5  C2  UNL     1     129.166   6.106  74.942  1.00  0.00     0.364 C 
HETATM    6  O1  UNL     1     128.859   6.972  75.794  1.00  0.00    -0.243 OA
HETATM    7  N5  UNL     1     128.576   4.825  75.027  1.00  0.00    -0.256 N 
ATOM      8  H5  UNL     1     128.818   4.110  74.340  1.00  0.00     0.191 HD
HETATM    9  C3  UNL     1     130.742   7.567  73.685  1.00  0.00     0.367 A 
HETATM   10  O2  UNL     1     130.543   8.545  74.455  1.00  0.00    -0.244 OA
HETATM   11  N7  UNL     1     131.543   7.483  72.609  1.00  0.00    -0.120 N 
ENDROOT
BRANCH  11  12
HETATM   12  C4  UNL     1     132.391   8.455  72.030  1.00  0.00     0.149 C 
HETATM   13  C5  UNL     1     133.450   9.008  72.927  1.00  0.00     0.074 C 
HETATM   14  C6  UNL     1     134.194  10.125  72.271  1.00  0.00     0.032 C 
HETATM   15  C8  UNL     1     133.877  10.678  71.139  1.00  0.00     0.066 C 
HETATM   16  N9  UNL     1     134.618  11.749  70.543  1.00  0.00    -0.103 NA
HETATM   17  C9  UNL     1     132.699  10.201  70.389  1.00  0.00     0.196 C 
HETATM   18  C10 UNL     1     131.720   9.648  71.401  1.00  0.00     0.176 C 
BRANCH  14  19
HETATM   19  C7  UNL     1     135.370  10.617  72.984  1.00  0.00     0.262 C 
HETATM   20  N8  UNL     1     136.647  10.028  72.861  1.00  0.00    -0.057 NA
HETATM   21  O3  UNL     1     135.272  11.614  73.756  1.00  0.00    -0.271 OA
ENDBRANCH  14  19
BRANCH  17  22
HETATM   22  O4  UNL     1     133.158   9.152  69.562  1.00  0.00    -0.387 OA
ATOM     23  H4  UNL     1     132.682   8.375  69.832  1.00  0.00     0.210 HD
ENDBRANCH  17  22
BRANCH  18  24
HETATM   24  O5  UNL     1     130.535   9.404  70.782  1.00  0.00    -0.391 OA
ATOM     25  H5  UNL     1     130.586   8.942  69.953  1.00  0.00     0.210 HD
ENDBRANCH  18  24
ENDBRANCH  11  12
BRANCH   1  26
HETATM   26  N2  UNL     1     131.995   5.697  71.091  1.00  0.00    -0.137 N 
ATOM     27  H2  UNL     1     131.894   6.163  70.189  1.00  0.00     0.205 HD
BRANCH  26  28
HETATM   28  N1  UNL     1     132.759   4.553  71.156  1.00  0.00    -0.331 N 
ATOM     29  H12 UNL     1     133.393   4.455  71.949  1.00  0.00     0.177 HD
ATOM     30  H11 UNL     1     132.713   3.814  70.455  1.00  0.00     0.177 HD
ENDBRANCH  26  28
ENDBRANCH   1  26
BRANCH   7  31
HETATM   31  N6  UNL     1     127.662   4.525  76.046  1.00  0.00    -0.341 N 
ATOM     32  H62 UNL     1     127.926   3.841  76.755  1.00  0.00     0.177 HD
ATOM     33  H61 UNL     1     126.750   4.981  76.078  1.00  0.00     0.177 HD
ENDBRANCH   7  31
TORSDOF 7
ENDMDL
MODEL 2
REMARK VINA RESULT: -8.565549562      3.672      6.449
REMARK  7 active torsions:
REMARK  status: ('A' for Active; 'I' for Inactive)
REMARK    1  A    between atoms: N1_1  and  N2_4 
REMARK    2  A    between atoms: N2_4  and  C1_6 
REMARK       I    between atoms: N4_9  and  C2_10 
REMARK       I    between atoms: C2_10  and  N5_12 
REMARK    3  A    between atoms: N5_12  and  N6_14 
REMARK    4  A    between atoms: N7_19  and  C4_20 
REMARK    5  A    between atoms: C6_22  and  C7_23 
REMARK    6  A    between atoms: C9_28  and  O4_29 
REMARK    7  A    between atoms: C10_31  and  O5_32 
ROOT
HETATM    1  C1  UNL     1     134.549   4.310  74.390  1.00  0.00     0.718 A 
HETATM    2  N3  UNL     1     135.757   4.569  74.897  1.00  0.00    -0.115 N 
ATOM      3  H3  UNL     1     136.513   3.885  74.939  1.00  0.00     0.206 HD
HETATM    4  N4  UNL     1     135.863   5.813  75.338  1.00  0.00    -0.137 N 
HETATM    5  C2  UNL     1     136.986   6.446  75.937  1.00  0.00     0.364 C 
HETATM    6  O1  UNL     1     136.929   7.643  76.306  1.00  0.00    -0.243 OA
HETATM    7  N5  UNL     1     138.189   5.729  76.123  1.00  0.00    -0.256 N 
ATOM      8  H5  UNL     1     138.248   4.755  75.827  1.00  0.00     0.191 HD
HETATM    9  C3  UNL     1     134.646   6.355  75.090  1.00  0.00     0.367 A 
HETATM   10  O2  UNL     1     134.424   7.556  75.402  1.00  0.00    -0.244 OA
HETATM   11  N7  UNL     1     133.825   5.462  74.512  1.00  0.00    -0.120 N 
ENDROOT
BRANCH  11  12
HETATM   12  C4  UNL     1     132.483   5.604  74.089  1.00  0.00     0.149 C 
HETATM   13  C5  UNL     1     132.181   6.829  73.289  1.00  0.00     0.074 C 
HETATM   14  C6  UNL     1     130.718   6.958  73.018  1.00  0.00     0.032 C 
HETATM   15  C8  UNL     1     129.788   6.213  73.535  1.00  0.00     0.066 C 
HETATM   16  N9  UNL     1     128.394   6.371  73.248  1.00  0.00    -0.103 NA
HETATM   17  C9  UNL     1     130.145   5.130  74.471  1.00  0.00     0.196 C 
HETATM   18  C10 UNL     1     131.427   5.541  75.161  1.00  0.00     0.176 C 
BRANCH  14  19
HETATM   19  C7  UNL     1     130.330   8.018  72.090  1.00  0.00     0.262 C 
HETATM   20  N8  UNL     1     129.923   7.767  70.762  1.00  0.00    -0.057 NA
HETATM   21  O3  UNL     1     130.350   9.226  72.463  1.00  0.00    -0.271 OA
ENDBRANCH  14  19
BRANCH  17  22
HETATM   22  O4  UNL     1     130.388   3.988  73.675  1.00  0.00    -0.387 OA
ATOM     23  H4  UNL     1     130.567   3.278  74.281  1.00  0.00     0.210 HD
ENDBRANCH  17  22
BRANCH  18  24
HETATM   24  O5  UNL     1     131.671   4.683  76.186  1.00  0.00    -0.391 OA
ATOM     25  H5  UNL     1     132.124   5.050  76.936  1.00  0.00     0.210 HD
ENDBRANCH  18  24
ENDBRANCH  11  12
BRANCH   1  26
HETATM   26  N2  UNL     1     134.138   3.182  73.878  1.00  0.00    -0.137 N 
ATOM     27  H2  UNL     1     133.560   3.211  73.037  1.00  0.00     0.205 HD
BRANCH  26  28
HETATM   28  N1  UNL     1     134.447   1.955  74.420  1.00  0.00    -0.331 N 
ATOM     29  H12 UNL     1     133.717   1.244  74.422  1.00  0.00     0.177 HD
ATOM     30  H11 UNL     1     135.364   1.736  74.810  1.00  0.00     0.177 HD
ENDBRANCH  26  28
ENDBRANCH   1  26
BRANCH   7  31
HETATM   31  N6  UNL     1     139.303   6.343  76.712  1.00  0.00    -0.341 N 
ATOM     32  H62 UNL     1     139.570   6.069  77.658  1.00  0.00     0.177 HD
ATOM     33  H61 UNL     1     139.836   7.050  76.206  1.00  0.00     0.177 HD
ENDBRANCH   7  31
TORSDOF 7
ENDMDL
MODEL 3
REMARK VINA RESULT: -8.557975802      2.650      6.306
REMARK  7 active torsions:
REMARK  status: ('A' for Active; 'I' for Inactive)
REMARK    1  A    between atoms: N1_1  and  N2_4 
REMARK    2  A    between atoms: N2_4  and  C1_6 
REMARK       I    between atoms: N4_9  and  C2_10 
REMARK       I    between atoms: C2_10  and  N5_12 
REMARK    3  A    between atoms: N5_12  and  N6_14 
REMARK    4  A    between atoms: N7_19  and  C4_20 
REMARK    5  A    between atoms: C6_22  and  C7_23 
REMARK    6  A    between atoms: C9_28  and  O4_29 
REMARK    7  A    between atoms: C10_31  and  O5_32 
ROOT
HETATM    1  C1  UNL     1     132.020   8.916  71.373  1.00  0.00     0.718 A 
HETATM    2  N3  UNL     1     132.201  10.010  70.629  1.00  0.00    -0.115 N 
ATOM      3  H3  UNL     1     131.944  10.075  69.644  1.00  0.00     0.206 HD
HETATM    4  N4  UNL     1     132.751  11.001  71.314  1.00  0.00    -0.137 N 
HETATM    5  C2  UNL     1     133.091  12.305  70.865  1.00  0.00     0.364 C 
HETATM    6  O1  UNL     1     133.611  13.140  71.643  1.00  0.00    -0.243 OA
HETATM    7  N5  UNL     1     132.845  12.681  69.525  1.00  0.00    -0.256 N 
ATOM      8  H5  UNL     1     132.421  12.011  68.883  1.00  0.00     0.191 HD
HETATM    9  C3  UNL     1     132.920  10.487  72.558  1.00  0.00     0.367 A 
HETATM   10  O2  UNL     1     133.433  11.201  73.462  1.00  0.00    -0.244 OA
HETATM   11  N7  UNL     1     132.483   9.218  72.622  1.00  0.00    -0.120 N 
ENDROOT
BRANCH  11  12
HETATM   12  C4  UNL     1     132.470   8.317  73.712  1.00  0.00     0.149 C 
HETATM   13  C5  UNL     1     133.133   7.000  73.474  1.00  0.00     0.074 C 
HETATM   14  C6  UNL     1     132.937   6.072  74.628  1.00  0.00     0.032 C 
HETATM   15  C8  UNL     1     132.159   6.290  75.645  1.00  0.00     0.066 C 
HETATM   16  N9  UNL     1     131.999   5.372  76.733  1.00  0.00    -0.103 NA
HETATM   17  C9  UNL     1     131.383   7.542  75.726  1.00  0.00     0.196 C 
HETATM   18  C10 UNL     1     131.123   7.998  74.307  1.00  0.00     0.176 C 
BRANCH  14  19
HETATM   19  C7  UNL     1     133.696   4.825  74.583  1.00  0.00     0.262 C 
HETATM   20  N8  UNL     1     133.259   3.683  73.878  1.00  0.00    -0.057 NA
HETATM   21  O3  UNL     1     134.800   4.732  75.193  1.00  0.00    -0.271 OA
ENDBRANCH  14  19
BRANCH  17  22
HETATM   22  O4  UNL     1     132.218   8.480  76.372  1.00  0.00    -0.387 OA
ATOM     23  H4  UNL     1     132.125   9.293  75.889  1.00  0.00     0.210 HD
ENDBRANCH  17  22
BRANCH  18  24
HETATM   24  O5  UNL     1     130.226   9.019  74.329  1.00  0.00    -0.391 OA
ATOM     25  H5  UNL     1     130.455   9.762  74.875  1.00  0.00     0.210 HD
ENDBRANCH  18  24
ENDBRANCH  11  12
BRANCH   1  26
HETATM   26  N2  UNL     1     131.501   7.782  70.988  1.00  0.00    -0.137 N 
ATOM     27  H2  UNL     1     130.631   7.473  71.420  1.00  0.00     0.205 HD
BRANCH  26  28
HETATM   28  N1  UNL     1     132.076   6.984  70.025  1.00  0.00    -0.331 N 
ATOM     29  H12 UNL     1     132.308   7.417  69.131  1.00  0.00     0.177 HD
ATOM     30  H11 UNL     1     132.276   5.994  70.170  1.00  0.00     0.177 HD
ENDBRANCH  26  28
ENDBRANCH   1  26
BRANCH   7  31
HETATM   31  N6  UNL     1     133.175  13.964  69.071  1.00  0.00    -0.341 N 
ATOM     32  H62 UNL     1     132.932  14.768  69.651  1.00  0.00     0.177 HD
ATOM     33  H61 UNL     1     133.650  14.094  68.177  1.00  0.00     0.177 HD
ENDBRANCH   7  31
TORSDOF 7
ENDMDL
MODEL 4
REMARK VINA RESULT: -8.491428425      1.647      2.424
REMARK  7 active torsions:
REMARK  status: ('A' for Active; 'I' for Inactive)
REMARK    1  A    between atoms: N1_1  and  N2_4 
REMARK    2  A    between atoms: N2_4  and  C1_6 
REMARK       I    between atoms: N4_9  and  C2_10 
REMARK       I    between atoms: C2_10  and  N5_12 
REMARK    3  A    between atoms: N5_12  and  N6_14 
REMARK    4  A    between atoms: N7_19  and  C4_20 
REMARK    5  A    between atoms: C6_22  and  C7_23 
REMARK    6  A    between atoms: C9_28  and  O4_29 
REMARK    7  A    between atoms: C10_31  and  O5_32 
ROOT
HETATM    1  C1  UNL     1     130.906   8.966  74.169  1.00  0.00     0.718 A 
HETATM    2  N3  UNL     1     130.050   8.093  74.707  1.00  0.00    -0.115 N 
ATOM      3  H3  UNL     1     129.419   8.319  75.476  1.00  0.00     0.206 HD
HETATM    4  N4  UNL     1     130.112   6.903  74.129  1.00  0.00    -0.137 N 
HETATM    5  C2  UNL     1     129.362   5.735  74.428  1.00  0.00     0.364 C 
HETATM    6  O1  UNL     1     129.538   4.674  73.784  1.00  0.00    -0.243 OA
HETATM    7  N5  UNL     1     128.399   5.755  75.462  1.00  0.00    -0.256 N 
ATOM      8  H5  UNL     1     128.245   6.612  75.993  1.00  0.00     0.191 HD
HETATM    9  C3  UNL     1     131.065   7.050  73.176  1.00  0.00     0.367 A 
HETATM   10  O2  UNL     1     131.364   6.072  72.439  1.00  0.00    -0.244 OA
HETATM   11  N7  UNL     1     131.567   8.297  73.178  1.00  0.00    -0.120 N 
ENDROOT
BRANCH  11  12
HETATM   12  C4  UNL     1     132.566   8.875  72.361  1.00  0.00     0.149 C 
HETATM   13  C5  UNL     1     133.716   9.495  73.083  1.00  0.00     0.074 C 
HETATM   14  C6  UNL     1     134.636  10.202  72.143  1.00  0.00     0.032 C 
HETATM   15  C8  UNL     1     134.408  10.410  70.881  1.00  0.00     0.066 C 
HETATM   16  N9  UNL     1     135.319  11.093  70.011  1.00  0.00    -0.103 NA
HETATM   17  C9  UNL     1     133.155   9.928  70.268  1.00  0.00     0.196 C 
HETATM   18  C10 UNL     1     132.107   9.901  71.358  1.00  0.00     0.176 C 
BRANCH  14  19
HETATM   19  C7  UNL     1     135.889  10.687  72.716  1.00  0.00     0.262 C 
HETATM   20  N8  UNL     1     137.101   9.969  72.636  1.00  0.00    -0.057 NA
HETATM   21  O3  UNL     1     135.922  11.799  73.318  1.00  0.00    -0.271 OA
ENDBRANCH  14  19
BRANCH  17  22
HETATM   22  O4  UNL     1     133.413   8.608  69.835  1.00  0.00    -0.387 OA
ATOM     23  H4  UNL     1     132.720   8.071  70.201  1.00  0.00     0.210 HD
ENDBRANCH  17  22
BRANCH  18  24
HETATM   24  O5  UNL     1     130.890   9.679  70.795  1.00  0.00    -0.391 OA
ATOM     25  H5  UNL     1     130.523  10.402  70.300  1.00  0.00     0.210 HD
ENDBRANCH  18  24
ENDBRANCH  11  12
BRANCH   1  26
HETATM   26  N2  UNL     1     131.079  10.212  74.517  1.00  0.00    -0.137 N 
ATOM     27  H2  UNL     1     130.671  10.942  73.932  1.00  0.00     0.205 HD
BRANCH  26  28
HETATM   28  N1  UNL     1     131.787  10.586  75.636  1.00  0.00    -0.331 N 
ATOM     29  H12 UNL     1     132.737  10.226  75.735  1.00  0.00     0.177 HD
ATOM     30  H11 UNL     1     131.405  11.199  76.356  1.00  0.00     0.177 HD
ENDBRANCH  26  28
ENDBRANCH   1  26
BRANCH   7  31
HETATM   31  N6  UNL     1     127.652   4.609  75.765  1.00  0.00    -0.341 N 
ATOM     32  H62 UNL     1     128.126   3.705  75.780  1.00  0.00     0.177 HD
ATOM     33  H61 UNL     1     126.654   4.675  75.967  1.00  0.00     0.177 HD
ENDBRANCH   7  31
TORSDOF 7
ENDMDL
MODEL 5
REMARK VINA RESULT: -8.426982746      2.686      6.584
REMARK  7 active torsions:
REMARK  status: ('A' for Active; 'I' for Inactive)
REMARK    1  A    between atoms: N1_1  and  N2_4 
REMARK    2  A    between atoms: N2_4  and  C1_6 
REMARK       I    between atoms: N4_9  and  C2_10 
REMARK       I    between atoms: C2_10  and  N5_12 
REMARK    3  A    between atoms: N5_12  and  N6_14 
REMARK    4  A    between atoms: N7_19  and  C4_20 
REMARK    5  A    between atoms: C6_22  and  C7_23 
REMARK    6  A    between atoms: C9_28  and  O4_29 
REMARK    7  A    between atoms: C10_31  and  O5_32 
ROOT
HETATM    1  C1  UNL     1     132.065  10.030  73.712  1.00  0.00     0.718 A 
HETATM    2  N3  UNL     1     132.646  11.157  73.294  1.00  0.00    -0.115 N 
ATOM      3  H3  UNL     1     132.519  12.062  73.747  1.00  0.00     0.206 HD
HETATM    4  N4  UNL     1     133.406  10.968  72.226  1.00  0.00    -0.137 N 
HETATM    5  C2  UNL     1     134.174  11.922  71.507  1.00  0.00     0.364 C 
HETATM    6  O1  UNL     1     134.848  11.584  70.505  1.00  0.00    -0.243 OA
HETATM    7  N5  UNL     1     134.188  13.275  71.914  1.00  0.00    -0.256 N 
ATOM      8  H5  UNL     1     133.644  13.563  72.728  1.00  0.00     0.191 HD
HETATM    9  C3  UNL     1     133.286   9.642  71.968  1.00  0.00     0.367 A 
HETATM   10  O2  UNL     1     133.904   9.140  70.990  1.00  0.00    -0.244 OA
HETATM   11  N7  UNL     1     132.474   9.045  72.858  1.00  0.00    -0.120 N 
ENDROOT
BRANCH  11  12
HETATM   12  C4  UNL     1     132.078   7.692  72.960  1.00  0.00     0.149 C 
HETATM   13  C5  UNL     1     133.165   6.720  73.283  1.00  0.00     0.074 C 
HETATM   14  C6  UNL     1     132.675   5.310  73.223  1.00  0.00     0.032 C 
HETATM   15  C8  UNL     1     131.509   4.937  72.789  1.00  0.00     0.066 C 
HETATM   16  N9  UNL     1     131.076   3.572  72.748  1.00  0.00    -0.103 NA
HETATM   17  C9  UNL     1     130.544   5.944  72.306  1.00  0.00     0.196 C 
HETATM   18  C10 UNL     1     131.346   7.113  71.778  1.00  0.00     0.176 C 
BRANCH  14  19
HETATM   19  C7  UNL     1     133.603   4.289  73.700  1.00  0.00     0.262 C 
HETATM   20  N8  UNL     1     133.661   3.868  75.046  1.00  0.00    -0.057 NA
HETATM   21  O3  UNL     1     134.407   3.736  72.894  1.00  0.00    -0.271 OA
ENDBRANCH  14  19
BRANCH  17  22
HETATM   22  O4  UNL     1     129.808   6.356  73.439  1.00  0.00    -0.387 OA
ATOM     23  H4  UNL     1     129.288   7.102  73.159  1.00  0.00     0.210 HD
ENDBRANCH  17  22
BRANCH  18  24
HETATM   24  O5  UNL     1     130.510   7.961  71.123  1.00  0.00    -0.391 OA
ATOM     25  H5  UNL     1     129.915   7.560  70.500  1.00  0.00     0.210 HD
ENDBRANCH  18  24
ENDBRANCH  11  12
BRANCH   1  26
HETATM   26  N2  UNL     1     131.265   9.891  74.734  1.00  0.00    -0.137 N 
ATOM     27  H2  UNL     1     130.279   9.699  74.558  1.00  0.00     0.205 HD
BRANCH  26  28
HETATM   28  N1  UNL     1     131.692   9.992  76.039  1.00  0.00    -0.331 N 
ATOM     29  H12 UNL     1     131.158   9.490  76.749  1.00  0.00     0.177 HD
ATOM     30  H11 UNL     1     132.508  10.538  76.316  1.00  0.00     0.177 HD
ENDBRANCH  26  28
ENDBRANCH   1  26
BRANCH   7  31
HETATM   31  N6  UNL     1     134.942  14.225  71.213  1.00  0.00    -0.341 N 
ATOM     32  H62 UNL     1     134.992  14.157  70.196  1.00  0.00     0.177 HD
ATOM     33  H61 UNL     1     135.431  14.970  71.708  1.00  0.00     0.177 HD
ENDBRANCH   7  31
TORSDOF 7
ENDMDL
