MODEL 1
REMARK VINA RESULT: -8.779090340      0.000      0.000
REMARK  4 active torsions:
REMARK  status: ('A' for Active; 'I' for Inactive)
REMARK    1  A    between atoms: C1_2  and  C2_4 
REMARK    2  A    between atoms: N1_7  and  C5_8 
REMARK    3  A    between atoms: C5_8  and  C6_9 
REMARK    4  A    between atoms: C6_9  and  C7_10 
ROOT
HETATM    1  C7  UNL     1      42.173 -20.276  44.670  1.00  0.00    -0.038 C 
HETATM    2  C8  UNL     1      43.409 -21.007  45.237  1.00  0.00     0.010 C 
HETATM    3  C9  UNL     1      43.101 -22.292  45.896  1.00  0.00     0.005 C 
HETATM    4  C10 UNL     1      42.010 -23.089  45.214  1.00  0.00    -0.013 C 
HETATM    5  C11 UNL     1      40.706 -22.802  45.864  1.00  0.00     0.013 C 
HETATM    6  C12 UNL     1      40.074 -21.490  45.485  1.00  0.00     0.009 C 
HETATM    7  C13 UNL     1      39.484 -21.722  44.146  1.00  0.00    -0.026 C 
HETATM    8  C14 UNL     1      40.119 -21.959  43.023  1.00  0.00    -0.026 C 
HETATM    9  C15 UNL     1      41.632 -22.034  42.911  1.00  0.00     0.009 C 
HETATM   10  C16 UNL     1      42.121 -23.113  43.767  1.00  0.00     0.013 C 
HETATM   11  C17 UNL     1      42.080 -20.652  43.254  1.00  0.00     0.018 C 
HETATM   12  C18 UNL     1      41.025 -20.334  45.556  1.00  0.00     0.018 C 
ENDROOT
BRANCH   1  13
HETATM   13  C6  UNL     1      42.699 -18.824  44.660  1.00  0.00     0.029 C 
BRANCH  13  14
HETATM   14  C5  UNL     1      42.701 -18.147  43.356  1.00  0.00     0.122 C 
BRANCH  14  15
HETATM   15  N1  UNL     1      41.800 -17.034  43.406  1.00  0.00    -0.393 N 
HETATM   16  C4  UNL     1      40.466 -17.240  43.711  1.00  0.00     0.122 C 
HETATM   17  C3  UNL     1      39.626 -16.101  43.114  1.00  0.00     0.035 C 
HETATM   18  C2  UNL     1      40.123 -14.850  43.834  1.00  0.00     0.093 C 
HETATM   19  C20 UNL     1      41.551 -14.579  43.449  1.00  0.00     0.059 C 
HETATM   20  C19 UNL     1      42.406 -15.786  43.377  1.00  0.00     0.059 C 
BRANCH  18  21
HETATM   21  C1  UNL     1      39.250 -13.729  43.447  1.00  0.00     0.177 C 
HETATM   22  O1  UNL     1      39.710 -12.542  43.456  1.00  0.00    -0.648 OA
HETATM   23  O2  UNL     1      37.931 -13.884  43.065  1.00  0.00    -0.648 OA
ENDBRANCH  18  21
ENDBRANCH  14  15
ENDBRANCH  13  14
ENDBRANCH   1  13
TORSDOF 4
ENDMDL
MODEL 2
REMARK VINA RESULT: -8.593451790      1.423      2.870
REMARK  4 active torsions:
REMARK  status: ('A' for Active; 'I' for Inactive)
REMARK    1  A    between atoms: C1_2  and  C2_4 
REMARK    2  A    between atoms: N1_7  and  C5_8 
REMARK    3  A    between atoms: C5_8  and  C6_9 
REMARK    4  A    between atoms: C6_9  and  C7_10 
ROOT
HETATM    1  C7  UNL     1      41.174 -20.070  43.980  1.00  0.00    -0.038 C 
HETATM    2  C8  UNL     1      40.525 -21.300  44.651  1.00  0.00     0.010 C 
HETATM    3  C9  UNL     1      41.381 -22.503  44.661  1.00  0.00     0.005 C 
HETATM    4  C10 UNL     1      42.849 -22.215  44.892  1.00  0.00    -0.013 C 
HETATM    5  C11 UNL     1      43.546 -22.114  43.584  1.00  0.00     0.013 C 
HETATM    6  C12 UNL     1      43.341 -20.820  42.846  1.00  0.00     0.009 C 
HETATM    7  C13 UNL     1      44.230 -19.848  43.523  1.00  0.00    -0.026 C 
HETATM    8  C14 UNL     1      44.126 -19.386  44.746  1.00  0.00    -0.026 C 
HETATM    9  C15 UNL     1      43.023 -19.794  45.708  1.00  0.00     0.009 C 
HETATM   10  C16 UNL     1      43.096 -21.236  45.935  1.00  0.00     0.013 C 
HETATM   11  C17 UNL     1      41.781 -19.279  45.058  1.00  0.00     0.018 C 
HETATM   12  C18 UNL     1      41.904 -20.404  42.770  1.00  0.00     0.018 C 
ENDROOT
BRANCH   1  13
HETATM   13  C6  UNL     1      39.909 -19.283  43.576  1.00  0.00     0.029 C 
BRANCH  13  14
HETATM   14  C5  UNL     1      40.021 -18.456  42.367  1.00  0.00     0.122 C 
BRANCH  14  15
HETATM   15  N1  UNL     1      40.354 -17.115  42.747  1.00  0.00    -0.393 N 
HETATM   16  C4  UNL     1      39.633 -16.482  43.743  1.00  0.00     0.122 C 
HETATM   17  C3  UNL     1      39.722 -14.961  43.547  1.00  0.00     0.035 C 
HETATM   18  C2  UNL     1      41.206 -14.647  43.718  1.00  0.00     0.093 C 
HETATM   19  C20 UNL     1      41.987 -15.272  42.595  1.00  0.00     0.059 C 
HETATM   20  C19 UNL     1      41.553 -16.641  42.234  1.00  0.00     0.059 C 
BRANCH  18  21
HETATM   21  C1  UNL     1      41.361 -13.182  43.717  1.00  0.00     0.177 C 
HETATM   22  O1  UNL     1      42.157 -12.634  42.889  1.00  0.00    -0.648 OA
HETATM   23  O2  UNL     1      40.681 -12.341  44.578  1.00  0.00    -0.648 OA
ENDBRANCH  18  21
ENDBRANCH  14  15
ENDBRANCH  13  14
ENDBRANCH   1  13
TORSDOF 4
ENDMDL
MODEL 3
REMARK VINA RESULT: -8.554964156      4.327      5.656
REMARK  4 active torsions:
REMARK  status: ('A' for Active; 'I' for Inactive)
REMARK    1  A    between atoms: C1_2  and  C2_4 
REMARK    2  A    between atoms: N1_7  and  C5_8 
REMARK    3  A    between atoms: C5_8  and  C6_9 
REMARK    4  A    between atoms: C6_9  and  C7_10 
ROOT
HETATM    1  C7  UNL     1      41.136 -21.364  43.188  1.00  0.00    -0.038 C 
HETATM    2  C8  UNL     1      42.333 -22.276  42.845  1.00  0.00     0.010 C 
HETATM    3  C9  UNL     1      43.420 -22.247  43.845  1.00  0.00     0.005 C 
HETATM    4  C10 UNL     1      42.939 -22.154  45.277  1.00  0.00    -0.013 C 
HETATM    5  C11 UNL     1      42.931 -20.732  45.706  1.00  0.00     0.013 C 
HETATM    6  C12 UNL     1      41.776 -19.914  45.196  1.00  0.00     0.009 C 
HETATM    7  C13 UNL     1      40.629 -20.297  46.052  1.00  0.00    -0.026 C 
HETATM    8  C14 UNL     1      40.027 -21.460  46.108  1.00  0.00    -0.026 C 
HETATM    9  C15 UNL     1      40.428 -22.657  45.263  1.00  0.00     0.009 C 
HETATM   10  C16 UNL     1      41.810 -23.018  45.572  1.00  0.00     0.013 C 
HETATM   11  C17 UNL     1      40.147 -22.212  43.866  1.00  0.00     0.018 C 
HETATM   12  C18 UNL     1      41.539 -20.078  43.726  1.00  0.00     0.018 C 
ENDROOT
BRANCH   1  13
HETATM   13  C6  UNL     1      40.557 -21.134  41.775  1.00  0.00     0.029 C 
BRANCH  13  14
HETATM   14  C5  UNL     1      40.792 -19.807  41.189  1.00  0.00     0.122 C 
BRANCH  14  15
HETATM   15  N1  UNL     1      41.940 -19.870  40.334  1.00  0.00    -0.393 N 
HETATM   16  C4  UNL     1      43.060 -19.114  40.627  1.00  0.00     0.122 C 
HETATM   17  C3  UNL     1      43.850 -18.853  39.336  1.00  0.00     0.035 C 
HETATM   18  C2  UNL     1      44.283 -20.241  38.873  1.00  0.00     0.093 C 
HETATM   19  C20 UNL     1      43.073 -21.044  38.483  1.00  0.00     0.059 C 
HETATM   20  C19 UNL     1      41.915 -20.890  39.394  1.00  0.00     0.059 C 
BRANCH  18  21
HETATM   21  C1  UNL     1      45.196 -20.073  37.730  1.00  0.00     0.177 C 
HETATM   22  O1  UNL     1      45.000 -20.741  36.665  1.00  0.00    -0.648 OA
HETATM   23  O2  UNL     1      46.279 -19.214  37.736  1.00  0.00    -0.648 OA
ENDBRANCH  18  21
ENDBRANCH  14  15
ENDBRANCH  13  14
ENDBRANCH   1  13
TORSDOF 4
ENDMDL
MODEL 4
REMARK VINA RESULT: -8.525046835      4.168      5.731
REMARK  4 active torsions:
REMARK  status: ('A' for Active; 'I' for Inactive)
REMARK    1  A    between atoms: C1_2  and  C2_4 
REMARK    2  A    between atoms: N1_7  and  C5_8 
REMARK    3  A    between atoms: C5_8  and  C6_9 
REMARK    4  A    between atoms: C6_9  and  C7_10 
ROOT
HETATM    1  C7  UNL     1      41.610 -21.520  43.090  1.00  0.00    -0.038 C 
HETATM    2  C8  UNL     1      40.080 -21.724  43.082  1.00  0.00     0.010 C 
HETATM    3  C9  UNL     1      39.552 -22.385  44.293  1.00  0.00     0.005 C 
HETATM    4  C10 UNL     1      40.243 -21.968  45.574  1.00  0.00    -0.013 C 
HETATM    5  C11 UNL     1      41.320 -22.939  45.894  1.00  0.00     0.013 C 
HETATM    6  C12 UNL     1      42.581 -22.788  45.089  1.00  0.00     0.009 C 
HETATM    7  C13 UNL     1      43.286 -21.635  45.694  1.00  0.00    -0.026 C 
HETATM    8  C14 UNL     1      42.909 -20.378  45.694  1.00  0.00    -0.026 C 
HETATM    9  C15 UNL     1      41.630 -19.883  45.040  1.00  0.00     0.009 C 
HETATM   10  C16 UNL     1      40.486 -20.541  45.669  1.00  0.00     0.013 C 
HETATM   11  C17 UNL     1      41.846 -20.159  43.588  1.00  0.00     0.018 C 
HETATM   12  C18 UNL     1      42.331 -22.665  43.617  1.00  0.00     0.018 C 
ENDROOT
BRANCH   1  13
HETATM   13  C6  UNL     1      41.880 -21.439  41.573  1.00  0.00     0.029 C 
BRANCH  13  14
HETATM   14  C5  UNL     1      43.141 -22.034  41.108  1.00  0.00     0.122 C 
BRANCH  14  15
HETATM   15  N1  UNL     1      43.891 -21.042  40.396  1.00  0.00    -0.393 N 
HETATM   16  C4  UNL     1      43.469 -20.623  39.148  1.00  0.00     0.122 C 
HETATM   17  C3  UNL     1      44.672 -20.092  38.355  1.00  0.00     0.035 C 
HETATM   18  C2  UNL     1      45.149 -18.885  39.160  1.00  0.00     0.093 C 
HETATM   19  C20 UNL     1      45.678 -19.342  40.491  1.00  0.00     0.059 C 
HETATM   20  C19 UNL     1      44.869 -20.399  41.141  1.00  0.00     0.059 C 
BRANCH  18  21
HETATM   21  C1  UNL     1      46.198 -18.207  38.380  1.00  0.00     0.177 C 
HETATM   22  O1  UNL     1      47.092 -18.897  37.795  1.00  0.00    -0.648 OA
HETATM   23  O2  UNL     1      46.277 -16.834  38.237  1.00  0.00    -0.648 OA
ENDBRANCH  18  21
ENDBRANCH  14  15
ENDBRANCH  13  14
ENDBRANCH   1  13
TORSDOF 4
ENDMDL
MODEL 5
REMARK VINA RESULT: -8.493624008      4.196      5.626
REMARK  4 active torsions:
REMARK  status: ('A' for Active; 'I' for Inactive)
REMARK    1  A    between atoms: C1_2  and  C2_4 
REMARK    2  A    between atoms: N1_7  and  C5_8 
REMARK    3  A    between atoms: C5_8  and  C6_9 
REMARK    4  A    between atoms: C6_9  and  C7_10 
ROOT
HETATM    1  C7  UNL     1      41.734 -21.464  43.046  1.00  0.00    -0.038 C 
HETATM    2  C8  UNL     1      41.875 -19.937  43.222  1.00  0.00     0.010 C 
HETATM    3  C9  UNL     1      41.203 -19.403  44.424  1.00  0.00     0.005 C 
HETATM    4  C10 UNL     1      41.297 -20.306  45.636  1.00  0.00    -0.013 C 
HETATM    5  C11 UNL     1      40.080 -21.154  45.716  1.00  0.00     0.013 C 
HETATM    6  C12 UNL     1      40.048 -22.322  44.768  1.00  0.00     0.009 C 
HETATM    7  C13 UNL     1      40.935 -23.337  45.380  1.00  0.00    -0.026 C 
HETATM    8  C14 UNL     1      42.233 -23.267  45.550  1.00  0.00    -0.026 C 
HETATM    9  C15 UNL     1      43.074 -22.076  45.122  1.00  0.00     0.009 C 
HETATM   10  C16 UNL     1      42.613 -20.885  45.833  1.00  0.00     0.013 C 
HETATM   11  C17 UNL     1      42.938 -22.064  43.635  1.00  0.00     0.018 C 
HETATM   12  C18 UNL     1      40.403 -21.951  43.361  1.00  0.00     0.018 C 
ENDROOT
BRANCH   1  13
HETATM   13  C6  UNL     1      41.940 -21.581  41.521  1.00  0.00     0.029 C 
BRANCH  13  14
HETATM   14  C5  UNL     1      43.234 -22.123  41.083  1.00  0.00     0.122 C 
BRANCH  14  15
HETATM   15  N1  UNL     1      43.949 -21.108  40.368  1.00  0.00    -0.393 N 
HETATM   16  C4  UNL     1      43.495 -20.687  39.131  1.00  0.00     0.122 C 
HETATM   17  C3  UNL     1      44.672 -20.120  38.323  1.00  0.00     0.035 C 
HETATM   18  C2  UNL     1      45.134 -18.910  39.132  1.00  0.00     0.093 C 
HETATM   19  C20 UNL     1      45.696 -19.368  40.450  1.00  0.00     0.059 C 
HETATM   20  C19 UNL     1      44.924 -20.449  41.103  1.00  0.00     0.059 C 
BRANCH  18  21
HETATM   21  C1  UNL     1      46.153 -18.200  38.341  1.00  0.00     0.177 C 
HETATM   22  O1  UNL     1      47.060 -18.864  37.742  1.00  0.00    -0.648 OA
HETATM   23  O2  UNL     1      46.192 -16.825  38.201  1.00  0.00    -0.648 OA
ENDBRANCH  18  21
ENDBRANCH  14  15
ENDBRANCH  13  14
ENDBRANCH   1  13
TORSDOF 4
ENDMDL
