MODEL 1
REMARK VINA RESULT: -8.883120484      0.000      0.000
REMARK  5 active torsions:
REMARK  status: ('A' for Active; 'I' for Inactive)
REMARK    1  A    between atoms: C10_11  and  C11_12 
REMARK    2  A    between atoms: C11_12  and  N2_13 
REMARK       I    between atoms: N2_13  and  C12_15 
REMARK    3  A    between atoms: C12_15  and  C13_17 
REMARK    4  A    between atoms: C13_17  and  C14_18 
REMARK    5  A    between atoms: C14_18  and  C15_19 
ROOT
HETATM    1  C11 UNL     1      45.024 -18.439  44.209  1.00  0.00     0.158 C 
ENDROOT
BRANCH   1   2
HETATM    2  C10 UNL     1      44.278 -19.719  44.404  1.00  0.00     0.240 C 
HETATM    3  N1  UNL     1      43.937 -20.350  43.147  1.00  0.00     0.090 N 
HETATM    4  C1  UNL     1      45.031 -20.369  42.210  1.00  0.00     0.310 C 
HETATM    5  C2  UNL     1      43.389 -21.648  43.366  1.00  0.00     0.277 C 
HETATM    6  C3  UNL     1      42.968 -21.888  44.807  1.00  0.00     0.018 C 
HETATM    7  C4  UNL     1      42.075 -23.094  44.785  1.00  0.00     0.007 C 
HETATM    8  C8  UNL     1      42.275 -20.680  45.395  1.00  0.00    -0.007 C 
HETATM    9  C5  UNL     1      40.949 -23.029  45.776  1.00  0.00     0.000 C 
HETATM   10  C6  UNL     1      40.128 -21.783  45.665  1.00  0.00     0.000 C 
HETATM   11  C7  UNL     1      40.842 -20.699  44.874  1.00  0.00     0.005 C 
HETATM   12  C9  UNL     1      42.967 -19.394  45.093  1.00  0.00     0.042 C 
ENDBRANCH   1   2
BRANCH   1  13
HETATM   13  N2  UNL     1      44.190 -17.294  44.076  1.00  0.00    -0.359 N 
HETATM   14  C12 UNL     1      44.236 -16.536  42.839  1.00  0.00     0.217 C 
HETATM   15  O1  UNL     1      45.006 -16.906  41.927  1.00  0.00    -0.274 OA
ATOM     16  H2  UNL     1      43.571 -17.011  44.836  1.00  0.00     0.162 HD
BRANCH  14  17
HETATM   17  C13 UNL     1      43.388 -15.359  42.677  1.00  0.00     0.103 C 
BRANCH  17  18
HETATM   18  C14 UNL     1      41.944 -15.596  42.654  1.00  0.00     0.014 C 
BRANCH  18  19
HETATM   19  C15 UNL     1      41.037 -14.951  43.614  1.00  0.00    -0.014 C 
HETATM   20  C16 UNL     1      39.606 -14.771  43.329  1.00  0.00     0.004 C 
HETATM   21  C17 UNL     1      38.923 -14.315  44.649  1.00  0.00     0.000 C 
HETATM   22  C18 UNL     1      39.690 -13.224  45.322  1.00  0.00     0.000 C 
HETATM   23  C19 UNL     1      40.671 -12.575  44.370  1.00  0.00     0.000 C 
HETATM   24  C20 UNL     1      41.700 -13.622  44.010  1.00  0.00     0.004 C 
ENDBRANCH  18  19
ENDBRANCH  17  18
ENDBRANCH  14  17
ENDBRANCH   1  13
TORSDOF 5
ENDMDL
MODEL 2
REMARK VINA RESULT: -8.620748124      0.408      1.094
REMARK  5 active torsions:
REMARK  status: ('A' for Active; 'I' for Inactive)
REMARK    1  A    between atoms: C10_11  and  C11_12 
REMARK    2  A    between atoms: C11_12  and  N2_13 
REMARK       I    between atoms: N2_13  and  C12_15 
REMARK    3  A    between atoms: C12_15  and  C13_17 
REMARK    4  A    between atoms: C13_17  and  C14_18 
REMARK    5  A    between atoms: C14_18  and  C15_19 
ROOT
HETATM    1  C11 UNL     1      45.143 -18.404  44.226  1.00  0.00     0.158 C 
ENDROOT
BRANCH   1   2
HETATM    2  C10 UNL     1      44.338 -19.648  44.418  1.00  0.00     0.240 C 
HETATM    3  N1  UNL     1      43.958 -20.253  43.159  1.00  0.00     0.090 N 
HETATM    4  C1  UNL     1      45.043 -20.317  42.213  1.00  0.00     0.310 C 
HETATM    5  C2  UNL     1      43.350 -21.525  43.373  1.00  0.00     0.277 C 
HETATM    6  C3  UNL     1      42.928 -21.755  44.815  1.00  0.00     0.018 C 
HETATM    7  C4  UNL     1      41.979 -22.916  44.792  1.00  0.00     0.007 C 
HETATM    8  C8  UNL     1      42.298 -20.520  45.417  1.00  0.00    -0.007 C 
HETATM    9  C5  UNL     1      40.864 -22.806  45.792  1.00  0.00     0.000 C 
HETATM   10  C6  UNL     1      40.103 -21.521  45.696  1.00  0.00     0.000 C 
HETATM   11  C7  UNL     1      40.862 -20.467  44.906  1.00  0.00     0.005 C 
HETATM   12  C9  UNL     1      43.049 -19.266  45.119  1.00  0.00     0.042 C 
ENDBRANCH   1   2
BRANCH   1  13
HETATM   13  N2  UNL     1      44.364 -17.216  44.137  1.00  0.00    -0.359 N 
HETATM   14  C12 UNL     1      44.463 -16.405  42.937  1.00  0.00     0.217 C 
HETATM   15  O1  UNL     1      45.227 -16.769  42.017  1.00  0.00    -0.274 OA
ATOM     16  H2  UNL     1      43.749 -16.939  44.902  1.00  0.00     0.162 HD
BRANCH  14  17
HETATM   17  C13 UNL     1      43.673 -15.183  42.820  1.00  0.00     0.103 C 
BRANCH  17  18
HETATM   18  C14 UNL     1      42.252 -15.354  42.511  1.00  0.00     0.014 C 
BRANCH  18  19
HETATM   19  C15 UNL     1      41.213 -14.562  43.184  1.00  0.00    -0.014 C 
HETATM   20  C16 UNL     1      41.490 -13.803  44.413  1.00  0.00     0.004 C 
HETATM   21  C17 UNL     1      40.263 -12.887  44.680  1.00  0.00     0.000 C 
HETATM   22  C18 UNL     1      38.974 -13.630  44.540  1.00  0.00     0.000 C 
HETATM   23  C19 UNL     1      39.197 -15.127  44.586  1.00  0.00     0.000 C 
HETATM   24  C20 UNL     1      40.005 -15.494  43.363  1.00  0.00     0.004 C 
ENDBRANCH  18  19
ENDBRANCH  17  18
ENDBRANCH  14  17
ENDBRANCH   1  13
TORSDOF 5
ENDMDL
MODEL 3
REMARK VINA RESULT: -8.539040100      1.888      2.079
REMARK  5 active torsions:
REMARK  status: ('A' for Active; 'I' for Inactive)
REMARK    1  A    between atoms: C10_11  and  C11_12 
REMARK    2  A    between atoms: C11_12  and  N2_13 
REMARK       I    between atoms: N2_13  and  C12_15 
REMARK    3  A    between atoms: C12_15  and  C13_17 
REMARK    4  A    between atoms: C13_17  and  C14_18 
REMARK    5  A    between atoms: C14_18  and  C15_19 
ROOT
HETATM    1  C11 UNL     1      41.820 -19.295  41.278  1.00  0.00     0.158 C 
ENDROOT
BRANCH   1   2
HETATM    2  C10 UNL     1      42.225 -20.355  42.250  1.00  0.00     0.240 C 
HETATM    3  N1  UNL     1      42.463 -21.628  41.604  1.00  0.00     0.090 N 
HETATM    4  C1  UNL     1      43.249 -21.512  40.401  1.00  0.00     0.310 C 
HETATM    5  C2  UNL     1      43.017 -22.566  42.524  1.00  0.00     0.277 C 
HETATM    6  C3  UNL     1      42.876 -22.139  43.976  1.00  0.00     0.018 C 
HETATM    7  C4  UNL     1      43.128 -23.368  44.799  1.00  0.00     0.007 C 
HETATM    8  C8  UNL     1      41.515 -21.540  44.253  1.00  0.00    -0.007 C 
HETATM    9  C5  UNL     1      42.287 -23.447  46.040  1.00  0.00     0.000 C 
HETATM   10  C6  UNL     1      40.821 -23.300  45.777  1.00  0.00     0.000 C 
HETATM   11  C7  UNL     1      40.546 -22.708  44.404  1.00  0.00     0.005 C 
HETATM   12  C9  UNL     1      41.072 -20.570  43.212  1.00  0.00     0.042 C 
ENDBRANCH   1   2
BRANCH   1  13
HETATM   13  N2  UNL     1      41.921 -17.970  41.786  1.00  0.00    -0.359 N 
HETATM   14  C12 UNL     1      42.405 -16.920  40.909  1.00  0.00     0.217 C 
HETATM   15  O1  UNL     1      42.721 -17.207  39.734  1.00  0.00    -0.274 OA
ATOM     16  H2  UNL     1      41.658 -17.762  42.750  1.00  0.00     0.162 HD
BRANCH  14  17
HETATM   17  C13 UNL     1      42.516 -15.552  41.406  1.00  0.00     0.103 C 
BRANCH  17  18
HETATM   18  C14 UNL     1      42.618 -15.395  42.858  1.00  0.00     0.014 C 
BRANCH  18  19
HETATM   19  C15 UNL     1      41.510 -14.855  43.659  1.00  0.00    -0.014 C 
HETATM   20  C16 UNL     1      40.107 -15.171  43.354  1.00  0.00     0.004 C 
HETATM   21  C17 UNL     1      39.247 -14.664  44.545  1.00  0.00     0.000 C 
HETATM   22  C18 UNL     1      39.625 -13.278  44.953  1.00  0.00     0.000 C 
HETATM   23  C19 UNL     1      40.431 -12.589  43.872  1.00  0.00     0.000 C 
HETATM   24  C20 UNL     1      41.736 -13.338  43.745  1.00  0.00     0.004 C 
ENDBRANCH  18  19
ENDBRANCH  17  18
ENDBRANCH  14  17
ENDBRANCH   1  13
TORSDOF 5
ENDMDL
MODEL 4
REMARK VINA RESULT: -8.523723248      2.047      7.302
REMARK  5 active torsions:
REMARK  status: ('A' for Active; 'I' for Inactive)
REMARK    1  A    between atoms: C10_11  and  C11_12 
REMARK    2  A    between atoms: C11_12  and  N2_13 
REMARK       I    between atoms: N2_13  and  C12_15 
REMARK    3  A    between atoms: C12_15  and  C13_17 
REMARK    4  A    between atoms: C13_17  and  C14_18 
REMARK    5  A    between atoms: C14_18  and  C15_19 
ROOT
HETATM    1  C11 UNL     1      41.831 -18.057  41.164  1.00  0.00     0.158 C 
ENDROOT
BRANCH   1   2
HETATM    2  C10 UNL     1      41.741 -16.767  41.913  1.00  0.00     0.240 C 
HETATM    3  N1  UNL     1      42.603 -16.747  43.075  1.00  0.00     0.090 N 
HETATM    4  C1  UNL     1      43.925 -17.253  42.805  1.00  0.00     0.310 C 
HETATM    5  C2  UNL     1      42.630 -15.448  43.662  1.00  0.00     0.277 C 
HETATM    6  C3  UNL     1      41.510 -14.544  43.173  1.00  0.00     0.018 C 
HETATM    7  C4  UNL     1      41.438 -13.405  44.147  1.00  0.00     0.007 C 
HETATM    8  C8  UNL     1      40.196 -15.286  43.072  1.00  0.00    -0.007 C 
HETATM    9  C5  UNL     1      40.042 -12.912  44.399  1.00  0.00     0.000 C 
HETATM   10  C6  UNL     1      39.092 -13.994  44.807  1.00  0.00     0.000 C 
HETATM   11  C7  UNL     1      39.634 -15.377  44.486  1.00  0.00     0.005 C 
HETATM   12  C9  UNL     1      40.321 -16.625  42.428  1.00  0.00     0.042 C 
ENDBRANCH   1   2
BRANCH   1  13
HETATM   13  N2  UNL     1      40.994 -19.087  41.677  1.00  0.00    -0.359 N 
HETATM   14  C12 UNL     1      41.267 -20.462  41.300  1.00  0.00     0.217 C 
HETATM   15  O1  UNL     1      42.225 -20.704  40.535  1.00  0.00    -0.274 OA
ATOM     16  H2  UNL     1      40.217 -18.863  42.299  1.00  0.00     0.162 HD
BRANCH  14  17
HETATM   17  C13 UNL     1      40.424 -21.536  41.814  1.00  0.00     0.103 C 
BRANCH  17  18
HETATM   18  C14 UNL     1      40.186 -21.542  43.259  1.00  0.00     0.014 C 
BRANCH  18  19
HETATM   19  C15 UNL     1      41.187 -22.055  44.206  1.00  0.00    -0.014 C 
HETATM   20  C16 UNL     1      42.443 -22.669  43.751  1.00  0.00     0.004 C 
HETATM   21  C17 UNL     1      43.356 -22.839  44.997  1.00  0.00     0.000 C 
HETATM   22  C18 UNL     1      42.615 -23.429  46.152  1.00  0.00     0.000 C 
HETATM   23  C19 UNL     1      41.323 -24.078  45.701  1.00  0.00     0.000 C 
HETATM   24  C20 UNL     1      40.432 -22.977  45.176  1.00  0.00     0.004 C 
ENDBRANCH  18  19
ENDBRANCH  17  18
ENDBRANCH  14  17
ENDBRANCH   1  13
TORSDOF 5
ENDMDL
MODEL 5
REMARK VINA RESULT: -8.487825070      1.889      2.315
REMARK  5 active torsions:
REMARK  status: ('A' for Active; 'I' for Inactive)
REMARK    1  A    between atoms: C10_11  and  C11_12 
REMARK    2  A    between atoms: C11_12  and  N2_13 
REMARK       I    between atoms: N2_13  and  C12_15 
REMARK    3  A    between atoms: C12_15  and  C13_17 
REMARK    4  A    between atoms: C13_17  and  C14_18 
REMARK    5  A    between atoms: C14_18  and  C15_19 
ROOT
HETATM    1  C11 UNL     1      42.176 -19.407  41.097  1.00  0.00     0.158 C 
ENDROOT
BRANCH   1   2
HETATM    2  C10 UNL     1      42.525 -20.440  42.120  1.00  0.00     0.240 C 
HETATM    3  N1  UNL     1      42.736 -21.744  41.529  1.00  0.00     0.090 N 
HETATM    4  C1  UNL     1      43.551 -21.701  40.341  1.00  0.00     0.310 C 
HETATM    5  C2  UNL     1      43.239 -22.662  42.498  1.00  0.00     0.277 C 
HETATM    6  C3  UNL     1      43.082 -22.172  43.928  1.00  0.00     0.018 C 
HETATM    7  C4  UNL     1      43.276 -23.375  44.804  1.00  0.00     0.007 C 
HETATM    8  C8  UNL     1      41.736 -21.521  44.151  1.00  0.00    -0.007 C 
HETATM    9  C5  UNL     1      42.406 -23.378  46.028  1.00  0.00     0.000 C 
HETATM   10  C6  UNL     1      40.952 -23.195  45.727  1.00  0.00     0.000 C 
HETATM   11  C7  UNL     1      40.726 -22.650  44.326  1.00  0.00     0.005 C 
HETATM   12  C9  UNL     1      41.346 -20.579  43.063  1.00  0.00     0.042 C 
ENDBRANCH   1   2
BRANCH   1  13
HETATM   13  N2  UNL     1      42.189 -18.072  41.591  1.00  0.00    -0.359 N 
HETATM   14  C12 UNL     1      42.603 -17.003  40.702  1.00  0.00     0.217 C 
HETATM   15  O1  UNL     1      42.939 -17.281  39.530  1.00  0.00    -0.274 OA
ATOM     16  H2  UNL     1      41.912 -17.871  42.552  1.00  0.00     0.162 HD
BRANCH  14  17
HETATM   17  C13 UNL     1      42.623 -15.625  41.183  1.00  0.00     0.103 C 
BRANCH  17  18
HETATM   18  C14 UNL     1      42.432 -15.437  42.623  1.00  0.00     0.014 C 
BRANCH  18  19
HETATM   19  C15 UNL     1      41.360 -14.585  43.157  1.00  0.00    -0.014 C 
HETATM   20  C16 UNL     1      41.576 -13.697  44.309  1.00  0.00     0.004 C 
HETATM   21  C17 UNL     1      40.335 -12.767  44.418  1.00  0.00     0.000 C 
HETATM   22  C18 UNL     1      39.057 -13.530  44.296  1.00  0.00     0.000 C 
HETATM   23  C19 UNL     1      39.280 -15.011  44.512  1.00  0.00     0.000 C 
HETATM   24  C20 UNL     1      40.146 -15.501  43.376  1.00  0.00     0.004 C 
ENDBRANCH  18  19
ENDBRANCH  17  18
ENDBRANCH  14  17
ENDBRANCH   1  13
TORSDOF 5
ENDMDL
