MODEL 1
REMARK VINA RESULT: -8.162850415      0.000      0.000
REMARK  6 active torsions:
REMARK  status: ('A' for Active; 'I' for Inactive)
REMARK    1  A    between atoms: C3_3  and  C4_4 
REMARK    2  A    between atoms: C6_6  and  N1_7 
REMARK    3  A    between atoms: N1_7  and  C7_9 
REMARK    4  A    between atoms: C7_9  and  C8_10 
REMARK    5  A    between atoms: C8_10  and  C9_11 
REMARK       I    between atoms: N2_14  and  C12_15 
REMARK    6  A    between atoms: C12_15  and  C13_17 
ROOT
HETATM    1  C1  UNL     1      43.065 -21.511  37.386  1.00  0.00     0.112 C 
HETATM    2  C2  UNL     1      43.368 -21.658  38.813  1.00  0.00    -0.106 C 
HETATM    3  C3  UNL     1      43.630 -21.797  39.984  1.00  0.00    -0.071 C 
ENDROOT
BRANCH   3   4
HETATM    4  C4  UNL     1      43.923 -21.983  41.378  1.00  0.00     0.006 C 
HETATM    5  C5  UNL     1      44.599 -20.879  42.092  1.00  0.00     0.059 C 
HETATM    6  C6  UNL     1      43.573 -23.120  41.937  1.00  0.00     0.098 C 
BRANCH   6   7
HETATM    7  N1  UNL     1      43.837 -23.364  43.318  1.00  0.00    -0.398 N 
ATOM      8  H1  UNL     1      44.779 -23.595  43.636  1.00  0.00     0.158 HD
BRANCH   7   9
HETATM    9  C7  UNL     1      42.767 -23.278  44.235  1.00  0.00     0.119 C 
BRANCH   9  10
HETATM   10  C8  UNL     1      42.499 -22.014  44.949  1.00  0.00     0.024 C 
BRANCH  10  11
HETATM   11  C9  UNL     1      41.148 -21.429  44.896  1.00  0.00    -0.010 C 
HETATM   12  C10 UNL     1      41.135 -20.069  45.604  1.00  0.00     0.024 C 
HETATM   13  C11 UNL     1      41.852 -19.029  44.789  1.00  0.00     0.126 C 
HETATM   14  N2  UNL     1      41.173 -18.919  43.506  1.00  0.00    -0.352 N 
HETATM   15  C12 UNL     1      40.661 -17.697  42.993  1.00  0.00     0.224 C 
HETATM   16  C19 UNL     1      41.038 -20.122  42.745  1.00  0.00     0.126 C 
HETATM   17  O1  UNL     1      40.071 -17.736  41.869  1.00  0.00    -0.273 OA
HETATM   18  C20 UNL     1      40.467 -21.252  43.595  1.00  0.00     0.024 C 
BRANCH  15  19
HETATM   19  C13 UNL     1      40.766 -16.394  43.669  1.00  0.00     0.078 C 
HETATM   20  C14 UNL     1      39.378 -15.795  43.811  1.00  0.00     0.014 C 
HETATM   21  C15 UNL     1      39.437 -14.440  44.486  1.00  0.00     0.001 C 
HETATM   22  C16 UNL     1      40.361 -13.508  43.766  1.00  0.00     0.000 C 
HETATM   23  C17 UNL     1      41.738 -14.169  43.665  1.00  0.00     0.001 C 
HETATM   24  C18 UNL     1      41.556 -15.402  42.807  1.00  0.00     0.014 C 
ENDBRANCH  15  19
ENDBRANCH  10  11
ENDBRANCH   9  10
ENDBRANCH   7   9
ENDBRANCH   6   7
ENDBRANCH   3   4
TORSDOF 6
ENDMDL
MODEL 2
REMARK VINA RESULT: -8.090781834      2.107      3.625
REMARK  6 active torsions:
REMARK  status: ('A' for Active; 'I' for Inactive)
REMARK    1  A    between atoms: C3_3  and  C4_4 
REMARK    2  A    between atoms: C6_6  and  N1_7 
REMARK    3  A    between atoms: N1_7  and  C7_9 
REMARK    4  A    between atoms: C7_9  and  C8_10 
REMARK    5  A    between atoms: C8_10  and  C9_11 
REMARK       I    between atoms: N2_14  and  C12_15 
REMARK    6  A    between atoms: C12_15  and  C13_17 
ROOT
HETATM    1  C1  UNL     1      46.717 -17.034  44.232  1.00  0.00     0.112 C 
HETATM    2  C2  UNL     1      45.667 -18.006  44.554  1.00  0.00    -0.106 C 
HETATM    3  C3  UNL     1      44.815 -18.822  44.812  1.00  0.00    -0.071 C 
ENDROOT
BRANCH   3   4
HETATM    4  C4  UNL     1      43.796 -19.795  45.092  1.00  0.00     0.006 C 
HETATM    5  C5  UNL     1      43.044 -19.660  46.358  1.00  0.00     0.059 C 
HETATM    6  C6  UNL     1      43.592 -20.748  44.210  1.00  0.00     0.098 C 
BRANCH   6   7
HETATM    7  N1  UNL     1      42.594 -21.745  44.432  1.00  0.00    -0.398 N 
ATOM      8  H1  UNL     1      42.633 -22.348  45.253  1.00  0.00     0.158 HD
BRANCH   7   9
HETATM    9  C7  UNL     1      41.551 -21.876  43.489  1.00  0.00     0.119 C 
BRANCH   9  10
HETATM   10  C8  UNL     1      41.719 -21.361  42.116  1.00  0.00     0.024 C 
BRANCH  10  11
HETATM   11  C9  UNL     1      40.759 -20.374  41.593  1.00  0.00    -0.010 C 
HETATM   12  C10 UNL     1      40.199 -19.525  42.741  1.00  0.00     0.024 C 
HETATM   13  C11 UNL     1      41.234 -18.565  43.257  1.00  0.00     0.126 C 
HETATM   14  N2  UNL     1      41.631 -17.699  42.156  1.00  0.00    -0.352 N 
HETATM   15  C12 UNL     1      41.564 -16.281  42.212  1.00  0.00     0.224 C 
HETATM   16  C19 UNL     1      42.113 -18.343  40.973  1.00  0.00     0.126 C 
HETATM   17  O1  UNL     1      41.920 -15.637  41.177  1.00  0.00    -0.273 OA
HETATM   18  C20 UNL     1      41.163 -19.444  40.517  1.00  0.00     0.024 C 
BRANCH  15  19
HETATM   19  C13 UNL     1      41.114 -15.508  43.381  1.00  0.00     0.078 C 
HETATM   20  C14 UNL     1      39.596 -15.466  43.394  1.00  0.00     0.014 C 
HETATM   21  C15 UNL     1      39.084 -14.663  44.572  1.00  0.00     0.001 C 
HETATM   22  C16 UNL     1      39.667 -13.284  44.590  1.00  0.00     0.000 C 
HETATM   23  C17 UNL     1      41.194 -13.401  44.583  1.00  0.00     0.001 C 
HETATM   24  C18 UNL     1      41.565 -14.047  43.267  1.00  0.00     0.014 C 
ENDBRANCH  15  19
ENDBRANCH  10  11
ENDBRANCH   9  10
ENDBRANCH   7   9
ENDBRANCH   6   7
ENDBRANCH   3   4
TORSDOF 6
ENDMDL
MODEL 3
REMARK VINA RESULT: -7.986990101      2.016      3.483
REMARK  6 active torsions:
REMARK  status: ('A' for Active; 'I' for Inactive)
REMARK    1  A    between atoms: C3_3  and  C4_4 
REMARK    2  A    between atoms: C6_6  and  N1_7 
REMARK    3  A    between atoms: N1_7  and  C7_9 
REMARK    4  A    between atoms: C7_9  and  C8_10 
REMARK    5  A    between atoms: C8_10  and  C9_11 
REMARK       I    between atoms: N2_14  and  C12_15 
REMARK    6  A    between atoms: C12_15  and  C13_17 
ROOT
HETATM    1  C1  UNL     1      46.022 -17.112  45.353  1.00  0.00     0.112 C 
HETATM    2  C2  UNL     1      45.781 -18.047  44.249  1.00  0.00    -0.106 C 
HETATM    3  C3  UNL     1      45.566 -18.803  43.333  1.00  0.00    -0.071 C 
ENDROOT
BRANCH   3   4
HETATM    4  C4  UNL     1      45.288 -19.712  42.255  1.00  0.00     0.006 C 
HETATM    5  C5  UNL     1      45.849 -19.395  40.925  1.00  0.00     0.059 C 
HETATM    6  C6  UNL     1      44.553 -20.771  42.514  1.00  0.00     0.098 C 
BRANCH   6   7
HETATM    7  N1  UNL     1      44.243 -21.711  41.485  1.00  0.00    -0.398 N 
ATOM      8  H1  UNL     1      44.983 -22.231  41.014  1.00  0.00     0.158 HD
BRANCH   7   9
HETATM    9  C7  UNL     1      42.889 -21.904  41.135  1.00  0.00     0.119 C 
BRANCH   9  10
HETATM   10  C8  UNL     1      41.814 -21.413  42.020  1.00  0.00     0.024 C 
BRANCH  10  11
HETATM   11  C9  UNL     1      40.850 -20.425  41.504  1.00  0.00    -0.010 C 
HETATM   12  C10 UNL     1      40.282 -19.592  42.658  1.00  0.00     0.024 C 
HETATM   13  C11 UNL     1      41.310 -18.632  43.189  1.00  0.00     0.126 C 
HETATM   14  N2  UNL     1      41.706 -17.752  42.099  1.00  0.00    -0.352 N 
HETATM   15  C12 UNL     1      41.632 -16.335  42.169  1.00  0.00     0.224 C 
HETATM   16  C19 UNL     1      42.196 -18.380  40.911  1.00  0.00     0.126 C 
HETATM   17  O1  UNL     1      41.989 -15.678  41.143  1.00  0.00    -0.273 OA
HETATM   18  C20 UNL     1      41.254 -19.482  40.439  1.00  0.00     0.024 C 
BRANCH  15  19
HETATM   19  C13 UNL     1      41.173 -15.577  43.345  1.00  0.00     0.078 C 
HETATM   20  C14 UNL     1      39.656 -15.494  43.321  1.00  0.00     0.014 C 
HETATM   21  C15 UNL     1      39.137 -14.704  44.504  1.00  0.00     0.001 C 
HETATM   22  C16 UNL     1      39.757 -13.343  44.570  1.00  0.00     0.000 C 
HETATM   23  C17 UNL     1      41.279 -13.501  44.599  1.00  0.00     0.001 C 
HETATM   24  C18 UNL     1      41.666 -14.127  43.277  1.00  0.00     0.014 C 
ENDBRANCH  15  19
ENDBRANCH  10  11
ENDBRANCH   9  10
ENDBRANCH   7   9
ENDBRANCH   6   7
ENDBRANCH   3   4
TORSDOF 6
ENDMDL
MODEL 4
REMARK VINA RESULT: -7.971914730      1.996      2.491
REMARK  6 active torsions:
REMARK  status: ('A' for Active; 'I' for Inactive)
REMARK    1  A    between atoms: C3_3  and  C4_4 
REMARK    2  A    between atoms: C6_6  and  N1_7 
REMARK    3  A    between atoms: N1_7  and  C7_9 
REMARK    4  A    between atoms: C7_9  and  C8_10 
REMARK    5  A    between atoms: C8_10  and  C9_11 
REMARK       I    between atoms: N2_14  and  C12_15 
REMARK    6  A    between atoms: C12_15  and  C13_17 
ROOT
HETATM    1  C1  UNL     1      47.169 -17.990  37.867  1.00  0.00     0.112 C 
HETATM    2  C2  UNL     1      46.051 -18.877  38.200  1.00  0.00    -0.106 C 
HETATM    3  C3  UNL     1      45.127 -19.597  38.494  1.00  0.00    -0.071 C 
ENDROOT
BRANCH   3   4
HETATM    4  C4  UNL     1      44.044 -20.467  38.860  1.00  0.00     0.006 C 
HETATM    5  C5  UNL     1      43.436 -21.296  37.798  1.00  0.00     0.059 C 
HETATM    6  C6  UNL     1      43.656 -20.476  40.117  1.00  0.00     0.098 C 
BRANCH   6   7
HETATM    7  N1  UNL     1      42.585 -21.318  40.542  1.00  0.00    -0.398 N 
ATOM      8  H1  UNL     1      41.819 -21.548  39.909  1.00  0.00     0.158 HD
BRANCH   7   9
HETATM    9  C7  UNL     1      42.609 -21.825  41.859  1.00  0.00     0.119 C 
BRANCH   9  10
HETATM   10  C8  UNL     1      42.739 -20.908  43.009  1.00  0.00     0.024 C 
BRANCH  10  11
HETATM   11  C9  UNL     1      41.530 -20.498  43.744  1.00  0.00    -0.010 C 
HETATM   12  C10 UNL     1      41.836 -19.278  44.622  1.00  0.00     0.024 C 
HETATM   13  C11 UNL     1      42.008 -18.041  43.786  1.00  0.00     0.126 C 
HETATM   14  N2  UNL     1      40.769 -17.819  43.054  1.00  0.00    -0.352 N 
HETATM   15  C12 UNL     1      40.030 -16.608  43.115  1.00  0.00     0.224 C 
HETATM   16  C19 UNL     1      40.304 -18.896  42.236  1.00  0.00     0.126 C 
HETATM   17  O1  UNL     1      38.953 -16.544  42.444  1.00  0.00    -0.273 OA
HETATM   18  C20 UNL     1      40.278 -20.208  43.012  1.00  0.00     0.024 C 
BRANCH  15  19
HETATM   19  C13 UNL     1      40.423 -15.423  43.896  1.00  0.00     0.078 C 
HETATM   20  C14 UNL     1      39.182 -14.614  44.230  1.00  0.00     0.014 C 
HETATM   21  C15 UNL     1      39.539 -13.371  45.019  1.00  0.00     0.001 C 
HETATM   22  C16 UNL     1      40.555 -12.539  44.301  1.00  0.00     0.000 C 
HETATM   23  C17 UNL     1      41.777 -13.411  44.003  1.00  0.00     0.001 C 
HETATM   24  C18 UNL     1      41.307 -14.493  43.056  1.00  0.00     0.014 C 
ENDBRANCH  15  19
ENDBRANCH  10  11
ENDBRANCH   9  10
ENDBRANCH   7   9
ENDBRANCH   6   7
ENDBRANCH   3   4
TORSDOF 6
ENDMDL
MODEL 5
REMARK VINA RESULT: -7.967737279      2.261      3.998
REMARK  6 active torsions:
REMARK  status: ('A' for Active; 'I' for Inactive)
REMARK    1  A    between atoms: C3_3  and  C4_4 
REMARK    2  A    between atoms: C6_6  and  N1_7 
REMARK    3  A    between atoms: N1_7  and  C7_9 
REMARK    4  A    between atoms: C7_9  and  C8_10 
REMARK    5  A    between atoms: C8_10  and  C9_11 
REMARK       I    between atoms: N2_14  and  C12_15 
REMARK    6  A    between atoms: C12_15  and  C13_17 
ROOT
HETATM    1  C1  UNL     1      38.246 -22.000  43.799  1.00  0.00     0.112 C 
HETATM    2  C2  UNL     1      39.710 -21.925  43.760  1.00  0.00    -0.106 C 
HETATM    3  C3  UNL     1      40.915 -21.875  43.708  1.00  0.00    -0.071 C 
ENDROOT
BRANCH   3   4
HETATM    4  C4  UNL     1      42.351 -21.841  43.657  1.00  0.00     0.006 C 
HETATM    5  C5  UNL     1      43.082 -21.669  44.930  1.00  0.00     0.059 C 
HETATM    6  C6  UNL     1      42.930 -21.964  42.483  1.00  0.00     0.098 C 
BRANCH   6   7
HETATM    7  N1  UNL     1      44.353 -21.938  42.367  1.00  0.00    -0.398 N 
ATOM      8  H1  UNL     1      44.923 -22.682  42.769  1.00  0.00     0.158 HD
BRANCH   7   9
HETATM    9  C7  UNL     1      44.953 -20.859  41.682  1.00  0.00     0.119 C 
BRANCH   9  10
HETATM   10  C8  UNL     1      44.701 -19.470  42.115  1.00  0.00     0.024 C 
BRANCH  10  11
HETATM   11  C9  UNL     1      43.717 -18.655  41.382  1.00  0.00    -0.010 C 
HETATM   12  C10 UNL     1      42.517 -18.341  42.284  1.00  0.00     0.024 C 
HETATM   13  C11 UNL     1      42.884 -17.337  43.342  1.00  0.00     0.126 C 
HETATM   14  N2  UNL     1      43.323 -16.121  42.671  1.00  0.00    -0.352 N 
HETATM   15  C12 UNL     1      42.747 -14.845  42.908  1.00  0.00     0.224 C 
HETATM   16  C19 UNL     1      44.397 -16.255  41.736  1.00  0.00     0.126 C 
HETATM   17  O1  UNL     1      43.206 -13.863  42.245  1.00  0.00    -0.273 OA
HETATM   18  C20 UNL     1      44.131 -17.385  40.747  1.00  0.00     0.024 C 
BRANCH  15  19
HETATM   19  C13 UNL     1      41.661 -14.579  43.866  1.00  0.00     0.078 C 
HETATM   20  C14 UNL     1      40.391 -15.253  43.375  1.00  0.00     0.014 C 
HETATM   21  C15 UNL     1      39.237 -14.992  44.320  1.00  0.00     0.001 C 
HETATM   22  C16 UNL     1      39.027 -13.526  44.538  1.00  0.00     0.000 C 
HETATM   23  C17 UNL     1      40.339 -12.914  45.036  1.00  0.00     0.001 C 
HETATM   24  C18 UNL     1      41.340 -13.081  43.914  1.00  0.00     0.014 C 
ENDBRANCH  15  19
ENDBRANCH  10  11
ENDBRANCH   9  10
ENDBRANCH   7   9
ENDBRANCH   6   7
ENDBRANCH   3   4
TORSDOF 6
ENDMDL
