MODEL 1
REMARK VINA RESULT: -8.263159073      0.000      0.000
REMARK  7 active torsions:
REMARK  status: ('A' for Active; 'I' for Inactive)
REMARK    1  A    between atoms: C2_2  and  C3_3 
REMARK       I    between atoms: C3_3  and  N1_5 
REMARK    2  A    between atoms: N1_5  and  C4_6 
REMARK    3  A    between atoms: N1_5  and  C9_11 
REMARK    4  A    between atoms: C12_14  and  C13_15 
REMARK    5  A    between atoms: C13_15  and  C14_16 
REMARK       I    between atoms: N2_19  and  C17_20 
REMARK    6  A    between atoms: C17_20  and  C18_22 
REMARK    7  A    between atoms: C24_28  and  C25_29 
ROOT
HETATM    1  C14 UNL     1      -0.457   8.655  12.740  1.00  0.00    -0.011 C 
HETATM    2  C15 UNL     1      -1.021   7.968  11.491  1.00  0.00     0.024 C 
HETATM    3  C16 UNL     1       0.048   8.002  10.427  1.00  0.00     0.126 C 
HETATM    4  N2  UNL     1       1.106   7.104  10.910  1.00  0.00    -0.352 N 
HETATM    5  C17 UNL     1       1.691   6.097  10.140  1.00  0.00     0.225 C 
HETATM    6  O2  UNL     1       2.584   5.358  10.667  1.00  0.00    -0.273 OA
HETATM    7  C26 UNL     1       1.586   7.285  12.296  1.00  0.00     0.126 C 
HETATM    8  C27 UNL     1       1.027   8.609  12.797  1.00  0.00     0.024 C 
ENDROOT
BRANCH   1   9
HETATM    9  C13 UNL     1      -1.065   8.095  13.973  1.00  0.00     0.009 C 
BRANCH   9  10
HETATM   10  C12 UNL     1      -1.855   6.849  13.697  1.00  0.00    -0.014 C 
HETATM   11  C11 UNL     1      -1.126   5.658  14.227  1.00  0.00     0.007 C 
HETATM   12  C10 UNL     1      -1.893   4.366  14.052  1.00  0.00     0.026 C 
HETATM   13  C9  UNL     1      -3.372   4.623  13.781  1.00  0.00     0.087 C 
HETATM   14  C29 UNL     1      -3.957   5.726  14.536  1.00  0.00     0.026 C 
HETATM   15  C28 UNL     1      -3.106   6.976  14.584  1.00  0.00     0.007 C 
BRANCH  13  16
HETATM   16  N1  UNL     1      -4.021   3.341  13.781  1.00  0.00    -0.343 N 
HETATM   17  C3  UNL     1      -3.971   2.626  12.501  1.00  0.00     0.220 C 
HETATM   18  O1  UNL     1      -3.389   3.155  11.530  1.00  0.00    -0.273 OA
BRANCH  17  19
HETATM   19  C2  UNL     1      -4.585   1.301  12.325  1.00  0.00     0.098 C 
HETATM   20  C1  UNL     1      -4.975   1.112  10.864  1.00  0.00     0.014 C 
ENDBRANCH  17  19
BRANCH  16  21
HETATM   21  C4  UNL     1      -4.699   2.679  14.814  1.00  0.00     0.087 C 
HETATM   22  C5  UNL     1      -4.128   2.433  16.135  1.00  0.00     0.025 C 
HETATM   23  C6  UNL     1      -5.356   2.124  17.042  1.00  0.00     0.002 C 
HETATM   24  C7  UNL     1      -6.416   3.064  16.502  1.00  0.00     0.002 C 
HETATM   25  C8  UNL     1      -6.101   3.314  15.070  1.00  0.00     0.025 C 
ENDBRANCH  16  21
ENDBRANCH  13  16
ENDBRANCH   9  10
ENDBRANCH   1   9
BRANCH   5  26
HETATM   26  C18 UNL     1       1.326   5.841   8.726  1.00  0.00     0.096 C 
HETATM   27  C19 UNL     1       2.523   6.010   7.858  1.00  0.00    -0.005 C 
HETATM   28  C20 UNL     1       2.164   6.480   6.444  1.00  0.00     0.011 C 
HETATM   29  C21 UNL     1       3.390   4.770   7.800  1.00  0.00     0.005 C 
HETATM   30  C22 UNL     1       2.642   3.529   7.449  1.00  0.00     0.001 C 
HETATM   31  C23 UNL     1       1.156   3.685   7.464  1.00  0.00     0.016 C 
HETATM   32  C24 UNL     1       0.641   4.528   8.602  1.00  0.00     0.100 C 
BRANCH  32  33
HETATM   33  C25 UNL     1      -0.829   4.691   8.391  1.00  0.00     0.177 C 
HETATM   34  O3  UNL     1      -1.637   3.873   8.889  1.00  0.00    -0.648 OA
HETATM   35  O4  UNL     1      -1.342   5.743   7.646  1.00  0.00    -0.648 OA
ENDBRANCH  32  33
ENDBRANCH   5  26
TORSDOF 7
ENDMDL
MODEL 2
REMARK VINA RESULT: -8.133650157      0.883      1.101
REMARK  7 active torsions:
REMARK  status: ('A' for Active; 'I' for Inactive)
REMARK    1  A    between atoms: C2_2  and  C3_3 
REMARK       I    between atoms: C3_3  and  N1_5 
REMARK    2  A    between atoms: N1_5  and  C4_6 
REMARK    3  A    between atoms: N1_5  and  C9_11 
REMARK    4  A    between atoms: C12_14  and  C13_15 
REMARK    5  A    between atoms: C13_15  and  C14_16 
REMARK       I    between atoms: N2_19  and  C17_20 
REMARK    6  A    between atoms: C17_20  and  C18_22 
REMARK    7  A    between atoms: C24_28  and  C25_29 
ROOT
HETATM    1  C14 UNL     1      -1.078   8.880  13.197  1.00  0.00    -0.011 C 
HETATM    2  C15 UNL     1      -1.630   8.220  11.928  1.00  0.00     0.024 C 
HETATM    3  C16 UNL     1      -0.626   8.435  10.824  1.00  0.00     0.126 C 
HETATM    4  N2  UNL     1       0.542   7.623  11.197  1.00  0.00    -0.352 N 
HETATM    5  C17 UNL     1       1.187   6.735  10.334  1.00  0.00     0.225 C 
HETATM    6  O2  UNL     1       2.176   6.062  10.770  1.00  0.00    -0.273 OA
HETATM    7  C26 UNL     1       1.069   7.764  12.571  1.00  0.00     0.126 C 
HETATM    8  C27 UNL     1       0.404   8.986  13.186  1.00  0.00     0.024 C 
ENDROOT
BRANCH   1   9
HETATM    9  C13 UNL     1      -1.562   8.180  14.412  1.00  0.00     0.009 C 
BRANCH   9  10
HETATM   10  C12 UNL     1      -2.241   6.882  14.084  1.00  0.00    -0.014 C 
HETATM   11  C11 UNL     1      -1.379   5.738  14.507  1.00  0.00     0.007 C 
HETATM   12  C10 UNL     1      -2.026   4.390  14.276  1.00  0.00     0.026 C 
HETATM   13  C9  UNL     1      -3.533   4.517  14.077  1.00  0.00     0.087 C 
HETATM   14  C29 UNL     1      -4.188   5.508  14.925  1.00  0.00     0.026 C 
HETATM   15  C28 UNL     1      -3.459   6.830  15.023  1.00  0.00     0.007 C 
BRANCH  13  16
HETATM   16  N1  UNL     1      -4.055   3.180  14.017  1.00  0.00    -0.343 N 
HETATM   17  C3  UNL     1      -3.874   2.505  12.726  1.00  0.00     0.220 C 
HETATM   18  O1  UNL     1      -3.298   3.113  11.798  1.00  0.00    -0.273 OA
BRANCH  17  19
HETATM   19  C2  UNL     1      -4.349   1.134  12.491  1.00  0.00     0.098 C 
HETATM   20  C1  UNL     1      -4.974   1.043  11.104  1.00  0.00     0.014 C 
ENDBRANCH  17  19
BRANCH  16  21
HETATM   21  C4  UNL     1      -4.718   2.429  14.999  1.00  0.00     0.087 C 
HETATM   22  C5  UNL     1      -4.143   2.110  16.304  1.00  0.00     0.025 C 
HETATM   23  C6  UNL     1      -5.365   1.706  17.182  1.00  0.00     0.002 C 
HETATM   24  C7  UNL     1      -6.450   2.650  16.701  1.00  0.00     0.002 C 
HETATM   25  C8  UNL     1      -6.138   3.007  15.291  1.00  0.00     0.025 C 
ENDBRANCH  16  21
ENDBRANCH  13  16
ENDBRANCH   9  10
ENDBRANCH   1   9
BRANCH   5  26
HETATM   26  C18 UNL     1       0.780   6.534   8.923  1.00  0.00     0.096 C 
HETATM   27  C19 UNL     1       1.408   7.574   8.064  1.00  0.00    -0.005 C 
HETATM   28  C20 UNL     1       0.558   7.918   6.837  1.00  0.00     0.011 C 
HETATM   29  C21 UNL     1       2.821   7.221   7.649  1.00  0.00     0.005 C 
HETATM   30  C22 UNL     1       2.947   5.868   7.034  1.00  0.00     0.001 C 
HETATM   31  C23 UNL     1       1.724   5.020   7.167  1.00  0.00     0.016 C 
HETATM   32  C24 UNL     1       1.044   5.132   8.507  1.00  0.00     0.100 C 
BRANCH  32  33
HETATM   33  C25 UNL     1      -0.218   4.335   8.423  1.00  0.00     0.177 C 
HETATM   34  O3  UNL     1      -0.541   3.771   7.352  1.00  0.00    -0.648 OA
HETATM   35  O4  UNL     1      -1.062   4.196   9.515  1.00  0.00    -0.648 OA
ENDBRANCH  32  33
ENDBRANCH   5  26
TORSDOF 7
ENDMDL
MODEL 3
REMARK VINA RESULT: -8.002448474      1.270      1.430
REMARK  7 active torsions:
REMARK  status: ('A' for Active; 'I' for Inactive)
REMARK    1  A    between atoms: C2_2  and  C3_3 
REMARK       I    between atoms: C3_3  and  N1_5 
REMARK    2  A    between atoms: N1_5  and  C4_6 
REMARK    3  A    between atoms: N1_5  and  C9_11 
REMARK    4  A    between atoms: C12_14  and  C13_15 
REMARK    5  A    between atoms: C13_15  and  C14_16 
REMARK       I    between atoms: N2_19  and  C17_20 
REMARK    6  A    between atoms: C17_20  and  C18_22 
REMARK    7  A    between atoms: C24_28  and  C25_29 
ROOT
HETATM    1  C14 UNL     1      -1.034   8.216  12.324  1.00  0.00    -0.011 C 
HETATM    2  C15 UNL     1      -1.056   8.069  10.798  1.00  0.00     0.024 C 
HETATM    3  C16 UNL     1       0.294   7.552  10.368  1.00  0.00     0.126 C 
HETATM    4  N2  UNL     1       0.365   6.176  10.881  1.00  0.00    -0.352 N 
HETATM    5  C17 UNL     1       0.742   5.072  10.114  1.00  0.00     0.225 C 
HETATM    6  O2  UNL     1       0.745   3.919  10.654  1.00  0.00    -0.273 OA
HETATM    7  C26 UNL     1       0.023   5.951  12.302  1.00  0.00     0.126 C 
HETATM    8  C27 UNL     1      -0.044   7.316  12.970  1.00  0.00     0.024 C 
ENDROOT
BRANCH   1   9
HETATM    9  C13 UNL     1      -2.392   8.027  12.894  1.00  0.00     0.009 C 
BRANCH   9  10
HETATM   10  C12 UNL     1      -2.699   6.581  13.153  1.00  0.00    -0.014 C 
HETATM   11  C11 UNL     1      -3.024   6.381  14.597  1.00  0.00     0.007 C 
HETATM   12  C10 UNL     1      -3.417   4.958  14.926  1.00  0.00     0.026 C 
HETATM   13  C9  UNL     1      -3.803   4.178  13.674  1.00  0.00     0.087 C 
HETATM   14  C29 UNL     1      -4.558   4.935  12.681  1.00  0.00     0.026 C 
HETATM   15  C28 UNL     1      -4.022   6.323  12.409  1.00  0.00     0.007 C 
BRANCH  13  16
HETATM   16  N1  UNL     1      -4.295   2.903  14.117  1.00  0.00    -0.343 N 
HETATM   17  C3  UNL     1      -3.769   1.749  13.379  1.00  0.00     0.220 C 
HETATM   18  O1  UNL     1      -2.957   1.941  12.449  1.00  0.00    -0.273 OA
BRANCH  17  19
HETATM   19  C2  UNL     1      -4.168   0.371  13.701  1.00  0.00     0.098 C 
HETATM   20  C1  UNL     1      -4.108  -0.483  12.441  1.00  0.00     0.014 C 
ENDBRANCH  17  19
BRANCH  16  21
HETATM   21  C4  UNL     1      -5.206   2.598  15.139  1.00  0.00     0.087 C 
HETATM   22  C5  UNL     1      -4.813   2.270  16.507  1.00  0.00     0.025 C 
HETATM   23  C6  UNL     1      -6.109   2.477  17.347  1.00  0.00     0.002 C 
HETATM   24  C7  UNL     1      -6.747   3.683  16.686  1.00  0.00     0.002 C 
HETATM   25  C8  UNL     1      -6.304   3.699  15.266  1.00  0.00     0.025 C 
ENDBRANCH  16  21
ENDBRANCH  13  16
ENDBRANCH   9  10
ENDBRANCH   1   9
BRANCH   5  26
HETATM   26  C18 UNL     1       1.146   5.172   8.691  1.00  0.00     0.096 C 
HETATM   27  C19 UNL     1       2.623   5.324   8.595  1.00  0.00    -0.005 C 
HETATM   28  C20 UNL     1       3.055   6.125   7.363  1.00  0.00     0.011 C 
HETATM   29  C21 UNL     1       3.357   4.001   8.653  1.00  0.00     0.005 C 
HETATM   30  C22 UNL     1       2.857   2.993   7.676  1.00  0.00     0.001 C 
HETATM   31  C23 UNL     1       1.579   3.375   7.002  1.00  0.00     0.016 C 
HETATM   32  C24 UNL     1       0.580   4.037   7.916  1.00  0.00     0.100 C 
BRANCH  32  33
HETATM   33  C25 UNL     1      -0.568   4.471   7.063  1.00  0.00     0.177 C 
HETATM   34  O3  UNL     1      -1.716   4.582   7.553  1.00  0.00    -0.648 OA
HETATM   35  O4  UNL     1      -0.402   4.761   5.717  1.00  0.00    -0.648 OA
ENDBRANCH  32  33
ENDBRANCH   5  26
TORSDOF 7
ENDMDL
MODEL 4
REMARK VINA RESULT: -7.830577002      1.291      1.502
REMARK  7 active torsions:
REMARK  status: ('A' for Active; 'I' for Inactive)
REMARK    1  A    between atoms: C2_2  and  C3_3 
REMARK       I    between atoms: C3_3  and  N1_5 
REMARK    2  A    between atoms: N1_5  and  C4_6 
REMARK    3  A    between atoms: N1_5  and  C9_11 
REMARK    4  A    between atoms: C12_14  and  C13_15 
REMARK    5  A    between atoms: C13_15  and  C14_16 
REMARK       I    between atoms: N2_19  and  C17_20 
REMARK    6  A    between atoms: C17_20  and  C18_22 
REMARK    7  A    between atoms: C24_28  and  C25_29 
ROOT
HETATM    1  C14 UNL     1      -1.216   8.821  13.265  1.00  0.00    -0.011 C 
HETATM    2  C15 UNL     1      -2.089   8.442  12.064  1.00  0.00     0.024 C 
HETATM    3  C16 UNL     1      -1.251   8.601  10.819  1.00  0.00     0.126 C 
HETATM    4  N2  UNL     1      -0.233   7.545  10.898  1.00  0.00    -0.352 N 
HETATM    5  C17 UNL     1       0.069   6.666   9.855  1.00  0.00     0.225 C 
HETATM    6  O2  UNL     1       0.953   5.770  10.040  1.00  0.00    -0.273 OA
HETATM    7  C26 UNL     1       0.526   7.410  12.160  1.00  0.00     0.126 C 
HETATM    8  C27 UNL     1       0.235   8.648  12.995  1.00  0.00     0.024 C 
ENDROOT
BRANCH   1   9
HETATM    9  C13 UNL     1      -1.634   8.078  14.480  1.00  0.00     0.009 C 
BRANCH   9  10
HETATM   10  C12 UNL     1      -2.320   6.787  14.143  1.00  0.00    -0.014 C 
HETATM   11  C11 UNL     1      -1.464   5.634  14.558  1.00  0.00     0.007 C 
HETATM   12  C10 UNL     1      -2.119   4.292  14.318  1.00  0.00     0.026 C 
HETATM   13  C9  UNL     1      -3.625   4.429  14.121  1.00  0.00     0.087 C 
HETATM   14  C29 UNL     1      -4.274   5.418  14.976  1.00  0.00     0.026 C 
HETATM   15  C28 UNL     1      -3.537   6.735  15.083  1.00  0.00     0.007 C 
BRANCH  13  16
HETATM   16  N1  UNL     1      -4.156   3.095  14.052  1.00  0.00    -0.343 N 
HETATM   17  C3  UNL     1      -3.980   2.429  12.756  1.00  0.00     0.220 C 
HETATM   18  O1  UNL     1      -3.403   3.040  11.831  1.00  0.00    -0.273 OA
BRANCH  17  19
HETATM   19  C2  UNL     1      -4.464   1.063  12.512  1.00  0.00     0.098 C 
HETATM   20  C1  UNL     1      -4.932   0.940  11.066  1.00  0.00     0.014 C 
ENDBRANCH  17  19
BRANCH  16  21
HETATM   21  C4  UNL     1      -4.820   2.341  15.030  1.00  0.00     0.087 C 
HETATM   22  C5  UNL     1      -4.245   2.009  16.331  1.00  0.00     0.025 C 
HETATM   23  C6  UNL     1      -5.467   1.605  17.208  1.00  0.00     0.002 C 
HETATM   24  C7  UNL     1      -6.547   2.560  16.738  1.00  0.00     0.002 C 
HETATM   25  C8  UNL     1      -6.236   2.925  15.329  1.00  0.00     0.025 C 
ENDBRANCH  16  21
ENDBRANCH  13  16
ENDBRANCH   9  10
ENDBRANCH   1   9
BRANCH   5  26
HETATM   26  C18 UNL     1      -0.592   6.725   8.529  1.00  0.00     0.096 C 
HETATM   27  C19 UNL     1       0.401   7.099   7.487  1.00  0.00    -0.005 C 
HETATM   28  C20 UNL     1      -0.229   7.865   6.320  1.00  0.00     0.011 C 
HETATM   29  C21 UNL     1       1.196   5.916   6.977  1.00  0.00     0.005 C 
HETATM   30  C22 UNL     1       0.352   4.773   6.527  1.00  0.00     0.001 C 
HETATM   31  C23 UNL     1      -1.093   4.899   6.890  1.00  0.00     0.016 C 
HETATM   32  C24 UNL     1      -1.331   5.461   8.268  1.00  0.00     0.100 C 
BRANCH  32  33
HETATM   33  C25 UNL     1      -2.807   5.645   8.413  1.00  0.00     0.177 C 
HETATM   34  O3  UNL     1      -3.572   4.654   8.422  1.00  0.00    -0.648 OA
HETATM   35  O4  UNL     1      -3.370   6.906   8.543  1.00  0.00    -0.648 OA
ENDBRANCH  32  33
ENDBRANCH   5  26
TORSDOF 7
ENDMDL
MODEL 5
REMARK VINA RESULT: -7.606665105      1.330      1.571
REMARK  7 active torsions:
REMARK  status: ('A' for Active; 'I' for Inactive)
REMARK    1  A    between atoms: C2_2  and  C3_3 
REMARK       I    between atoms: C3_3  and  N1_5 
REMARK    2  A    between atoms: N1_5  and  C4_6 
REMARK    3  A    between atoms: N1_5  and  C9_11 
REMARK    4  A    between atoms: C12_14  and  C13_15 
REMARK    5  A    between atoms: C13_15  and  C14_16 
REMARK       I    between atoms: N2_19  and  C17_20 
REMARK    6  A    between atoms: C17_20  and  C18_22 
REMARK    7  A    between atoms: C24_28  and  C25_29 
ROOT
HETATM    1  C14 UNL     1       0.071   8.341  10.922  1.00  0.00    -0.011 C 
HETATM    2  C15 UNL     1      -0.387   7.379   9.820  1.00  0.00     0.024 C 
HETATM    3  C16 UNL     1       0.646   7.414   8.721  1.00  0.00     0.126 C 
HETATM    4  N2  UNL     1       1.846   6.790   9.296  1.00  0.00    -0.352 N 
HETATM    5  C17 UNL     1       2.580   5.780   8.671  1.00  0.00     0.225 C 
HETATM    6  O2  UNL     1       3.591   5.291   9.271  1.00  0.00    -0.273 OA
HETATM    7  C26 UNL     1       2.307   7.268  10.617  1.00  0.00     0.126 C 
HETATM    8  C27 UNL     1       1.542   8.546  10.926  1.00  0.00     0.024 C 
ENDROOT
BRANCH   1   9
HETATM    9  C13 UNL     1      -0.418   7.896  12.251  1.00  0.00     0.009 C 
BRANCH   9  10
HETATM   10  C12 UNL     1      -1.342   6.718  12.147  1.00  0.00    -0.014 C 
HETATM   11  C11 UNL     1      -0.878   5.627  13.057  1.00  0.00     0.007 C 
HETATM   12  C10 UNL     1      -1.800   4.428  13.064  1.00  0.00     0.026 C 
HETATM   13  C9  UNL     1      -3.173   4.772  12.497  1.00  0.00     0.087 C 
HETATM   14  C29 UNL     1      -3.683   6.090  12.863  1.00  0.00     0.026 C 
HETATM   15  C28 UNL     1      -2.667   7.206  12.757  1.00  0.00     0.007 C 
BRANCH  13  16
HETATM   16  N1  UNL     1      -4.002   3.614  12.690  1.00  0.00    -0.343 N 
HETATM   17  C3  UNL     1      -4.274   2.841  11.472  1.00  0.00     0.220 C 
HETATM   18  O1  UNL     1      -3.786   3.224  10.387  1.00  0.00    -0.273 OA
BRANCH  17  19
HETATM   19  C2  UNL     1      -5.104   1.628  11.489  1.00  0.00     0.098 C 
HETATM   20  C1  UNL     1      -4.285   0.459  12.022  1.00  0.00     0.014 C 
ENDBRANCH  17  19
BRANCH  16  21
HETATM   21  C4  UNL     1      -4.594   3.118  13.860  1.00  0.00     0.087 C 
HETATM   22  C5  UNL     1      -3.865   2.887  15.105  1.00  0.00     0.025 C 
HETATM   23  C6  UNL     1      -4.972   2.806  16.198  1.00  0.00     0.002 C 
HETATM   24  C7  UNL     1      -5.978   3.842  15.733  1.00  0.00     0.002 C 
HETATM   25  C8  UNL     1      -5.853   3.952  14.255  1.00  0.00     0.025 C 
ENDBRANCH  16  21
ENDBRANCH  13  16
ENDBRANCH   9  10
ENDBRANCH   1   9
BRANCH   5  26
HETATM   26  C18 UNL     1       2.243   5.244   7.330  1.00  0.00     0.096 C 
HETATM   27  C19 UNL     1       3.473   5.163   6.496  1.00  0.00    -0.005 C 
HETATM   28  C20 UNL     1       3.184   5.334   5.002  1.00  0.00     0.011 C 
HETATM   29  C21 UNL     1       4.270   3.900   6.741  1.00  0.00     0.005 C 
HETATM   30  C22 UNL     1       3.465   2.650   6.632  1.00  0.00     0.001 C 
HETATM   31  C23 UNL     1       1.990   2.877   6.553  1.00  0.00     0.016 C 
HETATM   32  C24 UNL     1       1.490   3.969   7.462  1.00  0.00     0.100 C 
BRANCH  32  33
HETATM   33  C25 UNL     1       0.038   4.155   7.161  1.00  0.00     0.177 C 
HETATM   34  O3  UNL     1      -0.834   3.696   7.935  1.00  0.00    -0.648 OA
HETATM   35  O4  UNL     1      -0.387   4.833   6.028  1.00  0.00    -0.648 OA
ENDBRANCH  32  33
ENDBRANCH   5  26
TORSDOF 7
ENDMDL
