MODEL 1
REMARK VINA RESULT: -7.949960274      0.000      0.000
REMARK  9 active torsions:
REMARK  status: ('A' for Active; 'I' for Inactive)
REMARK    1  A    between atoms: C4_4  and  C5_5 
REMARK    2  A    between atoms: C5_5  and  N1_6 
REMARK    3  A    between atoms: N2_9  and  C8_10 
REMARK    4  A    between atoms: C8_10  and  C9_11 
REMARK    5  A    between atoms: C9_11  and  C10_12 
REMARK    6  A    between atoms: C10_12  and  C11_13 
REMARK    7  A    between atoms: C11_13  and  N4_23 
REMARK    8  A    between atoms: N3_14  and  C12_16 
REMARK    9  A    between atoms: N4_23  and  C19_25 
ROOT
HETATM    1  C11 UNL     1      -4.321   5.618  12.961  1.00  0.00     0.074 C 
HETATM    2  N3  UNL     1      -4.809   4.663  13.636  1.00  0.00    -0.365 N 
ATOM      3  H3  UNL     1      -5.381   3.988  13.127  1.00  0.00     0.162 HD
ENDROOT
BRANCH   1   4
HETATM    4  C10 UNL     1      -3.475   6.651  13.605  1.00  0.00     0.077 C 
BRANCH   4   5
HETATM    5  C9  UNL     1      -2.042   6.637  13.215  1.00  0.00     0.038 C 
BRANCH   5   6
HETATM    6  C8  UNL     1      -1.251   5.429  13.507  1.00  0.00     0.273 C 
BRANCH   6   7
HETATM    7  N2  UNL     1      -0.516   4.860  12.403  1.00  0.00     0.091 N 
HETATM    8  C7  UNL     1      -0.006   5.820  11.489  1.00  0.00     0.302 C 
HETATM    9  C6  UNL     1       0.579   5.055  10.320  1.00  0.00     0.303 C 
HETATM   10  N1  UNL     1      -0.567   4.661   9.523  1.00  0.00     0.095 N 
HETATM   11  C32 UNL     1      -1.653   4.171  10.308  1.00  0.00     0.303 C 
HETATM   12  C31 UNL     1      -1.324   3.903  11.739  1.00  0.00     0.302 C 
BRANCH  10  13
HETATM   13  C5  UNL     1      -0.877   5.714   8.618  1.00  0.00     0.300 C 
BRANCH  13  14
HETATM   14  C4  UNL     1      -2.007   5.469   7.724  1.00  0.00     0.005 C 
HETATM   15  C2  UNL     1      -2.590   6.442   7.064  1.00  0.00    -0.090 C 
HETATM   16  C1  UNL     1      -3.748   6.176   6.150  1.00  0.00     0.042 C 
HETATM   17  C3  UNL     1      -2.076   7.829   7.238  1.00  0.00     0.042 C 
ENDBRANCH  13  14
ENDBRANCH  10  13
ENDBRANCH   6   7
ENDBRANCH   5   6
ENDBRANCH   4   5
ENDBRANCH   1   4
BRANCH   1  18
HETATM   18  N4  UNL     1      -4.602   5.696  11.581  1.00  0.00    -0.371 N 
ATOM     19  H4  UNL     1      -4.327   4.891  11.018  1.00  0.00     0.161 HD
BRANCH  18  20
HETATM   20  C19 UNL     1      -5.230   6.777  10.876  1.00  0.00     0.033 C 
HETATM   21  C20 UNL     1      -6.331   7.375  11.681  1.00  0.00     0.035 C 
HETATM   22  C21 UNL     1      -7.135   8.349  10.837  1.00  0.00    -0.011 C 
HETATM   23  C22 UNL     1      -7.688   7.706   9.608  1.00  0.00     0.014 C 
HETATM   24  C28 UNL     1      -6.215   9.488  10.461  1.00  0.00     0.014 C 
HETATM   25  C23 UNL     1      -6.518   7.218   8.783  1.00  0.00    -0.041 C 
HETATM   26  C24 UNL     1      -7.100   6.543   7.559  1.00  0.00     0.015 C 
HETATM   27  C25 UNL     1      -5.597   8.341   8.420  1.00  0.00     0.018 C 
HETATM   28  C30 UNL     1      -5.750   6.201   9.552  1.00  0.00     0.040 C 
HETATM   29  C26 UNL     1      -5.050   8.914   9.712  1.00  0.00    -0.041 C 
HETATM   30  C27 UNL     1      -4.141  10.074   9.308  1.00  0.00     0.015 C 
HETATM   31  C29 UNL     1      -4.269   7.884  10.478  1.00  0.00     0.040 C 
ENDBRANCH  18  20
ENDBRANCH   1  18
BRANCH   2  32
HETATM   32  C12 UNL     1      -4.637   4.430  15.062  1.00  0.00     0.153 C 
HETATM   33  C13 UNL     1      -6.056   4.667  15.697  1.00  0.00     0.064 C 
HETATM   34  C14 UNL     1      -6.675   3.363  16.176  1.00  0.00    -0.028 C 
HETATM   35  C15 UNL     1      -6.063   2.513  17.155  1.00  0.00    -0.030 C 
HETATM   36  C16 UNL     1      -5.121   1.368  16.782  1.00  0.00     0.038 C 
HETATM   37  C17 UNL     1      -3.874   1.885  15.986  1.00  0.00     0.086 C 
HETATM   38  C18 UNL     1      -4.215   3.170  15.517  1.00  0.00    -0.158 C 
ENDBRANCH   2  32
TORSDOF 9
ENDMDL
MODEL 2
REMARK VINA RESULT: -7.717391719      1.690      2.726
REMARK  9 active torsions:
REMARK  status: ('A' for Active; 'I' for Inactive)
REMARK    1  A    between atoms: C4_4  and  C5_5 
REMARK    2  A    between atoms: C5_5  and  N1_6 
REMARK    3  A    between atoms: N2_9  and  C8_10 
REMARK    4  A    between atoms: C8_10  and  C9_11 
REMARK    5  A    between atoms: C9_11  and  C10_12 
REMARK    6  A    between atoms: C10_12  and  C11_13 
REMARK    7  A    between atoms: C11_13  and  N4_23 
REMARK    8  A    between atoms: N3_14  and  C12_16 
REMARK    9  A    between atoms: N4_23  and  C19_25 
ROOT
HETATM    1  C11 UNL     1      -4.207   5.461  12.893  1.00  0.00     0.074 C 
HETATM    2  N3  UNL     1      -4.849   4.649  13.625  1.00  0.00    -0.365 N 
ATOM      3  H3  UNL     1      -5.576   4.098  13.169  1.00  0.00     0.162 HD
ENDROOT
BRANCH   1   4
HETATM    4  C10 UNL     1      -3.129   6.307  13.458  1.00  0.00     0.077 C 
BRANCH   4   5
HETATM    5  C9  UNL     1      -1.851   5.608  13.743  1.00  0.00     0.038 C 
BRANCH   5   6
HETATM    6  C8  UNL     1      -1.256   4.780  12.681  1.00  0.00     0.273 C 
BRANCH   6   7
HETATM    7  N2  UNL     1      -0.609   5.487  11.601  1.00  0.00     0.091 N 
HETATM    8  C7  UNL     1      -0.814   4.907  10.322  1.00  0.00     0.302 C 
HETATM    9  C6  UNL     1       0.062   5.663   9.344  1.00  0.00     0.303 C 
HETATM   10  N1  UNL     1       1.395   5.134   9.554  1.00  0.00     0.095 N 
HETATM   11  C32 UNL     1       1.726   4.977  10.933  1.00  0.00     0.303 C 
HETATM   12  C31 UNL     1       0.774   5.622  11.885  1.00  0.00     0.302 C 
BRANCH  10  13
HETATM   13  C5  UNL     1       1.562   3.980   8.738  1.00  0.00     0.300 C 
BRANCH  13  14
HETATM   14  C4  UNL     1       2.813   3.246   8.926  1.00  0.00     0.005 C 
HETATM   15  C2  UNL     1       3.320   2.493   7.978  1.00  0.00    -0.090 C 
HETATM   16  C1  UNL     1       4.603   1.746   8.185  1.00  0.00     0.042 C 
HETATM   17  C3  UNL     1       2.594   2.391   6.682  1.00  0.00     0.042 C 
ENDBRANCH  13  14
ENDBRANCH  10  13
ENDBRANCH   6   7
ENDBRANCH   5   6
ENDBRANCH   4   5
ENDBRANCH   1   4
BRANCH   1  18
HETATM   18  N4  UNL     1      -4.537   5.559  11.525  1.00  0.00    -0.371 N 
ATOM     19  H4  UNL     1      -4.309   4.749  10.946  1.00  0.00     0.161 HD
BRANCH  18  20
HETATM   20  C19 UNL     1      -5.156   6.664  10.852  1.00  0.00     0.033 C 
HETATM   21  C20 UNL     1      -6.211   7.286  11.699  1.00  0.00     0.035 C 
HETATM   22  C21 UNL     1      -7.014   8.291  10.892  1.00  0.00    -0.011 C 
HETATM   23  C22 UNL     1      -7.627   7.677   9.676  1.00  0.00     0.014 C 
HETATM   24  C28 UNL     1      -6.074   9.407  10.496  1.00  0.00     0.014 C 
HETATM   25  C23 UNL     1      -6.499   7.164   8.808  1.00  0.00    -0.041 C 
HETATM   26  C24 UNL     1      -7.142   6.519   7.598  1.00  0.00     0.015 C 
HETATM   27  C25 UNL     1      -5.559   8.264   8.424  1.00  0.00     0.018 C 
HETATM   28  C30 UNL     1      -5.737   6.118   9.540  1.00  0.00     0.040 C 
HETATM   29  C26 UNL     1      -4.953   8.807   9.703  1.00  0.00    -0.041 C 
HETATM   30  C27 UNL     1      -4.023   9.945   9.279  1.00  0.00     0.015 C 
HETATM   31  C29 UNL     1      -4.177   7.747  10.432  1.00  0.00     0.040 C 
ENDBRANCH  18  20
ENDBRANCH   1  18
BRANCH   2  32
HETATM   32  C12 UNL     1      -4.656   4.424  15.049  1.00  0.00     0.153 C 
HETATM   33  C13 UNL     1      -6.073   4.626  15.700  1.00  0.00     0.064 C 
HETATM   34  C14 UNL     1      -6.652   3.307  16.188  1.00  0.00    -0.028 C 
HETATM   35  C15 UNL     1      -6.007   2.475  17.162  1.00  0.00    -0.030 C 
HETATM   36  C16 UNL     1      -5.039   1.355  16.781  1.00  0.00     0.038 C 
HETATM   37  C17 UNL     1      -3.815   1.903  15.970  1.00  0.00     0.086 C 
HETATM   38  C18 UNL     1      -4.195   3.177  15.502  1.00  0.00    -0.158 C 
ENDBRANCH   2  32
TORSDOF 9
ENDMDL
MODEL 3
REMARK VINA RESULT: -7.625858837      1.362      2.372
REMARK  9 active torsions:
REMARK  status: ('A' for Active; 'I' for Inactive)
REMARK    1  A    between atoms: C4_4  and  C5_5 
REMARK    2  A    between atoms: C5_5  and  N1_6 
REMARK    3  A    between atoms: N2_9  and  C8_10 
REMARK    4  A    between atoms: C8_10  and  C9_11 
REMARK    5  A    between atoms: C9_11  and  C10_12 
REMARK    6  A    between atoms: C10_12  and  C11_13 
REMARK    7  A    between atoms: C11_13  and  N4_23 
REMARK    8  A    between atoms: N3_14  and  C12_16 
REMARK    9  A    between atoms: N4_23  and  C19_25 
ROOT
HETATM    1  C11 UNL     1      -4.155   5.423  12.845  1.00  0.00     0.074 C 
HETATM    2  N3  UNL     1      -4.863   4.711  13.619  1.00  0.00    -0.365 N 
ATOM      3  H3  UNL     1      -5.667   4.242  13.202  1.00  0.00     0.162 HD
ENDROOT
BRANCH   1   4
HETATM    4  C10 UNL     1      -2.963   6.144  13.351  1.00  0.00     0.077 C 
BRANCH   4   5
HETATM    5  C9  UNL     1      -1.753   5.310  13.560  1.00  0.00     0.038 C 
BRANCH   5   6
HETATM    6  C8  UNL     1      -1.405   4.314  12.533  1.00  0.00     0.273 C 
BRANCH   6   7
HETATM    7  N2  UNL     1      -0.385   4.698  11.586  1.00  0.00     0.091 N 
HETATM    8  C7  UNL     1       0.495   5.708  12.059  1.00  0.00     0.302 C 
HETATM    9  C6  UNL     1       1.380   6.107  10.896  1.00  0.00     0.303 C 
HETATM   10  N1  UNL     1       0.554   6.975  10.081  1.00  0.00     0.095 N 
HETATM   11  C32 UNL     1      -0.777   6.488   9.913  1.00  0.00     0.303 C 
HETATM   12  C31 UNL     1      -0.993   5.081  10.364  1.00  0.00     0.302 C 
BRANCH  10  13
HETATM   13  C5  UNL     1       0.673   8.307  10.567  1.00  0.00     0.300 C 
BRANCH  13  14
HETATM   14  C4  UNL     1      -0.578   8.951  10.965  1.00  0.00     0.005 C 
HETATM   15  C2  UNL     1      -0.795   9.333  12.201  1.00  0.00    -0.090 C 
HETATM   16  C1  UNL     1      -2.082   9.993  12.594  1.00  0.00     0.042 C 
HETATM   17  C3  UNL     1       0.268   9.100  13.217  1.00  0.00     0.042 C 
ENDBRANCH  13  14
ENDBRANCH  10  13
ENDBRANCH   6   7
ENDBRANCH   5   6
ENDBRANCH   4   5
ENDBRANCH   1   4
BRANCH   1  18
HETATM   18  N4  UNL     1      -4.522   5.531  11.486  1.00  0.00    -0.371 N 
ATOM     19  H4  UNL     1      -4.336   4.715  10.902  1.00  0.00     0.161 HD
BRANCH  18  20
HETATM   20  C19 UNL     1      -5.126   6.655  10.831  1.00  0.00     0.033 C 
HETATM   21  C20 UNL     1      -6.191   7.261  11.678  1.00  0.00     0.035 C 
HETATM   22  C21 UNL     1      -6.977   8.289  10.883  1.00  0.00    -0.011 C 
HETATM   23  C22 UNL     1      -7.575   7.707   9.645  1.00  0.00     0.014 C 
HETATM   24  C28 UNL     1      -6.027   9.410  10.526  1.00  0.00     0.014 C 
HETATM   25  C23 UNL     1      -6.438   7.209   8.780  1.00  0.00    -0.041 C 
HETATM   26  C24 UNL     1      -7.066   6.595   7.547  1.00  0.00     0.015 C 
HETATM   27  C25 UNL     1      -5.487   8.313   8.436  1.00  0.00     0.018 C 
HETATM   28  C30 UNL     1      -5.691   6.142   9.499  1.00  0.00     0.040 C 
HETATM   29  C26 UNL     1      -4.897   8.823   9.735  1.00  0.00    -0.041 C 
HETATM   30  C27 UNL     1      -3.956   9.965   9.352  1.00  0.00     0.015 C 
HETATM   31  C29 UNL     1      -4.136   7.743  10.451  1.00  0.00     0.040 C 
ENDBRANCH  18  20
ENDBRANCH   1  18
BRANCH   2  32
HETATM   32  C12 UNL     1      -4.645   4.494  15.041  1.00  0.00     0.153 C 
HETATM   33  C13 UNL     1      -6.044   4.732  15.718  1.00  0.00     0.064 C 
HETATM   34  C14 UNL     1      -6.641   3.430  16.230  1.00  0.00    -0.028 C 
HETATM   35  C15 UNL     1      -5.994   2.593  17.199  1.00  0.00    -0.030 C 
HETATM   36  C16 UNL     1      -5.058   1.450  16.808  1.00  0.00     0.038 C 
HETATM   37  C17 UNL     1      -3.840   1.964  15.968  1.00  0.00     0.086 C 
HETATM   38  C18 UNL     1      -4.202   3.242  15.496  1.00  0.00    -0.158 C 
ENDBRANCH   2  32
TORSDOF 9
ENDMDL
MODEL 4
REMARK VINA RESULT: -7.396281576      1.595      3.238
REMARK  9 active torsions:
REMARK  status: ('A' for Active; 'I' for Inactive)
REMARK    1  A    between atoms: C4_4  and  C5_5 
REMARK    2  A    between atoms: C5_5  and  N1_6 
REMARK    3  A    between atoms: N2_9  and  C8_10 
REMARK    4  A    between atoms: C8_10  and  C9_11 
REMARK    5  A    between atoms: C9_11  and  C10_12 
REMARK    6  A    between atoms: C10_12  and  C11_13 
REMARK    7  A    between atoms: C11_13  and  N4_23 
REMARK    8  A    between atoms: N3_14  and  C12_16 
REMARK    9  A    between atoms: N4_23  and  C19_25 
ROOT
HETATM    1  C11 UNL     1      -4.100   5.186  12.643  1.00  0.00     0.074 C 
HETATM    2  N3  UNL     1      -4.900   4.752  13.525  1.00  0.00    -0.365 N 
ATOM      3  H3  UNL     1      -5.847   4.533  13.217  1.00  0.00     0.162 HD
ENDROOT
BRANCH   1   4
HETATM    4  C10 UNL     1      -2.700   5.532  12.987  1.00  0.00     0.077 C 
BRANCH   4   5
HETATM    5  C9  UNL     1      -1.685   4.505  12.641  1.00  0.00     0.038 C 
BRANCH   5   6
HETATM    6  C8  UNL     1      -1.199   4.444  11.252  1.00  0.00     0.273 C 
BRANCH   6   7
HETATM    7  N2  UNL     1      -0.097   5.314  10.919  1.00  0.00     0.091 N 
HETATM    8  C7  UNL     1       0.681   5.720  12.035  1.00  0.00     0.302 C 
HETATM    9  C6  UNL     1       1.673   6.751  11.537  1.00  0.00     0.303 C 
HETATM   10  N1  UNL     1       0.906   7.975  11.416  1.00  0.00     0.095 N 
HETATM   11  C32 UNL     1      -0.375   7.779  10.820  1.00  0.00     0.303 C 
HETATM   12  C31 UNL     1      -0.580   6.437  10.199  1.00  0.00     0.302 C 
BRANCH  10  13
HETATM   13  C5  UNL     1       0.915   8.645  12.671  1.00  0.00     0.300 C 
BRANCH  13  14
HETATM   14  C4  UNL     1      -0.259   8.423  13.515  1.00  0.00     0.005 C 
HETATM   15  C2  UNL     1      -0.472   9.129  14.600  1.00  0.00    -0.090 C 
HETATM   16  C1  UNL     1      -1.679   8.891  15.456  1.00  0.00     0.042 C 
HETATM   17  C3  UNL     1       0.514  10.181  14.972  1.00  0.00     0.042 C 
ENDBRANCH  13  14
ENDBRANCH  10  13
ENDBRANCH   6   7
ENDBRANCH   5   6
ENDBRANCH   4   5
ENDBRANCH   1   4
BRANCH   1  18
HETATM   18  N4  UNL     1      -4.562   5.346  11.319  1.00  0.00    -0.371 N 
ATOM     19  H4  UNL     1      -4.484   4.530  10.711  1.00  0.00     0.161 HD
BRANCH  18  20
HETATM   20  C19 UNL     1      -5.129   6.525  10.729  1.00  0.00     0.033 C 
HETATM   21  C20 UNL     1      -6.118   7.161  11.642  1.00  0.00     0.035 C 
HETATM   22  C21 UNL     1      -6.879   8.258  10.917  1.00  0.00    -0.011 C 
HETATM   23  C22 UNL     1      -7.564   7.753   9.690  1.00  0.00     0.014 C 
HETATM   24  C28 UNL     1      -5.882   9.335  10.554  1.00  0.00     0.014 C 
HETATM   25  C23 UNL     1      -6.496   7.222   8.759  1.00  0.00    -0.041 C 
HETATM   26  C24 UNL     1      -7.212   6.687   7.537  1.00  0.00     0.015 C 
HETATM   27  C25 UNL     1      -5.499   8.282   8.407  1.00  0.00     0.018 C 
HETATM   28  C30 UNL     1      -5.780   6.090   9.408  1.00  0.00     0.040 C 
HETATM   29  C26 UNL     1      -4.824   8.713   9.693  1.00  0.00    -0.041 C 
HETATM   30  C27 UNL     1      -3.837   9.813   9.303  1.00  0.00     0.015 C 
HETATM   31  C29 UNL     1      -4.096   7.568  10.338  1.00  0.00     0.040 C 
ENDBRANCH  18  20
ENDBRANCH   1  18
BRANCH   2  32
HETATM   32  C12 UNL     1      -4.604   4.535  14.933  1.00  0.00     0.153 C 
HETATM   33  C13 UNL     1      -5.950   4.830  15.692  1.00  0.00     0.064 C 
HETATM   34  C14 UNL     1      -6.563   3.555  16.250  1.00  0.00    -0.028 C 
HETATM   35  C15 UNL     1      -5.891   2.700  17.184  1.00  0.00    -0.030 C 
HETATM   36  C16 UNL     1      -5.024   1.519  16.747  1.00  0.00     0.038 C 
HETATM   37  C17 UNL     1      -3.841   1.981  15.830  1.00  0.00     0.086 C 
HETATM   38  C18 UNL     1      -4.182   3.269  15.371  1.00  0.00    -0.158 C 
ENDBRANCH   2  32
TORSDOF 9
ENDMDL
MODEL 5
REMARK VINA RESULT: -7.380205614      3.910      6.887
REMARK  9 active torsions:
REMARK  status: ('A' for Active; 'I' for Inactive)
REMARK    1  A    between atoms: C4_4  and  C5_5 
REMARK    2  A    between atoms: C5_5  and  N1_6 
REMARK    3  A    between atoms: N2_9  and  C8_10 
REMARK    4  A    between atoms: C8_10  and  C9_11 
REMARK    5  A    between atoms: C9_11  and  C10_12 
REMARK    6  A    between atoms: C10_12  and  C11_13 
REMARK    7  A    between atoms: C11_13  and  N4_23 
REMARK    8  A    between atoms: N3_14  and  C12_16 
REMARK    9  A    between atoms: N4_23  and  C19_25 
ROOT
HETATM    1  C11 UNL     1      -1.435   5.740  13.614  1.00  0.00     0.074 C 
HETATM    2  N3  UNL     1      -1.266   6.793  14.299  1.00  0.00    -0.365 N 
ATOM      3  H3  UNL     1      -1.270   6.686  15.313  1.00  0.00     0.162 HD
ENDROOT
BRANCH   1   4
HETATM    4  C10 UNL     1      -1.443   5.787  12.133  1.00  0.00     0.077 C 
BRANCH   4   5
HETATM    5  C9  UNL     1      -0.210   5.291  11.472  1.00  0.00     0.038 C 
BRANCH   5   6
HETATM    6  C8  UNL     1       0.538   6.216  10.605  1.00  0.00     0.273 C 
BRANCH   6   7
HETATM    7  N2  UNL     1       0.912   5.716   9.303  1.00  0.00     0.091 N 
HETATM    8  C7  UNL     1       1.189   4.324   9.274  1.00  0.00     0.302 C 
HETATM    9  C6  UNL     1       1.725   4.006   7.893  1.00  0.00     0.303 C 
HETATM   10  N1  UNL     1       3.105   4.448   7.919  1.00  0.00     0.095 N 
HETATM   11  C32 UNL     1       3.275   5.719   8.544  1.00  0.00     0.303 C 
HETATM   12  C31 UNL     1       2.009   6.466   8.805  1.00  0.00     0.302 C 
BRANCH  10  13
HETATM   13  C5  UNL     1       3.913   3.391   8.424  1.00  0.00     0.300 C 
BRANCH  13  14
HETATM   14  C4  UNL     1       3.400   2.040   8.203  1.00  0.00     0.005 C 
HETATM   15  C2  UNL     1       4.202   1.008   8.089  1.00  0.00    -0.090 C 
HETATM   16  C1  UNL     1       3.662  -0.373   7.862  1.00  0.00     0.042 C 
HETATM   17  C3  UNL     1       5.671   1.230   8.189  1.00  0.00     0.042 C 
ENDBRANCH  13  14
ENDBRANCH  10  13
ENDBRANCH   6   7
ENDBRANCH   5   6
ENDBRANCH   4   5
ENDBRANCH   1   4
BRANCH   1  18
HETATM   18  N4  UNL     1      -1.629   4.512  14.283  1.00  0.00    -0.371 N 
ATOM     19  H4  UNL     1      -0.785   4.030  14.593  1.00  0.00     0.161 HD
BRANCH  18  20
HETATM   20  C19 UNL     1      -2.874   3.864  14.577  1.00  0.00     0.033 C 
HETATM   21  C20 UNL     1      -2.737   2.936  15.734  1.00  0.00     0.035 C 
HETATM   22  C21 UNL     1      -3.987   2.086  15.882  1.00  0.00    -0.011 C 
HETATM   23  C22 UNL     1      -4.294   1.316  14.640  1.00  0.00     0.014 C 
HETATM   24  C28 UNL     1      -5.130   3.017  16.216  1.00  0.00     0.014 C 
HETATM   25  C23 UNL     1      -4.531   2.316  13.530  1.00  0.00    -0.041 C 
HETATM   26  C24 UNL     1      -4.809   1.516  12.276  1.00  0.00     0.015 C 
HETATM   27  C25 UNL     1      -5.654   3.249  13.863  1.00  0.00     0.018 C 
HETATM   28  C30 UNL     1      -3.297   3.117  13.304  1.00  0.00     0.040 C 
HETATM   29  C26 UNL     1      -5.251   4.017  15.105  1.00  0.00    -0.041 C 
HETATM   30  C27 UNL     1      -6.428   4.935  15.434  1.00  0.00     0.015 C 
HETATM   31  C29 UNL     1      -4.010   4.829  14.867  1.00  0.00     0.040 C 
ENDBRANCH  18  20
ENDBRANCH   1  18
BRANCH   2  32
HETATM   32  C12 UNL     1      -1.065   8.140  13.785  1.00  0.00     0.153 C 
HETATM   33  C13 UNL     1      -1.567   9.100  14.924  1.00  0.00     0.064 C 
HETATM   34  C14 UNL     1      -0.409   9.833  15.584  1.00  0.00    -0.028 C 
HETATM   35  C15 UNL     1       0.494  10.687  14.867  1.00  0.00    -0.030 C 
HETATM   36  C16 UNL     1       1.796  10.180  14.250  1.00  0.00     0.038 C 
HETATM   37  C17 UNL     1       1.533   9.046  13.201  1.00  0.00     0.086 C 
HETATM   38  C18 UNL     1       0.229   8.574  13.454  1.00  0.00    -0.158 C 
ENDBRANCH   2  32
TORSDOF 9
ENDMDL
