MODEL 1
REMARK VINA RESULT: -7.093046656      0.000      0.000
REMARK  9 active torsions:
REMARK  status: ('A' for Active; 'I' for Inactive)
REMARK    1  A    between atoms: C3_3  and  C4_4 
REMARK    2  A    between atoms: C4_4  and  C5_5 
REMARK    3  A    between atoms: C9_10  and  C10_11 
REMARK    4  A    between atoms: C16_17  and  C18_19 
REMARK       I    between atoms: C18_19  and  N1_21 
REMARK    5  A    between atoms: N1_21  and  C19_23 
REMARK    6  A    between atoms: C19_23  and  C20_24 
REMARK    7  A    between atoms: C20_24  and  N2_25 
REMARK    8  A    between atoms: N2_25  and  C21_26 
REMARK    9  A    between atoms: N2_25  and  C23_28 
ROOT
HETATM    1  C1  UNL     1      -8.967   8.008   8.215  1.00  0.00     0.112 C 
HETATM    2  C2  UNL     1      -7.583   8.319   8.571  1.00  0.00    -0.110 C 
HETATM    3  C3  UNL     1      -6.444   8.595   8.855  1.00  0.00    -0.088 C 
ENDROOT
BRANCH   3   4
HETATM    4  C4  UNL     1      -5.063   8.971   9.189  1.00  0.00     0.091 C 
HETATM    5  C7  UNL     1      -4.273   8.543   7.943  1.00  0.00     0.032 C 
HETATM    6  C8  UNL     1      -4.525   7.036   8.147  1.00  0.00     0.013 C 
HETATM    7  C9  UNL     1      -4.148   6.786   9.558  1.00  0.00    -0.023 A 
HETATM    8  C29 UNL     1      -5.346   6.231  10.347  1.00  0.00     0.012 A 
HETATM    9  C31 UNL     1      -4.397   8.068  10.196  1.00  0.00    -0.010 A 
HETATM   10  C30 UNL     1      -5.536   7.516  11.075  1.00  0.00     0.013 A 
HETATM   11  C32 UNL     1      -3.380   8.849  10.906  1.00  0.00     0.018 C 
BRANCH   4  12
HETATM   12  C5  UNL     1      -5.060  10.399   9.387  1.00  0.00     0.144 C 
HETATM   13  C6  UNL     1      -6.050  11.065  10.317  1.00  0.00     0.093 C 
HETATM   14  O1  UNL     1      -4.299  11.148   8.854  1.00  0.00    -0.296 OA
ENDBRANCH   4  12
BRANCH   7  15
HETATM   15  C10 UNL     1      -3.004   5.827   9.789  1.00  0.00    -0.030 A 
HETATM   16  C11 UNL     1      -3.595   4.438   9.764  1.00  0.00     0.016 C 
HETATM   17  C12 UNL     1      -1.998   5.922   8.672  1.00  0.00     0.011 A 
HETATM   18  C13 UNL     1      -0.641   6.231   9.171  1.00  0.00     0.006 A 
HETATM   19  C14 UNL     1      -0.757   6.311  10.613  1.00  0.00    -0.001 A 
HETATM   20  C15 UNL     1      -2.237   6.104  11.012  1.00  0.00     0.016 A 
HETATM   21  C26 UNL     1       0.055   5.283  11.294  1.00  0.00    -0.043 C 
HETATM   22  C16 UNL     1      -2.098   5.423  12.239  1.00  0.00     0.043 C 
HETATM   23  C17 UNL     1      -1.586   6.461  13.293  1.00  0.00     0.026 C 
HETATM   24  C25 UNL     1      -0.849   4.495  12.172  1.00  0.00     0.028 C 
HETATM   25  C27 UNL     1       1.186   5.866  12.145  1.00  0.00     0.015 C 
HETATM   26  C28 UNL     1       0.717   4.259  10.385  1.00  0.00     0.015 C 
BRANCH  22  27
HETATM   27  C18 UNL     1      -3.051   4.658  12.988  1.00  0.00     0.226 C 
HETATM   28  O2  UNL     1      -4.100   5.275  13.418  1.00  0.00    -0.273 OA
HETATM   29  N1  UNL     1      -3.032   3.293  13.344  1.00  0.00    -0.359 N 
ATOM     30  H1  UNL     1      -2.230   2.745  13.036  1.00  0.00     0.162 HD
BRANCH  29  31
HETATM   31  C19 UNL     1      -4.041   2.602  14.103  1.00  0.00     0.152 C 
BRANCH  31  32
HETATM   32  C20 UNL     1      -3.797   2.554  15.579  1.00  0.00     0.292 C 
BRANCH  32  33
HETATM   33  N2  UNL     1      -4.988   2.564  16.371  1.00  0.00     0.089 N 
BRANCH  33  34
HETATM   34  C21 UNL     1      -5.358   1.307  16.939  1.00  0.00     0.268 C 
HETATM   35  C22 UNL     1      -6.825   1.099  17.129  1.00  0.00     0.037 C 
ENDBRANCH  33  34
BRANCH  33  36
HETATM   36  C23 UNL     1      -6.063   3.115  15.609  1.00  0.00     0.268 C 
HETATM   37  C24 UNL     1      -6.369   4.551  15.973  1.00  0.00     0.037 C 
ENDBRANCH  33  36
ENDBRANCH  32  33
ENDBRANCH  31  32
ENDBRANCH  29  31
ENDBRANCH  22  27
ENDBRANCH   7  15
ENDBRANCH   3   4
TORSDOF 9
ENDMDL
MODEL 2
REMARK VINA RESULT: -6.973619663      3.507      7.617
REMARK  9 active torsions:
REMARK  status: ('A' for Active; 'I' for Inactive)
REMARK    1  A    between atoms: C3_3  and  C4_4 
REMARK    2  A    between atoms: C4_4  and  C5_5 
REMARK    3  A    between atoms: C9_10  and  C10_11 
REMARK    4  A    between atoms: C16_17  and  C18_19 
REMARK       I    between atoms: C18_19  and  N1_21 
REMARK    5  A    between atoms: N1_21  and  C19_23 
REMARK    6  A    between atoms: C19_23  and  C20_24 
REMARK    7  A    between atoms: C20_24  and  N2_25 
REMARK    8  A    between atoms: N2_25  and  C21_26 
REMARK    9  A    between atoms: N2_25  and  C23_28 
ROOT
HETATM    1  C1  UNL     1      -4.989   0.745  10.840  1.00  0.00     0.112 C 
HETATM    2  C2  UNL     1      -4.562   1.811  11.745  1.00  0.00    -0.110 C 
HETATM    3  C3  UNL     1      -4.207   2.677  12.506  1.00  0.00    -0.088 C 
ENDROOT
BRANCH   3   4
HETATM    4  C4  UNL     1      -3.760   3.702  13.460  1.00  0.00     0.091 C 
HETATM    5  C7  UNL     1      -4.697   4.884  13.167  1.00  0.00     0.032 C 
HETATM    6  C8  UNL     1      -4.141   5.135  11.751  1.00  0.00     0.013 C 
HETATM    7  C9  UNL     1      -2.672   5.198  11.936  1.00  0.00    -0.023 A 
HETATM    8  C29 UNL     1      -1.976   4.112  11.099  1.00  0.00     0.012 A 
HETATM    9  C31 UNL     1      -2.452   4.360  13.102  1.00  0.00    -0.010 A 
HETATM   10  C30 UNL     1      -1.660   3.302  12.308  1.00  0.00     0.013 A 
HETATM   11  C32 UNL     1      -1.817   4.817  14.342  1.00  0.00     0.018 C 
BRANCH   4  12
HETATM   12  C5  UNL     1      -3.955   3.152  14.779  1.00  0.00     0.144 C 
HETATM   13  C6  UNL     1      -5.027   3.687  15.703  1.00  0.00     0.093 C 
HETATM   14  O1  UNL     1      -3.310   2.258  15.233  1.00  0.00    -0.296 OA
ENDBRANCH   4  12
BRANCH   7  15
HETATM   15  C10 UNL     1      -2.006   6.506  11.578  1.00  0.00    -0.030 A 
HETATM   16  C11 UNL     1      -2.222   6.709  10.097  1.00  0.00     0.016 C 
HETATM   17  C12 UNL     1      -2.661   7.652  12.303  1.00  0.00     0.011 A 
HETATM   18  C13 UNL     1      -1.694   8.428  13.107  1.00  0.00     0.006 A 
HETATM   19  C14 UNL     1      -0.404   7.804  12.886  1.00  0.00    -0.001 A 
HETATM   20  C15 UNL     1      -0.590   6.574  11.967  1.00  0.00     0.016 A 
HETATM   21  C26 UNL     1       0.555   8.724  12.243  1.00  0.00    -0.043 C 
HETATM   22  C16 UNL     1       0.613   6.597  11.230  1.00  0.00     0.043 C 
HETATM   23  C17 UNL     1       1.760   6.151  12.198  1.00  0.00     0.026 C 
HETATM   24  C25 UNL     1       1.043   8.076  10.997  1.00  0.00     0.028 C 
HETATM   25  C27 UNL     1       1.758   9.065  13.127  1.00  0.00     0.015 C 
HETATM   26  C28 UNL     1      -0.014  10.062  11.797  1.00  0.00     0.015 C 
BRANCH  22  27
HETATM   27  C18 UNL     1       0.963   5.943  10.005  1.00  0.00     0.226 C 
HETATM   28  O2  UNL     1       1.032   6.672   8.942  1.00  0.00    -0.273 OA
HETATM   29  N1  UNL     1       1.259   4.585   9.760  1.00  0.00    -0.359 N 
ATOM     30  H1  UNL     1       1.225   3.953  10.558  1.00  0.00     0.162 HD
BRANCH  29  31
HETATM   31  C19 UNL     1       1.606   4.011   8.486  1.00  0.00     0.152 C 
BRANCH  31  32
HETATM   32  C20 UNL     1       2.619   2.911   8.547  1.00  0.00     0.292 C 
BRANCH  32  33
HETATM   33  N2  UNL     1       3.936   3.304   8.149  1.00  0.00     0.089 N 
BRANCH  33  34
HETATM   34  C21 UNL     1       3.997   4.290   7.118  1.00  0.00     0.268 C 
HETATM   35  C22 UNL     1       4.320   3.769   5.755  1.00  0.00     0.037 C 
ENDBRANCH  33  34
BRANCH  33  36
HETATM   36  C23 UNL     1       4.693   2.147   7.793  1.00  0.00     0.268 C 
HETATM   37  C24 UNL     1       4.006   0.854   8.173  1.00  0.00     0.037 C 
ENDBRANCH  33  36
ENDBRANCH  32  33
ENDBRANCH  31  32
ENDBRANCH  29  31
ENDBRANCH  22  27
ENDBRANCH   7  15
ENDBRANCH   3   4
TORSDOF 9
ENDMDL
MODEL 3
REMARK VINA RESULT: -6.965576237      3.535      7.521
REMARK  9 active torsions:
REMARK  status: ('A' for Active; 'I' for Inactive)
REMARK    1  A    between atoms: C3_3  and  C4_4 
REMARK    2  A    between atoms: C4_4  and  C5_5 
REMARK    3  A    between atoms: C9_10  and  C10_11 
REMARK    4  A    between atoms: C16_17  and  C18_19 
REMARK       I    between atoms: C18_19  and  N1_21 
REMARK    5  A    between atoms: N1_21  and  C19_23 
REMARK    6  A    between atoms: C19_23  and  C20_24 
REMARK    7  A    between atoms: C20_24  and  N2_25 
REMARK    8  A    between atoms: N2_25  and  C21_26 
REMARK    9  A    between atoms: N2_25  and  C23_28 
ROOT
HETATM    1  C1  UNL     1      -4.990   0.834  10.848  1.00  0.00     0.112 C 
HETATM    2  C2  UNL     1      -4.568   1.911  11.742  1.00  0.00    -0.110 C 
HETATM    3  C3  UNL     1      -4.207   2.787  12.490  1.00  0.00    -0.088 C 
ENDROOT
BRANCH   3   4
HETATM    4  C4  UNL     1      -3.736   3.828  13.414  1.00  0.00     0.091 C 
HETATM    5  C7  UNL     1      -4.633   5.027  13.075  1.00  0.00     0.032 C 
HETATM    6  C8  UNL     1      -4.060   5.215  11.656  1.00  0.00     0.013 C 
HETATM    7  C9  UNL     1      -2.591   5.240  11.851  1.00  0.00    -0.023 A 
HETATM    8  C29 UNL     1      -1.922   4.106  11.055  1.00  0.00     0.012 A 
HETATM    9  C31 UNL     1      -2.405   4.433  13.045  1.00  0.00    -0.010 A 
HETATM   10  C30 UNL     1      -1.640   3.327  12.293  1.00  0.00     0.013 A 
HETATM   11  C32 UNL     1      -1.766   4.911  14.275  1.00  0.00     0.018 C 
BRANCH   4  12
HETATM   12  C5  UNL     1      -3.956   3.327  14.747  1.00  0.00     0.144 C 
HETATM   13  C6  UNL     1      -5.019   3.923  15.644  1.00  0.00     0.093 C 
HETATM   14  O1  UNL     1      -3.343   2.429  15.236  1.00  0.00    -0.296 OA
ENDBRANCH   4  12
BRANCH   7  15
HETATM   15  C10 UNL     1      -1.882   6.515  11.457  1.00  0.00    -0.030 A 
HETATM   16  C11 UNL     1      -2.058   6.661   9.964  1.00  0.00     0.016 C 
HETATM   17  C12 UNL     1      -2.524   7.705  12.118  1.00  0.00     0.011 A 
HETATM   18  C13 UNL     1      -1.556   8.489  12.914  1.00  0.00     0.006 A 
HETATM   19  C14 UNL     1      -0.278   7.825  12.750  1.00  0.00    -0.001 A 
HETATM   20  C15 UNL     1      -0.475   6.563  11.877  1.00  0.00     0.016 A 
HETATM   21  C26 UNL     1       0.719   8.693  12.094  1.00  0.00    -0.043 C 
HETATM   22  C16 UNL     1       0.746   6.525  11.171  1.00  0.00     0.043 C 
HETATM   23  C17 UNL     1       1.857   6.090  12.183  1.00  0.00     0.026 C 
HETATM   24  C25 UNL     1       1.220   7.982  10.888  1.00  0.00     0.028 C 
HETATM   25  C27 UNL     1       1.910   9.039  12.993  1.00  0.00     0.015 C 
HETATM   26  C28 UNL     1       0.196  10.025  11.580  1.00  0.00     0.015 C 
BRANCH  22  27
HETATM   27  C18 UNL     1       1.107   5.812   9.982  1.00  0.00     0.226 C 
HETATM   28  O2  UNL     1       1.210   6.493   8.890  1.00  0.00    -0.273 OA
HETATM   29  N1  UNL     1       1.383   4.440   9.801  1.00  0.00    -0.359 N 
ATOM     30  H1  UNL     1       1.321   3.843  10.626  1.00  0.00     0.162 HD
BRANCH  29  31
HETATM   31  C19 UNL     1       1.744   3.805   8.561  1.00  0.00     0.152 C 
BRANCH  31  32
HETATM   32  C20 UNL     1       3.153   3.306   8.496  1.00  0.00     0.292 C 
BRANCH  32  33
HETATM   33  N2  UNL     1       3.340   2.189   7.622  1.00  0.00     0.089 N 
BRANCH  33  34
HETATM   34  C21 UNL     1       4.204   1.163   8.113  1.00  0.00     0.268 C 
HETATM   35  C22 UNL     1       3.621  -0.212   8.120  1.00  0.00     0.037 C 
ENDBRANCH  33  34
BRANCH  33  36
HETATM   36  C23 UNL     1       3.773   2.651   6.343  1.00  0.00     0.268 C 
HETATM   37  C24 UNL     1       5.241   3.016   6.313  1.00  0.00     0.037 C 
ENDBRANCH  33  36
ENDBRANCH  32  33
ENDBRANCH  31  32
ENDBRANCH  29  31
ENDBRANCH  22  27
ENDBRANCH   7  15
ENDBRANCH   3   4
TORSDOF 9
ENDMDL
MODEL 4
REMARK VINA RESULT: -6.862882491      2.666      6.414
REMARK  9 active torsions:
REMARK  status: ('A' for Active; 'I' for Inactive)
REMARK    1  A    between atoms: C3_3  and  C4_4 
REMARK    2  A    between atoms: C4_4  and  C5_5 
REMARK    3  A    between atoms: C9_10  and  C10_11 
REMARK    4  A    between atoms: C16_17  and  C18_19 
REMARK       I    between atoms: C18_19  and  N1_21 
REMARK    5  A    between atoms: N1_21  and  C19_23 
REMARK    6  A    between atoms: C19_23  and  C20_24 
REMARK    7  A    between atoms: C20_24  and  N2_25 
REMARK    8  A    between atoms: N2_25  and  C21_26 
REMARK    9  A    between atoms: N2_25  and  C23_28 
ROOT
HETATM    1  C1  UNL     1      -6.282   5.160  15.716  1.00  0.00     0.112 C 
HETATM    2  C2  UNL     1      -5.496   4.563  14.638  1.00  0.00    -0.110 C 
HETATM    3  C3  UNL     1      -4.838   4.057  13.762  1.00  0.00    -0.088 C 
ENDROOT
BRANCH   3   4
HETATM    4  C4  UNL     1      -4.026   3.410  12.721  1.00  0.00     0.091 C 
HETATM    5  C7  UNL     1      -2.706   3.109  13.446  1.00  0.00     0.032 C 
HETATM    6  C8  UNL     1      -2.325   4.592  13.634  1.00  0.00     0.013 C 
HETATM    7  C9  UNL     1      -2.475   5.186  12.285  1.00  0.00    -0.023 A 
HETATM    8  C29 UNL     1      -3.508   6.324  12.308  1.00  0.00     0.012 A 
HETATM    9  C31 UNL     1      -3.494   4.352  11.670  1.00  0.00    -0.010 A 
HETATM   10  C30 UNL     1      -4.518   5.501  11.586  1.00  0.00     0.013 A 
HETATM   11  C32 UNL     1      -3.304   3.590  10.432  1.00  0.00     0.018 C 
BRANCH   4  12
HETATM   12  C5  UNL     1      -4.731   2.216  12.330  1.00  0.00     0.144 C 
HETATM   13  C6  UNL     1      -4.225   0.843  12.716  1.00  0.00     0.093 C 
HETATM   14  O1  UNL     1      -5.740   2.211  11.695  1.00  0.00    -0.296 OA
ENDBRANCH   4  12
BRANCH   7  15
HETATM   15  C10 UNL     1      -1.224   5.757  11.659  1.00  0.00    -0.030 A 
HETATM   16  C11 UNL     1      -1.198   7.225  12.011  1.00  0.00     0.016 C 
HETATM   17  C12 UNL     1       0.005   5.117  12.249  1.00  0.00     0.011 A 
HETATM   18  C13 UNL     1       0.864   4.503  11.216  1.00  0.00     0.006 A 
HETATM   19  C14 UNL     1       0.210   4.765   9.949  1.00  0.00    -0.001 A 
HETATM   20  C15 UNL     1      -1.120   5.510  10.214  1.00  0.00     0.016 A 
HETATM   21  C26 UNL     1       1.039   5.599   9.057  1.00  0.00    -0.043 C 
HETATM   22  C16 UNL     1      -1.193   6.351   9.083  1.00  0.00     0.043 C 
HETATM   23  C17 UNL     1      -1.529   5.446   7.851  1.00  0.00     0.026 C 
HETATM   24  C25 UNL     1       0.244   6.798   8.682  1.00  0.00     0.028 C 
HETATM   25  C27 UNL     1       1.475   4.877   7.779  1.00  0.00     0.015 C 
HETATM   26  C28 UNL     1       2.318   6.148   9.670  1.00  0.00     0.015 C 
BRANCH  22  27
HETATM   27  C18 UNL     1      -1.992   7.516   8.845  1.00  0.00     0.226 C 
HETATM   28  O2  UNL     1      -1.375   8.644   8.726  1.00  0.00    -0.273 OA
HETATM   29  N1  UNL     1      -3.391   7.639   8.710  1.00  0.00    -0.359 N 
ATOM     30  H1  UNL     1      -3.941   6.784   8.792  1.00  0.00     0.162 HD
BRANCH  29  31
HETATM   31  C19 UNL     1      -4.115   8.859   8.467  1.00  0.00     0.152 C 
BRANCH  31  32
HETATM   32  C20 UNL     1      -5.602   8.708   8.406  1.00  0.00     0.292 C 
BRANCH  32  33
HETATM   33  N2  UNL     1      -6.145   7.837   9.402  1.00  0.00     0.089 N 
BRANCH  33  34
HETATM   34  C21 UNL     1      -7.241   7.026   8.977  1.00  0.00     0.268 C 
HETATM   35  C22 UNL     1      -7.240   6.660   7.529  1.00  0.00     0.037 C 
ENDBRANCH  33  34
BRANCH  33  36
HETATM   36  C23 UNL     1      -6.490   8.594  10.562  1.00  0.00     0.268 C 
HETATM   37  C24 UNL     1      -7.248   7.785  11.591  1.00  0.00     0.037 C 
ENDBRANCH  33  36
ENDBRANCH  32  33
ENDBRANCH  31  32
ENDBRANCH  29  31
ENDBRANCH  22  27
ENDBRANCH   7  15
ENDBRANCH   3   4
TORSDOF 9
ENDMDL
MODEL 5
REMARK VINA RESULT: -6.795496654      1.469      2.604
REMARK  9 active torsions:
REMARK  status: ('A' for Active; 'I' for Inactive)
REMARK    1  A    between atoms: C3_3  and  C4_4 
REMARK    2  A    between atoms: C4_4  and  C5_5 
REMARK    3  A    between atoms: C9_10  and  C10_11 
REMARK    4  A    between atoms: C16_17  and  C18_19 
REMARK       I    between atoms: C18_19  and  N1_21 
REMARK    5  A    between atoms: N1_21  and  C19_23 
REMARK    6  A    between atoms: C19_23  and  C20_24 
REMARK    7  A    between atoms: C20_24  and  N2_25 
REMARK    8  A    between atoms: N2_25  and  C21_26 
REMARK    9  A    between atoms: N2_25  and  C23_28 
ROOT
HETATM    1  C1  UNL     1      -6.162  12.434  10.467  1.00  0.00     0.112 C 
HETATM    2  C2  UNL     1      -6.311  11.038  10.060  1.00  0.00    -0.110 C 
HETATM    3  C3  UNL     1      -6.454   9.885   9.730  1.00  0.00    -0.088 C 
ENDROOT
BRANCH   3   4
HETATM    4  C4  UNL     1      -6.669   8.487   9.334  1.00  0.00     0.091 C 
HETATM    5  C7  UNL     1      -6.921   7.779  10.674  1.00  0.00     0.032 C 
HETATM    6  C8  UNL     1      -5.493   8.013  11.208  1.00  0.00     0.013 C 
HETATM    7  C9  UNL     1      -4.608   7.544  10.115  1.00  0.00    -0.023 A 
HETATM    8  C29 UNL     1      -3.702   8.686   9.627  1.00  0.00     0.012 A 
HETATM    9  C31 UNL     1      -5.416   7.754   8.926  1.00  0.00    -0.010 A 
HETATM   10  C30 UNL     1      -4.471   8.832   8.360  1.00  0.00     0.013 A 
HETATM   11  C32 UNL     1      -5.794   6.695   7.985  1.00  0.00     0.018 C 
BRANCH   4  12
HETATM   12  C5  UNL     1      -7.825   8.475   8.473  1.00  0.00     0.144 C 
HETATM   13  C6  UNL     1      -7.899   9.356   7.245  1.00  0.00     0.093 C 
HETATM   14  O1  UNL     1      -8.785   7.790   8.649  1.00  0.00    -0.296 OA
ENDBRANCH   4  12
BRANCH   7  15
HETATM   15  C10 UNL     1      -3.696   6.384  10.440  1.00  0.00    -0.030 A 
HETATM   16  C11 UNL     1      -4.590   5.229  10.824  1.00  0.00     0.016 C 
HETATM   17  C12 UNL     1      -2.906   5.974   9.226  1.00  0.00     0.011 A 
HETATM   18  C13 UNL     1      -1.449   6.006   9.473  1.00  0.00     0.006 A 
HETATM   19  C14 UNL     1      -1.290   6.411  10.856  1.00  0.00    -0.001 A 
HETATM   20  C15 UNL     1      -2.686   6.694  11.461  1.00  0.00     0.016 A 
HETATM   21  C26 UNL     1      -0.634   5.368  11.669  1.00  0.00    -0.043 C 
HETATM   22  C16 UNL     1      -2.498   6.270  12.793  1.00  0.00     0.043 C 
HETATM   23  C17 UNL     1      -1.583   7.329  13.494  1.00  0.00     0.026 C 
HETATM   24  C25 UNL     1      -1.530   5.050  12.812  1.00  0.00     0.028 C 
HETATM   25  C27 UNL     1       0.732   5.792  12.215  1.00  0.00     0.015 C 
HETATM   26  C28 UNL     1      -0.398   4.040  10.968  1.00  0.00     0.015 C 
BRANCH  22  27
HETATM   27  C18 UNL     1      -3.457   5.960  13.812  1.00  0.00     0.226 C 
HETATM   28  O2  UNL     1      -3.422   6.663  14.893  1.00  0.00    -0.273 OA
HETATM   29  N1  UNL     1      -4.472   4.979  13.827  1.00  0.00    -0.359 N 
ATOM     30  H1  UNL     1      -4.556   4.388  13.001  1.00  0.00     0.162 HD
BRANCH  29  31
HETATM   31  C19 UNL     1      -5.400   4.737  14.900  1.00  0.00     0.152 C 
BRANCH  31  32
HETATM   32  C20 UNL     1      -5.790   3.304  15.084  1.00  0.00     0.292 C 
BRANCH  32  33
HETATM   33  N2  UNL     1      -5.140   2.655  16.180  1.00  0.00     0.089 N 
BRANCH  33  34
HETATM   34  C21 UNL     1      -4.473   1.434  15.862  1.00  0.00     0.268 C 
HETATM   35  C22 UNL     1      -4.243   1.193  14.406  1.00  0.00     0.037 C 
ENDBRANCH  33  34
BRANCH  33  36
HETATM   36  C23 UNL     1      -6.074   2.464  17.243  1.00  0.00     0.268 C 
HETATM   37  C24 UNL     1      -7.152   1.457  16.908  1.00  0.00     0.037 C 
ENDBRANCH  33  36
ENDBRANCH  32  33
ENDBRANCH  31  32
ENDBRANCH  29  31
ENDBRANCH  22  27
ENDBRANCH   7  15
ENDBRANCH   3   4
TORSDOF 9
ENDMDL
