MODEL 1
REMARK VINA RESULT: -8.190141074      0.000      0.000
REMARK  7 active torsions:
REMARK  status: ('A' for Active; 'I' for Inactive)
REMARK    1  A    between atoms: C3_3  and  C4_4 
REMARK    2  A    between atoms: C4_4  and  C5_5 
REMARK    3  A    between atoms: C5_5  and  C6_6 
REMARK    4  A    between atoms: C6_6  and  C7_7 
REMARK    5  A    between atoms: C6_6  and  N2_33 
REMARK    6  A    between atoms: C24_24  and  O1_25 
REMARK    7  A    between atoms: C24_24  and  C25_27 
REMARK       I    between atoms: C25_27  and  N1_29 
ROOT
HETATM    1  C1  UNL     1      -3.043  12.264  12.069  1.00  0.00     0.012 C 
HETATM    2  C2  UNL     1      -1.993  11.829  11.693  1.00  0.00    -0.117 C 
HETATM    3  C3  UNL     1      -0.679  11.293  11.229  1.00  0.00     0.097 C 
ENDROOT
BRANCH   3   4
HETATM    4  C4  UNL     1       0.390  11.949  12.045  1.00  0.00     0.041 C 
BRANCH   4   5
HETATM    5  C5  UNL     1       0.386  11.765  13.480  1.00  0.00    -0.001 C 
BRANCH   5   6
HETATM    6  C6  UNL     1       0.819  10.565  14.211  1.00  0.00     0.007 C 
BRANCH   6   7
HETATM    7  C7  UNL     1      -0.126   9.418  14.343  1.00  0.00     0.035 C 
HETATM    8  C8  UNL     1      -1.565   9.711  14.543  1.00  0.00     0.011 C 
HETATM    9  C9  UNL     1      -2.278   8.377  14.896  1.00  0.00     0.010 C 
HETATM   10  C10 UNL     1      -2.251   7.555  13.652  1.00  0.00    -0.036 C 
HETATM   11  C11 UNL     1      -2.788   8.374  12.498  1.00  0.00     0.016 C 
HETATM   12  C12 UNL     1      -0.837   7.212  13.350  1.00  0.00    -0.005 C 
HETATM   13  C16 UNL     1      -3.072   6.321  13.796  1.00  0.00    -0.002 C 
HETATM   14  C13 UNL     1      -0.778   6.485  12.026  1.00  0.00     0.006 C 
HETATM   15  C28 UNL     1       0.115   8.354  13.300  1.00  0.00     0.016 C 
HETATM   16  C14 UNL     1      -1.721   5.338  11.935  1.00  0.00     0.006 C 
HETATM   17  C15 UNL     1      -2.375   5.058  13.275  1.00  0.00    -0.005 C 
HETATM   18  C21 UNL     1      -3.422   4.031  13.215  1.00  0.00     0.002 C 
HETATM   19  C19 UNL     1      -3.850   3.644  14.612  1.00  0.00     0.000 C 
HETATM   20  C22 UNL     1      -3.066   2.700  12.640  1.00  0.00     0.009 C 
HETATM   21  C18 UNL     1      -4.441   4.869  15.261  1.00  0.00     0.013 C 
HETATM   22  C20 UNL     1      -2.779   3.066  15.461  1.00  0.00     0.019 C 
HETATM   23  C24 UNL     1      -4.927   2.641  14.225  1.00  0.00     0.146 C 
HETATM   24  C17 UNL     1      -3.484   6.033  15.211  1.00  0.00     0.007 C 
HETATM   25  C23 UNL     1      -4.217   1.826  13.130  1.00  0.00     0.049 C 
BRANCH  23  26
HETATM   26  O1  UNL     1      -5.989   3.351  13.658  1.00  0.00    -0.379 OA
ATOM     27  H1  UNL     1      -6.798   2.941  13.942  1.00  0.00     0.211 HD
ENDBRANCH  23  26
BRANCH  23  28
HETATM   28  C25 UNL     1      -5.354   1.773  15.310  1.00  0.00     0.254 C 
HETATM   29  O2  UNL     1      -4.924   0.566  15.275  1.00  0.00    -0.270 OA
HETATM   30  N1  UNL     1      -6.185   2.134  16.382  1.00  0.00    -0.358 N 
HETATM   31  C26 UNL     1      -6.516   1.123  17.391  1.00  0.00     0.152 C 
HETATM   32  C27 UNL     1      -6.726   3.465  16.527  1.00  0.00     0.152 C 
ENDBRANCH  23  28
ENDBRANCH   6   7
BRANCH   6  33
HETATM   33  N2  UNL     1       1.795  10.684  15.216  1.00  0.00    -0.384 N 
HETATM   34  C29 UNL     1       3.127  10.464  15.150  1.00  0.00     0.123 C 
HETATM   35  C30 UNL     1       3.754  11.141  16.381  1.00  0.00     0.021 C 
HETATM   36  C31 UNL     1       2.771  12.259  16.663  1.00  0.00     0.021 C 
HETATM   37  C32 UNL     1       1.462  11.566  16.317  1.00  0.00     0.123 C 
ENDBRANCH   6  33
ENDBRANCH   5   6
ENDBRANCH   4   5
ENDBRANCH   3   4
TORSDOF 7
ENDMDL
MODEL 2
REMARK VINA RESULT: -8.107101124      1.271      2.042
REMARK  7 active torsions:
REMARK  status: ('A' for Active; 'I' for Inactive)
REMARK    1  A    between atoms: C3_3  and  C4_4 
REMARK    2  A    between atoms: C4_4  and  C5_5 
REMARK    3  A    between atoms: C5_5  and  C6_6 
REMARK    4  A    between atoms: C6_6  and  C7_7 
REMARK    5  A    between atoms: C6_6  and  N2_33 
REMARK    6  A    between atoms: C24_24  and  O1_25 
REMARK    7  A    between atoms: C24_24  and  C25_27 
REMARK       I    between atoms: C25_27  and  N1_29 
ROOT
HETATM    1  C1  UNL     1       2.517   8.302  10.464  1.00  0.00     0.012 C 
HETATM    2  C2  UNL     1       2.967   8.913  11.390  1.00  0.00    -0.117 C 
HETATM    3  C3  UNL     1       3.523   9.682  12.542  1.00  0.00     0.097 C 
ENDROOT
BRANCH   3   4
HETATM    4  C4  UNL     1       2.740  10.952  12.658  1.00  0.00     0.041 C 
BRANCH   4   5
HETATM    5  C5  UNL     1       1.331  10.878  12.975  1.00  0.00    -0.001 C 
BRANCH   5   6
HETATM    6  C6  UNL     1       0.742  10.566  14.285  1.00  0.00     0.007 C 
BRANCH   6   7
HETATM    7  C7  UNL     1      -0.191   9.406  14.402  1.00  0.00     0.035 C 
HETATM    8  C8  UNL     1      -1.640   9.682  14.551  1.00  0.00     0.011 C 
HETATM    9  C9  UNL     1      -2.345   8.342  14.898  1.00  0.00     0.010 C 
HETATM   10  C10 UNL     1      -2.265   7.504  13.666  1.00  0.00    -0.036 C 
HETATM   11  C11 UNL     1      -2.776   8.301  12.485  1.00  0.00     0.016 C 
HETATM   12  C12 UNL     1      -0.838   7.178  13.415  1.00  0.00    -0.005 C 
HETATM   13  C16 UNL     1      -3.073   6.260  13.801  1.00  0.00    -0.002 C 
HETATM   14  C13 UNL     1      -0.726   6.435  12.104  1.00  0.00     0.006 C 
HETATM   15  C28 UNL     1       0.099   8.333  13.381  1.00  0.00     0.016 C 
HETATM   16  C14 UNL     1      -1.649   5.273  11.997  1.00  0.00     0.006 C 
HETATM   17  C15 UNL     1      -2.342   5.002  13.319  1.00  0.00    -0.005 C 
HETATM   18  C21 UNL     1      -3.372   3.959  13.239  1.00  0.00     0.002 C 
HETATM   19  C19 UNL     1      -3.840   3.583  14.626  1.00  0.00     0.000 C 
HETATM   20  C22 UNL     1      -2.978   2.626  12.693  1.00  0.00     0.009 C 
HETATM   21  C18 UNL     1      -4.469   4.807  15.239  1.00  0.00     0.013 C 
HETATM   22  C20 UNL     1      -2.789   3.032  15.518  1.00  0.00     0.019 C 
HETATM   23  C24 UNL     1      -4.890   2.560  14.218  1.00  0.00     0.146 C 
HETATM   24  C17 UNL     1      -3.527   5.985  15.205  1.00  0.00     0.007 C 
HETATM   25  C23 UNL     1      -4.133   1.741  13.157  1.00  0.00     0.049 C 
BRANCH  23  26
HETATM   26  O1  UNL     1      -5.943   3.247  13.607  1.00  0.00    -0.379 OA
ATOM     27  H1  UNL     1      -6.076   2.869  12.746  1.00  0.00     0.211 HD
ENDBRANCH  23  26
BRANCH  23  28
HETATM   28  C25 UNL     1      -5.340   1.699  15.300  1.00  0.00     0.254 C 
HETATM   29  O2  UNL     1      -4.882   0.502  15.301  1.00  0.00    -0.270 OA
HETATM   30  N1  UNL     1      -6.220   2.059  16.332  1.00  0.00    -0.358 N 
HETATM   31  C26 UNL     1      -6.567   1.056  17.345  1.00  0.00     0.152 C 
HETATM   32  C27 UNL     1      -6.795   3.379  16.434  1.00  0.00     0.152 C 
ENDBRANCH  23  28
ENDBRANCH   6   7
BRANCH   6  33
HETATM   33  N2  UNL     1       0.574  11.594  15.229  1.00  0.00    -0.384 N 
HETATM   34  C29 UNL     1       1.254  11.826  16.375  1.00  0.00     0.123 C 
HETATM   35  C30 UNL     1       0.957  13.280  16.783  1.00  0.00     0.021 C 
HETATM   36  C31 UNL     1       0.670  13.933  15.446  1.00  0.00     0.021 C 
HETATM   37  C32 UNL     1      -0.061  12.802  14.741  1.00  0.00     0.123 C 
ENDBRANCH   6  33
ENDBRANCH   5   6
ENDBRANCH   4   5
ENDBRANCH   3   4
TORSDOF 7
ENDMDL
MODEL 3
REMARK VINA RESULT: -8.058549296      2.874      9.219
REMARK  7 active torsions:
REMARK  status: ('A' for Active; 'I' for Inactive)
REMARK    1  A    between atoms: C3_3  and  C4_4 
REMARK    2  A    between atoms: C4_4  and  C5_5 
REMARK    3  A    between atoms: C5_5  and  C6_6 
REMARK    4  A    between atoms: C6_6  and  C7_7 
REMARK    5  A    between atoms: C6_6  and  N2_33 
REMARK    6  A    between atoms: C24_24  and  O1_25 
REMARK    7  A    between atoms: C24_24  and  C25_27 
REMARK       I    between atoms: C25_27  and  N1_29 
ROOT
HETATM    1  C1  UNL     1      -4.260   3.676  10.091  1.00  0.00     0.012 C 
HETATM    2  C2  UNL     1      -4.589   2.774  10.806  1.00  0.00    -0.117 C 
HETATM    3  C3  UNL     1      -4.990   1.649  11.702  1.00  0.00     0.097 C 
ENDROOT
BRANCH   3   4
HETATM    4  C4  UNL     1      -3.905   1.469  12.716  1.00  0.00     0.041 C 
BRANCH   4   5
HETATM    5  C5  UNL     1      -4.240   1.553  14.120  1.00  0.00    -0.001 C 
BRANCH   5   6
HETATM    6  C6  UNL     1      -4.721   2.742  14.838  1.00  0.00     0.007 C 
BRANCH   6   7
HETATM    7  C7  UNL     1      -3.984   4.031  14.678  1.00  0.00     0.035 C 
HETATM    8  C8  UNL     1      -2.502   3.998  14.677  1.00  0.00     0.011 C 
HETATM    9  C9  UNL     1      -1.994   5.464  14.749  1.00  0.00     0.010 C 
HETATM   10  C10 UNL     1      -2.339   6.083  13.437  1.00  0.00    -0.036 C 
HETATM   11  C11 UNL     1      -1.831   5.200  12.317  1.00  0.00     0.016 C 
HETATM   12  C12 UNL     1      -3.819   6.154  13.328  1.00  0.00    -0.005 C 
HETATM   13  C16 UNL     1      -1.737   7.439  13.299  1.00  0.00    -0.002 C 
HETATM   14  C13 UNL     1      -4.189   6.664  11.954  1.00  0.00     0.006 C 
HETATM   15  C28 UNL     1      -4.552   4.882  13.568  1.00  0.00     0.016 C 
HETATM   16  C14 UNL     1      -3.485   7.919  11.576  1.00  0.00     0.006 C 
HETATM   17  C15 UNL     1      -2.711   8.488  12.751  1.00  0.00    -0.005 C 
HETATM   18  C21 UNL     1      -1.880   9.647  12.401  1.00  0.00     0.002 C 
HETATM   19  C19 UNL     1      -1.337  10.294  13.655  1.00  0.00     0.000 C 
HETATM   20  C22 UNL     1      -2.543  10.808  11.737  1.00  0.00     0.009 C 
HETATM   21  C18 UNL     1      -0.456   9.284  14.341  1.00  0.00     0.013 C 
HETATM   22  C20 UNL     1      -2.365  10.814  14.591  1.00  0.00     0.019 C 
HETATM   23  C24 UNL     1      -0.519  11.387  12.983  1.00  0.00     0.146 C 
HETATM   24  C17 UNL     1      -1.189   7.988  14.585  1.00  0.00     0.007 C 
HETATM   25  C23 UNL     1      -1.507  11.914  11.927  1.00  0.00     0.049 C 
BRANCH  23  26
HETATM   26  O1  UNL     1       0.563  10.777  12.341  1.00  0.00    -0.379 OA
ATOM     27  H1  UNL     1       1.338  11.295  12.522  1.00  0.00     0.211 HD
ENDBRANCH  23  26
BRANCH  23  28
HETATM   28  C25 UNL     1      -0.106  12.459  13.874  1.00  0.00     0.254 C 
HETATM   29  O2  UNL     1      -0.868  13.488  13.916  1.00  0.00    -0.270 OA
HETATM   30  N1  UNL     1       1.040  12.466  14.684  1.00  0.00    -0.358 N 
HETATM   31  C26 UNL     1       1.303  13.639  15.524  1.00  0.00     0.152 C 
HETATM   32  C27 UNL     1       1.969  11.361  14.721  1.00  0.00     0.152 C 
ENDBRANCH  23  28
ENDBRANCH   6   7
BRANCH   6  33
HETATM   33  N2  UNL     1      -5.439   2.583  16.035  1.00  0.00    -0.384 N 
HETATM   34  C29 UNL     1      -6.491   3.291  16.506  1.00  0.00     0.123 C 
HETATM   35  C30 UNL     1      -7.138   2.444  17.617  1.00  0.00     0.021 C 
HETATM   36  C31 UNL     1      -6.778   1.035  17.191  1.00  0.00     0.021 C 
HETATM   37  C32 UNL     1      -5.383   1.265  16.635  1.00  0.00     0.123 C 
ENDBRANCH   6  33
ENDBRANCH   5   6
ENDBRANCH   4   5
ENDBRANCH   3   4
TORSDOF 7
ENDMDL
MODEL 4
REMARK VINA RESULT: -7.999681847      0.806      1.308
REMARK  7 active torsions:
REMARK  status: ('A' for Active; 'I' for Inactive)
REMARK    1  A    between atoms: C3_3  and  C4_4 
REMARK    2  A    between atoms: C4_4  and  C5_5 
REMARK    3  A    between atoms: C5_5  and  C6_6 
REMARK    4  A    between atoms: C6_6  and  C7_7 
REMARK    5  A    between atoms: C6_6  and  N2_33 
REMARK    6  A    between atoms: C24_24  and  O1_25 
REMARK    7  A    between atoms: C24_24  and  C25_27 
REMARK       I    between atoms: C25_27  and  N1_29 
ROOT
HETATM    1  C1  UNL     1      -0.422   8.888   9.089  1.00  0.00     0.012 C 
HETATM    2  C2  UNL     1      -0.632   9.888   9.712  1.00  0.00    -0.117 C 
HETATM    3  C3  UNL     1      -0.886  11.136  10.492  1.00  0.00     0.097 C 
ENDROOT
BRANCH   3   4
HETATM    4  C4  UNL     1       0.395  11.515  11.166  1.00  0.00     0.041 C 
BRANCH   4   5
HETATM    5  C5  UNL     1       0.428  11.594  12.610  1.00  0.00    -0.001 C 
BRANCH   5   6
HETATM    6  C6  UNL     1       0.816  10.522  13.538  1.00  0.00     0.007 C 
BRANCH   6   7
HETATM    7  C7  UNL     1      -0.136   9.399  13.786  1.00  0.00     0.035 C 
HETATM    8  C8  UNL     1      -1.567   9.723  13.996  1.00  0.00     0.011 C 
HETATM    9  C9  UNL     1      -2.283   8.430  14.473  1.00  0.00     0.010 C 
HETATM   10  C10 UNL     1      -2.294   7.510  13.298  1.00  0.00    -0.036 C 
HETATM   11  C11 UNL     1      -2.853   8.240  12.096  1.00  0.00     0.016 C 
HETATM   12  C12 UNL     1      -0.892   7.128  12.991  1.00  0.00    -0.005 C 
HETATM   13  C16 UNL     1      -3.122   6.300  13.562  1.00  0.00    -0.002 C 
HETATM   14  C13 UNL     1      -0.873   6.296  11.729  1.00  0.00     0.006 C 
HETATM   15  C28 UNL     1       0.069   8.252  12.826  1.00  0.00     0.016 C 
HETATM   16  C14 UNL     1      -1.828   5.156  11.754  1.00  0.00     0.006 C 
HETATM   17  C15 UNL     1      -2.450   4.993  13.128  1.00  0.00    -0.005 C 
HETATM   18  C21 UNL     1      -3.508   3.976  13.176  1.00  0.00     0.002 C 
HETATM   19  C19 UNL     1      -3.904   3.707  14.610  1.00  0.00     0.000 C 
HETATM   20  C22 UNL     1      -3.178   2.599  12.702  1.00  0.00     0.009 C 
HETATM   21  C18 UNL     1      -4.467   4.986  15.172  1.00  0.00     0.013 C 
HETATM   22  C20 UNL     1      -2.817   3.187  15.477  1.00  0.00     0.019 C 
HETATM   23  C24 UNL     1      -4.999   2.688  14.332  1.00  0.00     0.146 C 
HETATM   24  C17 UNL     1      -3.501   6.132  15.005  1.00  0.00     0.007 C 
HETATM   25  C23 UNL     1      -4.324   1.780  13.289  1.00  0.00     0.049 C 
BRANCH  23  26
HETATM   26  O1  UNL     1      -6.069   3.362  13.736  1.00  0.00    -0.379 OA
ATOM     27  H1  UNL     1      -6.425   2.800  13.058  1.00  0.00     0.211 HD
ENDBRANCH  23  26
BRANCH  23  28
HETATM   28  C25 UNL     1      -5.406   1.914  15.494  1.00  0.00     0.254 C 
HETATM   29  O2  UNL     1      -5.010   0.696  15.532  1.00  0.00    -0.270 OA
HETATM   30  N1  UNL     1      -6.186   2.378  16.565  1.00  0.00    -0.358 N 
HETATM   31  C26 UNL     1      -6.503   1.453  17.658  1.00  0.00     0.152 C 
HETATM   32  C27 UNL     1      -6.686   3.730  16.630  1.00  0.00     0.152 C 
ENDBRANCH  23  28
ENDBRANCH   6   7
BRANCH   6  33
HETATM   33  N2  UNL     1       1.730  10.799  14.570  1.00  0.00    -0.384 N 
HETATM   34  C29 UNL     1       1.554  10.745  15.909  1.00  0.00     0.123 C 
HETATM   35  C30 UNL     1       2.957  10.725  16.543  1.00  0.00     0.021 C 
HETATM   36  C31 UNL     1       3.789  10.085  15.451  1.00  0.00     0.021 C 
HETATM   37  C32 UNL     1       3.131  10.685  14.219  1.00  0.00     0.123 C 
ENDBRANCH   6  33
ENDBRANCH   5   6
ENDBRANCH   4   5
ENDBRANCH   3   4
TORSDOF 7
ENDMDL
MODEL 5
REMARK VINA RESULT: -7.968369545      3.107      9.626
REMARK  7 active torsions:
REMARK  status: ('A' for Active; 'I' for Inactive)
REMARK    1  A    between atoms: C3_3  and  C4_4 
REMARK    2  A    between atoms: C4_4  and  C5_5 
REMARK    3  A    between atoms: C5_5  and  C6_6 
REMARK    4  A    between atoms: C6_6  and  C7_7 
REMARK    5  A    between atoms: C6_6  and  N2_33 
REMARK    6  A    between atoms: C24_24  and  O1_25 
REMARK    7  A    between atoms: C24_24  and  C25_27 
REMARK       I    between atoms: C25_27  and  N1_29 
ROOT
HETATM    1  C1  UNL     1      -5.739   0.591  17.274  1.00  0.00     0.012 C 
HETATM    2  C2  UNL     1      -6.389   1.593  17.198  1.00  0.00    -0.117 C 
HETATM    3  C3  UNL     1      -7.192   2.848  17.100  1.00  0.00     0.097 C 
ENDROOT
BRANCH   3   4
HETATM    4  C4  UNL     1      -6.428   3.807  16.242  1.00  0.00     0.041 C 
BRANCH   4   5
HETATM    5  C5  UNL     1      -6.027   3.392  14.916  1.00  0.00    -0.001 C 
BRANCH   5   6
HETATM    6  C6  UNL     1      -4.659   3.377  14.378  1.00  0.00     0.007 C 
BRANCH   6   7
HETATM    7  C7  UNL     1      -3.910   4.664  14.269  1.00  0.00     0.035 C 
HETATM    8  C8  UNL     1      -2.435   4.633  14.403  1.00  0.00     0.011 C 
HETATM    9  C9  UNL     1      -1.935   6.100  14.501  1.00  0.00     0.010 C 
HETATM   10  C10 UNL     1      -2.159   6.701  13.153  1.00  0.00    -0.036 C 
HETATM   11  C11 UNL     1      -1.551   5.803  12.097  1.00  0.00     0.016 C 
HETATM   12  C12 UNL     1      -3.623   6.768  12.909  1.00  0.00    -0.005 C 
HETATM   13  C16 UNL     1      -1.547   8.055  13.052  1.00  0.00    -0.002 C 
HETATM   14  C13 UNL     1      -3.866   7.258  11.500  1.00  0.00     0.006 C 
HETATM   15  C28 UNL     1      -4.375   5.499  13.100  1.00  0.00     0.016 C 
HETATM   16  C14 UNL     1      -3.131   8.509  11.171  1.00  0.00     0.006 C 
HETATM   17  C15 UNL     1      -2.467   9.095  12.403  1.00  0.00    -0.005 C 
HETATM   18  C21 UNL     1      -1.608  10.250  12.114  1.00  0.00     0.002 C 
HETATM   19  C19 UNL     1      -1.181  10.915  13.402  1.00  0.00     0.000 C 
HETATM   20  C22 UNL     1      -2.207  11.401  11.375  1.00  0.00     0.009 C 
HETATM   21  C18 UNL     1      -0.366   9.916  14.181  1.00  0.00     0.013 C 
HETATM   22  C20 UNL     1      -2.290  11.447  14.234  1.00  0.00     0.019 C 
HETATM   23  C24 UNL     1      -0.305  11.999  12.793  1.00  0.00     0.146 C 
HETATM   24  C17 UNL     1      -1.119   8.623  14.375  1.00  0.00     0.007 C 
HETATM   25  C23 UNL     1      -1.193  12.510  11.644  1.00  0.00     0.049 C 
BRANCH  23  26
HETATM   26  O1  UNL     1       0.831  11.382  12.261  1.00  0.00    -0.379 OA
ATOM     27  H1  UNL     1       0.565  10.542  11.906  1.00  0.00     0.211 HD
ENDBRANCH  23  26
BRANCH  23  28
HETATM   28  C25 UNL     1       0.025  13.084  13.703  1.00  0.00     0.254 C 
HETATM   29  O2  UNL     1      -0.733  14.116  13.655  1.00  0.00    -0.270 OA
HETATM   30  N1  UNL     1       1.088  13.101  14.619  1.00  0.00    -0.358 N 
HETATM   31  C26 UNL     1       1.274  14.287  15.462  1.00  0.00     0.152 C 
HETATM   32  C27 UNL     1       2.004  11.995  14.763  1.00  0.00     0.152 C 
ENDBRANCH  23  28
ENDBRANCH   6   7
BRANCH   6  33
HETATM   33  N2  UNL     1      -4.280   2.361  13.484  1.00  0.00    -0.384 N 
HETATM   34  C29 UNL     1      -4.152   1.032  13.698  1.00  0.00     0.123 C 
HETATM   35  C30 UNL     1      -4.135   0.356  12.316  1.00  0.00     0.021 C 
HETATM   36  C31 UNL     1      -4.939   1.329  11.477  1.00  0.00     0.021 C 
HETATM   37  C32 UNL     1      -4.484   2.649  12.078  1.00  0.00     0.123 C 
ENDBRANCH   6  33
ENDBRANCH   5   6
ENDBRANCH   4   5
ENDBRANCH   3   4
TORSDOF 7
ENDMDL
