MODEL 1
REMARK VINA RESULT: -7.075861795      0.000      0.000
REMARK  8 active torsions:
REMARK  status: ('A' for Active; 'I' for Inactive)
REMARK    1  A    between atoms: C3_3  and  C4_4 
REMARK    2  A    between atoms: C4_4  and  C6_6 
REMARK    3  A    between atoms: C10_10  and  C11_11 
REMARK    4  A    between atoms: C11_11  and  O1_12 
REMARK    5  A    between atoms: C20_22  and  C22_24 
REMARK       I    between atoms: C22_24  and  N1_26 
REMARK    6  A    between atoms: N1_26  and  C24_28 
REMARK    7  A    between atoms: C24_28  and  C25_29 
REMARK    8  A    between atoms: C25_29  and  N2_30 
ROOT
HETATM    1  C6  UNL     1      -3.775   4.491  14.366  1.00  0.00    -0.013 C 
HETATM    2  C7  UNL     1      -3.077   3.485  15.154  1.00  0.00     0.021 C 
HETATM    3  C8  UNL     1      -4.270   3.840  13.014  1.00  0.00     0.015 C 
HETATM    4  C9  UNL     1      -2.969   3.892  12.247  1.00  0.00     0.018 C 
HETATM    5  C10 UNL     1      -2.265   5.171  12.568  1.00  0.00     0.013 C 
HETATM    6  C12 UNL     1      -3.087   5.634  13.742  1.00  0.00    -0.063 C 
HETATM    7  C13 UNL     1      -3.139   6.926  14.101  1.00  0.00    -0.022 C 
HETATM    8  C14 UNL     1      -2.311   7.846  13.223  1.00  0.00     0.033 C 
HETATM    9  C15 UNL     1      -2.751   7.436  11.826  1.00  0.00     0.007 C 
HETATM   10  C16 UNL     1      -2.836   8.524  10.830  1.00  0.00    -0.035 C 
HETATM   11  C17 UNL     1      -1.746   9.539  11.093  1.00  0.00     0.016 C 
HETATM   12  C18 UNL     1      -4.227   9.168  10.949  1.00  0.00     0.011 C 
HETATM   13  C19 UNL     1      -4.953   8.787   9.676  1.00  0.00     0.020 C 
HETATM   14  C20 UNL     1      -3.887   8.954   8.674  1.00  0.00     0.042 C 
HETATM   15  C21 UNL     1      -3.488  10.425   8.681  1.00  0.00     0.026 C 
HETATM   16  C28 UNL     1      -2.789   8.127   9.398  1.00  0.00     0.011 C 
HETATM   17  C29 UNL     1      -2.965   6.703   9.105  1.00  0.00     0.007 C 
HETATM   18  C30 UNL     1      -2.907   5.701  10.207  1.00  0.00     0.011 C 
HETATM   19  C31 UNL     1      -2.128   6.145  11.438  1.00  0.00    -0.026 C 
HETATM   20  C32 UNL     1      -0.694   6.302  10.958  1.00  0.00     0.016 C 
ENDROOT
BRANCH  14  21
HETATM   21  C22 UNL     1      -4.053   8.564   7.307  1.00  0.00     0.228 C 
HETATM   22  O2  UNL     1      -2.998   8.617   6.562  1.00  0.00    -0.273 OA
HETATM   23  N1  UNL     1      -5.184   8.142   6.648  1.00  0.00    -0.354 N 
HETATM   24  C23 UNL     1      -5.142   7.848   5.188  1.00  0.00     0.152 C 
BRANCH  23  25
HETATM   25  C24 UNL     1      -6.460   7.895   7.234  1.00  0.00     0.155 C 
BRANCH  25  26
HETATM   26  C25 UNL     1      -7.432   8.951   6.842  1.00  0.00     0.291 C 
BRANCH  26  27
HETATM   27  N2  UNL     1      -8.444   9.199   7.854  1.00  0.00     0.081 N 
HETATM   28  C26 UNL     1      -9.708   9.615   7.276  1.00  0.00     0.309 C 
HETATM   29  C27 UNL     1      -8.696   7.909   8.505  1.00  0.00     0.309 C 
ENDBRANCH  26  27
ENDBRANCH  25  26
ENDBRANCH  23  25
ENDBRANCH  14  21
BRANCH   5  30
HETATM   30  C11 UNL     1      -0.903   4.773  13.116  1.00  0.00     0.178 C 
BRANCH  30  31
HETATM   31  O1  UNL     1      -0.593   3.446  12.671  1.00  0.00    -0.400 OA
ATOM     32  H1  UNL     1      -0.668   2.849  13.406  1.00  0.00     0.209 HD
ENDBRANCH  30  31
ENDBRANCH   5  30
BRANCH   1  33
HETATM   33  C4  UNL     1      -5.046   4.854  15.133  1.00  0.00     0.016 C 
HETATM   34  C5  UNL     1      -6.151   5.200  14.181  1.00  0.00     0.015 C 
BRANCH  33  35
HETATM   35  C3  UNL     1      -5.422   3.764  16.066  1.00  0.00    -0.026 C 
HETATM   36  C2  UNL     1      -6.583   3.099  15.921  1.00  0.00    -0.035 C 
HETATM   37  C1  UNL     1      -6.963   2.025  16.835  1.00  0.00     0.036 C 
ENDBRANCH  33  35
ENDBRANCH   1  33
TORSDOF 8
ENDMDL
MODEL 2
REMARK VINA RESULT: -7.048676084      1.660      2.778
REMARK  8 active torsions:
REMARK  status: ('A' for Active; 'I' for Inactive)
REMARK    1  A    between atoms: C3_3  and  C4_4 
REMARK    2  A    between atoms: C4_4  and  C6_6 
REMARK    3  A    between atoms: C10_10  and  C11_11 
REMARK    4  A    between atoms: C11_11  and  O1_12 
REMARK    5  A    between atoms: C20_22  and  C22_24 
REMARK       I    between atoms: C22_24  and  N1_26 
REMARK    6  A    between atoms: N1_26  and  C24_28 
REMARK    7  A    between atoms: C24_28  and  C25_29 
REMARK    8  A    between atoms: C25_29  and  N2_30 
ROOT
HETATM    1  C6  UNL     1      -4.065   3.723  14.662  1.00  0.00    -0.013 C 
HETATM    2  C7  UNL     1      -3.187   2.773  15.331  1.00  0.00     0.021 C 
HETATM    3  C8  UNL     1      -4.683   3.043  13.376  1.00  0.00     0.015 C 
HETATM    4  C9  UNL     1      -3.506   3.209  12.443  1.00  0.00     0.018 C 
HETATM    5  C10 UNL     1      -2.872   4.540  12.690  1.00  0.00     0.013 C 
HETATM    6  C12 UNL     1      -3.563   4.925  13.972  1.00  0.00    -0.063 C 
HETATM    7  C13 UNL     1      -3.672   6.205  14.359  1.00  0.00    -0.022 C 
HETATM    8  C14 UNL     1      -3.049   7.197  13.394  1.00  0.00     0.033 C 
HETATM    9  C15 UNL     1      -3.639   6.762  12.062  1.00  0.00     0.007 C 
HETATM   10  C16 UNL     1      -3.946   7.846  11.107  1.00  0.00    -0.035 C 
HETATM   11  C17 UNL     1      -2.918   8.947  11.240  1.00  0.00     0.016 C 
HETATM   12  C18 UNL     1      -5.356   8.371  11.423  1.00  0.00     0.011 C 
HETATM   13  C19 UNL     1      -6.215   7.940  10.252  1.00  0.00     0.020 C 
HETATM   14  C20 UNL     1      -5.311   8.202   9.120  1.00  0.00     0.042 C 
HETATM   15  C21 UNL     1      -5.036   9.701   9.100  1.00  0.00     0.026 C 
HETATM   16  C28 UNL     1      -4.060   7.465   9.674  1.00  0.00     0.011 C 
HETATM   17  C29 UNL     1      -4.158   6.033   9.381  1.00  0.00     0.007 C 
HETATM   18  C30 UNL     1      -3.870   5.032  10.447  1.00  0.00     0.011 C 
HETATM   19  C31 UNL     1      -2.970   5.530  11.570  1.00  0.00    -0.026 C 
HETATM   20  C32 UNL     1      -1.632   5.809  10.905  1.00  0.00     0.016 C 
ENDROOT
BRANCH  14  21
HETATM   21  C22 UNL     1      -5.627   7.810   7.780  1.00  0.00     0.228 C 
HETATM   22  O2  UNL     1      -6.807   7.319   7.588  1.00  0.00    -0.273 OA
HETATM   23  N1  UNL     1      -4.852   7.868   6.645  1.00  0.00    -0.354 N 
HETATM   24  C23 UNL     1      -5.367   7.335   5.352  1.00  0.00     0.152 C 
BRANCH  23  25
HETATM   25  C24 UNL     1      -3.554   8.448   6.536  1.00  0.00     0.155 C 
BRANCH  25  26
HETATM   26  C25 UNL     1      -2.730   7.712   5.539  1.00  0.00     0.291 C 
BRANCH  26  27
HETATM   27  N2  UNL     1      -1.557   7.085   6.121  1.00  0.00     0.081 N 
HETATM   28  C26 UNL     1      -1.194   7.677   7.396  1.00  0.00     0.309 C 
HETATM   29  C27 UNL     1      -1.933   5.697   6.406  1.00  0.00     0.309 C 
ENDBRANCH  26  27
ENDBRANCH  25  26
ENDBRANCH  23  25
ENDBRANCH  14  21
BRANCH   5  30
HETATM   30  C11 UNL     1      -1.421   4.253  13.043  1.00  0.00     0.178 C 
BRANCH  30  31
HETATM   31  O1  UNL     1      -1.013   3.046  12.386  1.00  0.00    -0.400 OA
ATOM     32  H1  UNL     1      -0.713   2.426  13.039  1.00  0.00     0.209 HD
ENDBRANCH  30  31
ENDBRANCH   5  30
BRANCH   1  33
HETATM   33  C4  UNL     1      -5.245   3.974  15.599  1.00  0.00     0.016 C 
HETATM   34  C5  UNL     1      -6.430   4.472  14.827  1.00  0.00     0.015 C 
BRANCH  33  35
HETATM   35  C3  UNL     1      -5.555   2.755  16.386  1.00  0.00    -0.026 C 
HETATM   36  C2  UNL     1      -6.800   2.246  16.413  1.00  0.00    -0.035 C 
HETATM   37  C1  UNL     1      -7.115   1.047  17.185  1.00  0.00     0.036 C 
ENDBRANCH  33  35
ENDBRANCH   1  33
TORSDOF 8
ENDMDL
MODEL 3
REMARK VINA RESULT: -6.938788164      3.735      5.691
REMARK  8 active torsions:
REMARK  status: ('A' for Active; 'I' for Inactive)
REMARK    1  A    between atoms: C3_3  and  C4_4 
REMARK    2  A    between atoms: C4_4  and  C6_6 
REMARK    3  A    between atoms: C10_10  and  C11_11 
REMARK    4  A    between atoms: C11_11  and  O1_12 
REMARK    5  A    between atoms: C20_22  and  C22_24 
REMARK       I    between atoms: C22_24  and  N1_26 
REMARK    6  A    between atoms: N1_26  and  C24_28 
REMARK    7  A    between atoms: C24_28  and  C25_29 
REMARK    8  A    between atoms: C25_29  and  N2_30 
ROOT
HETATM    1  C6  UNL     1      -3.933   5.718  14.238  1.00  0.00    -0.013 C 
HETATM    2  C7  UNL     1      -4.175   6.341  15.533  1.00  0.00     0.021 C 
HETATM    3  C8  UNL     1      -2.663   4.783  14.342  1.00  0.00     0.015 C 
HETATM    4  C9  UNL     1      -1.591   5.842  14.228  1.00  0.00     0.018 C 
HETATM    5  C10 UNL     1      -2.026   6.870  13.233  1.00  0.00     0.013 C 
HETATM    6  C12 UNL     1      -3.470   6.476  13.063  1.00  0.00    -0.063 C 
HETATM    7  C13 UNL     1      -4.165   6.801  11.963  1.00  0.00    -0.022 C 
HETATM    8  C14 UNL     1      -3.367   7.580  10.934  1.00  0.00     0.033 C 
HETATM    9  C15 UNL     1      -2.106   6.739  10.805  1.00  0.00     0.007 C 
HETATM   10  C16 UNL     1      -1.515   6.665   9.453  1.00  0.00    -0.035 C 
HETATM   11  C17 UNL     1      -1.711   7.985   8.740  1.00  0.00     0.016 C 
HETATM   12  C18 UNL     1      -2.209   5.523   8.694  1.00  0.00     0.011 C 
HETATM   13  C19 UNL     1      -1.154   4.448   8.537  1.00  0.00     0.020 C 
HETATM   14  C20 UNL     1       0.032   5.255   8.207  1.00  0.00     0.042 C 
HETATM   15  C21 UNL     1      -0.256   5.963   6.888  1.00  0.00     0.026 C 
HETATM   16  C28 UNL     1      -0.081   6.281   9.368  1.00  0.00     0.011 C 
HETATM   17  C29 UNL     1       0.523   5.726  10.582  1.00  0.00     0.007 C 
HETATM   18  C30 UNL     1      -0.197   5.819  11.883  1.00  0.00     0.011 C 
HETATM   19  C31 UNL     1      -1.215   6.947  11.975  1.00  0.00    -0.026 C 
HETATM   20  C32 UNL     1      -0.395   8.224  11.874  1.00  0.00     0.016 C 
ENDROOT
BRANCH  14  21
HETATM   21  C22 UNL     1       1.342   4.686   8.106  1.00  0.00     0.228 C 
HETATM   22  O2  UNL     1       1.407   3.396   8.075  1.00  0.00    -0.273 OA
HETATM   23  N1  UNL     1       2.566   5.311   8.045  1.00  0.00    -0.354 N 
HETATM   24  C23 UNL     1       3.822   4.511   8.012  1.00  0.00     0.152 C 
BRANCH  23  25
HETATM   25  C24 UNL     1       2.793   6.717   7.963  1.00  0.00     0.155 C 
BRANCH  25  26
HETATM   26  C25 UNL     1       3.167   7.109   6.577  1.00  0.00     0.291 C 
BRANCH  26  27
HETATM   27  N2  UNL     1       2.583   8.374   6.165  1.00  0.00     0.081 N 
HETATM   28  C26 UNL     1       1.987   9.090   7.278  1.00  0.00     0.309 C 
HETATM   29  C27 UNL     1       3.696   9.203   5.694  1.00  0.00     0.309 C 
ENDBRANCH  26  27
ENDBRANCH  25  26
ENDBRANCH  23  25
ENDBRANCH  14  21
BRANCH   5  30
HETATM   30  C11 UNL     1      -2.017   8.198  13.973  1.00  0.00     0.178 C 
BRANCH  30  31
HETATM   31  O1  UNL     1      -1.243   8.058  15.171  1.00  0.00    -0.400 OA
ATOM     32  H1  UNL     1      -1.100   8.918  15.548  1.00  0.00     0.209 HD
ENDBRANCH  30  31
ENDBRANCH   5  30
BRANCH   1  33
HETATM   33  C4  UNL     1      -5.110   4.781  13.969  1.00  0.00     0.016 C 
HETATM   34  C5  UNL     1      -4.631   3.510  13.336  1.00  0.00     0.015 C 
BRANCH  33  35
HETATM   35  C3  UNL     1      -5.880   4.539  15.212  1.00  0.00    -0.026 C 
HETATM   36  C2  UNL     1      -5.996   3.301  15.726  1.00  0.00    -0.035 C 
HETATM   37  C1  UNL     1      -6.754   3.052  16.949  1.00  0.00     0.036 C 
ENDBRANCH  33  35
ENDBRANCH   1  33
TORSDOF 8
ENDMDL
MODEL 4
REMARK VINA RESULT: -6.831676795      4.333      7.957
REMARK  8 active torsions:
REMARK  status: ('A' for Active; 'I' for Inactive)
REMARK    1  A    between atoms: C3_3  and  C4_4 
REMARK    2  A    between atoms: C4_4  and  C6_6 
REMARK    3  A    between atoms: C10_10  and  C11_11 
REMARK    4  A    between atoms: C11_11  and  O1_12 
REMARK    5  A    between atoms: C20_22  and  C22_24 
REMARK       I    between atoms: C22_24  and  N1_26 
REMARK    6  A    between atoms: N1_26  and  C24_28 
REMARK    7  A    between atoms: C24_28  and  C25_29 
REMARK    8  A    between atoms: C25_29  and  N2_30 
ROOT
HETATM    1  C6  UNL     1       0.708  10.917  14.483  1.00  0.00    -0.013 C 
HETATM    2  C7  UNL     1       0.542  12.339  14.754  1.00  0.00     0.021 C 
HETATM    3  C8  UNL     1       1.305  10.732  13.031  1.00  0.00     0.015 C 
HETATM    4  C9  UNL     1       0.033  10.912  12.237  1.00  0.00     0.018 C 
HETATM    5  C10 UNL     1      -1.095  10.259  12.970  1.00  0.00     0.013 C 
HETATM    6  C12 UNL     1      -0.431  10.002  14.297  1.00  0.00    -0.063 C 
HETATM    7  C13 UNL     1      -0.871   9.051  15.134  1.00  0.00    -0.022 C 
HETATM    8  C14 UNL     1      -2.070   8.277  14.616  1.00  0.00     0.033 C 
HETATM    9  C15 UNL     1      -1.623   7.897  13.214  1.00  0.00     0.007 C 
HETATM   10  C16 UNL     1      -2.066   6.572  12.732  1.00  0.00    -0.035 C 
HETATM   11  C17 UNL     1      -3.445   6.270  13.275  1.00  0.00     0.016 C 
HETATM   12  C18 UNL     1      -1.046   5.527  13.211  1.00  0.00     0.011 C 
HETATM   13  C19 UNL     1      -0.339   5.055  11.958  1.00  0.00     0.020 C 
HETATM   14  C20 UNL     1      -1.464   4.954  11.013  1.00  0.00     0.042 C 
HETATM   15  C21 UNL     1      -2.418   3.897  11.558  1.00  0.00     0.026 C 
HETATM   16  C28 UNL     1      -2.073   6.362  11.260  1.00  0.00     0.011 C 
HETATM   17  C29 UNL     1      -1.366   7.358  10.451  1.00  0.00     0.007 C 
HETATM   18  C30 UNL     1      -0.923   8.641  11.066  1.00  0.00     0.011 C 
HETATM   19  C31 UNL     1      -1.707   9.065  12.301  1.00  0.00    -0.026 C 
HETATM   20  C32 UNL     1      -3.118   9.323  11.799  1.00  0.00     0.016 C 
ENDROOT
BRANCH  14  21
HETATM   21  C22 UNL     1      -1.273   4.678   9.621  1.00  0.00     0.228 C 
HETATM   22  O2  UNL     1      -2.340   4.463   8.926  1.00  0.00    -0.273 OA
HETATM   23  N1  UNL     1      -0.106   4.595   8.897  1.00  0.00    -0.354 N 
HETATM   24  C23 UNL     1      -0.137   4.224   7.455  1.00  0.00     0.152 C 
BRANCH  23  25
HETATM   25  C24 UNL     1       1.207   4.879   9.376  1.00  0.00     0.155 C 
BRANCH  25  26
HETATM   26  C25 UNL     1       2.037   3.644   9.401  1.00  0.00     0.291 C 
BRANCH  26  27
HETATM   27  N2  UNL     1       3.423   3.881   9.040  1.00  0.00     0.081 N 
HETATM   28  C26 UNL     1       3.935   2.869   8.135  1.00  0.00     0.309 C 
HETATM   29  C27 UNL     1       3.442   5.144   8.295  1.00  0.00     0.309 C 
ENDBRANCH  26  27
ENDBRANCH  25  26
ENDBRANCH  23  25
ENDBRANCH  14  21
BRANCH   5  30
HETATM   30  C11 UNL     1      -2.131  11.348  13.200  1.00  0.00     0.178 C 
BRANCH  30  31
HETATM   31  O1  UNL     1      -1.846  12.452  12.331  1.00  0.00    -0.400 OA
ATOM     32  H1  UNL     1      -2.663  12.857  12.068  1.00  0.00     0.209 HD
ENDBRANCH  30  31
ENDBRANCH   5  30
BRANCH   1  33
HETATM   33  C4  UNL     1       1.786  10.406  15.437  1.00  0.00     0.016 C 
HETATM   34  C5  UNL     1       3.010   9.999  14.673  1.00  0.00     0.015 C 
BRANCH  33  35
HETATM   35  C3  UNL     1       2.082  11.417  16.481  1.00  0.00    -0.026 C 
HETATM   36  C2  UNL     1       3.067  11.221  17.376  1.00  0.00    -0.035 C 
HETATM   37  C1  UNL     1       3.365  12.210  18.408  1.00  0.00     0.036 C 
ENDBRANCH  33  35
ENDBRANCH   1  33
TORSDOF 8
ENDMDL
MODEL 5
REMARK VINA RESULT: -6.813259759      3.152      6.382
REMARK  8 active torsions:
REMARK  status: ('A' for Active; 'I' for Inactive)
REMARK    1  A    between atoms: C3_3  and  C4_4 
REMARK    2  A    between atoms: C4_4  and  C6_6 
REMARK    3  A    between atoms: C10_10  and  C11_11 
REMARK    4  A    between atoms: C11_11  and  O1_12 
REMARK    5  A    between atoms: C20_22  and  C22_24 
REMARK       I    between atoms: C22_24  and  N1_26 
REMARK    6  A    between atoms: N1_26  and  C24_28 
REMARK    7  A    between atoms: C24_28  and  C25_29 
REMARK    8  A    between atoms: C25_29  and  N2_30 
ROOT
HETATM    1  C6  UNL     1      -5.457   7.575  10.514  1.00  0.00    -0.013 C 
HETATM    2  C7  UNL     1      -6.719   7.408  11.222  1.00  0.00     0.021 C 
HETATM    3  C8  UNL     1      -5.107   6.235   9.753  1.00  0.00     0.015 C 
HETATM    4  C9  UNL     1      -4.549   5.450  10.918  1.00  0.00     0.018 C 
HETATM    5  C10 UNL     1      -3.754   6.370  11.788  1.00  0.00     0.013 C 
HETATM    6  C12 UNL     1      -4.163   7.699  11.208  1.00  0.00    -0.063 C 
HETATM    7  C13 UNL     1      -3.399   8.793  11.342  1.00  0.00    -0.022 C 
HETATM    8  C14 UNL     1      -2.112   8.558  12.111  1.00  0.00     0.033 C 
HETATM    9  C15 UNL     1      -1.547   7.327  11.421  1.00  0.00     0.007 C 
HETATM   10  C16 UNL     1      -0.076   7.276  11.291  1.00  0.00    -0.035 C 
HETATM   11  C17 UNL     1       0.562   7.915  12.505  1.00  0.00     0.016 C 
HETATM   12  C18 UNL     1       0.313   8.027  10.008  1.00  0.00     0.011 C 
HETATM   13  C19 UNL     1       0.816   6.959   9.058  1.00  0.00     0.020 C 
HETATM   14  C20 UNL     1       1.606   6.113   9.967  1.00  0.00     0.042 C 
HETATM   15  C21 UNL     1       2.743   6.972  10.508  1.00  0.00     0.026 C 
HETATM   16  C28 UNL     1       0.533   5.937  11.077  1.00  0.00     0.011 C 
HETATM   17  C29 UNL     1      -0.381   4.850  10.715  1.00  0.00     0.007 C 
HETATM   18  C30 UNL     1      -1.854   5.040  10.843  1.00  0.00     0.011 C 
HETATM   19  C31 UNL     1      -2.280   6.106  11.844  1.00  0.00    -0.026 C 
HETATM   20  C32 UNL     1      -1.821   5.580  13.194  1.00  0.00     0.016 C 
ENDROOT
BRANCH  14  21
HETATM   21  C22 UNL     1       2.174   4.866   9.553  1.00  0.00     0.228 C 
HETATM   22  O2  UNL     1       2.837   4.211  10.448  1.00  0.00    -0.273 OA
HETATM   23  N1  UNL     1       2.130   4.249   8.325  1.00  0.00    -0.354 N 
HETATM   24  C23 UNL     1       2.859   2.969   8.096  1.00  0.00     0.152 C 
BRANCH  23  25
HETATM   25  C24 UNL     1       1.395   4.688   7.185  1.00  0.00     0.155 C 
BRANCH  25  26
HETATM   26  C25 UNL     1       0.081   3.993   7.107  1.00  0.00     0.291 C 
BRANCH  26  27
HETATM   27  N2  UNL     1      -0.897   4.710   6.307  1.00  0.00     0.081 N 
HETATM   28  C26 UNL     1      -1.913   5.347   7.125  1.00  0.00     0.309 C 
HETATM   29  C27 UNL     1      -0.166   5.795   5.644  1.00  0.00     0.309 C 
ENDBRANCH  26  27
ENDBRANCH  25  26
ENDBRANCH  23  25
ENDBRANCH  14  21
BRANCH   5  30
HETATM   30  C11 UNL     1      -4.379   6.283  13.171  1.00  0.00     0.178 C 
BRANCH  30  31
HETATM   31  O1  UNL     1      -5.222   5.125  13.229  1.00  0.00    -0.400 OA
ATOM     32  H1  UNL     1      -5.033   4.645  14.026  1.00  0.00     0.209 HD
ENDBRANCH  30  31
ENDBRANCH   5  30
BRANCH   1  33
HETATM   33  C4  UNL     1      -5.695   8.616   9.421  1.00  0.00     0.016 C 
HETATM   34  C5  UNL     1      -4.996   8.215   8.157  1.00  0.00     0.015 C 
BRANCH  33  35
HETATM   35  C3  UNL     1      -7.147   8.838   9.219  1.00  0.00    -0.026 C 
HETATM   36  C2  UNL     1      -7.715   8.655   8.012  1.00  0.00    -0.035 C 
HETATM   37  C1  UNL     1      -9.143   8.872   7.803  1.00  0.00     0.036 C 
ENDBRANCH  33  35
ENDBRANCH   1  33
TORSDOF 8
ENDMDL
