MODEL 1
REMARK VINA RESULT: -8.317566254      0.000      0.000
REMARK  12 active torsions:
REMARK  status: ('A' for Active; 'I' for Inactive)
REMARK    1  A    between atoms: C3_5  and  C4_6 
REMARK    2  A    between atoms: C4_6  and  O1_8 
REMARK    3  A    between atoms: C7_13  and  C8_14 
REMARK    4  A    between atoms: C8_14  and  O2_15 
REMARK    5  A    between atoms: C8_14  and  C9_17 
REMARK    6  A    between atoms: C10_18  and  C11_19 
REMARK    7  A    between atoms: C12_20  and  O3_21 
REMARK    8  A    between atoms: C14_24  and  O4_26 
REMARK    9  A    between atoms: C16_28  and  C17_29 
REMARK   10  A    between atoms: C17_29  and  C18_30 
REMARK   11  A    between atoms: C18_30  and  C19_31 
REMARK   12  A    between atoms: C20_32  and  C21_34 
ROOT
HETATM    1  C11 UNL     1       8.762  -4.657   2.744  1.00  0.00     0.044 C 
HETATM    2  C12 UNL     1      10.224  -4.365   2.583  1.00  0.00     0.129 C 
HETATM    3  C13 UNL     1      10.572  -5.133   1.343  1.00  0.00     0.070 C 
HETATM    4  C14 UNL     1       9.655  -6.359   1.344  1.00  0.00     0.061 C 
HETATM    5  C15 UNL     1       8.944  -6.399   0.048  1.00  0.00     0.046 C 
HETATM    6  C16 UNL     1       8.806  -6.164   2.554  1.00  0.00     0.030 C 
ENDROOT
BRANCH   1   7
HETATM    7  C10 UNL     1       7.849  -3.988   1.832  1.00  0.00    -0.020 C 
HETATM    8  C9  UNL     1       7.753  -2.715   1.523  1.00  0.00     0.006 C 
BRANCH   8   9
HETATM    9  C8  UNL     1       6.759  -2.165   0.561  1.00  0.00     0.177 C 
BRANCH   9  10
HETATM   10  C7  UNL     1       7.154  -0.805   0.104  1.00  0.00     0.012 A 
HETATM   11  C2  UNL     1       6.413   0.324   0.355  1.00  0.00     0.017 A 
HETATM   12  C1  UNL     1       5.157   0.193   1.120  1.00  0.00     0.069 C 
HETATM   13  N1  UNL     1       6.848   1.529  -0.099  1.00  0.00    -0.347 N 
HETATM   14  C3  UNL     1       7.980   1.666  -0.792  1.00  0.00     0.110 A 
ATOM     15  H1  UNL     1       6.288   2.358   0.097  1.00  0.00     0.167 HD
HETATM   16  N2  UNL     1       8.704   0.571  -1.041  1.00  0.00    -0.353 N 
HETATM   17  C6  UNL     1       8.322  -0.656  -0.612  1.00  0.00     0.101 A 
ATOM     18  H2  UNL     1       9.572   0.662  -1.569  1.00  0.00     0.166 HD
BRANCH  14  19
HETATM   19  C4  UNL     1       8.368   3.019  -1.244  1.00  0.00     0.181 C 
HETATM   20  C5  UNL     1       7.632   3.318  -2.513  1.00  0.00     0.047 C 
BRANCH  19  21
HETATM   21  O1  UNL     1       8.116   3.943  -0.241  1.00  0.00    -0.388 OA
ATOM     22  H1  UNL     1       8.746   4.653  -0.289  1.00  0.00     0.210 HD
ENDBRANCH  19  21
ENDBRANCH  14  19
ENDBRANCH   9  10
BRANCH   9  23
HETATM   23  O2  UNL     1       6.750  -2.962  -0.600  1.00  0.00    -0.387 OA
ATOM     24  H2  UNL     1       6.830  -3.858  -0.292  1.00  0.00     0.210 HD
ENDBRANCH   9  23
ENDBRANCH   8   9
ENDBRANCH   1   7
BRANCH   2  25
HETATM   25  O3  UNL     1      10.597  -3.061   2.617  1.00  0.00    -0.395 OA
ATOM     26  H3  UNL     1      11.365  -2.846   3.135  1.00  0.00     0.210 HD
ENDBRANCH   2  25
BRANCH   6  27
HETATM   27  C17 UNL     1       7.501  -6.848   2.534  1.00  0.00     0.012 C 
BRANCH  27  28
HETATM   28  C18 UNL     1       7.403  -7.928   3.591  1.00  0.00     0.030 C 
BRANCH  28  29
HETATM   29  C19 UNL     1       8.199  -9.126   3.259  1.00  0.00     0.016 C 
HETATM   30  C20 UNL     1       7.940 -10.170   2.551  1.00  0.00     0.124 C 
HETATM   31  F1  UNL     1       9.012 -11.104   2.507  1.00  0.00    -0.205 F 
BRANCH  30  32
HETATM   32  C21 UNL     1       6.806 -10.475   1.737  1.00  0.00     0.024 A 
HETATM   33  C22 UNL     1       5.639 -11.017   2.157  1.00  0.00     0.016 A 
HETATM   34  C23 UNL     1       4.600 -11.339   1.258  1.00  0.00     0.001 A 
HETATM   35  C24 UNL     1       4.760 -11.101  -0.074  1.00  0.00     0.002 A 
HETATM   36  C25 UNL     1       5.928 -10.550  -0.535  1.00  0.00     0.025 A 
HETATM   37  C26 UNL     1       6.927 -10.245   0.354  1.00  0.00     0.047 A 
HETATM   38 CL1  UNL     1       8.408  -9.545  -0.285  1.00  0.00    -0.083 Cl
ENDBRANCH  30  32
ENDBRANCH  28  29
ENDBRANCH  27  28
ENDBRANCH   6  27
BRANCH   4  39
HETATM   39  O4  UNL     1      10.413  -7.535   1.549  1.00  0.00    -0.390 OA
ATOM     40  H4  UNL     1      10.384  -7.789   2.465  1.00  0.00     0.210 HD
ENDBRANCH   4  39
TORSDOF 12
ENDMDL
MODEL 2
REMARK VINA RESULT: -7.951971502      0.901      1.242
REMARK  12 active torsions:
REMARK  status: ('A' for Active; 'I' for Inactive)
REMARK    1  A    between atoms: C3_5  and  C4_6 
REMARK    2  A    between atoms: C4_6  and  O1_8 
REMARK    3  A    between atoms: C7_13  and  C8_14 
REMARK    4  A    between atoms: C8_14  and  O2_15 
REMARK    5  A    between atoms: C8_14  and  C9_17 
REMARK    6  A    between atoms: C10_18  and  C11_19 
REMARK    7  A    between atoms: C12_20  and  O3_21 
REMARK    8  A    between atoms: C14_24  and  O4_26 
REMARK    9  A    between atoms: C16_28  and  C17_29 
REMARK   10  A    between atoms: C17_29  and  C18_30 
REMARK   11  A    between atoms: C18_30  and  C19_31 
REMARK   12  A    between atoms: C20_32  and  C21_34 
ROOT
HETATM    1  C11 UNL     1       8.796  -4.804   2.745  1.00  0.00     0.044 C 
HETATM    2  C12 UNL     1      10.254  -4.509   2.553  1.00  0.00     0.129 C 
HETATM    3  C13 UNL     1      10.573  -5.262   1.296  1.00  0.00     0.070 C 
HETATM    4  C14 UNL     1       9.657  -6.488   1.304  1.00  0.00     0.061 C 
HETATM    5  C15 UNL     1       8.915  -6.513   0.025  1.00  0.00     0.046 C 
HETATM    6  C16 UNL     1       8.836  -6.308   2.536  1.00  0.00     0.030 C 
ENDROOT
BRANCH   1   7
HETATM    7  C10 UNL     1       7.862  -4.124   1.863  1.00  0.00    -0.020 C 
HETATM    8  C9  UNL     1       7.790  -2.855   1.531  1.00  0.00     0.006 C 
BRANCH   8   9
HETATM    9  C8  UNL     1       6.769  -2.293   0.606  1.00  0.00     0.177 C 
BRANCH   9  10
HETATM   10  C7  UNL     1       7.148  -0.925   0.159  1.00  0.00     0.012 A 
HETATM   11  C2  UNL     1       6.391   0.193   0.414  1.00  0.00     0.017 A 
HETATM   12  C1  UNL     1       5.133   0.039   1.172  1.00  0.00     0.069 C 
HETATM   13  N1  UNL     1       6.812   1.406  -0.030  1.00  0.00    -0.347 N 
HETATM   14  C3  UNL     1       7.946   1.563  -0.717  1.00  0.00     0.110 A 
ATOM     15  H1  UNL     1       6.240   2.227   0.168  1.00  0.00     0.167 HD
HETATM   16  N2  UNL     1       8.685   0.479  -0.969  1.00  0.00    -0.353 N 
HETATM   17  C6  UNL     1       8.318  -0.756  -0.550  1.00  0.00     0.101 A 
ATOM     18  H2  UNL     1       9.554   0.585  -1.493  1.00  0.00     0.166 HD
BRANCH  14  19
HETATM   19  C4  UNL     1       8.317   2.923  -1.158  1.00  0.00     0.181 C 
HETATM   20  C5  UNL     1       7.635   3.196  -2.462  1.00  0.00     0.047 C 
BRANCH  19  21
HETATM   21  O1  UNL     1       7.994   3.845  -0.174  1.00  0.00    -0.388 OA
ATOM     22  H1  UNL     1       7.187   3.590   0.258  1.00  0.00     0.210 HD
ENDBRANCH  19  21
ENDBRANCH  14  19
ENDBRANCH   9  10
BRANCH   9  23
HETATM   23  O2  UNL     1       6.730  -3.072  -0.568  1.00  0.00    -0.387 OA
ATOM     24  H2  UNL     1       6.398  -3.920  -0.297  1.00  0.00     0.210 HD
ENDBRANCH   9  23
ENDBRANCH   8   9
ENDBRANCH   1   7
BRANCH   2  25
HETATM   25  O3  UNL     1      10.628  -3.205   2.594  1.00  0.00    -0.395 OA
ATOM     26  H3  UNL     1      11.469  -3.010   2.991  1.00  0.00     0.210 HD
ENDBRANCH   2  25
BRANCH   6  27
HETATM   27  C17 UNL     1       7.531  -6.993   2.538  1.00  0.00     0.012 C 
BRANCH  27  28
HETATM   28  C18 UNL     1       7.411  -7.996   3.666  1.00  0.00     0.030 C 
BRANCH  28  29
HETATM   29  C19 UNL     1       8.265  -9.184   3.467  1.00  0.00     0.016 C 
HETATM   30  C20 UNL     1       8.277 -10.100   2.563  1.00  0.00     0.124 C 
HETATM   31  F1  UNL     1       9.284 -11.084   2.768  1.00  0.00    -0.205 F 
BRANCH  30  32
HETATM   32  C21 UNL     1       7.520 -10.217   1.356  1.00  0.00     0.024 A 
HETATM   33  C22 UNL     1       7.920  -9.845   0.118  1.00  0.00     0.016 A 
HETATM   34  C23 UNL     1       7.068  -9.945  -1.002  1.00  0.00     0.001 A 
HETATM   35  C24 UNL     1       5.804 -10.431  -0.850  1.00  0.00     0.002 A 
HETATM   36  C25 UNL     1       5.365 -10.820   0.389  1.00  0.00     0.025 A 
HETATM   37  C26 UNL     1       6.208 -10.715   1.466  1.00  0.00     0.047 A 
HETATM   38 CL1  UNL     1       5.599 -11.222   3.037  1.00  0.00    -0.083 Cl
ENDBRANCH  30  32
ENDBRANCH  28  29
ENDBRANCH  27  28
ENDBRANCH   6  27
BRANCH   4  39
HETATM   39  O4  UNL     1      10.419  -7.667   1.477  1.00  0.00    -0.390 OA
ATOM     40  H4  UNL     1      11.073  -7.538   2.155  1.00  0.00     0.210 HD
ENDBRANCH   4  39
TORSDOF 12
ENDMDL
MODEL 3
REMARK VINA RESULT: -7.878790414      3.235      5.531
REMARK  12 active torsions:
REMARK  status: ('A' for Active; 'I' for Inactive)
REMARK    1  A    between atoms: C3_5  and  C4_6 
REMARK    2  A    between atoms: C4_6  and  O1_8 
REMARK    3  A    between atoms: C7_13  and  C8_14 
REMARK    4  A    between atoms: C8_14  and  O2_15 
REMARK    5  A    between atoms: C8_14  and  C9_17 
REMARK    6  A    between atoms: C10_18  and  C11_19 
REMARK    7  A    between atoms: C12_20  and  O3_21 
REMARK    8  A    between atoms: C14_24  and  O4_26 
REMARK    9  A    between atoms: C16_28  and  C17_29 
REMARK   10  A    between atoms: C17_29  and  C18_30 
REMARK   11  A    between atoms: C18_30  and  C19_31 
REMARK   12  A    between atoms: C20_32  and  C21_34 
ROOT
HETATM    1  C11 UNL     1       8.115 -10.119   2.796  1.00  0.00     0.044 C 
HETATM    2  C12 UNL     1       9.410 -10.568   2.188  1.00  0.00     0.129 C 
HETATM    3  C13 UNL     1       9.475  -9.756   0.929  1.00  0.00     0.070 C 
HETATM    4  C14 UNL     1       8.023  -9.562   0.486  1.00  0.00     0.061 C 
HETATM    5  C15 UNL     1       7.789  -8.113   0.304  1.00  0.00     0.046 C 
HETATM    6  C16 UNL     1       7.233 -10.225   1.563  1.00  0.00     0.030 C 
ENDROOT
BRANCH   1   7
HETATM    7  C10 UNL     1       8.093  -8.800   3.407  1.00  0.00    -0.020 C 
HETATM    8  C9  UNL     1       9.086  -7.987   3.687  1.00  0.00     0.006 C 
BRANCH   8   9
HETATM    9  C8  UNL     1       8.914  -6.651   4.322  1.00  0.00     0.177 C 
BRANCH   9  10
HETATM   10  C7  UNL     1       8.430  -5.650   3.334  1.00  0.00     0.012 A 
HETATM   11  C2  UNL     1       9.267  -4.890   2.553  1.00  0.00     0.017 A 
HETATM   12  C1  UNL     1      10.726  -5.070   2.693  1.00  0.00     0.069 C 
HETATM   13  N1  UNL     1       8.740  -3.997   1.674  1.00  0.00    -0.347 N 
HETATM   14  C3  UNL     1       7.424  -3.820   1.535  1.00  0.00     0.110 A 
ATOM     15  H1  UNL     1       9.374  -3.441   1.100  1.00  0.00     0.167 HD
HETATM   16  N2  UNL     1       6.606  -4.556   2.293  1.00  0.00    -0.353 N 
HETATM   17  C6  UNL     1       7.072  -5.462   3.185  1.00  0.00     0.101 A 
ATOM     18  H2  UNL     1       5.598  -4.431   2.197  1.00  0.00     0.166 HD
BRANCH  14  19
HETATM   19  C4  UNL     1       6.949  -2.824   0.553  1.00  0.00     0.181 C 
HETATM   20  C5  UNL     1       7.975  -1.738   0.453  1.00  0.00     0.047 C 
BRANCH  19  21
HETATM   21  O1  UNL     1       6.694  -3.441  -0.662  1.00  0.00    -0.388 OA
ATOM     22  H1  UNL     1       5.799  -3.272  -0.931  1.00  0.00     0.210 HD
ENDBRANCH  19  21
ENDBRANCH  14  19
ENDBRANCH   9  10
BRANCH   9  23
HETATM   23  O2  UNL     1       7.902  -6.732   5.300  1.00  0.00    -0.387 OA
ATOM     24  H2  UNL     1       7.096  -6.876   4.818  1.00  0.00     0.210 HD
ENDBRANCH   9  23
ENDBRANCH   8   9
ENDBRANCH   1   7
BRANCH   2  25
HETATM   25  O3  UNL     1      10.506 -10.541   2.988  1.00  0.00    -0.395 OA
ATOM     26  H3  UNL     1      11.214  -9.962   2.728  1.00  0.00     0.210 HD
ENDBRANCH   2  25
BRANCH   6  27
HETATM   27  C17 UNL     1       5.847  -9.751   1.720  1.00  0.00     0.012 C 
BRANCH  27  28
HETATM   28  C18 UNL     1       4.837 -10.745   1.186  1.00  0.00     0.030 C 
BRANCH  28  29
HETATM   29  C19 UNL     1       5.290 -12.144   1.315  1.00  0.00     0.016 C 
HETATM   30  C20 UNL     1       5.359 -13.114   0.472  1.00  0.00     0.124 C 
HETATM   31  F1  UNL     1       5.855 -14.322   1.037  1.00  0.00    -0.205 F 
BRANCH  30  32
HETATM   32  C21 UNL     1       5.118 -13.131  -0.937  1.00  0.00     0.024 A 
HETATM   33  C22 UNL     1       6.051 -13.022  -1.912  1.00  0.00     0.016 A 
HETATM   34  C23 UNL     1       5.701 -12.987  -3.278  1.00  0.00     0.001 A 
HETATM   35  C24 UNL     1       4.390 -13.066  -3.643  1.00  0.00     0.002 A 
HETATM   36  C25 UNL     1       3.418 -13.180  -2.683  1.00  0.00     0.025 A 
HETATM   37  C26 UNL     1       3.778 -13.211  -1.360  1.00  0.00     0.047 A 
HETATM   38 CL1  UNL     1       2.496 -13.353  -0.164  1.00  0.00    -0.083 Cl
ENDBRANCH  30  32
ENDBRANCH  28  29
ENDBRANCH  27  28
ENDBRANCH   6  27
BRANCH   4  39
HETATM   39  O4  UNL     1       7.778 -10.274  -0.712  1.00  0.00    -0.390 OA
ATOM     40  H4  UNL     1       6.908 -10.080  -1.038  1.00  0.00     0.210 HD
ENDBRANCH   4  39
TORSDOF 12
ENDMDL
MODEL 4
REMARK VINA RESULT: -7.815445792      2.367      3.726
REMARK  12 active torsions:
REMARK  status: ('A' for Active; 'I' for Inactive)
REMARK    1  A    between atoms: C3_5  and  C4_6 
REMARK    2  A    between atoms: C4_6  and  O1_8 
REMARK    3  A    between atoms: C7_13  and  C8_14 
REMARK    4  A    between atoms: C8_14  and  O2_15 
REMARK    5  A    between atoms: C8_14  and  C9_17 
REMARK    6  A    between atoms: C10_18  and  C11_19 
REMARK    7  A    between atoms: C12_20  and  O3_21 
REMARK    8  A    between atoms: C14_24  and  O4_26 
REMARK    9  A    between atoms: C16_28  and  C17_29 
REMARK   10  A    between atoms: C17_29  and  C18_30 
REMARK   11  A    between atoms: C18_30  and  C19_31 
REMARK   12  A    between atoms: C20_32  and  C21_34 
ROOT
HETATM    1  C11 UNL     1       7.630  -7.390   2.305  1.00  0.00     0.044 C 
HETATM    2  C12 UNL     1       7.858  -7.831   3.721  1.00  0.00     0.129 C 
HETATM    3  C13 UNL     1       9.143  -8.596   3.618  1.00  0.00     0.070 C 
HETATM    4  C14 UNL     1       9.139  -9.226   2.222  1.00  0.00     0.061 C 
HETATM    5  C15 UNL     1      10.395  -8.841   1.543  1.00  0.00     0.046 C 
HETATM    6  C16 UNL     1       7.879  -8.717   1.608  1.00  0.00     0.030 C 
ENDROOT
BRANCH   1   7
HETATM    7  C10 UNL     1       8.465  -6.311   1.805  1.00  0.00    -0.020 C 
HETATM    8  C9  UNL     1       8.403  -5.021   2.042  1.00  0.00     0.006 C 
BRANCH   8   9
HETATM    9  C8  UNL     1       9.336  -4.020   1.454  1.00  0.00     0.177 C 
BRANCH   9  10
HETATM   10  C7  UNL     1       8.612  -2.781   1.064  1.00  0.00     0.012 A 
HETATM   11  C2  UNL     1       7.398  -2.783   0.420  1.00  0.00     0.017 A 
HETATM   12  C1  UNL     1       6.770  -4.079   0.095  1.00  0.00     0.069 C 
HETATM   13  N1  UNL     1       6.804  -1.603   0.099  1.00  0.00    -0.347 N 
HETATM   14  C3  UNL     1       7.358  -0.422   0.385  1.00  0.00     0.110 A 
ATOM     15  H1  UNL     1       5.903  -1.621  -0.377  1.00  0.00     0.167 HD
HETATM   16  N2  UNL     1       8.538  -0.414   1.010  1.00  0.00    -0.353 N 
HETATM   17  C6  UNL     1       9.177  -1.558   1.356  1.00  0.00     0.101 A 
ATOM     18  H2  UNL     1       8.973   0.481   1.235  1.00  0.00     0.166 HD
BRANCH  14  19
HETATM   19  C4  UNL     1       6.634   0.805  -0.005  1.00  0.00     0.181 C 
HETATM   20  C5  UNL     1       5.432   0.942   0.878  1.00  0.00     0.047 C 
BRANCH  19  21
HETATM   21  O1  UNL     1       7.484   1.898   0.063  1.00  0.00    -0.388 OA
ATOM     22  H1  UNL     1       8.383   1.605   0.149  1.00  0.00     0.210 HD
ENDBRANCH  19  21
ENDBRANCH  14  19
ENDBRANCH   9  10
BRANCH   9  23
HETATM   23  O2  UNL     1      10.261  -3.619   2.438  1.00  0.00    -0.387 OA
ATOM     24  H2  UNL     1      11.077  -4.048   2.208  1.00  0.00     0.210 HD
ENDBRANCH   9  23
ENDBRANCH   8   9
ENDBRANCH   1   7
BRANCH   2  25
HETATM   25  O3  UNL     1       7.795  -6.872   4.680  1.00  0.00    -0.395 OA
ATOM     26  H3  UNL     1       8.582  -6.363   4.832  1.00  0.00     0.210 HD
ENDBRANCH   2  25
BRANCH   6  27
HETATM   27  C17 UNL     1       7.855  -8.685   0.136  1.00  0.00     0.012 C 
BRANCH  27  28
HETATM   28  C18 UNL     1       7.531 -10.038  -0.463  1.00  0.00     0.030 C 
BRANCH  28  29
HETATM   29  C19 UNL     1       6.092 -10.208  -0.744  1.00  0.00     0.016 C 
HETATM   30  C20 UNL     1       5.299 -11.216  -0.629  1.00  0.00     0.124 C 
HETATM   31  F1  UNL     1       3.964 -10.935  -1.032  1.00  0.00    -0.205 F 
BRANCH  30  32
HETATM   32  C21 UNL     1       5.529 -12.512  -0.071  1.00  0.00     0.024 A 
HETATM   33  C22 UNL     1       5.706 -13.663  -0.762  1.00  0.00     0.016 A 
HETATM   34  C23 UNL     1       5.864 -14.904  -0.111  1.00  0.00     0.001 A 
HETATM   35  C24 UNL     1       5.841 -14.963   1.250  1.00  0.00     0.002 A 
HETATM   36  C25 UNL     1       5.665 -13.818   1.982  1.00  0.00     0.025 A 
HETATM   37  C26 UNL     1       5.513 -12.620   1.332  1.00  0.00     0.047 A 
HETATM   38 CL1  UNL     1       5.286 -11.177   2.312  1.00  0.00    -0.083 Cl
ENDBRANCH  30  32
ENDBRANCH  28  29
ENDBRANCH  27  28
ENDBRANCH   6  27
BRANCH   4  39
HETATM   39  O4  UNL     1       9.020 -10.632   2.320  1.00  0.00    -0.390 OA
ATOM     40  H4  UNL     1       9.054 -11.025   1.457  1.00  0.00     0.210 HD
ENDBRANCH   4  39
TORSDOF 12
ENDMDL
MODEL 5
REMARK VINA RESULT: -7.757933758      2.468      3.753
REMARK  12 active torsions:
REMARK  status: ('A' for Active; 'I' for Inactive)
REMARK    1  A    between atoms: C3_5  and  C4_6 
REMARK    2  A    between atoms: C4_6  and  O1_8 
REMARK    3  A    between atoms: C7_13  and  C8_14 
REMARK    4  A    between atoms: C8_14  and  O2_15 
REMARK    5  A    between atoms: C8_14  and  C9_17 
REMARK    6  A    between atoms: C10_18  and  C11_19 
REMARK    7  A    between atoms: C12_20  and  O3_21 
REMARK    8  A    between atoms: C14_24  and  O4_26 
REMARK    9  A    between atoms: C16_28  and  C17_29 
REMARK   10  A    between atoms: C17_29  and  C18_30 
REMARK   11  A    between atoms: C18_30  and  C19_31 
REMARK   12  A    between atoms: C20_32  and  C21_34 
ROOT
HETATM    1  C11 UNL     1       7.590  -7.422   2.474  1.00  0.00     0.044 C 
HETATM    2  C12 UNL     1       7.914  -7.861   3.871  1.00  0.00     0.129 C 
HETATM    3  C13 UNL     1       9.159  -8.673   3.674  1.00  0.00     0.070 C 
HETATM    4  C14 UNL     1       9.023  -9.311   2.288  1.00  0.00     0.061 C 
HETATM    5  C15 UNL     1      10.235  -8.975   1.510  1.00  0.00     0.046 C 
HETATM    6  C16 UNL     1       7.737  -8.761   1.771  1.00  0.00     0.030 C 
ENDROOT
BRANCH   1   7
HETATM    7  C10 UNL     1       8.420  -6.376   1.899  1.00  0.00    -0.020 C 
HETATM    8  C9  UNL     1       8.387  -5.077   2.089  1.00  0.00     0.006 C 
BRANCH   8   9
HETATM    9  C8  UNL     1       9.309  -4.115   1.426  1.00  0.00     0.177 C 
BRANCH   9  10
HETATM   10  C7  UNL     1       8.596  -2.865   1.050  1.00  0.00     0.012 A 
HETATM   11  C2  UNL     1       7.375  -2.849   0.419  1.00  0.00     0.017 A 
HETATM   12  C1  UNL     1       6.728  -4.136   0.095  1.00  0.00     0.069 C 
HETATM   13  N1  UNL     1       6.792  -1.661   0.111  1.00  0.00    -0.347 N 
HETATM   14  C3  UNL     1       7.363  -0.488   0.395  1.00  0.00     0.110 A 
ATOM     15  H1  UNL     1       5.885  -1.666  -0.356  1.00  0.00     0.167 HD
HETATM   16  N2  UNL     1       8.550  -0.497   1.008  1.00  0.00    -0.353 N 
HETATM   17  C6  UNL     1       9.179  -1.650   1.341  1.00  0.00     0.101 A 
ATOM     18  H2  UNL     1       8.998   0.392   1.232  1.00  0.00     0.166 HD
BRANCH  14  19
HETATM   19  C4  UNL     1       6.650   0.750   0.019  1.00  0.00     0.181 C 
HETATM   20  C5  UNL     1       5.441   0.879   0.893  1.00  0.00     0.047 C 
BRANCH  19  21
HETATM   21  O1  UNL     1       7.505   1.837   0.113  1.00  0.00    -0.388 OA
ATOM     22  H1  UNL     1       7.075   2.550   0.569  1.00  0.00     0.210 HD
ENDBRANCH  19  21
ENDBRANCH  14  19
ENDBRANCH   9  10
BRANCH   9  23
HETATM   23  O2  UNL     1      10.300  -3.718   2.346  1.00  0.00    -0.387 OA
ATOM     24  H2  UNL     1      10.548  -4.510   2.808  1.00  0.00     0.210 HD
ENDBRANCH   9  23
ENDBRANCH   8   9
ENDBRANCH   1   7
BRANCH   2  25
HETATM   25  O3  UNL     1       7.960  -6.896   4.823  1.00  0.00    -0.395 OA
ATOM     26  H3  UNL     1       8.451  -7.092   5.612  1.00  0.00     0.210 HD
ENDBRANCH   2  25
BRANCH   6  27
HETATM   27  C17 UNL     1       7.598  -8.738   0.305  1.00  0.00     0.012 C 
BRANCH  27  28
HETATM   28  C18 UNL     1       7.349 -10.117  -0.270  1.00  0.00     0.030 C 
BRANCH  28  29
HETATM   29  C19 UNL     1       5.922 -10.366  -0.555  1.00  0.00     0.016 C 
HETATM   30  C20 UNL     1       5.175 -11.403  -0.399  1.00  0.00     0.124 C 
HETATM   31  F1  UNL     1       3.833 -11.204  -0.827  1.00  0.00    -0.205 F 
BRANCH  30  32
HETATM   32  C21 UNL     1       5.457 -12.659   0.222  1.00  0.00     0.024 A 
HETATM   33  C22 UNL     1       5.560 -12.892   1.551  1.00  0.00     0.016 A 
HETATM   34  C23 UNL     1       5.906 -14.161   2.060  1.00  0.00     0.001 A 
HETATM   35  C24 UNL     1       6.145 -15.193   1.202  1.00  0.00     0.002 A 
HETATM   36  C25 UNL     1       6.048 -14.994  -0.150  1.00  0.00     0.025 A 
HETATM   37  C26 UNL     1       5.711 -13.753  -0.627  1.00  0.00     0.047 A 
HETATM   38 CL1  UNL     1       5.604 -13.545  -2.370  1.00  0.00    -0.083 Cl
ENDBRANCH  30  32
ENDBRANCH  28  29
ENDBRANCH  27  28
ENDBRANCH   6  27
BRANCH   4  39
HETATM   39  O4  UNL     1       8.863 -10.710   2.409  1.00  0.00    -0.390 OA
ATOM     40  H4  UNL     1       7.971 -10.918   2.659  1.00  0.00     0.210 HD
ENDBRANCH   4  39
TORSDOF 12
ENDMDL
