MODEL 1
REMARK VINA RESULT: -7.758210280      0.000      0.000
REMARK  14 active torsions:
REMARK  status: ('A' for Active; 'I' for Inactive)
REMARK    1  A    between atoms: O1_2  and  C2_3 
REMARK    2  A    between atoms: C2_3  and  N2_7 
REMARK    3  A    between atoms: C5_10  and  C6_11 
REMARK    4  A    between atoms: C6_11  and  N3_12 
REMARK    5  A    between atoms: N3_12  and  C7_13 
REMARK    6  A    between atoms: N3_12  and  C16_28 
REMARK    7  A    between atoms: C7_13  and  C8_14 
REMARK    8  A    between atoms: C8_14  and  O2_15 
REMARK    9  A    between atoms: O2_15  and  C9_16 
REMARK   10  A    between atoms: C9_16  and  N5_20 
REMARK   11  A    between atoms: N5_20  and  C10_22 
REMARK   12  A    between atoms: C16_28  and  S1_32 
REMARK   13  A    between atoms: S1_32  and  C17_33 
REMARK   14  A    between atoms: C17_33  and  C18_34 
ROOT
HETATM    1  N3  UNL     1       9.022  -5.445   1.369  1.00  0.00    -0.340 N 
ENDROOT
BRANCH   1   2
HETATM    2  C6  UNL     1       8.248  -6.448   0.752  1.00  0.00     0.071 C 
BRANCH   2   3
HETATM    3  C5  UNL     1       8.472  -7.873   1.031  1.00  0.00     0.027 C 
HETATM    4  C4  UNL     1       7.129  -8.426   1.540  1.00  0.00     0.030 C 
HETATM    5  C3  UNL     1       6.935  -9.868   1.239  1.00  0.00     0.127 C 
HETATM    6  N2  UNL     1       6.953 -10.099  -0.185  1.00  0.00    -0.348 N 
HETATM    7  C20 UNL     1       7.837  -9.224  -0.966  1.00  0.00     0.127 C 
HETATM    8  C19 UNL     1       8.949  -8.789  -0.019  1.00  0.00     0.030 C 
BRANCH   6   9
HETATM    9  C2  UNL     1       6.207 -11.092  -0.862  1.00  0.00     0.214 C 
HETATM   10  N1  UNL     1       6.779 -12.079  -1.485  1.00  0.00    -0.365 N 
ATOM     11  H12 UNL     1       6.241 -12.795  -1.973  1.00  0.00     0.159 HD
ATOM     12  H11 UNL     1       7.798 -12.133  -1.482  1.00  0.00     0.159 HD
BRANCH   9  13
HETATM   13  O1  UNL     1       4.806 -11.018  -0.868  1.00  0.00    -0.327 OA
HETATM   14  C1  UNL     1       4.085 -11.875  -1.750  1.00  0.00     0.213 C 
ENDBRANCH   9  13
ENDBRANCH   6   9
ENDBRANCH   2   3
ENDBRANCH   1   2
BRANCH   1  15
HETATM   15  C7  UNL     1       8.546  -4.144   1.739  1.00  0.00     0.157 C 
BRANCH  15  16
HETATM   16  C8  UNL     1       7.593  -3.578   0.681  1.00  0.00     0.199 C 
BRANCH  16  17
HETATM   17  O2  UNL     1       8.165  -2.345   0.285  1.00  0.00    -0.321 OA
BRANCH  17  18
HETATM   18  C9  UNL     1       7.466  -1.169   0.173  1.00  0.00     0.212 C 
HETATM   19  N4  UNL     1       6.301  -1.072   0.669  1.00  0.00    -0.365 N 
ATOM     20  H42 UNL     1       5.861  -1.854   1.155  1.00  0.00     0.159 HD
ATOM     21  H41 UNL     1       5.782  -0.198   0.586  1.00  0.00     0.159 HD
BRANCH  18  22
HETATM   22  N5  UNL     1       8.073  -0.091  -0.495  1.00  0.00    -0.352 N 
ATOM     23  H5  UNL     1       9.092  -0.078  -0.537  1.00  0.00     0.163 HD
BRANCH  22  24
HETATM   24  C10 UNL     1       7.369   0.994  -1.126  1.00  0.00     0.085 C 
HETATM   25  C11 UNL     1       8.097   1.390  -2.414  1.00  0.00     0.025 C 
HETATM   26  C12 UNL     1       7.523   2.700  -2.865  1.00  0.00     0.002 C 
HETATM   27  C13 UNL     1       7.985   3.789  -1.889  1.00  0.00     0.000 C 
HETATM   28  C14 UNL     1       8.316   3.157  -0.552  1.00  0.00     0.002 C 
HETATM   29  C15 UNL     1       7.192   2.185  -0.235  1.00  0.00     0.025 C 
ENDBRANCH  22  24
ENDBRANCH  18  22
ENDBRANCH  17  18
ENDBRANCH  16  17
ENDBRANCH  15  16
ENDBRANCH   1  15
BRANCH   1  30
HETATM   30  C16 UNL     1      10.417  -5.743   1.654  1.00  0.00     0.139 C 
HETATM   31  N6  UNL     1      11.335  -5.521   0.779  1.00  0.00    -0.380 N 
ATOM     32  H62 UNL     1      11.062  -5.131  -0.123  1.00  0.00     0.158 HD
ATOM     33  H61 UNL     1      12.313  -5.730   0.978  1.00  0.00     0.158 HD
BRANCH  30  34
HETATM   34  S1  UNL     1      10.896  -6.423   3.230  1.00  0.00    -0.092 SA
BRANCH  34  35
HETATM   35  C17 UNL     1       9.832  -5.818   4.544  1.00  0.00     0.118 C 
BRANCH  35  36
HETATM   36  C18 UNL     1       8.696  -6.800   4.842  1.00  0.00     0.188 C 
HETATM   37 CL1  UNL     1       9.135  -8.374   4.149  1.00  0.00    -0.107 Cl
HETATM   38 CL2  UNL     1       7.192  -6.222   4.074  1.00  0.00    -0.107 Cl
ENDBRANCH  35  36
ENDBRANCH  34  35
ENDBRANCH  30  34
ENDBRANCH   1  30
TORSDOF 14
ENDMDL
MODEL 2
REMARK VINA RESULT: -7.734967236      1.771      2.432
REMARK  14 active torsions:
REMARK  status: ('A' for Active; 'I' for Inactive)
REMARK    1  A    between atoms: O1_2  and  C2_3 
REMARK    2  A    between atoms: C2_3  and  N2_7 
REMARK    3  A    between atoms: C5_10  and  C6_11 
REMARK    4  A    between atoms: C6_11  and  N3_12 
REMARK    5  A    between atoms: N3_12  and  C7_13 
REMARK    6  A    between atoms: N3_12  and  C16_28 
REMARK    7  A    between atoms: C7_13  and  C8_14 
REMARK    8  A    between atoms: C8_14  and  O2_15 
REMARK    9  A    between atoms: O2_15  and  C9_16 
REMARK   10  A    between atoms: C9_16  and  N5_20 
REMARK   11  A    between atoms: N5_20  and  C10_22 
REMARK   12  A    between atoms: C16_28  and  S1_32 
REMARK   13  A    between atoms: S1_32  and  C17_33 
REMARK   14  A    between atoms: C17_33  and  C18_34 
ROOT
HETATM    1  N3  UNL     1       7.557  -6.163   2.728  1.00  0.00    -0.340 N 
ENDROOT
BRANCH   1   2
HETATM    2  C6  UNL     1       7.796  -7.005   1.623  1.00  0.00     0.071 C 
BRANCH   2   3
HETATM    3  C5  UNL     1       7.916  -8.461   1.777  1.00  0.00     0.027 C 
HETATM    4  C4  UNL     1       6.479  -9.001   1.878  1.00  0.00     0.030 C 
HETATM    5  C3  UNL     1       6.336 -10.391   1.369  1.00  0.00     0.127 C 
HETATM    6  N2  UNL     1       6.700 -10.465  -0.025  1.00  0.00    -0.348 N 
HETATM    7  C20 UNL     1       7.765  -9.553  -0.459  1.00  0.00     0.127 C 
HETATM    8  C19 UNL     1       8.619  -9.279   0.774  1.00  0.00     0.030 C 
BRANCH   6   9
HETATM    9  C2  UNL     1       6.124 -11.340  -0.975  1.00  0.00     0.214 C 
HETATM   10  N1  UNL     1       6.815 -12.272  -1.562  1.00  0.00    -0.365 N 
ATOM     11  H12 UNL     1       6.399 -12.903  -2.247  1.00  0.00     0.159 HD
ATOM     12  H11 UNL     1       7.802 -12.368  -1.325  1.00  0.00     0.159 HD
BRANCH   9  13
HETATM   13  O1  UNL     1       4.766 -11.207  -1.301  1.00  0.00    -0.327 OA
HETATM   14  C1  UNL     1       4.181 -12.167  -2.177  1.00  0.00     0.213 C 
ENDBRANCH   9  13
ENDBRANCH   6   9
ENDBRANCH   2   3
ENDBRANCH   1   2
BRANCH   1  15
HETATM   15  C7  UNL     1       6.692  -5.021   2.725  1.00  0.00     0.157 C 
BRANCH  15  16
HETATM   16  C8  UNL     1       6.478  -4.487   1.304  1.00  0.00     0.199 C 
BRANCH  16  17
HETATM   17  O2  UNL     1       6.565  -3.079   1.418  1.00  0.00    -0.321 OA
BRANCH  17  18
HETATM   18  C9  UNL     1       7.556  -2.318   0.848  1.00  0.00     0.212 C 
HETATM   19  N4  UNL     1       8.774  -2.568   1.101  1.00  0.00    -0.365 N 
ATOM     20  H42 UNL     1       9.045  -3.328   1.725  1.00  0.00     0.159 HD
ATOM     21  H41 UNL     1       9.510  -2.002   0.678  1.00  0.00     0.159 HD
BRANCH  18  22
HETATM   22  N5  UNL     1       7.183  -1.270  -0.013  1.00  0.00    -0.352 N 
ATOM     23  H5  UNL     1       6.455  -1.464  -0.701  1.00  0.00     0.163 HD
BRANCH  22  24
HETATM   24  C10 UNL     1       7.747   0.053   0.001  1.00  0.00     0.085 C 
HETATM   25  C11 UNL     1       6.617   1.087   0.024  1.00  0.00     0.025 C 
HETATM   26  C12 UNL     1       7.229   2.423  -0.275  1.00  0.00     0.002 C 
HETATM   27  C13 UNL     1       7.648   2.441  -1.749  1.00  0.00     0.000 C 
HETATM   28  C14 UNL     1       7.871   1.019  -2.225  1.00  0.00     0.002 C 
HETATM   29  C15 UNL     1       8.675   0.316  -1.146  1.00  0.00     0.025 C 
ENDBRANCH  22  24
ENDBRANCH  18  22
ENDBRANCH  17  18
ENDBRANCH  16  17
ENDBRANCH  15  16
ENDBRANCH   1  15
BRANCH   1  30
HETATM   30  C16 UNL     1       8.242  -6.468   3.975  1.00  0.00     0.139 C 
HETATM   31  N6  UNL     1       7.606  -6.965   4.978  1.00  0.00    -0.380 N 
ATOM     32  H62 UNL     1       6.606  -7.141   4.879  1.00  0.00     0.158 HD
ATOM     33  H61 UNL     1       8.087  -7.179   5.852  1.00  0.00     0.158 HD
BRANCH  30  34
HETATM   34  S1  UNL     1       9.989  -6.162   4.147  1.00  0.00    -0.092 SA
BRANCH  34  35
HETATM   35  C17 UNL     1      10.563  -4.987   2.917  1.00  0.00     0.118 C 
BRANCH  35  36
HETATM   36  C18 UNL     1      11.267  -5.691   1.754  1.00  0.00     0.188 C 
HETATM   37 CL1  UNL     1      10.175  -5.665   0.355  1.00  0.00    -0.107 Cl
HETATM   38 CL2  UNL     1      11.605  -7.385   2.201  1.00  0.00    -0.107 Cl
ENDBRANCH  35  36
ENDBRANCH  34  35
ENDBRANCH  30  34
ENDBRANCH   1  30
TORSDOF 14
ENDMDL
MODEL 3
REMARK VINA RESULT: -7.614546699      1.267      1.718
REMARK  14 active torsions:
REMARK  status: ('A' for Active; 'I' for Inactive)
REMARK    1  A    between atoms: O1_2  and  C2_3 
REMARK    2  A    between atoms: C2_3  and  N2_7 
REMARK    3  A    between atoms: C5_10  and  C6_11 
REMARK    4  A    between atoms: C6_11  and  N3_12 
REMARK    5  A    between atoms: N3_12  and  C7_13 
REMARK    6  A    between atoms: N3_12  and  C16_28 
REMARK    7  A    between atoms: C7_13  and  C8_14 
REMARK    8  A    between atoms: C8_14  and  O2_15 
REMARK    9  A    between atoms: O2_15  and  C9_16 
REMARK   10  A    between atoms: C9_16  and  N5_20 
REMARK   11  A    between atoms: N5_20  and  C10_22 
REMARK   12  A    between atoms: C16_28  and  S1_32 
REMARK   13  A    between atoms: S1_32  and  C17_33 
REMARK   14  A    between atoms: C17_33  and  C18_34 
ROOT
HETATM    1  N3  UNL     1       7.754  -5.358   1.551  1.00  0.00    -0.340 N 
ENDROOT
BRANCH   1   2
HETATM    2  C6  UNL     1       7.894  -6.430   0.647  1.00  0.00     0.071 C 
BRANCH   2   3
HETATM    3  C5  UNL     1       8.177  -7.795   1.110  1.00  0.00     0.027 C 
HETATM    4  C4  UNL     1       6.828  -8.382   1.562  1.00  0.00     0.030 C 
HETATM    5  C3  UNL     1       6.751  -9.859   1.417  1.00  0.00     0.127 C 
HETATM    6  N2  UNL     1       6.920 -10.246   0.037  1.00  0.00    -0.348 N 
HETATM    7  C20 UNL     1       7.819  -9.403  -0.760  1.00  0.00     0.127 C 
HETATM    8  C19 UNL     1       8.807  -8.786   0.222  1.00  0.00     0.030 C 
BRANCH   6   9
HETATM    9  C2  UNL     1       6.303 -11.359  -0.581  1.00  0.00     0.214 C 
HETATM   10  N1  UNL     1       6.917 -12.081  -1.471  1.00  0.00    -0.365 N 
ATOM     11  H12 UNL     1       6.473 -12.884  -1.917  1.00  0.00     0.159 HD
ATOM     12  H11 UNL     1       7.872 -11.830  -1.727  1.00  0.00     0.159 HD
BRANCH   9  13
HETATM   13  O1  UNL     1       4.989 -11.704  -0.229  1.00  0.00    -0.327 OA
HETATM   14  C1  UNL     1       3.929 -11.300  -1.090  1.00  0.00     0.213 C 
ENDBRANCH   9  13
ENDBRANCH   6   9
ENDBRANCH   2   3
ENDBRANCH   1   2
BRANCH   1  15
HETATM   15  C7  UNL     1       8.277  -4.038   1.355  1.00  0.00     0.157 C 
BRANCH  15  16
HETATM   16  C8  UNL     1       7.336  -3.188   0.493  1.00  0.00     0.199 C 
BRANCH  16  17
HETATM   17  O2  UNL     1       7.975  -1.930   0.373  1.00  0.00    -0.321 OA
BRANCH  17  18
HETATM   18  C9  UNL     1       7.313  -0.743   0.180  1.00  0.00     0.212 C 
HETATM   19  N4  UNL     1       6.115  -0.611   0.578  1.00  0.00    -0.365 N 
ATOM     20  H42 UNL     1       5.620  -1.373   1.043  1.00  0.00     0.159 HD
ATOM     21  H41 UNL     1       5.623   0.271   0.434  1.00  0.00     0.159 HD
BRANCH  18  22
HETATM   22  N5  UNL     1       7.996   0.306  -0.460  1.00  0.00    -0.352 N 
ATOM     23  H5  UNL     1       9.012   0.242  -0.514  1.00  0.00     0.163 HD
BRANCH  22  24
HETATM   24  C10 UNL     1       7.373   1.464  -1.046  1.00  0.00     0.085 C 
HETATM   25  C11 UNL     1       7.932   1.683  -2.455  1.00  0.00     0.025 C 
HETATM   26  C12 UNL     1       7.499   3.050  -2.897  1.00  0.00     0.002 C 
HETATM   27  C13 UNL     1       8.276   4.088  -2.080  1.00  0.00     0.000 C 
HETATM   28  C14 UNL     1       8.721   3.467  -0.771  1.00  0.00     0.002 C 
HETATM   29  C15 UNL     1       7.529   2.704  -0.220  1.00  0.00     0.025 C 
ENDBRANCH  22  24
ENDBRANCH  18  22
ENDBRANCH  17  18
ENDBRANCH  16  17
ENDBRANCH  15  16
ENDBRANCH   1  15
BRANCH   1  30
HETATM   30  C16 UNL     1       7.027  -5.602   2.787  1.00  0.00     0.139 C 
HETATM   31  N6  UNL     1       5.753  -5.425   2.854  1.00  0.00    -0.380 N 
ATOM     32  H62 UNL     1       5.263  -5.107   2.018  1.00  0.00     0.158 HD
ATOM     33  H61 UNL     1       5.243  -5.597   3.720  1.00  0.00     0.158 HD
BRANCH  30  34
HETATM   34  S1  UNL     1       7.883  -6.158   4.248  1.00  0.00    -0.092 SA
BRANCH  34  35
HETATM   35  C17 UNL     1       9.604  -5.649   4.220  1.00  0.00     0.118 C 
BRANCH  35  36
HETATM   36  C18 UNL     1      10.528  -6.816   3.856  1.00  0.00     0.188 C 
HETATM   37 CL1  UNL     1      11.223  -6.487   2.257  1.00  0.00    -0.107 Cl
HETATM   38 CL2  UNL     1       9.578  -8.325   3.782  1.00  0.00    -0.107 Cl
ENDBRANCH  35  36
ENDBRANCH  34  35
ENDBRANCH  30  34
ENDBRANCH   1  30
TORSDOF 14
ENDMDL
MODEL 4
REMARK VINA RESULT: -7.612047774      1.256      1.554
REMARK  14 active torsions:
REMARK  status: ('A' for Active; 'I' for Inactive)
REMARK    1  A    between atoms: O1_2  and  C2_3 
REMARK    2  A    between atoms: C2_3  and  N2_7 
REMARK    3  A    between atoms: C5_10  and  C6_11 
REMARK    4  A    between atoms: C6_11  and  N3_12 
REMARK    5  A    between atoms: N3_12  and  C7_13 
REMARK    6  A    between atoms: N3_12  and  C16_28 
REMARK    7  A    between atoms: C7_13  and  C8_14 
REMARK    8  A    between atoms: C8_14  and  O2_15 
REMARK    9  A    between atoms: O2_15  and  C9_16 
REMARK   10  A    between atoms: C9_16  and  N5_20 
REMARK   11  A    between atoms: N5_20  and  C10_22 
REMARK   12  A    between atoms: C16_28  and  S1_32 
REMARK   13  A    between atoms: S1_32  and  C17_33 
REMARK   14  A    between atoms: C17_33  and  C18_34 
ROOT
HETATM    1  N3  UNL     1       8.284  -5.881   1.099  1.00  0.00    -0.340 N 
ENDROOT
BRANCH   1   2
HETATM    2  C6  UNL     1       8.030  -7.035   0.331  1.00  0.00     0.071 C 
BRANCH   2   3
HETATM    3  C5  UNL     1       8.169  -8.383   0.898  1.00  0.00     0.027 C 
HETATM    4  C4  UNL     1       6.905  -8.625   1.740  1.00  0.00     0.030 C 
HETATM    5  C3  UNL     1       6.521 -10.059   1.825  1.00  0.00     0.127 C 
HETATM    6  N2  UNL     1       6.243 -10.593   0.514  1.00  0.00    -0.348 N 
HETATM    7  C20 UNL     1       7.038 -10.035  -0.587  1.00  0.00     0.127 C 
HETATM    8  C19 UNL     1       8.348  -9.560   0.031  1.00  0.00     0.030 C 
BRANCH   6   9
HETATM    9  C2  UNL     1       5.291 -11.598   0.226  1.00  0.00     0.214 C 
HETATM   10  N1  UNL     1       5.640 -12.819  -0.052  1.00  0.00    -0.365 N 
ATOM     11  H12 UNL     1       4.954 -13.544  -0.260  1.00  0.00     0.159 HD
ATOM     12  H11 UNL     1       6.633 -13.052  -0.061  1.00  0.00     0.159 HD
BRANCH   9  13
HETATM   13  O1  UNL     1       3.925 -11.278   0.236  1.00  0.00    -0.327 OA
HETATM   14  C1  UNL     1       3.044 -12.089   1.009  1.00  0.00     0.213 C 
ENDBRANCH   9  13
ENDBRANCH   6   9
ENDBRANCH   2   3
ENDBRANCH   1   2
BRANCH   1  15
HETATM   15  C7  UNL     1       7.289  -4.953   1.551  1.00  0.00     0.157 C 
BRANCH  15  16
HETATM   16  C8  UNL     1       6.909  -3.961   0.446  1.00  0.00     0.199 C 
BRANCH  16  17
HETATM   17  O2  UNL     1       7.032  -2.681   1.036  1.00  0.00    -0.321 OA
BRANCH  17  18
HETATM   18  C9  UNL     1       7.994  -1.762   0.694  1.00  0.00     0.212 C 
HETATM   19  N4  UNL     1       9.077  -1.700   1.354  1.00  0.00    -0.365 N 
ATOM     20  H42 UNL     1       9.257  -2.320   2.143  1.00  0.00     0.159 HD
ATOM     21  H41 UNL     1       9.791  -1.017   1.099  1.00  0.00     0.159 HD
BRANCH  18  22
HETATM   22  N5  UNL     1       7.745  -0.908  -0.395  1.00  0.00    -0.352 N 
ATOM     23  H5  UNL     1       7.149  -1.262  -1.143  1.00  0.00     0.163 HD
BRANCH  22  24
HETATM   24  C10 UNL     1       8.265   0.426  -0.536  1.00  0.00     0.085 C 
HETATM   25  C11 UNL     1       7.150   1.438  -0.258  1.00  0.00     0.025 C 
HETATM   26  C12 UNL     1       7.642   2.780  -0.715  1.00  0.00     0.002 C 
HETATM   27  C13 UNL     1       7.696   2.777  -2.246  1.00  0.00     0.000 C 
HETATM   28  C14 UNL     1       7.831   1.350  -2.741  1.00  0.00     0.002 C 
HETATM   29  C15 UNL     1       8.886   0.683  -1.876  1.00  0.00     0.025 C 
ENDBRANCH  22  24
ENDBRANCH  18  22
ENDBRANCH  17  18
ENDBRANCH  16  17
ENDBRANCH  15  16
ENDBRANCH   1  15
BRANCH   1  30
HETATM   30  C16 UNL     1       9.664  -5.598   1.464  1.00  0.00     0.139 C 
HETATM   31  N6  UNL     1      10.623  -5.773   0.623  1.00  0.00    -0.380 N 
ATOM     32  H62 UNL     1      10.393  -6.118  -0.309  1.00  0.00     0.158 HD
ATOM     33  H61 UNL     1      11.590  -5.575   0.879  1.00  0.00     0.158 HD
BRANCH  30  34
HETATM   34  S1  UNL     1      10.065  -4.995   3.092  1.00  0.00    -0.092 SA
BRANCH  34  35
HETATM   35  C17 UNL     1      10.711  -6.313   4.127  1.00  0.00     0.118 C 
BRANCH  35  36
HETATM   36  C18 UNL     1       9.589  -7.206   4.662  1.00  0.00     0.188 C 
HETATM   37 CL1  UNL     1       9.484  -8.640   3.620  1.00  0.00    -0.107 Cl
HETATM   38 CL2  UNL     1       8.041  -6.321   4.597  1.00  0.00    -0.107 Cl
ENDBRANCH  35  36
ENDBRANCH  34  35
ENDBRANCH  30  34
ENDBRANCH   1  30
TORSDOF 14
ENDMDL
MODEL 5
REMARK VINA RESULT: -7.520285368      1.933      2.502
REMARK  14 active torsions:
REMARK  status: ('A' for Active; 'I' for Inactive)
REMARK    1  A    between atoms: O1_2  and  C2_3 
REMARK    2  A    between atoms: C2_3  and  N2_7 
REMARK    3  A    between atoms: C5_10  and  C6_11 
REMARK    4  A    between atoms: C6_11  and  N3_12 
REMARK    5  A    between atoms: N3_12  and  C7_13 
REMARK    6  A    between atoms: N3_12  and  C16_28 
REMARK    7  A    between atoms: C7_13  and  C8_14 
REMARK    8  A    between atoms: C8_14  and  O2_15 
REMARK    9  A    between atoms: O2_15  and  C9_16 
REMARK   10  A    between atoms: C9_16  and  N5_20 
REMARK   11  A    between atoms: N5_20  and  C10_22 
REMARK   12  A    between atoms: C16_28  and  S1_32 
REMARK   13  A    between atoms: S1_32  and  C17_33 
REMARK   14  A    between atoms: C17_33  and  C18_34 
ROOT
HETATM    1  N3  UNL     1       7.612  -6.806   2.959  1.00  0.00    -0.340 N 
ENDROOT
BRANCH   1   2
HETATM    2  C6  UNL     1       7.088  -7.631   1.943  1.00  0.00     0.071 C 
BRANCH   2   3
HETATM    3  C5  UNL     1       7.398  -9.067   1.882  1.00  0.00     0.027 C 
HETATM    4  C4  UNL     1       6.044  -9.796   1.855  1.00  0.00     0.030 C 
HETATM    5  C3  UNL     1       6.092 -11.099   1.141  1.00  0.00     0.127 C 
HETATM    6  N2  UNL     1       6.478 -10.912  -0.236  1.00  0.00    -0.348 N 
HETATM    7  C20 UNL     1       7.419  -9.816  -0.496  1.00  0.00     0.127 C 
HETATM    8  C19 UNL     1       8.214  -9.624   0.790  1.00  0.00     0.030 C 
BRANCH   6   9
HETATM    9  C2  UNL     1       6.034 -11.700  -1.324  1.00  0.00     0.214 C 
HETATM   10  N1  UNL     1       6.800 -12.581  -1.895  1.00  0.00    -0.365 N 
ATOM     11  H12 UNL     1       6.480 -13.149  -2.680  1.00  0.00     0.159 HD
ATOM     12  H11 UNL     1       7.749 -12.702  -1.544  1.00  0.00     0.159 HD
BRANCH   9  13
HETATM   13  O1  UNL     1       4.728 -11.533  -1.809  1.00  0.00    -0.327 OA
HETATM   14  C1  UNL     1       4.185 -12.540  -2.657  1.00  0.00     0.213 C 
ENDBRANCH   9  13
ENDBRANCH   6   9
ENDBRANCH   2   3
ENDBRANCH   1   2
BRANCH   1  15
HETATM   15  C7  UNL     1       7.125  -5.502   3.297  1.00  0.00     0.157 C 
BRANCH  15  16
HETATM   16  C8  UNL     1       6.414  -4.846   2.107  1.00  0.00     0.199 C 
BRANCH  16  17
HETATM   17  O2  UNL     1       7.142  -3.661   1.845  1.00  0.00    -0.321 OA
BRANCH  17  18
HETATM   18  C9  UNL     1       7.109  -2.982   0.652  1.00  0.00     0.212 C 
HETATM   19  N4  UNL     1       6.622  -3.535  -0.381  1.00  0.00    -0.365 N 
ATOM     20  H42 UNL     1       6.249  -4.485  -0.352  1.00  0.00     0.159 HD
ATOM     21  H41 UNL     1       6.597  -3.031  -1.267  1.00  0.00     0.159 HD
BRANCH  18  22
HETATM   22  N5  UNL     1       7.623  -1.673   0.614  1.00  0.00    -0.352 N 
ATOM     23  H5  UNL     1       8.370  -1.442   1.268  1.00  0.00     0.163 HD
BRANCH  22  24
HETATM   24  C10 UNL     1       7.176  -0.635  -0.277  1.00  0.00     0.085 C 
HETATM   25  C11 UNL     1       8.382   0.182  -0.749  1.00  0.00     0.025 C 
HETATM   26  C12 UNL     1       7.851   1.420  -1.409  1.00  0.00     0.002 C 
HETATM   27  C13 UNL     1       7.256   2.325  -0.324  1.00  0.00     0.000 C 
HETATM   28  C14 UNL     1       6.860   1.483   0.872  1.00  0.00     0.002 C 
HETATM   29  C15 UNL     1       6.139   0.262   0.329  1.00  0.00     0.025 C 
ENDBRANCH  22  24
ENDBRANCH  18  22
ENDBRANCH  17  18
ENDBRANCH  16  17
ENDBRANCH  15  16
ENDBRANCH   1  15
BRANCH   1  30
HETATM   30  C16 UNL     1       8.740  -7.309   3.728  1.00  0.00     0.139 C 
HETATM   31  N6  UNL     1       8.714  -8.483   4.256  1.00  0.00    -0.380 N 
ATOM     32  H62 UNL     1       7.880  -9.055   4.124  1.00  0.00     0.158 HD
ATOM     33  H61 UNL     1       9.505  -8.835   4.795  1.00  0.00     0.158 HD
BRANCH  30  34
HETATM   34  S1  UNL     1      10.197  -6.309   3.958  1.00  0.00    -0.092 SA
BRANCH  34  35
HETATM   35  C17 UNL     1      11.323  -6.478   2.570  1.00  0.00     0.118 C 
BRANCH  35  36
HETATM   36  C18 UNL     1      10.972  -5.504   1.442  1.00  0.00     0.188 C 
HETATM   37 CL1  UNL     1      10.253  -4.055   2.172  1.00  0.00    -0.107 Cl
HETATM   38 CL2  UNL     1       9.779  -6.262   0.351  1.00  0.00    -0.107 Cl
ENDBRANCH  35  36
ENDBRANCH  34  35
ENDBRANCH  30  34
ENDBRANCH   1  30
TORSDOF 14
ENDMDL
