MODEL 1
REMARK VINA RESULT: -6.158722335      0.000      0.000
REMARK  10 active torsions:
REMARK  status: ('A' for Active; 'I' for Inactive)
REMARK    1  A    between atoms: C2_2  and  C3_3 
REMARK    2  A    between atoms: C3_3  and  C4_4 
REMARK    3  A    between atoms: C4_4  and  C5_5 
REMARK    4  A    between atoms: C5_5  and  C6_6 
REMARK    5  A    between atoms: C6_6  and  C7_7 
REMARK    6  A    between atoms: C7_7  and  C9_9 
REMARK    7  A    between atoms: C19_23  and  O4_24 
REMARK    8  A    between atoms: C19_23  and  C20_26 
REMARK    9  A    between atoms: C23_29  and  C24_30 
REMARK   10  A    between atoms: C28_36  and  O7_37 
ROOT
HETATM    1  C9  UNL     1     -27.284  -2.596  -7.181  1.00  0.00     0.023 C 
HETATM    2  C10 UNL     1     -26.839  -3.637  -6.236  1.00  0.00     0.076 C 
HETATM    3  C11 UNL     1     -27.732  -4.176  -5.152  1.00  0.00     0.029 C 
HETATM    4  C12 UNL     1     -26.215  -4.898  -6.688  1.00  0.00     0.270 C 
HETATM    5  O1  UNL     1     -26.353  -5.902  -7.418  1.00  0.00    -0.264 OA
HETATM    6  O2  UNL     1     -25.144  -4.540  -5.832  1.00  0.00    -0.313 OA
HETATM    7  C13 UNL     1     -25.573  -3.174  -5.716  1.00  0.00     0.159 C 
HETATM    8  C14 UNL     1     -25.065  -2.218  -6.792  1.00  0.00    -0.002 C 
HETATM    9  C15 UNL     1     -24.420  -3.139  -7.765  1.00  0.00     0.019 C 
HETATM   10  C16 UNL     1     -23.939  -1.481  -6.210  1.00  0.00     0.040 C 
HETATM   11  C17 UNL     1     -24.000  -0.109  -5.726  1.00  0.00     0.156 C 
HETATM   12 CL1  UNL     1     -23.239   0.210  -4.156  1.00  0.00    -0.117 Cl
HETATM   13  C18 UNL     1     -25.336   0.476  -5.917  1.00  0.00     0.180 C 
HETATM   14  O3  UNL     1     -25.380   1.682  -5.702  1.00  0.00    -0.293 OA
HETATM   15  C19 UNL     1     -26.543  -0.289  -6.333  1.00  0.00     0.132 C 
HETATM   16  C23 UNL     1     -26.321  -1.419  -7.267  1.00  0.00     0.021 C 
ENDROOT
BRANCH  16  17
HETATM   17  C24 UNL     1     -25.975  -1.020  -8.699  1.00  0.00     0.052 C 
HETATM   18  C25 UNL     1     -26.926  -1.253  -9.822  1.00  0.00     0.186 C 
HETATM   19  O5  UNL     1     -27.768  -0.193 -10.212  1.00  0.00    -0.321 OA
HETATM   20  C26 UNL     1     -27.092   0.916 -10.786  1.00  0.00     0.261 C 
HETATM   21  O6  UNL     1     -27.668   1.825 -11.406  1.00  0.00    -0.265 OA
HETATM   22  C27 UNL     1     -25.668   0.753 -10.495  1.00  0.00     0.143 C 
HETATM   23  C28 UNL     1     -25.403   0.275  -9.028  1.00  0.00     0.134 C 
BRANCH  23  24
HETATM   24  O7  UNL     1     -23.985   0.342  -9.189  1.00  0.00    -0.395 OA
ATOM     25  H7  UNL     1     -23.523   1.008  -8.694  1.00  0.00     0.210 HD
ENDBRANCH  23  24
ENDBRANCH  16  17
BRANCH   1  26
HETATM   26  C7  UNL     1     -28.680  -2.635  -7.585  1.00  0.00    -0.012 C 
HETATM   27  C8  UNL     1     -29.863  -2.726  -6.667  1.00  0.00     0.010 C 
BRANCH  26  28
HETATM   28  C6  UNL     1     -29.005  -3.978  -8.321  1.00  0.00     0.005 C 
BRANCH  28  29
HETATM   29  C5  UNL     1     -30.189  -4.669  -7.715  1.00  0.00     0.000 C 
BRANCH  29  30
HETATM   30  C4  UNL     1     -29.924  -6.149  -7.733  1.00  0.00     0.000 C 
BRANCH  30  31
HETATM   31  C3  UNL     1     -29.475  -6.622  -9.069  1.00  0.00    -0.000 C 
BRANCH  31  32
HETATM   32  C2  UNL     1     -29.129  -8.106  -8.932  1.00  0.00    -0.005 C 
HETATM   33  C1  UNL     1     -27.909  -8.386  -9.764  1.00  0.00     0.005 C 
ENDBRANCH  31  32
ENDBRANCH  30  31
ENDBRANCH  29  30
ENDBRANCH  28  29
ENDBRANCH  26  28
ENDBRANCH   1  26
BRANCH  15  34
HETATM   34  O4  UNL     1     -27.222   0.655  -7.213  1.00  0.00    -0.381 OA
ATOM     35  H4  UNL     1     -28.021   0.190  -7.432  1.00  0.00     0.211 HD
ENDBRANCH  15  34
BRANCH  15  36
HETATM   36  C20 UNL     1     -27.399  -0.141  -5.194  1.00  0.00     0.020 C 
HETATM   37  C21 UNL     1     -28.465   1.002  -5.311  1.00  0.00     0.013 C 
HETATM   38  C22 UNL     1     -26.893   0.221  -3.800  1.00  0.00     0.013 C 
ENDBRANCH  15  36
TORSDOF 10
ENDMDL
MODEL 2
REMARK VINA RESULT: -6.138751204      2.382      5.308
REMARK  10 active torsions:
REMARK  status: ('A' for Active; 'I' for Inactive)
REMARK    1  A    between atoms: C2_2  and  C3_3 
REMARK    2  A    between atoms: C3_3  and  C4_4 
REMARK    3  A    between atoms: C4_4  and  C5_5 
REMARK    4  A    between atoms: C5_5  and  C6_6 
REMARK    5  A    between atoms: C6_6  and  C7_7 
REMARK    6  A    between atoms: C7_7  and  C9_9 
REMARK    7  A    between atoms: C19_23  and  O4_24 
REMARK    8  A    between atoms: C19_23  and  C20_26 
REMARK    9  A    between atoms: C23_29  and  C24_30 
REMARK   10  A    between atoms: C28_36  and  O7_37 
ROOT
HETATM    1  C9  UNL     1     -27.997  -0.599  -6.232  1.00  0.00     0.023 C 
HETATM    2  C10 UNL     1     -28.073  -1.770  -5.340  1.00  0.00     0.076 C 
HETATM    3  C11 UNL     1     -27.878  -1.663  -3.852  1.00  0.00     0.029 C 
HETATM    4  C12 UNL     1     -29.210  -2.713  -5.370  1.00  0.00     0.270 C 
HETATM    5  O1  UNL     1     -30.452  -2.819  -5.286  1.00  0.00    -0.264 OA
HETATM    6  O2  UNL     1     -28.227  -3.713  -5.576  1.00  0.00    -0.313 OA
HETATM    7  C13 UNL     1     -27.207  -2.765  -5.930  1.00  0.00     0.159 C 
HETATM    8  C14 UNL     1     -27.145  -2.366  -7.402  1.00  0.00    -0.002 C 
HETATM    9  C15 UNL     1     -28.375  -2.989  -7.959  1.00  0.00     0.019 C 
HETATM   10  C16 UNL     1     -26.057  -3.140  -8.008  1.00  0.00     0.040 C 
HETATM   11  C17 UNL     1     -24.736  -2.615  -8.326  1.00  0.00     0.156 C 
HETATM   12 CL1  UNL     1     -23.353  -3.624  -7.863  1.00  0.00    -0.117 Cl
HETATM   13  C18 UNL     1     -24.623  -1.187  -7.992  1.00  0.00     0.180 C 
HETATM   14  O3  UNL     1     -23.600  -0.662  -8.418  1.00  0.00    -0.293 OA
HETATM   15  C19 UNL     1     -25.633  -0.417  -7.217  1.00  0.00     0.132 C 
HETATM   16  C23 UNL     1     -27.051  -0.806  -7.408  1.00  0.00     0.021 C 
ENDROOT
BRANCH  16  17
HETATM   17  C24 UNL     1     -27.657  -0.413  -8.753  1.00  0.00     0.052 C 
HETATM   18  C25 UNL     1     -28.773   0.571  -8.844  1.00  0.00     0.186 C 
HETATM   19  O5  UNL     1     -28.453   1.917  -9.108  1.00  0.00    -0.321 OA
HETATM   20  C26 UNL     1     -27.910   2.152 -10.399  1.00  0.00     0.261 C 
HETATM   21  O6  UNL     1     -27.797   3.282 -10.901  1.00  0.00    -0.265 OA
HETATM   22  C27 UNL     1     -27.538   0.851 -10.955  1.00  0.00     0.143 C 
HETATM   23  C28 UNL     1     -26.839  -0.076  -9.905  1.00  0.00     0.134 C 
BRANCH  23  24
HETATM   24  O7  UNL     1     -26.607  -1.107 -10.867  1.00  0.00    -0.395 OA
ATOM     25  H7  UNL     1     -25.777  -1.565 -10.822  1.00  0.00     0.210 HD
ENDBRANCH  23  24
ENDBRANCH  16  17
BRANCH   1  26
HETATM   26  C7  UNL     1     -28.493   0.661  -5.700  1.00  0.00    -0.012 C 
HETATM   27  C8  UNL     1     -27.888   1.442  -4.571  1.00  0.00     0.010 C 
BRANCH  26  28
HETATM   28  C6  UNL     1     -29.863   0.452  -4.972  1.00  0.00     0.005 C 
BRANCH  28  29
HETATM   29  C5  UNL     1     -30.003   1.358  -3.786  1.00  0.00     0.000 C 
BRANCH  29  30
HETATM   30  C4  UNL     1     -31.470   1.529  -3.501  1.00  0.00     0.000 C 
BRANCH  30  31
HETATM   31  C3  UNL     1     -31.814   2.935  -3.159  1.00  0.00    -0.000 C 
BRANCH  31  32
HETATM   32  C2  UNL     1     -30.510   3.734  -3.158  1.00  0.00    -0.005 C 
HETATM   33  C1  UNL     1     -30.758   5.044  -2.464  1.00  0.00     0.005 C 
ENDBRANCH  31  32
ENDBRANCH  30  31
ENDBRANCH  29  30
ENDBRANCH  28  29
ENDBRANCH  26  28
ENDBRANCH   1  26
BRANCH  15  34
HETATM   34  O4  UNL     1     -25.620   0.878  -7.888  1.00  0.00    -0.381 OA
ATOM     35  H4  UNL     1     -24.701   1.117  -7.851  1.00  0.00     0.211 HD
ENDBRANCH  15  34
BRANCH  15  36
HETATM   36  C20 UNL     1     -24.892  -0.039  -6.052  1.00  0.00     0.020 C 
HETATM   37  C21 UNL     1     -23.926   1.180  -6.247  1.00  0.00     0.013 C 
HETATM   38  C22 UNL     1     -23.891  -0.957  -5.354  1.00  0.00     0.013 C 
ENDBRANCH  15  36
TORSDOF 10
ENDMDL
MODEL 3
REMARK VINA RESULT: -6.069183402      2.354      6.039
REMARK  10 active torsions:
REMARK  status: ('A' for Active; 'I' for Inactive)
REMARK    1  A    between atoms: C2_2  and  C3_3 
REMARK    2  A    between atoms: C3_3  and  C4_4 
REMARK    3  A    between atoms: C4_4  and  C5_5 
REMARK    4  A    between atoms: C5_5  and  C6_6 
REMARK    5  A    between atoms: C6_6  and  C7_7 
REMARK    6  A    between atoms: C7_7  and  C9_9 
REMARK    7  A    between atoms: C19_23  and  O4_24 
REMARK    8  A    between atoms: C19_23  and  C20_26 
REMARK    9  A    between atoms: C23_29  and  C24_30 
REMARK   10  A    between atoms: C28_36  and  O7_37 
ROOT
HETATM    1  C9  UNL     1     -27.236   0.094  -7.978  1.00  0.00     0.023 C 
HETATM    2  C10 UNL     1     -26.156  -0.364  -8.871  1.00  0.00     0.076 C 
HETATM    3  C11 UNL     1     -26.421  -0.866 -10.264  1.00  0.00     0.029 C 
HETATM    4  C12 UNL     1     -24.949   0.449  -9.131  1.00  0.00     0.270 C 
HETATM    5  O1  UNL     1     -24.528   1.559  -9.520  1.00  0.00    -0.264 OA
HETATM    6  O2  UNL     1     -24.228  -0.692  -8.697  1.00  0.00    -0.313 OA
HETATM    7  C13 UNL     1     -25.381  -1.303  -8.095  1.00  0.00     0.159 C 
HETATM    8  C14 UNL     1     -25.670  -0.907  -6.649  1.00  0.00    -0.002 C 
HETATM    9  C15 UNL     1     -24.707   0.203  -6.418  1.00  0.00     0.019 C 
HETATM   10  C16 UNL     1     -25.164  -1.990  -5.800  1.00  0.00     0.040 C 
HETATM   11  C17 UNL     1     -25.991  -3.005  -5.162  1.00  0.00     0.156 C 
HETATM   12 CL1  UNL     1     -25.416  -4.679  -5.278  1.00  0.00    -0.117 Cl
HETATM   13  C18 UNL     1     -27.419  -2.801  -5.445  1.00  0.00     0.180 C 
HETATM   14  O3  UNL     1     -28.160  -3.513  -4.776  1.00  0.00    -0.293 OA
HETATM   15  C19 UNL     1     -27.955  -1.831  -6.439  1.00  0.00     0.132 C 
HETATM   16  C23 UNL     1     -27.196  -0.568  -6.607  1.00  0.00     0.021 C 
ENDROOT
BRANCH  16  17
HETATM   17  C24 UNL     1     -27.314   0.420  -5.450  1.00  0.00     0.052 C 
HETATM   18  C25 UNL     1     -28.238   1.587  -5.517  1.00  0.00     0.186 C 
HETATM   19  O5  UNL     1     -29.517   1.458  -4.942  1.00  0.00    -0.321 OA
HETATM   20  C26 UNL     1     -29.517   1.320  -3.529  1.00  0.00     0.261 C 
HETATM   21  O6  UNL     1     -30.534   1.440  -2.827  1.00  0.00    -0.265 OA
HETATM   22  C27 UNL     1     -28.143   1.023  -3.123  1.00  0.00     0.143 C 
HETATM   23  C28 UNL     1     -27.446  -0.013  -4.070  1.00  0.00     0.134 C 
BRANCH  23  24
HETATM   24  O7  UNL     1     -26.258  -0.041  -3.276  1.00  0.00    -0.395 OA
ATOM     25  H7  UNL     1     -25.636  -0.737  -3.450  1.00  0.00     0.210 HD
ENDBRANCH  23  24
ENDBRANCH  16  17
BRANCH   1  26
HETATM   26  C7  UNL     1     -28.358   0.774  -8.605  1.00  0.00    -0.012 C 
HETATM   27  C8  UNL     1     -29.097   0.315  -9.828  1.00  0.00     0.010 C 
BRANCH  26  28
HETATM   28  C6  UNL     1     -27.896   2.122  -9.251  1.00  0.00     0.005 C 
BRANCH  28  29
HETATM   29  C5  UNL     1     -28.367   2.247 -10.669  1.00  0.00     0.000 C 
BRANCH  29  30
HETATM   30  C4  UNL     1     -27.269   2.891 -11.470  1.00  0.00     0.000 C 
BRANCH  30  31
HETATM   31  C3  UNL     1     -26.877   2.070 -12.646  1.00  0.00    -0.000 C 
BRANCH  31  32
HETATM   32  C2  UNL     1     -25.363   2.209 -12.812  1.00  0.00    -0.005 C 
HETATM   33  C1  UNL     1     -24.796   0.856 -13.135  1.00  0.00     0.005 C 
ENDBRANCH  31  32
ENDBRANCH  30  31
ENDBRANCH  29  30
ENDBRANCH  28  29
ENDBRANCH  26  28
ENDBRANCH   1  26
BRANCH  15  34
HETATM   34  O4  UNL     1     -29.154  -1.334  -5.775  1.00  0.00    -0.381 OA
ATOM     35  H4  UNL     1     -28.795  -0.865  -5.031  1.00  0.00     0.211 HD
ENDBRANCH  15  34
BRANCH  15  36
HETATM   36  C20 UNL     1     -28.599  -2.694  -7.382  1.00  0.00     0.020 C 
HETATM   37  C21 UNL     1     -30.051  -3.138  -6.989  1.00  0.00     0.013 C 
HETATM   38  C22 UNL     1     -28.077  -4.079  -7.753  1.00  0.00     0.013 C 
ENDBRANCH  15  36
TORSDOF 10
ENDMDL
MODEL 4
REMARK VINA RESULT: -6.040305938      2.476      4.774
REMARK  10 active torsions:
REMARK  status: ('A' for Active; 'I' for Inactive)
REMARK    1  A    between atoms: C2_2  and  C3_3 
REMARK    2  A    between atoms: C3_3  and  C4_4 
REMARK    3  A    between atoms: C4_4  and  C5_5 
REMARK    4  A    between atoms: C5_5  and  C6_6 
REMARK    5  A    between atoms: C6_6  and  C7_7 
REMARK    6  A    between atoms: C7_7  and  C9_9 
REMARK    7  A    between atoms: C19_23  and  O4_24 
REMARK    8  A    between atoms: C19_23  and  C20_26 
REMARK    9  A    between atoms: C23_29  and  C24_30 
REMARK   10  A    between atoms: C28_36  and  O7_37 
ROOT
HETATM    1  C9  UNL     1     -28.007  -0.603  -6.279  1.00  0.00     0.023 C 
HETATM    2  C10 UNL     1     -28.089  -1.775  -5.387  1.00  0.00     0.076 C 
HETATM    3  C11 UNL     1     -27.914  -1.666  -3.897  1.00  0.00     0.029 C 
HETATM    4  C12 UNL     1     -29.221  -2.722  -5.432  1.00  0.00     0.270 C 
HETATM    5  O1  UNL     1     -30.464  -2.834  -5.364  1.00  0.00    -0.264 OA
HETATM    6  O2  UNL     1     -28.231  -3.718  -5.625  1.00  0.00    -0.313 OA
HETATM    7  C13 UNL     1     -27.211  -2.765  -5.966  1.00  0.00     0.159 C 
HETATM    8  C14 UNL     1     -27.131  -2.366  -7.437  1.00  0.00    -0.002 C 
HETATM    9  C15 UNL     1     -28.352  -2.995  -8.010  1.00  0.00     0.019 C 
HETATM   10  C16 UNL     1     -26.032  -3.136  -8.028  1.00  0.00     0.040 C 
HETATM   11  C17 UNL     1     -24.710  -2.605  -8.330  1.00  0.00     0.156 C 
HETATM   12 CL1  UNL     1     -23.328  -3.608  -7.848  1.00  0.00    -0.117 Cl
HETATM   13  C18 UNL     1     -24.608  -1.177  -7.995  1.00  0.00     0.180 C 
HETATM   14  O3  UNL     1     -23.581  -0.647  -8.407  1.00  0.00    -0.293 OA
HETATM   15  C19 UNL     1     -25.631  -0.411  -7.233  1.00  0.00     0.132 C 
HETATM   16  C23 UNL     1     -27.045  -0.806  -7.442  1.00  0.00     0.021 C 
ENDROOT
BRANCH  16  17
HETATM   17  C24 UNL     1     -27.635  -0.416  -8.795  1.00  0.00     0.052 C 
HETATM   18  C25 UNL     1     -28.755   0.561  -8.901  1.00  0.00     0.186 C 
HETATM   19  O5  UNL     1     -28.439   1.910  -9.160  1.00  0.00    -0.321 OA
HETATM   20  C26 UNL     1     -27.880   2.148 -10.443  1.00  0.00     0.261 C 
HETATM   21  O6  UNL     1     -27.767   3.279 -10.944  1.00  0.00    -0.265 OA
HETATM   22  C27 UNL     1     -27.494   0.850 -10.995  1.00  0.00     0.143 C 
HETATM   23  C28 UNL     1     -26.803  -0.074  -9.936  1.00  0.00     0.134 C 
BRANCH  23  24
HETATM   24  O7  UNL     1     -26.554  -1.103 -10.895  1.00  0.00    -0.395 OA
ATOM     25  H7  UNL     1     -25.673  -1.165 -11.247  1.00  0.00     0.210 HD
ENDBRANCH  23  24
ENDBRANCH  16  17
BRANCH   1  26
HETATM   26  C7  UNL     1     -28.515   0.655  -5.753  1.00  0.00    -0.012 C 
HETATM   27  C8  UNL     1     -27.942   1.426  -4.602  1.00  0.00     0.010 C 
BRANCH  26  28
HETATM   28  C6  UNL     1     -29.907   0.444  -5.068  1.00  0.00     0.005 C 
BRANCH  28  29
HETATM   29  C5  UNL     1     -30.189   1.509  -4.051  1.00  0.00     0.000 C 
BRANCH  29  30
HETATM   30  C4  UNL     1     -31.529   1.220  -3.432  1.00  0.00     0.000 C 
BRANCH  30  31
HETATM   31  C3  UNL     1     -32.018  -0.144  -3.767  1.00  0.00    -0.000 C 
BRANCH  31  32
HETATM   32  C2  UNL     1     -33.520  -0.171  -3.477  1.00  0.00    -0.005 C 
HETATM   33  C1  UNL     1     -33.884   1.093  -2.751  1.00  0.00     0.005 C 
ENDBRANCH  31  32
ENDBRANCH  30  31
ENDBRANCH  29  30
ENDBRANCH  28  29
ENDBRANCH  26  28
ENDBRANCH   1  26
BRANCH  15  34
HETATM   34  O4  UNL     1     -25.615   0.884  -7.904  1.00  0.00    -0.381 OA
ATOM     35  H4  UNL     1     -24.695   0.991  -8.117  1.00  0.00     0.211 HD
ENDBRANCH  15  34
BRANCH  15  36
HETATM   36  C20 UNL     1     -24.907  -0.029  -6.058  1.00  0.00     0.020 C 
HETATM   37  C21 UNL     1     -23.947   1.197  -6.241  1.00  0.00     0.013 C 
HETATM   38  C22 UNL     1     -23.908  -0.941  -5.350  1.00  0.00     0.013 C 
ENDBRANCH  15  36
TORSDOF 10
ENDMDL
MODEL 5
REMARK VINA RESULT: -5.684133440      2.467      5.837
REMARK  10 active torsions:
REMARK  status: ('A' for Active; 'I' for Inactive)
REMARK    1  A    between atoms: C2_2  and  C3_3 
REMARK    2  A    between atoms: C3_3  and  C4_4 
REMARK    3  A    between atoms: C4_4  and  C5_5 
REMARK    4  A    between atoms: C5_5  and  C6_6 
REMARK    5  A    between atoms: C6_6  and  C7_7 
REMARK    6  A    between atoms: C7_7  and  C9_9 
REMARK    7  A    between atoms: C19_23  and  O4_24 
REMARK    8  A    between atoms: C19_23  and  C20_26 
REMARK    9  A    between atoms: C23_29  and  C24_30 
REMARK   10  A    between atoms: C28_36  and  O7_37 
ROOT
HETATM    1  C9  UNL     1     -26.797  -0.201  -7.743  1.00  0.00     0.023 C 
HETATM    2  C10 UNL     1     -25.600  -0.544  -8.534  1.00  0.00     0.076 C 
HETATM    3  C11 UNL     1     -25.676  -1.353  -9.801  1.00  0.00     0.029 C 
HETATM    4  C12 UNL     1     -24.614   0.473  -8.953  1.00  0.00     0.270 C 
HETATM    5  O1  UNL     1     -24.455   1.558  -9.554  1.00  0.00    -0.264 OA
HETATM    6  O2  UNL     1     -23.660  -0.353  -8.307  1.00  0.00    -0.313 OA
HETATM    7  C13 UNL     1     -24.657  -1.099  -7.592  1.00  0.00     0.159 C 
HETATM    8  C14 UNL     1     -25.097  -0.517  -6.251  1.00  0.00    -0.002 C 
HETATM    9  C15 UNL     1     -24.439   0.817  -6.246  1.00  0.00     0.019 C 
HETATM   10  C16 UNL     1     -24.383  -1.262  -5.209  1.00  0.00     0.040 C 
HETATM   11  C17 UNL     1     -24.969  -2.306  -4.380  1.00  0.00     0.156 C 
HETATM   12 CL1  UNL     1     -24.005  -3.780  -4.169  1.00  0.00    -0.117 Cl
HETATM   13  C18 UNL     1     -26.391  -2.515  -4.692  1.00  0.00     0.180 C 
HETATM   14  O3  UNL     1     -26.968  -3.244  -3.893  1.00  0.00    -0.293 OA
HETATM   15  C19 UNL     1     -27.100  -1.913  -5.854  1.00  0.00     0.132 C 
HETATM   16  C23 UNL     1     -26.659  -0.559  -6.270  1.00  0.00     0.021 C 
ENDROOT
BRANCH  16  17
HETATM   17  C24 UNL     1     -27.062   0.573  -5.328  1.00  0.00     0.052 C 
HETATM   18  C25 UNL     1     -28.241   1.438  -5.614  1.00  0.00     0.186 C 
HETATM   19  O5  UNL     1     -29.470   1.108  -5.011  1.00  0.00    -0.321 OA
HETATM   20  C26 UNL     1     -29.491   1.250  -3.598  1.00  0.00     0.261 C 
HETATM   21  O6  UNL     1     -30.533   1.246  -2.922  1.00  0.00    -0.265 OA
HETATM   22  C27 UNL     1     -28.103   1.387  -3.157  1.00  0.00     0.143 C 
HETATM   23  C28 UNL     1     -27.137   0.395  -3.888  1.00  0.00     0.134 C 
BRANCH  23  24
HETATM   24  O7  UNL     1     -26.010   0.817  -3.118  1.00  0.00    -0.395 OA
ATOM     25  H7  UNL     1     -25.150   0.704  -3.506  1.00  0.00     0.210 HD
ENDBRANCH  23  24
ENDBRANCH  16  17
BRANCH   1  26
HETATM   26  C7  UNL     1     -28.021   0.052  -8.487  1.00  0.00    -0.012 C 
HETATM   27  C8  UNL     1     -28.371  -0.516  -9.831  1.00  0.00     0.010 C 
BRANCH  26  28
HETATM   28  C6  UNL     1     -28.074   1.538  -8.975  1.00  0.00     0.005 C 
BRANCH  28  29
HETATM   29  C5  UNL     1     -28.396   1.629 -10.436  1.00  0.00     0.000 C 
BRANCH  29  30
HETATM   30  C4  UNL     1     -27.899   2.956 -10.941  1.00  0.00     0.000 C 
BRANCH  30  31
HETATM   31  C3  UNL     1     -26.806   2.803 -11.937  1.00  0.00    -0.000 C 
BRANCH  31  32
HETATM   32  C2  UNL     1     -26.950   1.413 -12.559  1.00  0.00    -0.005 C 
HETATM   33  C1  UNL     1     -25.575   0.872 -12.833  1.00  0.00     0.005 C 
ENDBRANCH  31  32
ENDBRANCH  30  31
ENDBRANCH  29  30
ENDBRANCH  28  29
ENDBRANCH  26  28
ENDBRANCH   1  26
BRANCH  15  34
HETATM   34  O4  UNL     1     -28.411  -1.606  -5.295  1.00  0.00    -0.381 OA
ATOM     35  H4  UNL     1     -28.388  -0.658  -5.231  1.00  0.00     0.211 HD
ENDBRANCH  15  34
BRANCH  15  36
HETATM   36  C20 UNL     1     -27.477  -3.071  -6.608  1.00  0.00     0.020 C 
HETATM   37  C21 UNL     1     -26.288  -3.835  -7.286  1.00  0.00     0.013 C 
HETATM   38  C22 UNL     1     -28.386  -3.020  -7.833  1.00  0.00     0.013 C 
ENDBRANCH  15  36
TORSDOF 10
ENDMDL
