MODEL 1
REMARK VINA RESULT: -9.783461409      0.000      0.000
REMARK  10 active torsions:
REMARK  status: ('A' for Active; 'I' for Inactive)
REMARK    1  A    between atoms: C2_2  and  N1_3 
REMARK    2  A    between atoms: N1_3  and  C3_5 
REMARK    3  A    between atoms: C5_12  and  N4_13 
REMARK    4  A    between atoms: N4_13  and  C6_15 
REMARK    5  A    between atoms: C9_18  and  O1_19 
REMARK    6  A    between atoms: O1_19  and  C10_20 
REMARK    7  A    between atoms: C10_20  and  C11_21 
REMARK    8  A    between atoms: C11_21  and  C14_24 
REMARK    9  A    between atoms: C17_27  and  N5_28 
REMARK   10  A    between atoms: C25_36  and  O2_37 
ROOT
HETATM    1  C6  UNL     1     -27.879   8.801 -15.129  1.00  0.00     0.052 A 
HETATM    2  C7  UNL     1     -27.238   8.408 -13.979  1.00  0.00     0.033 A 
HETATM    3  C8  UNL     1     -27.264   7.069 -13.612  1.00  0.00     0.042 A 
HETATM    4  C9  UNL     1     -27.908   6.100 -14.349  1.00  0.00     0.102 A 
HETATM    5  C25 UNL     1     -28.553   6.556 -15.524  1.00  0.00     0.103 A 
HETATM    6  C27 UNL     1     -28.534   7.866 -15.894  1.00  0.00     0.069 A 
ENDROOT
BRANCH   4   7
HETATM    7  O1  UNL     1     -27.964   4.847 -14.056  1.00  0.00    -0.348 OA
BRANCH   7   8
HETATM    8  C10 UNL     1     -28.298   3.650 -13.684  1.00  0.00     0.185 C 
BRANCH   8   9
HETATM    9  C11 UNL     1     -27.351   2.968 -12.718  1.00  0.00    -0.022 C 
HETATM   10  C12 UNL     1     -27.845   3.021 -11.300  1.00  0.00     0.017 C 
HETATM   11  C13 UNL     1     -26.037   3.764 -12.752  1.00  0.00     0.017 C 
BRANCH   9  12
HETATM   12  C14 UNL     1     -27.015   1.564 -13.123  1.00  0.00    -0.005 C 
HETATM   13  C15 UNL     1     -27.920   0.506 -12.605  1.00  0.00     0.007 C 
HETATM   14  C16 UNL     1     -27.810  -0.754 -13.451  1.00  0.00     0.036 C 
HETATM   15  C17 UNL     1     -26.358  -1.045 -13.784  1.00  0.00     0.223 C 
HETATM   16  C23 UNL     1     -25.493  -0.324 -12.788  1.00  0.00     0.036 C 
HETATM   17  C24 UNL     1     -25.583   1.183 -12.880  1.00  0.00     0.007 C 
BRANCH  15  18
HETATM   18  N5  UNL     1     -26.108  -0.709 -15.140  1.00  0.00     0.093 N 
HETATM   19  C18 UNL     1     -24.783  -0.922 -15.604  1.00  0.00     0.273 C 
HETATM   20  C19 UNL     1     -24.455  -2.404 -15.720  1.00  0.00     0.030 C 
HETATM   21  C20 UNL     1     -25.265  -2.912 -16.920  1.00  0.00     0.003 C 
HETATM   22  C21 UNL     1     -26.421  -1.991 -17.218  1.00  0.00     0.030 C 
HETATM   23  C22 UNL     1     -27.039  -1.404 -15.981  1.00  0.00     0.273 C 
ENDBRANCH  15  18
ENDBRANCH   9  12
ENDBRANCH   8   9
ENDBRANCH   7   8
ENDBRANCH   4   7
BRANCH   5  24
HETATM   24  O2  UNL     1     -29.210   5.624 -16.296  1.00  0.00    -0.353 OA
HETATM   25  C26 UNL     1     -29.412   5.891 -17.667  1.00  0.00     0.210 C 
ENDBRANCH   5  24
BRANCH   1  26
HETATM   26  N4  UNL     1     -27.839  10.173 -15.474  1.00  0.00    -0.191 N 
ATOM     27  H4  UNL     1     -28.722  10.673 -15.576  1.00  0.00     0.184 HD
BRANCH  26  28
HETATM   28  C5  UNL     1     -26.740  10.822 -15.666  1.00  0.00     0.699 A 
HETATM   29  N3  UNL     1     -25.928  10.651 -16.723  1.00  0.00    -0.164 N 
HETATM   30  C4  UNL     1     -24.789  11.344 -16.894  1.00  0.00     0.208 A 
ATOM     31  H3  UNL     1     -26.189   9.962 -17.429  1.00  0.00     0.186 HD
HETATM   32  N2  UNL     1     -24.450  12.247 -15.967  1.00  0.00    -0.165 N 
HETATM   33 CL1  UNL     1     -23.736  11.118 -18.269  1.00  0.00    -0.044 Cl
HETATM   34  C3  UNL     1     -25.243  12.455 -14.875  1.00  0.00     0.695 A 
ATOM     35  H2  UNL     1     -23.590  12.784 -16.077  1.00  0.00     0.186 HD
HETATM   36  N6  UNL     1     -26.373  11.735 -14.753  1.00  0.00    -0.022 N 
ATOM     37  H6  UNL     1     -26.970  11.888 -13.940  1.00  0.00     0.203 HD
BRANCH  34  38
HETATM   38  N1  UNL     1     -24.892  13.335 -13.994  1.00  0.00    -0.226 N 
ATOM     39  H1  UNL     1     -24.971  14.327 -14.219  1.00  0.00     0.177 HD
BRANCH  38  40
HETATM   40  C2  UNL     1     -24.396  12.944 -12.711  1.00  0.00     0.133 C 
HETATM   41  C1  UNL     1     -23.021  12.323 -12.871  1.00  0.00     0.027 C 
ENDBRANCH  38  40
ENDBRANCH  34  38
ENDBRANCH  26  28
ENDBRANCH   1  26
TORSDOF 10
ENDMDL
MODEL 2
REMARK VINA RESULT: -9.368186816      3.053     10.338
REMARK  10 active torsions:
REMARK  status: ('A' for Active; 'I' for Inactive)
REMARK    1  A    between atoms: C2_2  and  N1_3 
REMARK    2  A    between atoms: N1_3  and  C3_5 
REMARK    3  A    between atoms: C5_12  and  N4_13 
REMARK    4  A    between atoms: N4_13  and  C6_15 
REMARK    5  A    between atoms: C9_18  and  O1_19 
REMARK    6  A    between atoms: O1_19  and  C10_20 
REMARK    7  A    between atoms: C10_20  and  C11_21 
REMARK    8  A    between atoms: C11_21  and  C14_24 
REMARK    9  A    between atoms: C17_27  and  N5_28 
REMARK   10  A    between atoms: C25_36  and  O2_37 
ROOT
HETATM    1  C6  UNL     1     -28.381   4.312 -13.788  1.00  0.00     0.052 A 
HETATM    2  C7  UNL     1     -29.596   4.555 -14.382  1.00  0.00     0.033 A 
HETATM    3  C8  UNL     1     -29.646   5.343 -15.524  1.00  0.00     0.042 A 
HETATM    4  C9  UNL     1     -28.528   5.901 -16.103  1.00  0.00     0.102 A 
HETATM    5  C25 UNL     1     -27.301   5.620 -15.453  1.00  0.00     0.103 A 
HETATM    6  C27 UNL     1     -27.239   4.850 -14.333  1.00  0.00     0.069 A 
ENDROOT
BRANCH   4   7
HETATM    7  O1  UNL     1     -28.518   6.638 -17.160  1.00  0.00    -0.348 OA
BRANCH   7   8
HETATM    8  C10 UNL     1     -28.697   7.546 -18.069  1.00  0.00     0.185 C 
BRANCH   8   9
HETATM    9  C11 UNL     1     -28.908   8.958 -17.561  1.00  0.00    -0.022 C 
HETATM   10  C12 UNL     1     -30.171   9.093 -16.760  1.00  0.00     0.017 C 
HETATM   11  C13 UNL     1     -29.079   9.851 -18.800  1.00  0.00     0.017 C 
BRANCH   9  12
HETATM   12  C14 UNL     1     -27.727   9.489 -16.806  1.00  0.00    -0.005 C 
HETATM   13  C15 UNL     1     -26.399   8.987 -17.244  1.00  0.00     0.007 C 
HETATM   14  C16 UNL     1     -25.295   9.930 -16.789  1.00  0.00     0.036 C 
HETATM   15  C17 UNL     1     -25.539  10.387 -15.363  1.00  0.00     0.223 C 
HETATM   16  C23 UNL     1     -26.470   9.405 -14.707  1.00  0.00     0.036 C 
HETATM   17  C24 UNL     1     -27.855   9.379 -15.314  1.00  0.00     0.007 C 
BRANCH  15  18
HETATM   18  N5  UNL     1     -26.001  11.729 -15.370  1.00  0.00     0.093 N 
HETATM   19  C18 UNL     1     -25.617  12.530 -14.263  1.00  0.00     0.273 C 
HETATM   20  C19 UNL     1     -24.129  12.850 -14.285  1.00  0.00     0.030 C 
HETATM   21  C20 UNL     1     -23.939  13.844 -15.438  1.00  0.00     0.003 C 
HETATM   22  C21 UNL     1     -25.084  13.760 -16.415  1.00  0.00     0.030 C 
HETATM   23  C22 UNL     1     -25.603  12.363 -16.595  1.00  0.00     0.273 C 
ENDBRANCH  15  18
ENDBRANCH   9  12
ENDBRANCH   8   9
ENDBRANCH   7   8
ENDBRANCH   4   7
BRANCH   5  24
HETATM   24  O2  UNL     1     -26.155   6.156 -15.995  1.00  0.00    -0.353 OA
HETATM   25  C26 UNL     1     -25.606   5.566 -17.155  1.00  0.00     0.210 C 
ENDBRANCH   5  24
BRANCH   1  26
HETATM   26  N4  UNL     1     -28.362   3.510 -12.622  1.00  0.00    -0.191 N 
ATOM     27  H4  UNL     1     -29.028   3.720 -11.879  1.00  0.00     0.184 HD
BRANCH  26  28
HETATM   28  C5  UNL     1     -27.543   2.527 -12.454  1.00  0.00     0.699 A 
HETATM   29  N3  UNL     1     -26.632   2.453 -11.469  1.00  0.00    -0.164 N 
HETATM   30  C4  UNL     1     -25.793   1.413 -11.321  1.00  0.00     0.208 A 
ATOM     31  H3  UNL     1     -26.575   3.222 -10.801  1.00  0.00     0.186 HD
HETATM   32  N2  UNL     1     -25.871   0.405 -12.197  1.00  0.00    -0.165 N 
HETATM   33 CL1  UNL     1     -24.611   1.321 -10.039  1.00  0.00    -0.044 Cl
HETATM   34  C3  UNL     1     -26.780   0.436 -13.215  1.00  0.00     0.695 A 
ATOM     35  H2  UNL     1     -25.244  -0.394 -12.103  1.00  0.00     0.186 HD
HETATM   36  N6  UNL     1     -27.597   1.500 -13.318  1.00  0.00    -0.022 N 
ATOM     37  H6  UNL     1     -28.279   1.527 -14.076  1.00  0.00     0.203 HD
BRANCH  34  38
HETATM   38  N1  UNL     1     -26.834  -0.552 -14.048  1.00  0.00    -0.226 N 
ATOM     39  H1  UNL     1     -27.739  -0.957 -14.286  1.00  0.00     0.177 HD
BRANCH  38  40
HETATM   40  C2  UNL     1     -25.649  -1.089 -14.642  1.00  0.00     0.133 C 
HETATM   41  C1  UNL     1     -25.624  -2.592 -14.448  1.00  0.00     0.027 C 
ENDBRANCH  38  40
ENDBRANCH  34  38
ENDBRANCH  26  28
ENDBRANCH   1  26
TORSDOF 10
ENDMDL
MODEL 3
REMARK VINA RESULT: -9.255973974      3.290     10.114
REMARK  10 active torsions:
REMARK  status: ('A' for Active; 'I' for Inactive)
REMARK    1  A    between atoms: C2_2  and  N1_3 
REMARK    2  A    between atoms: N1_3  and  C3_5 
REMARK    3  A    between atoms: C5_12  and  N4_13 
REMARK    4  A    between atoms: N4_13  and  C6_15 
REMARK    5  A    between atoms: C9_18  and  O1_19 
REMARK    6  A    between atoms: O1_19  and  C10_20 
REMARK    7  A    between atoms: C10_20  and  C11_21 
REMARK    8  A    between atoms: C11_21  and  C14_24 
REMARK    9  A    between atoms: C17_27  and  N5_28 
REMARK   10  A    between atoms: C25_36  and  O2_37 
ROOT
HETATM    1  C6  UNL     1     -28.222   4.403 -13.944  1.00  0.00     0.052 A 
HETATM    2  C7  UNL     1     -29.475   4.654 -14.447  1.00  0.00     0.033 A 
HETATM    3  C8  UNL     1     -29.604   5.438 -15.585  1.00  0.00     0.042 A 
HETATM    4  C9  UNL     1     -28.528   5.987 -16.246  1.00  0.00     0.102 A 
HETATM    5  C25 UNL     1     -27.259   5.700 -15.688  1.00  0.00     0.103 A 
HETATM    6  C27 UNL     1     -27.120   4.932 -14.572  1.00  0.00     0.069 A 
ENDROOT
BRANCH   4   7
HETATM    7  O1  UNL     1     -28.591   6.720 -17.304  1.00  0.00    -0.348 OA
BRANCH   7   8
HETATM    8  C10 UNL     1     -28.755   7.663 -18.180  1.00  0.00     0.185 C 
BRANCH   8   9
HETATM    9  C11 UNL     1     -28.945   9.059 -17.622  1.00  0.00    -0.022 C 
HETATM   10  C12 UNL     1     -30.218   9.189 -16.834  1.00  0.00     0.017 C 
HETATM   11  C13 UNL     1     -29.081  10.002 -18.828  1.00  0.00     0.017 C 
BRANCH   9  12
HETATM   12  C14 UNL     1     -27.765   9.537 -16.831  1.00  0.00    -0.005 C 
HETATM   13  C15 UNL     1     -26.442   9.021 -17.265  1.00  0.00     0.007 C 
HETATM   14  C16 UNL     1     -25.324   9.922 -16.762  1.00  0.00     0.036 C 
HETATM   15  C17 UNL     1     -25.582  10.337 -15.325  1.00  0.00     0.223 C 
HETATM   16  C23 UNL     1     -26.545   9.355 -14.717  1.00  0.00     0.036 C 
HETATM   17  C24 UNL     1     -27.920   9.380 -15.345  1.00  0.00     0.007 C 
BRANCH  15  18
HETATM   18  N5  UNL     1     -26.014  11.688 -15.294  1.00  0.00     0.093 N 
HETATM   19  C18 UNL     1     -25.566  12.464 -14.192  1.00  0.00     0.273 C 
HETATM   20  C19 UNL     1     -24.074  12.752 -14.271  1.00  0.00     0.030 C 
HETATM   21  C20 UNL     1     -23.909  13.759 -15.417  1.00  0.00     0.003 C 
HETATM   22  C21 UNL     1     -25.095  13.714 -16.347  1.00  0.00     0.030 C 
HETATM   23  C22 UNL     1     -25.652  12.331 -16.525  1.00  0.00     0.273 C 
ENDBRANCH  15  18
ENDBRANCH   9  12
ENDBRANCH   8   9
ENDBRANCH   7   8
ENDBRANCH   4   7
BRANCH   5  24
HETATM   24  O2  UNL     1     -26.152   6.226 -16.315  1.00  0.00    -0.353 OA
HETATM   25  C26 UNL     1     -25.614   5.552 -17.433  1.00  0.00     0.210 C 
ENDBRANCH   5  24
BRANCH   1  26
HETATM   26  N4  UNL     1     -28.122   3.606 -12.779  1.00  0.00    -0.191 N 
ATOM     27  H4  UNL     1     -28.582   3.929 -11.929  1.00  0.00     0.184 HD
BRANCH  26  28
HETATM   28  C5  UNL     1     -27.477   2.488 -12.742  1.00  0.00     0.699 A 
HETATM   29  N3  UNL     1     -27.846   1.373 -13.394  1.00  0.00    -0.164 N 
HETATM   30  C4  UNL     1     -27.151   0.223 -13.335  1.00  0.00     0.208 A 
ATOM     31  H3  UNL     1     -28.694   1.399 -13.961  1.00  0.00     0.186 HD
HETATM   32  N2  UNL     1     -26.040   0.191 -12.591  1.00  0.00    -0.165 N 
HETATM   33 CL1  UNL     1     -27.635  -1.225 -14.183  1.00  0.00    -0.044 Cl
HETATM   34  C3  UNL     1     -25.625   1.300 -11.911  1.00  0.00     0.695 A 
ATOM     35  H2  UNL     1     -25.497  -0.670 -12.533  1.00  0.00     0.186 HD
HETATM   36  N6  UNL     1     -26.357   2.425 -12.004  1.00  0.00    -0.022 N 
ATOM     37  H6  UNL     1     -26.051   3.257 -11.499  1.00  0.00     0.203 HD
BRANCH  34  38
HETATM   38  N1  UNL     1     -24.546   1.242 -11.199  1.00  0.00    -0.226 N 
ATOM     39  H1  UNL     1     -23.645   1.135 -11.665  1.00  0.00     0.177 HD
BRANCH  38  40
HETATM   40  C2  UNL     1     -24.592   1.324  -9.773  1.00  0.00     0.133 C 
HETATM   41  C1  UNL     1     -25.325   0.117  -9.221  1.00  0.00     0.027 C 
ENDBRANCH  38  40
ENDBRANCH  34  38
ENDBRANCH  26  28
ENDBRANCH   1  26
TORSDOF 10
ENDMDL
MODEL 4
REMARK VINA RESULT: -9.197691264      0.951      1.201
REMARK  10 active torsions:
REMARK  status: ('A' for Active; 'I' for Inactive)
REMARK    1  A    between atoms: C2_2  and  N1_3 
REMARK    2  A    between atoms: N1_3  and  C3_5 
REMARK    3  A    between atoms: C5_12  and  N4_13 
REMARK    4  A    between atoms: N4_13  and  C6_15 
REMARK    5  A    between atoms: C9_18  and  O1_19 
REMARK    6  A    between atoms: O1_19  and  C10_20 
REMARK    7  A    between atoms: C10_20  and  C11_21 
REMARK    8  A    between atoms: C11_21  and  C14_24 
REMARK    9  A    between atoms: C17_27  and  N5_28 
REMARK   10  A    between atoms: C25_36  and  O2_37 
ROOT
HETATM    1  C6  UNL     1     -27.154   8.187 -14.646  1.00  0.00     0.052 A 
HETATM    2  C7  UNL     1     -26.099   8.028 -13.781  1.00  0.00     0.033 A 
HETATM    3  C8  UNL     1     -25.805   6.760 -13.296  1.00  0.00     0.042 A 
HETATM    4  C9  UNL     1     -26.525   5.638 -13.640  1.00  0.00     0.102 A 
HETATM    5  C25 UNL     1     -27.602   5.855 -14.533  1.00  0.00     0.103 A 
HETATM    6  C27 UNL     1     -27.900   7.093 -15.015  1.00  0.00     0.069 A 
ENDROOT
BRANCH   4   7
HETATM    7  O1  UNL     1     -26.296   4.441 -13.221  1.00  0.00    -0.348 OA
BRANCH   7   8
HETATM    8  C10 UNL     1     -25.796   3.344 -12.743  1.00  0.00     0.185 C 
BRANCH   8   9
HETATM    9  C11 UNL     1     -26.790   2.371 -12.140  1.00  0.00    -0.022 C 
HETATM   10  C12 UNL     1     -28.183   2.932 -12.099  1.00  0.00     0.017 C 
HETATM   11  C13 UNL     1     -26.364   2.153 -10.680  1.00  0.00     0.017 C 
BRANCH   9  12
HETATM   12  C14 UNL     1     -26.765   1.027 -12.803  1.00  0.00    -0.005 C 
HETATM   13  C15 UNL     1     -28.052   0.285 -12.812  1.00  0.00     0.007 C 
HETATM   14  C16 UNL     1     -28.050  -0.775 -13.904  1.00  0.00     0.036 C 
HETATM   15  C17 UNL     1     -26.717  -1.499 -13.940  1.00  0.00     0.223 C 
HETATM   16  C23 UNL     1     -26.039  -1.303 -12.612  1.00  0.00     0.036 C 
HETATM   17  C24 UNL     1     -25.656   0.131 -12.329  1.00  0.00     0.007 C 
BRANCH  15  18
HETATM   18  N5  UNL     1     -25.968  -1.053 -15.060  1.00  0.00     0.093 N 
HETATM   19  C18 UNL     1     -24.658  -1.585 -15.190  1.00  0.00     0.273 C 
HETATM   20  C19 UNL     1     -24.680  -3.061 -15.561  1.00  0.00     0.030 C 
HETATM   21  C20 UNL     1     -25.156  -3.111 -17.019  1.00  0.00     0.003 C 
HETATM   22  C21 UNL     1     -25.893  -1.849 -17.388  1.00  0.00     0.030 C 
HETATM   23  C22 UNL     1     -26.716  -1.298 -16.260  1.00  0.00     0.273 C 
ENDBRANCH  15  18
ENDBRANCH   9  12
ENDBRANCH   8   9
ENDBRANCH   7   8
ENDBRANCH   4   7
BRANCH   5  24
HETATM   24  O2  UNL     1     -28.352   4.763 -14.908  1.00  0.00    -0.353 OA
HETATM   25  C26 UNL     1     -29.756   4.816 -14.768  1.00  0.00     0.210 C 
ENDBRANCH   5  24
BRANCH   1  26
HETATM   26  N4  UNL     1     -27.433   9.491 -15.118  1.00  0.00    -0.191 N 
ATOM     27  H4  UNL     1     -28.408   9.773 -15.219  1.00  0.00     0.184 HD
BRANCH  26  28
HETATM   28  C5  UNL     1     -26.512  10.342 -15.428  1.00  0.00     0.699 A 
HETATM   29  N3  UNL     1     -25.752  10.274 -16.533  1.00  0.00    -0.164 N 
HETATM   30  C4  UNL     1     -24.801  11.178 -16.827  1.00  0.00     0.208 A 
ATOM     31  H3  UNL     1     -25.902   9.499 -17.179  1.00  0.00     0.186 HD
HETATM   32  N2  UNL     1     -24.606  12.193 -15.978  1.00  0.00    -0.165 N 
HETATM   33 CL1  UNL     1     -23.813  11.085 -18.264  1.00  0.00    -0.044 Cl
HETATM   34  C3  UNL     1     -25.355  12.304 -14.842  1.00  0.00     0.695 A 
ATOM     35  H2  UNL     1     -23.890  12.890 -16.182  1.00  0.00     0.186 HD
HETATM   36  N6  UNL     1     -26.293  11.373 -14.595  1.00  0.00    -0.022 N 
ATOM     37  H6  UNL     1     -26.857  11.452 -13.748  1.00  0.00     0.203 HD
BRANCH  34  38
HETATM   38  N1  UNL     1     -25.145  13.296 -14.038  1.00  0.00    -0.226 N 
ATOM     39  H1  UNL     1     -25.376  14.242 -14.341  1.00  0.00     0.177 HD
BRANCH  38  40
HETATM   40  C2  UNL     1     -24.596  13.092 -12.734  1.00  0.00     0.133 C 
HETATM   41  C1  UNL     1     -23.236  12.433 -12.856  1.00  0.00     0.027 C 
ENDBRANCH  38  40
ENDBRANCH  34  38
ENDBRANCH  26  28
ENDBRANCH   1  26
TORSDOF 10
ENDMDL
MODEL 5
REMARK VINA RESULT: -9.074590337      4.182     11.474
REMARK  10 active torsions:
REMARK  status: ('A' for Active; 'I' for Inactive)
REMARK    1  A    between atoms: C2_2  and  N1_3 
REMARK    2  A    between atoms: N1_3  and  C3_5 
REMARK    3  A    between atoms: C5_12  and  N4_13 
REMARK    4  A    between atoms: N4_13  and  C6_15 
REMARK    5  A    between atoms: C9_18  and  O1_19 
REMARK    6  A    between atoms: O1_19  and  C10_20 
REMARK    7  A    between atoms: C10_20  and  C11_21 
REMARK    8  A    between atoms: C11_21  and  C14_24 
REMARK    9  A    between atoms: C17_27  and  N5_28 
REMARK   10  A    between atoms: C25_36  and  O2_37 
ROOT
HETATM    1  C6  UNL     1     -26.607   1.382 -11.854  1.00  0.00     0.052 A 
HETATM    2  C7  UNL     1     -27.791   2.026 -11.587  1.00  0.00     0.033 A 
HETATM    3  C8  UNL     1     -27.918   3.372 -11.907  1.00  0.00     0.042 A 
HETATM    4  C9  UNL     1     -26.906   4.106 -12.485  1.00  0.00     0.102 A 
HETATM    5  C25 UNL     1     -25.708   3.397 -12.740  1.00  0.00     0.103 A 
HETATM    6  C27 UNL     1     -25.571   2.078 -12.431  1.00  0.00     0.069 A 
ENDROOT
BRANCH   4   7
HETATM    7  O1  UNL     1     -26.971   5.353 -12.802  1.00  0.00    -0.348 OA
BRANCH   7   8
HETATM    8  C10 UNL     1     -26.814   6.539 -13.305  1.00  0.00     0.185 C 
BRANCH   8   9
HETATM    9  C11 UNL     1     -27.343   6.737 -14.711  1.00  0.00    -0.022 C 
HETATM   10  C12 UNL     1     -28.754   6.246 -14.864  1.00  0.00     0.017 C 
HETATM   11  C13 UNL     1     -26.476   5.866 -15.634  1.00  0.00     0.017 C 
BRANCH   9  12
HETATM   12  C14 UNL     1     -27.203   8.149 -15.193  1.00  0.00    -0.005 C 
HETATM   13  C15 UNL     1     -28.437   8.974 -15.146  1.00  0.00     0.007 C 
HETATM   14  C16 UNL     1     -28.090  10.456 -15.162  1.00  0.00     0.036 C 
HETATM   15  C17 UNL     1     -26.988  10.734 -16.167  1.00  0.00     0.223 C 
HETATM   16  C23 UNL     1     -26.951   9.597 -17.151  1.00  0.00     0.036 C 
HETATM   17  C24 UNL     1     -26.548   8.274 -16.540  1.00  0.00     0.007 C 
BRANCH  15  18
HETATM   18  N5  UNL     1     -25.768  10.963 -15.479  1.00  0.00     0.093 N 
HETATM   19  C18 UNL     1     -24.696  11.473 -16.257  1.00  0.00     0.273 C 
HETATM   20  C19 UNL     1     -24.939  12.914 -16.681  1.00  0.00     0.030 C 
HETATM   21  C20 UNL     1     -24.789  13.750 -15.402  1.00  0.00     0.003 C 
HETATM   22  C21 UNL     1     -24.973  12.894 -14.175  1.00  0.00     0.030 C 
HETATM   23  C22 UNL     1     -26.010  11.823 -14.356  1.00  0.00     0.273 C 
ENDBRANCH  15  18
ENDBRANCH   9  12
ENDBRANCH   8   9
ENDBRANCH   7   8
ENDBRANCH   4   7
BRANCH   5  24
HETATM   24  O2  UNL     1     -24.667   4.088 -13.319  1.00  0.00    -0.353 OA
HETATM   25  C26 UNL     1     -23.830   3.420 -14.239  1.00  0.00     0.210 C 
ENDBRANCH   5  24
BRANCH   1  26
HETATM   26  N4  UNL     1     -26.505   0.013 -11.512  1.00  0.00    -0.191 N 
ATOM     27  H4  UNL     1     -26.491  -0.675 -12.264  1.00  0.00     0.184 HD
BRANCH  26  28
HETATM   28  C5  UNL     1     -26.429  -0.407 -10.293  1.00  0.00     0.699 A 
HETATM   29  N3  UNL     1     -25.427  -0.113  -9.447  1.00  0.00    -0.164 N 
HETATM   30  C4  UNL     1     -25.377  -0.567  -8.183  1.00  0.00     0.208 A 
ATOM     31  H3  UNL     1     -24.668   0.481  -9.781  1.00  0.00     0.186 HD
HETATM   32  N2  UNL     1     -26.374  -1.345  -7.748  1.00  0.00    -0.165 N 
HETATM   33 CL1  UNL     1     -24.072  -0.184  -7.087  1.00  0.00    -0.044 Cl
HETATM   34  C3  UNL     1     -27.413  -1.670  -8.571  1.00  0.00     0.695 A 
ATOM     35  H2  UNL     1     -26.356  -1.700  -6.791  1.00  0.00     0.186 HD
HETATM   36  N6  UNL     1     -27.415  -1.190  -9.827  1.00  0.00    -0.022 N 
ATOM     37  H6  UNL     1     -28.190  -1.428 -10.446  1.00  0.00     0.203 HD
BRANCH  34  38
HETATM   38  N1  UNL     1     -28.365  -2.425  -8.125  1.00  0.00    -0.226 N 
ATOM     39  H1  UNL     1     -29.283  -2.018  -7.945  1.00  0.00     0.177 HD
BRANCH  38  40
HETATM   40  C2  UNL     1     -28.155  -3.817  -7.879  1.00  0.00     0.133 C 
HETATM   41  C1  UNL     1     -29.372  -4.599  -8.334  1.00  0.00     0.027 C 
ENDBRANCH  38  40
ENDBRANCH  34  38
ENDBRANCH  26  28
ENDBRANCH   1  26
TORSDOF 10
ENDMDL
