MODEL 1
REMARK VINA RESULT: -8.530192392      0.000      0.000
REMARK  10 active torsions:
REMARK  status: ('A' for Active; 'I' for Inactive)
REMARK    1  A    between atoms: C2_2  and  N1_3 
REMARK    2  A    between atoms: C5_6  and  N2_7 
REMARK    3  A    between atoms: C13_17  and  N4_18 
REMARK    4  A    between atoms: N4_18  and  C14_20 
REMARK    5  A    between atoms: C17_23  and  N5_24 
REMARK    6  A    between atoms: N5_24  and  N6_26 
REMARK    7  A    between atoms: C20_30  and  N7_31 
REMARK    8  A    between atoms: N7_31  and  C21_32 
REMARK    9  A    between atoms: N7_31  and  C23_34 
REMARK   10  A    between atoms: C23_34  and  C24_35 
ROOT
HETATM    1  N2  UNL     1     -27.537   7.290 -16.157  1.00  0.00    -0.361 N 
HETATM    2  C6  UNL     1     -27.929   7.320 -17.536  1.00  0.00     0.134 C 
HETATM    3  C7  UNL     1     -29.226   6.645 -17.830  1.00  0.00    -0.027 C 
HETATM    4  C8  UNL     1     -29.041   5.456 -18.785  1.00  0.00     0.016 C 
HETATM    5  C9  UNL     1     -30.103   7.632 -18.605  1.00  0.00     0.016 C 
HETATM    6  C10 UNL     1     -30.001   6.213 -16.634  1.00  0.00     0.054 C 
HETATM    7  C11 UNL     1     -29.175   5.651 -15.556  1.00  0.00     0.003 A 
HETATM    8  C12 UNL     1     -29.583   4.586 -14.754  1.00  0.00     0.117 A 
HETATM    9  N3  UNL     1     -28.748   4.141 -13.785  1.00  0.00    -0.201 N 
ATOM     10  H3  UNL     1     -29.045   3.363 -13.197  1.00  0.00     0.183 HD
HETATM   11  C13 UNL     1     -27.542   4.691 -13.575  1.00  0.00     0.684 A 
HETATM   12  N8  UNL     1     -27.156   5.717 -14.351  1.00  0.00    -0.176 N 
ATOM     13  H8  UNL     1     -26.240   6.139 -14.194  1.00  0.00     0.186 HD
HETATM   14  C25 UNL     1     -27.940   6.206 -15.331  1.00  0.00     0.127 A 
ENDROOT
BRANCH  11  15
HETATM   15  N4  UNL     1     -26.811   4.203 -12.636  1.00  0.00    -0.189 N 
ATOM     16  H4  UNL     1     -25.904   4.642 -12.480  1.00  0.00     0.184 HD
BRANCH  15  17
HETATM   17  C14 UNL     1     -27.146   3.128 -11.812  1.00  0.00     0.075 A 
HETATM   18  C15 UNL     1     -28.021   3.327 -10.760  1.00  0.00     0.034 A 
HETATM   19  C16 UNL     1     -28.394   2.293  -9.897  1.00  0.00     0.033 A 
HETATM   20  C17 UNL     1     -27.871   1.021 -10.100  1.00  0.00     0.052 A 
HETATM   21  C19 UNL     1     -26.998   0.835 -11.154  1.00  0.00     0.062 A 
HETATM   22  C20 UNL     1     -26.629   1.857 -12.008  1.00  0.00     0.060 A 
BRANCH  20  23
HETATM   23  N5  UNL     1     -28.237  -0.048  -9.239  1.00  0.00    -0.303 N 
HETATM   24  C18 UNL     1     -27.622  -1.349  -9.376  1.00  0.00     0.177 C 
BRANCH  23  25
HETATM   25  N6  UNL     1     -29.202   0.148  -8.248  1.00  0.00    -0.343 N 
ATOM     26  H62 UNL     1     -29.392   1.095  -7.921  1.00  0.00     0.177 HD
ATOM     27  H61 UNL     1     -29.705  -0.648  -7.858  1.00  0.00     0.177 HD
ENDBRANCH  23  25
ENDBRANCH  20  23
BRANCH  22  28
HETATM   28  N7  UNL     1     -25.726   1.560 -13.062  1.00  0.00    -0.378 N 
BRANCH  28  29
HETATM   29  C21 UNL     1     -24.368   2.072 -12.991  1.00  0.00     0.118 C 
HETATM   30  C22 UNL     1     -24.175   3.204 -13.974  1.00  0.00     0.026 C 
ENDBRANCH  28  29
BRANCH  28  31
HETATM   31  C23 UNL     1     -26.056   0.760 -14.224  1.00  0.00     0.138 C 
BRANCH  31  32
HETATM   32  C24 UNL     1     -25.092  -0.374 -14.372  1.00  0.00     0.134 C 
HETATM   33 CL1  UNL     1     -25.797  -1.841 -13.608  1.00  0.00    -0.129 Cl
ENDBRANCH  31  32
ENDBRANCH  28  31
ENDBRANCH  22  28
ENDBRANCH  15  17
ENDBRANCH  11  15
BRANCH   1  34
HETATM   34  C5  UNL     1     -26.721   8.345 -15.553  1.00  0.00     0.089 C 
HETATM   35  C4  UNL     1     -25.659   8.715 -16.555  1.00  0.00     0.055 C 
HETATM   36  C3  UNL     1     -25.392  10.213 -16.583  1.00  0.00     0.274 C 
HETATM   37  N1  UNL     1     -25.521  10.706 -15.242  1.00  0.00     0.088 N 
HETATM   38  C27 UNL     1     -26.900  10.726 -14.797  1.00  0.00     0.274 C 
HETATM   39  C26 UNL     1     -27.647   9.480 -15.205  1.00  0.00     0.055 C 
BRANCH  37  40
HETATM   40  C2  UNL     1     -24.906  12.015 -15.132  1.00  0.00     0.268 C 
HETATM   41  C1  UNL     1     -25.729  13.068 -15.847  1.00  0.00     0.037 C 
ENDBRANCH  37  40
ENDBRANCH   1  34
TORSDOF 10
ENDMDL
MODEL 2
REMARK VINA RESULT: -8.091222788      5.128     10.949
REMARK  10 active torsions:
REMARK  status: ('A' for Active; 'I' for Inactive)
REMARK    1  A    between atoms: C2_2  and  N1_3 
REMARK    2  A    between atoms: C5_6  and  N2_7 
REMARK    3  A    between atoms: C13_17  and  N4_18 
REMARK    4  A    between atoms: N4_18  and  C14_20 
REMARK    5  A    between atoms: C17_23  and  N5_24 
REMARK    6  A    between atoms: N5_24  and  N6_26 
REMARK    7  A    between atoms: C20_30  and  N7_31 
REMARK    8  A    between atoms: N7_31  and  C21_32 
REMARK    9  A    between atoms: N7_31  and  C23_34 
REMARK   10  A    between atoms: C23_34  and  C24_35 
ROOT
HETATM    1  N2  UNL     1     -27.462  -1.445  -7.935  1.00  0.00    -0.361 N 
HETATM    2  C6  UNL     1     -26.633  -1.293  -6.776  1.00  0.00     0.134 C 
HETATM    3  C7  UNL     1     -26.702   0.050  -6.131  1.00  0.00    -0.027 C 
HETATM    4  C8  UNL     1     -25.341   0.761  -6.156  1.00  0.00     0.016 C 
HETATM    5  C9  UNL     1     -27.004  -0.159  -4.644  1.00  0.00     0.016 C 
HETATM    6  C10 UNL     1     -27.753   0.958  -6.670  1.00  0.00     0.054 C 
HETATM    7  C11 UNL     1     -27.902   0.900  -8.131  1.00  0.00     0.003 A 
HETATM    8  C12 UNL     1     -28.187   2.016  -8.916  1.00  0.00     0.117 A 
HETATM    9  N3  UNL     1     -28.306   1.858 -10.256  1.00  0.00    -0.201 N 
ATOM     10  H3  UNL     1     -28.516   2.672 -10.832  1.00  0.00     0.183 HD
HETATM   11  C13 UNL     1     -28.158   0.663 -10.849  1.00  0.00     0.684 A 
HETATM   12  N8  UNL     1     -27.884  -0.408 -10.086  1.00  0.00    -0.176 N 
ATOM     13  H8  UNL     1     -27.772  -1.318 -10.533  1.00  0.00     0.186 HD
HETATM   14  C25 UNL     1     -27.754  -0.316  -8.748  1.00  0.00     0.127 A 
ENDROOT
BRANCH  11  15
HETATM   15  N4  UNL     1     -28.283   0.604 -12.127  1.00  0.00    -0.189 N 
ATOM     16  H4  UNL     1     -29.072   1.104 -12.539  1.00  0.00     0.184 HD
BRANCH  15  17
HETATM   17  C14 UNL     1     -27.440  -0.079 -13.003  1.00  0.00     0.075 A 
HETATM   18  C15 UNL     1     -27.896  -1.227 -13.626  1.00  0.00     0.034 A 
HETATM   19  C16 UNL     1     -27.099  -1.960 -14.512  1.00  0.00     0.033 A 
HETATM   20  C17 UNL     1     -25.807  -1.522 -14.778  1.00  0.00     0.052 A 
HETATM   21  C19 UNL     1     -25.364  -0.374 -14.151  1.00  0.00     0.062 A 
HETATM   22  C20 UNL     1     -26.150   0.350 -13.275  1.00  0.00     0.060 A 
BRANCH  20  23
HETATM   23  N5  UNL     1     -24.979  -2.246 -15.678  1.00  0.00    -0.303 N 
HETATM   24  C18 UNL     1     -24.716  -1.741 -17.006  1.00  0.00     0.177 C 
BRANCH  23  25
HETATM   25  N6  UNL     1     -24.409  -3.459 -15.285  1.00  0.00    -0.343 N 
ATOM     26  H62 UNL     1     -24.958  -4.105 -14.717  1.00  0.00     0.177 HD
ATOM     27  H61 UNL     1     -23.457  -3.691 -15.564  1.00  0.00     0.177 HD
ENDBRANCH  23  25
ENDBRANCH  20  23
BRANCH  22  28
HETATM   28  N7  UNL     1     -25.599   1.518 -12.684  1.00  0.00    -0.378 N 
BRANCH  28  29
HETATM   29  C21 UNL     1     -24.421   1.391 -11.842  1.00  0.00     0.118 C 
HETATM   30  C22 UNL     1     -24.813   1.360 -10.382  1.00  0.00     0.026 C 
ENDBRANCH  28  29
BRANCH  28  31
HETATM   31  C23 UNL     1     -26.125   2.855 -12.866  1.00  0.00     0.138 C 
BRANCH  31  32
HETATM   32  C24 UNL     1     -25.063   3.769 -13.391  1.00  0.00     0.134 C 
HETATM   33 CL1  UNL     1     -25.680   5.458 -13.355  1.00  0.00    -0.129 Cl
ENDBRANCH  31  32
ENDBRANCH  28  31
ENDBRANCH  22  28
ENDBRANCH  15  17
ENDBRANCH  11  15
BRANCH   1  34
HETATM   34  C5  UNL     1     -28.029  -2.736  -8.327  1.00  0.00     0.089 C 
HETATM   35  C4  UNL     1     -27.010  -3.792  -7.988  1.00  0.00     0.055 C 
HETATM   36  C3  UNL     1     -27.652  -5.056  -7.436  1.00  0.00     0.274 C 
HETATM   37  N1  UNL     1     -28.897  -5.250  -8.122  1.00  0.00     0.088 N 
HETATM   38  C27 UNL     1     -29.900  -4.286  -7.717  1.00  0.00     0.274 C 
HETATM   39  C26 UNL     1     -29.332  -2.894  -7.588  1.00  0.00     0.055 C 
BRANCH  37  40
HETATM   40  C2  UNL     1     -29.360  -6.612  -7.937  1.00  0.00     0.268 C 
HETATM   41  C1  UNL     1     -28.946  -7.493  -9.099  1.00  0.00     0.037 C 
ENDBRANCH  37  40
ENDBRANCH   1  34
TORSDOF 10
ENDMDL
MODEL 3
REMARK VINA RESULT: -7.747169119      1.995      4.344
REMARK  10 active torsions:
REMARK  status: ('A' for Active; 'I' for Inactive)
REMARK    1  A    between atoms: C2_2  and  N1_3 
REMARK    2  A    between atoms: C5_6  and  N2_7 
REMARK    3  A    between atoms: C13_17  and  N4_18 
REMARK    4  A    between atoms: N4_18  and  C14_20 
REMARK    5  A    between atoms: C17_23  and  N5_24 
REMARK    6  A    between atoms: N5_24  and  N6_26 
REMARK    7  A    between atoms: C20_30  and  N7_31 
REMARK    8  A    between atoms: N7_31  and  C21_32 
REMARK    9  A    between atoms: N7_31  and  C23_34 
REMARK   10  A    between atoms: C23_34  and  C24_35 
ROOT
HETATM    1  N2  UNL     1     -28.226   6.148 -15.287  1.00  0.00    -0.361 N 
HETATM    2  C6  UNL     1     -28.190   7.530 -14.909  1.00  0.00     0.134 C 
HETATM    3  C7  UNL     1     -27.013   7.919 -14.079  1.00  0.00    -0.027 C 
HETATM    4  C8  UNL     1     -27.440   8.425 -12.693  1.00  0.00     0.016 C 
HETATM    5  C9  UNL     1     -26.347   9.127 -14.745  1.00  0.00     0.016 C 
HETATM    6  C10 UNL     1     -25.968   6.867 -13.930  1.00  0.00     0.054 C 
HETATM    7  C11 UNL     1     -26.505   5.511 -13.751  1.00  0.00     0.003 A 
HETATM    8  C12 UNL     1     -25.919   4.560 -12.916  1.00  0.00     0.117 A 
HETATM    9  N3  UNL     1     -26.490   3.336 -12.820  1.00  0.00    -0.201 N 
ATOM     10  H3  UNL     1     -26.063   2.639 -12.211  1.00  0.00     0.183 HD
HETATM   11  C13 UNL     1     -27.601   3.012 -13.500  1.00  0.00     0.684 A 
HETATM   12  N8  UNL     1     -28.159   3.933 -14.302  1.00  0.00    -0.176 N 
ATOM     13  H8  UNL     1     -29.003   3.690 -14.822  1.00  0.00     0.186 HD
HETATM   14  C25 UNL     1     -27.639   5.167 -14.442  1.00  0.00     0.127 A 
ENDROOT
BRANCH  11  15
HETATM   15  N4  UNL     1     -28.079   1.828 -13.346  1.00  0.00    -0.189 N 
ATOM     16  H4  UNL     1     -28.782   1.522 -14.018  1.00  0.00     0.184 HD
BRANCH  15  17
HETATM   17  C14 UNL     1     -27.724   0.925 -12.344  1.00  0.00     0.075 A 
HETATM   18  C15 UNL     1     -28.321   1.022 -11.100  1.00  0.00     0.034 A 
HETATM   19  C16 UNL     1     -28.007   0.150 -10.053  1.00  0.00     0.033 A 
HETATM   20  C17 UNL     1     -27.064  -0.849 -10.266  1.00  0.00     0.052 A 
HETATM   21  C19 UNL     1     -26.474  -0.936 -11.512  1.00  0.00     0.062 A 
HETATM   22  C20 UNL     1     -26.784  -0.074 -12.547  1.00  0.00     0.060 A 
BRANCH  20  23
HETATM   23  N5  UNL     1     -26.730  -1.750  -9.220  1.00  0.00    -0.303 N 
HETATM   24  C18 UNL     1     -25.360  -1.899  -8.784  1.00  0.00     0.177 C 
BRANCH  23  25
HETATM   25  N6  UNL     1     -27.727  -2.507  -8.601  1.00  0.00    -0.343 N 
ATOM     26  H62 UNL     1     -28.657  -2.540  -9.019  1.00  0.00     0.177 HD
ATOM     27  H61 UNL     1     -27.524  -3.018  -7.742  1.00  0.00     0.177 HD
ENDBRANCH  23  25
ENDBRANCH  20  23
BRANCH  22  28
HETATM   28  N7  UNL     1     -26.121  -0.250 -13.791  1.00  0.00    -0.378 N 
BRANCH  28  29
HETATM   29  C21 UNL     1     -24.770   0.261 -13.946  1.00  0.00     0.118 C 
HETATM   30  C22 UNL     1     -24.284   0.055 -15.362  1.00  0.00     0.026 C 
ENDBRANCH  28  29
BRANCH  28  31
HETATM   31  C23 UNL     1     -26.696  -0.922 -14.938  1.00  0.00     0.138 C 
BRANCH  31  32
HETATM   32  C24 UNL     1     -26.919  -2.372 -14.639  1.00  0.00     0.134 C 
HETATM   33 CL1  UNL     1     -25.341  -3.231 -14.716  1.00  0.00    -0.129 Cl
ENDBRANCH  31  32
ENDBRANCH  28  31
ENDBRANCH  22  28
ENDBRANCH  15  17
ENDBRANCH  11  15
BRANCH   1  34
HETATM   34  C5  UNL     1     -28.856   5.693 -16.528  1.00  0.00     0.089 C 
HETATM   35  C4  UNL     1     -30.120   6.493 -16.705  1.00  0.00     0.055 C 
HETATM   36  C3  UNL     1     -30.361   6.874 -18.158  1.00  0.00     0.274 C 
HETATM   37  N1  UNL     1     -29.908   5.788 -18.978  1.00  0.00     0.088 N 
HETATM   38  C27 UNL     1     -28.462   5.687 -19.002  1.00  0.00     0.274 C 
HETATM   39  C26 UNL     1     -27.855   5.891 -17.635  1.00  0.00     0.055 C 
BRANCH  37  40
HETATM   40  C2  UNL     1     -30.457   5.910 -20.314  1.00  0.00     0.268 C 
HETATM   41  C1  UNL     1     -31.769   5.161 -20.437  1.00  0.00     0.037 C 
ENDBRANCH  37  40
ENDBRANCH   1  34
TORSDOF 10
ENDMDL
MODEL 4
REMARK VINA RESULT: -7.585316871      2.550      9.199
REMARK  10 active torsions:
REMARK  status: ('A' for Active; 'I' for Inactive)
REMARK    1  A    between atoms: C2_2  and  N1_3 
REMARK    2  A    between atoms: C5_6  and  N2_7 
REMARK    3  A    between atoms: C13_17  and  N4_18 
REMARK    4  A    between atoms: N4_18  and  C14_20 
REMARK    5  A    between atoms: C17_23  and  N5_24 
REMARK    6  A    between atoms: N5_24  and  N6_26 
REMARK    7  A    between atoms: C20_30  and  N7_31 
REMARK    8  A    between atoms: N7_31  and  C21_32 
REMARK    9  A    between atoms: N7_31  and  C23_34 
REMARK   10  A    between atoms: C23_34  and  C24_35 
ROOT
HETATM    1  N2  UNL     1     -26.569   0.660 -12.784  1.00  0.00    -0.361 N 
HETATM    2  C6  UNL     1     -26.386  -0.066 -11.561  1.00  0.00     0.134 C 
HETATM    3  C7  UNL     1     -27.078   0.522 -10.377  1.00  0.00    -0.027 C 
HETATM    4  C8  UNL     1     -26.079   0.943  -9.289  1.00  0.00     0.016 C 
HETATM    5  C9  UNL     1     -27.917  -0.583  -9.728  1.00  0.00     0.016 C 
HETATM    6  C10 UNL     1     -27.999   1.654 -10.679  1.00  0.00     0.054 C 
HETATM    7  C11 UNL     1     -27.490   2.584 -11.697  1.00  0.00     0.003 A 
HETATM    8  C12 UNL     1     -27.699   3.961 -11.648  1.00  0.00     0.117 A 
HETATM    9  N3  UNL     1     -27.190   4.734 -12.636  1.00  0.00    -0.201 N 
ATOM     10  H3  UNL     1     -27.342   5.742 -12.603  1.00  0.00     0.183 HD
HETATM   11  C13 UNL     1     -26.491   4.216 -13.659  1.00  0.00     0.684 A 
HETATM   12  N8  UNL     1     -26.294   2.888 -13.700  1.00  0.00    -0.176 N 
ATOM     13  H8  UNL     1     -25.765   2.490 -14.476  1.00  0.00     0.186 HD
HETATM   14  C25 UNL     1     -26.775   2.066 -12.747  1.00  0.00     0.127 A 
ENDROOT
BRANCH  11  15
HETATM   15  N4  UNL     1     -26.039   5.024 -14.552  1.00  0.00    -0.189 N 
ATOM     16  H4  UNL     1     -25.396   4.638 -15.242  1.00  0.00     0.184 HD
BRANCH  15  17
HETATM   17  C14 UNL     1     -26.349   6.379 -14.662  1.00  0.00     0.075 A 
HETATM   18  C15 UNL     1     -25.938   7.252 -13.671  1.00  0.00     0.034 A 
HETATM   19  C16 UNL     1     -26.220   8.621 -13.721  1.00  0.00     0.033 A 
HETATM   20  C17 UNL     1     -26.934   9.125 -14.802  1.00  0.00     0.052 A 
HETATM   21  C19 UNL     1     -27.339   8.243 -15.785  1.00  0.00     0.062 A 
HETATM   22  C20 UNL     1     -27.062   6.890 -15.736  1.00  0.00     0.060 A 
BRANCH  20  23
HETATM   23  N5  UNL     1     -27.229  10.513 -14.879  1.00  0.00    -0.303 N 
HETATM   24  C18 UNL     1     -26.169  11.494 -14.843  1.00  0.00     0.177 C 
BRANCH  23  25
HETATM   25  N6  UNL     1     -28.553  10.943 -14.988  1.00  0.00    -0.343 N 
ATOM     26  H62 UNL     1     -29.294  10.383 -14.567  1.00  0.00     0.177 HD
ATOM     27  H61 UNL     1     -28.772  11.806 -15.485  1.00  0.00     0.177 HD
ENDBRANCH  23  25
ENDBRANCH  20  23
BRANCH  22  28
HETATM   28  N7  UNL     1     -27.522   6.070 -16.800  1.00  0.00    -0.378 N 
BRANCH  28  29
HETATM   29  C21 UNL     1     -26.627   5.791 -17.911  1.00  0.00     0.118 C 
HETATM   30  C22 UNL     1     -25.615   6.902 -18.069  1.00  0.00     0.026 C 
ENDBRANCH  28  29
BRANCH  28  31
HETATM   31  C23 UNL     1     -28.838   5.470 -16.862  1.00  0.00     0.138 C 
BRANCH  31  32
HETATM   32  C24 UNL     1     -29.819   6.417 -17.480  1.00  0.00     0.134 C 
HETATM   33 CL1  UNL     1     -30.229   5.834 -19.131  1.00  0.00    -0.129 Cl
ENDBRANCH  31  32
ENDBRANCH  28  31
ENDBRANCH  22  28
ENDBRANCH  15  17
ENDBRANCH  11  15
BRANCH   1  34
HETATM   34  C5  UNL     1     -26.550   0.004 -14.092  1.00  0.00     0.089 C 
HETATM   35  C4  UNL     1     -25.106  -0.243 -14.445  1.00  0.00     0.055 C 
HETATM   36  C3  UNL     1     -24.904  -1.586 -15.130  1.00  0.00     0.274 C 
HETATM   37  N1  UNL     1     -26.047  -1.833 -15.960  1.00  0.00     0.088 N 
HETATM   38  C27 UNL     1     -27.229  -2.146 -15.182  1.00  0.00     0.274 C 
HETATM   39  C26 UNL     1     -27.368  -1.255 -13.973  1.00  0.00     0.055 C 
BRANCH  37  40
HETATM   40  C2  UNL     1     -25.749  -2.876 -16.922  1.00  0.00     0.268 C 
HETATM   41  C1  UNL     1     -24.259  -3.145 -16.992  1.00  0.00     0.037 C 
ENDBRANCH  37  40
ENDBRANCH   1  34
TORSDOF 10
ENDMDL
MODEL 5
REMARK VINA RESULT: -7.445954938      5.116     11.351
REMARK  10 active torsions:
REMARK  status: ('A' for Active; 'I' for Inactive)
REMARK    1  A    between atoms: C2_2  and  N1_3 
REMARK    2  A    between atoms: C5_6  and  N2_7 
REMARK    3  A    between atoms: C13_17  and  N4_18 
REMARK    4  A    between atoms: N4_18  and  C14_20 
REMARK    5  A    between atoms: C17_23  and  N5_24 
REMARK    6  A    between atoms: N5_24  and  N6_26 
REMARK    7  A    between atoms: C20_30  and  N7_31 
REMARK    8  A    between atoms: N7_31  and  C21_32 
REMARK    9  A    between atoms: N7_31  and  C23_34 
REMARK   10  A    between atoms: C23_34  and  C24_35 
ROOT
HETATM    1  N2  UNL     1     -24.935  -1.696  -7.909  1.00  0.00    -0.361 N 
HETATM    2  C6  UNL     1     -24.072  -1.075  -6.948  1.00  0.00     0.134 C 
HETATM    3  C7  UNL     1     -24.654   0.117  -6.265  1.00  0.00    -0.027 C 
HETATM    4  C8  UNL     1     -23.844   1.389  -6.558  1.00  0.00     0.016 C 
HETATM    5  C9  UNL     1     -24.515  -0.093  -4.754  1.00  0.00     0.016 C 
HETATM    6  C10 UNL     1     -26.096   0.365  -6.544  1.00  0.00     0.054 C 
HETATM    7  C11 UNL     1     -26.485   0.128  -7.942  1.00  0.00     0.003 A 
HETATM    8  C12 UNL     1     -27.424   0.906  -8.618  1.00  0.00     0.117 A 
HETATM    9  N3  UNL     1     -27.714   0.605  -9.906  1.00  0.00    -0.201 N 
ATOM     10  H3  UNL     1     -28.402   1.171 -10.402  1.00  0.00     0.183 HD
HETATM   11  C13 UNL     1     -27.126  -0.416 -10.550  1.00  0.00     0.684 A 
HETATM   12  N8  UNL     1     -26.223  -1.161  -9.892  1.00  0.00    -0.176 N 
ATOM     13  H8  UNL     1     -25.775  -1.938 -10.378  1.00  0.00     0.186 HD
HETATM   14  C25 UNL     1     -25.891  -0.913  -8.611  1.00  0.00     0.127 A 
ENDROOT
BRANCH  11  15
HETATM   15  N4  UNL     1     -27.458  -0.628 -11.774  1.00  0.00    -0.189 N 
ATOM     16  H4  UNL     1     -28.454  -0.718 -11.975  1.00  0.00     0.184 HD
BRANCH  15  17
HETATM   17  C14 UNL     1     -26.582  -0.745 -12.853  1.00  0.00     0.075 A 
HETATM   18  C15 UNL     1     -26.259  -2.002 -13.331  1.00  0.00     0.034 A 
HETATM   19  C16 UNL     1     -25.385  -2.188 -14.407  1.00  0.00     0.033 A 
HETATM   20  C17 UNL     1     -24.819  -1.075 -15.017  1.00  0.00     0.052 A 
HETATM   21  C19 UNL     1     -25.149   0.176 -14.531  1.00  0.00     0.062 A 
HETATM   22  C20 UNL     1     -26.013   0.359 -13.468  1.00  0.00     0.060 A 
BRANCH  20  23
HETATM   23  N5  UNL     1     -23.931  -1.236 -16.115  1.00  0.00    -0.303 N 
HETATM   24  C18 UNL     1     -23.789  -0.195 -17.107  1.00  0.00     0.177 C 
BRANCH  23  25
HETATM   25  N6  UNL     1     -23.185  -2.409 -16.246  1.00  0.00    -0.343 N 
ATOM     26  H62 UNL     1     -22.211  -2.348 -16.543  1.00  0.00     0.177 HD
ATOM     27  H61 UNL     1     -23.613  -3.313 -16.048  1.00  0.00     0.177 HD
ENDBRANCH  23  25
ENDBRANCH  20  23
BRANCH  22  28
HETATM   28  N7  UNL     1     -26.287   1.687 -13.046  1.00  0.00    -0.378 N 
BRANCH  28  29
HETATM   29  C21 UNL     1     -27.624   2.224 -13.236  1.00  0.00     0.118 C 
HETATM   30  C22 UNL     1     -27.978   3.177 -12.118  1.00  0.00     0.026 C 
ENDBRANCH  28  29
BRANCH  28  31
HETATM   31  C23 UNL     1     -25.320   2.564 -12.418  1.00  0.00     0.138 C 
BRANCH  31  32
HETATM   32  C24 UNL     1     -24.599   3.375 -13.449  1.00  0.00     0.134 C 
HETATM   33 CL1  UNL     1     -25.289   5.035 -13.470  1.00  0.00    -0.129 Cl
ENDBRANCH  31  32
ENDBRANCH  28  31
ENDBRANCH  22  28
ENDBRANCH  15  17
ENDBRANCH  11  15
BRANCH   1  34
HETATM   34  C5  UNL     1     -24.870  -3.127  -8.208  1.00  0.00     0.089 C 
HETATM   35  C4  UNL     1     -23.414  -3.513  -8.225  1.00  0.00     0.055 C 
HETATM   36  C3  UNL     1     -23.173  -4.878  -7.597  1.00  0.00     0.274 C 
HETATM   37  N1  UNL     1     -24.290  -5.716  -7.926  1.00  0.00     0.088 N 
HETATM   38  C27 UNL     1     -25.488  -5.337  -7.204  1.00  0.00     0.274 C 
HETATM   39  C26 UNL     1     -25.672  -3.841  -7.152  1.00  0.00     0.055 C 
BRANCH  37  40
HETATM   40  C2  UNL     1     -23.950  -7.108  -7.703  1.00  0.00     0.268 C 
HETATM   41  C1  UNL     1     -25.117  -8.015  -8.038  1.00  0.00     0.037 C 
ENDBRANCH  37  40
ENDBRANCH   1  34
TORSDOF 10
ENDMDL
