MODEL 1
REMARK VINA RESULT: -8.500688075      0.000      0.000
REMARK  8 active torsions:
REMARK  status: ('A' for Active; 'I' for Inactive)
REMARK    1  A    between atoms: C2_2  and  N1_3 
REMARK       I    between atoms: N2_5  and  C3_7 
REMARK    2  A    between atoms: C3_7  and  C4_9 
REMARK    3  A    between atoms: C4_9  and  C5_10 
REMARK    4  A    between atoms: C4_9  and  C6_17 
REMARK    5  A    between atoms: C5_10  and  O2_11 
REMARK    6  A    between atoms: N3_13  and  O3_15 
REMARK    7  A    between atoms: C7_21  and  C8_22 
REMARK    8  A    between atoms: N5_29  and  C14_31 
ROOT
HETATM    1  C4  UNL     1      20.861 -35.307  -8.153  1.00  0.00     0.101 C 
ENDROOT
BRANCH   1   2
HETATM    2  C3  UNL     1      20.041 -35.893  -9.202  1.00  0.00     0.273 C 
HETATM    3  N2  UNL     1      18.630 -36.066  -9.189  1.00  0.00    -0.265 N 
HETATM    4  N1  UNL     1      18.067 -36.988  -8.523  1.00  0.00    -0.286 N 
ATOM      5  H2  UNL     1      18.050 -35.427  -9.732  1.00  0.00     0.190 HD
ATOM      6  H1  UNL     1      18.643 -37.629  -7.977  1.00  0.00     0.188 HD
HETATM    7  O1  UNL     1      20.604 -36.309 -10.270  1.00  0.00    -0.266 OA
BRANCH   4   8
HETATM    8  C2  UNL     1      16.660 -37.150  -8.518  1.00  0.00     0.094 C 
HETATM    9  C1  UNL     1      16.031 -37.928  -9.614  1.00  0.00     0.090 C 
HETATM   10  N5  UNL     1      15.893 -36.655  -7.609  1.00  0.00    -0.322 N 
ATOM     11  H5  UNL     1      14.891 -36.825  -7.690  1.00  0.00     0.169 HD
BRANCH  10  12
HETATM   12  C14 UNL     1      16.342 -35.898  -6.511  1.00  0.00     0.173 C 
HETATM   13  N6  UNL     1      16.282 -36.420  -5.321  1.00  0.00    -0.376 N 
ATOM     14  H62 UNL     1      15.911 -37.364  -5.220  1.00  0.00     0.158 HD
ATOM     15  H61 UNL     1      16.607 -35.871  -4.525  1.00  0.00     0.158 HD
HETATM   16 CL2  UNL     1      16.976 -34.287  -6.682  1.00  0.00    -0.045 Cl
ENDBRANCH  10  12
ENDBRANCH   4   8
ENDBRANCH   1   2
BRANCH   1  17
HETATM   17  C5  UNL     1      21.829 -36.213  -7.550  1.00  0.00     0.174 C 
HETATM   18  N3  UNL     1      22.956 -36.428  -8.086  1.00  0.00    -0.247 N 
ATOM     19  H3  UNL     1      23.203 -35.961  -8.958  1.00  0.00     0.196 HD
BRANCH  17  20
HETATM   20  O2  UNL     1      21.514 -36.857  -6.367  1.00  0.00    -0.344 OA
ATOM     21  H2  UNL     1      20.913 -37.592  -6.381  1.00  0.00     0.219 HD
ENDBRANCH  17  20
BRANCH  18  22
HETATM   22  O3  UNL     1      23.843 -37.287  -7.493  1.00  0.00    -0.288 OA
ATOM     23  H3  UNL     1      24.664 -36.957  -7.146  1.00  0.00     0.244 HD
ENDBRANCH  18  22
ENDBRANCH   1  17
BRANCH   1  24
HETATM   24  C6  UNL     1      21.362 -33.894  -8.441  1.00  0.00     0.247 A 
HETATM   25  O4  UNL     1      21.193 -33.207  -7.181  1.00  0.00    -0.263 OA
HETATM   26  N4  UNL     1      20.377 -32.367  -7.743  1.00  0.00    -0.266 N 
HETATM   27  C7  UNL     1      20.451 -32.894  -8.943  1.00  0.00     0.080 A 
ATOM     28  H4  UNL     1      19.856 -31.570  -7.377  1.00  0.00     0.194 HD
BRANCH  27  29
HETATM   29  C8  UNL     1      19.694 -32.377 -10.102  1.00  0.00     0.013 A 
HETATM   30  C9  UNL     1      18.674 -33.113 -10.665  1.00  0.00     0.015 A 
HETATM   31  C10 UNL     1      17.969 -32.731 -11.807  1.00  0.00     0.001 A 
HETATM   32  C11 UNL     1      18.359 -31.535 -12.367  1.00  0.00     0.002 A 
HETATM   33  C12 UNL     1      19.364 -30.779 -11.836  1.00  0.00     0.025 A 
HETATM   34  C13 UNL     1      20.025 -31.205 -10.705  1.00  0.00     0.046 A 
HETATM   35 CL1  UNL     1      21.227 -30.094 -10.063  1.00  0.00    -0.083 Cl
ENDBRANCH  27  29
ENDBRANCH   1  24
TORSDOF 8
ENDMDL
MODEL 2
REMARK VINA RESULT: -8.207318073      1.721      2.085
REMARK  8 active torsions:
REMARK  status: ('A' for Active; 'I' for Inactive)
REMARK    1  A    between atoms: C2_2  and  N1_3 
REMARK       I    between atoms: N2_5  and  C3_7 
REMARK    2  A    between atoms: C3_7  and  C4_9 
REMARK    3  A    between atoms: C4_9  and  C5_10 
REMARK    4  A    between atoms: C4_9  and  C6_17 
REMARK    5  A    between atoms: C5_10  and  O2_11 
REMARK    6  A    between atoms: N3_13  and  O3_15 
REMARK    7  A    between atoms: C7_21  and  C8_22 
REMARK    8  A    between atoms: N5_29  and  C14_31 
ROOT
HETATM    1  C4  UNL     1      20.889 -35.822  -8.218  1.00  0.00     0.101 C 
ENDROOT
BRANCH   1   2
HETATM    2  C3  UNL     1      21.069 -36.326  -9.571  1.00  0.00     0.273 C 
HETATM    3  N2  UNL     1      20.049 -36.726 -10.477  1.00  0.00    -0.265 N 
HETATM    4  N1  UNL     1      19.444 -37.836 -10.368  1.00  0.00    -0.286 N 
ATOM      5  H2  UNL     1      19.794 -36.100 -11.241  1.00  0.00     0.190 HD
ATOM      6  H1  UNL     1      19.694 -38.465  -9.606  1.00  0.00     0.188 HD
HETATM    7  O1  UNL     1      22.251 -36.436 -10.040  1.00  0.00    -0.266 OA
BRANCH   4   8
HETATM    8  C2  UNL     1      18.430 -38.224 -11.278  1.00  0.00     0.094 C 
HETATM    9  C1  UNL     1      18.823 -38.630 -12.650  1.00  0.00     0.090 C 
HETATM   10  N5  UNL     1      17.177 -38.242 -10.977  1.00  0.00    -0.322 N 
ATOM     11  H5  UNL     1      16.520 -38.536 -11.699  1.00  0.00     0.169 HD
BRANCH  10  12
HETATM   12  C14 UNL     1      16.653 -37.886  -9.720  1.00  0.00     0.173 C 
HETATM   13  N6  UNL     1      16.131 -38.812  -8.971  1.00  0.00    -0.376 N 
ATOM     14  H62 UNL     1      16.118 -39.771  -9.318  1.00  0.00     0.158 HD
ATOM     15  H61 UNL     1      15.751 -38.554  -8.061  1.00  0.00     0.158 HD
HETATM   16 CL2  UNL     1      16.675 -36.250  -9.126  1.00  0.00    -0.045 Cl
ENDBRANCH  10  12
ENDBRANCH   4   8
ENDBRANCH   1   2
BRANCH   1  17
HETATM   17  C5  UNL     1      21.520 -36.620  -7.175  1.00  0.00     0.174 C 
HETATM   18  N3  UNL     1      22.667 -37.129  -7.336  1.00  0.00    -0.247 N 
ATOM     19  H3  UNL     1      23.172 -36.985  -8.211  1.00  0.00     0.196 HD
BRANCH  17  20
HETATM   20  O2  UNL     1      20.853 -36.828  -5.982  1.00  0.00    -0.344 OA
ATOM     21  H2  UNL     1      21.090 -37.570  -5.437  1.00  0.00     0.219 HD
ENDBRANCH  17  20
BRANCH  18  22
HETATM   22  O3  UNL     1      23.231 -37.875  -6.335  1.00  0.00    -0.288 OA
ATOM     23  H3  UNL     1      23.640 -38.708  -6.537  1.00  0.00     0.244 HD
ENDBRANCH  18  22
ENDBRANCH   1  17
BRANCH   1  24
HETATM   24  C6  UNL     1      21.025 -34.308  -8.072  1.00  0.00     0.247 A 
HETATM   25  O4  UNL     1      20.369 -34.025  -6.816  1.00  0.00    -0.263 OA
HETATM   26  N4  UNL     1      19.511 -33.267  -7.429  1.00  0.00    -0.266 N 
HETATM   27  C7  UNL     1      20.019 -33.436  -8.628  1.00  0.00     0.080 A 
ATOM     28  H4  UNL     1      18.715 -32.725  -7.095  1.00  0.00     0.194 HD
BRANCH  27  29
HETATM   29  C8  UNL     1      19.451 -32.815  -9.842  1.00  0.00     0.013 A 
HETATM   30  C9  UNL     1      18.463 -33.449 -10.565  1.00  0.00     0.015 A 
HETATM   31  C10 UNL     1      17.935 -32.967 -11.763  1.00  0.00     0.001 A 
HETATM   32  C11 UNL     1      18.472 -31.779 -12.207  1.00  0.00     0.002 A 
HETATM   33  C12 UNL     1      19.450 -31.122 -11.518  1.00  0.00     0.025 A 
HETATM   34  C13 UNL     1      19.933 -31.644 -10.338  1.00  0.00     0.046 A 
HETATM   35 CL1  UNL     1      21.116 -30.653  -9.496  1.00  0.00    -0.083 Cl
ENDBRANCH  27  29
ENDBRANCH   1  24
TORSDOF 8
ENDMDL
MODEL 3
REMARK VINA RESULT: -7.981894068      2.215      2.881
REMARK  8 active torsions:
REMARK  status: ('A' for Active; 'I' for Inactive)
REMARK    1  A    between atoms: C2_2  and  N1_3 
REMARK       I    between atoms: N2_5  and  C3_7 
REMARK    2  A    between atoms: C3_7  and  C4_9 
REMARK    3  A    between atoms: C4_9  and  C5_10 
REMARK    4  A    between atoms: C4_9  and  C6_17 
REMARK    5  A    between atoms: C5_10  and  O2_11 
REMARK    6  A    between atoms: N3_13  and  O3_15 
REMARK    7  A    between atoms: C7_21  and  C8_22 
REMARK    8  A    between atoms: N5_29  and  C14_31 
ROOT
HETATM    1  C4  UNL     1      20.701 -35.636  -8.217  1.00  0.00     0.101 C 
ENDROOT
BRANCH   1   2
HETATM    2  C3  UNL     1      20.518 -36.273  -9.512  1.00  0.00     0.273 C 
HETATM    3  N2  UNL     1      19.285 -36.640 -10.118  1.00  0.00    -0.265 N 
HETATM    4  N1  UNL     1      18.631 -37.665  -9.755  1.00  0.00    -0.286 N 
ATOM      5  H2  UNL     1      18.914 -36.060 -10.870  1.00  0.00     0.190 HD
ATOM      6  H1  UNL     1      18.999 -38.248  -9.004  1.00  0.00     0.188 HD
HETATM    7  O1  UNL     1      21.545 -36.550 -10.219  1.00  0.00    -0.266 OA
BRANCH   4   8
HETATM    8  C2  UNL     1      17.405 -38.021 -10.367  1.00  0.00     0.094 C 
HETATM    9  C1  UNL     1      16.139 -37.698  -9.662  1.00  0.00     0.090 C 
HETATM   10  N5  UNL     1      17.328 -38.613 -11.509  1.00  0.00    -0.322 N 
ATOM     11  H5  UNL     1      16.399 -38.830 -11.869  1.00  0.00     0.169 HD
BRANCH  10  12
HETATM   12  C14 UNL     1      18.436 -38.982 -12.293  1.00  0.00     0.173 C 
HETATM   13  N6  UNL     1      18.944 -40.171 -12.145  1.00  0.00    -0.376 N 
ATOM     14  H62 UNL     1      18.521 -40.800 -11.463  1.00  0.00     0.158 HD
ATOM     15  H61 UNL     1      19.747 -40.438 -12.713  1.00  0.00     0.158 HD
HETATM   16 CL2  UNL     1      19.158 -37.908 -13.457  1.00  0.00    -0.045 Cl
ENDBRANCH  10  12
ENDBRANCH   4   8
ENDBRANCH   1   2
BRANCH   1  17
HETATM   17  C5  UNL     1      21.372 -36.456  -7.217  1.00  0.00     0.174 C 
HETATM   18  N3  UNL     1      22.464 -37.044  -7.469  1.00  0.00    -0.247 N 
ATOM     19  H3  UNL     1      22.895 -36.948  -8.389  1.00  0.00     0.196 HD
BRANCH  17  20
HETATM   20  O2  UNL     1      20.805 -36.599  -5.963  1.00  0.00    -0.344 OA
ATOM     21  H2  UNL     1      21.352 -36.518  -5.191  1.00  0.00     0.219 HD
ENDBRANCH  17  20
BRANCH  18  22
HETATM   22  O3  UNL     1      23.068 -37.808  -6.506  1.00  0.00    -0.288 OA
ATOM     23  H3  UNL     1      23.723 -37.423  -5.935  1.00  0.00     0.244 HD
ENDBRANCH  18  22
ENDBRANCH   1  17
BRANCH   1  24
HETATM   24  C6  UNL     1      21.132 -34.172  -8.275  1.00  0.00     0.247 A 
HETATM   25  O4  UNL     1      20.752 -33.652  -6.982  1.00  0.00    -0.263 OA
HETATM   26  N4  UNL     1      19.957 -32.798  -7.554  1.00  0.00    -0.266 N 
HETATM   27  C7  UNL     1      20.225 -33.173  -8.783  1.00  0.00     0.080 A 
ATOM     28  H4  UNL     1      19.338 -32.081  -7.177  1.00  0.00     0.194 HD
BRANCH  27  29
HETATM   29  C8  UNL     1      19.589 -32.564  -9.970  1.00  0.00     0.013 A 
HETATM   30  C9  UNL     1      18.576 -33.215 -10.641  1.00  0.00     0.015 A 
HETATM   31  C10 UNL     1      17.983 -32.746 -11.814  1.00  0.00     0.001 A 
HETATM   32  C11 UNL     1      18.481 -31.552 -12.288  1.00  0.00     0.002 A 
HETATM   33  C12 UNL     1      19.482 -30.878 -11.649  1.00  0.00     0.025 A 
HETATM   34  C13 UNL     1      20.030 -31.389 -10.493  1.00  0.00     0.046 A 
HETATM   35 CL1  UNL     1      21.238 -30.379  -9.713  1.00  0.00    -0.083 Cl
ENDBRANCH  27  29
ENDBRANCH   1  24
TORSDOF 8
ENDMDL
MODEL 4
REMARK VINA RESULT: -7.974408064      2.721      5.054
REMARK  8 active torsions:
REMARK  status: ('A' for Active; 'I' for Inactive)
REMARK    1  A    between atoms: C2_2  and  N1_3 
REMARK       I    between atoms: N2_5  and  C3_7 
REMARK    2  A    between atoms: C3_7  and  C4_9 
REMARK    3  A    between atoms: C4_9  and  C5_10 
REMARK    4  A    between atoms: C4_9  and  C6_17 
REMARK    5  A    between atoms: C5_10  and  O2_11 
REMARK    6  A    between atoms: N3_13  and  O3_15 
REMARK    7  A    between atoms: C7_21  and  C8_22 
REMARK    8  A    between atoms: N5_29  and  C14_31 
ROOT
HETATM    1  C4  UNL     1      20.540 -32.918  -9.264  1.00  0.00     0.101 C 
ENDROOT
BRANCH   1   2
HETATM    2  C3  UNL     1      19.225 -33.322  -9.737  1.00  0.00     0.273 C 
HETATM    3  N2  UNL     1      18.163 -33.857  -8.957  1.00  0.00    -0.265 N 
HETATM    4  N1  UNL     1      18.158 -35.060  -8.555  1.00  0.00    -0.286 N 
ATOM      5  H2  UNL     1      17.379 -33.253  -8.712  1.00  0.00     0.190 HD
ATOM      6  H1  UNL     1      18.941 -35.668  -8.796  1.00  0.00     0.188 HD
HETATM    7  O1  UNL     1      18.947 -33.200 -10.976  1.00  0.00    -0.266 OA
BRANCH   4   8
HETATM    8  C2  UNL     1      17.094 -35.582  -7.779  1.00  0.00     0.094 C 
HETATM    9  C1  UNL     1      16.760 -34.918  -6.494  1.00  0.00     0.090 C 
HETATM   10  N5  UNL     1      16.397 -36.607  -8.130  1.00  0.00    -0.322 N 
ATOM     11  H5  UNL     1      15.651 -36.910  -7.505  1.00  0.00     0.169 HD
BRANCH  10  12
HETATM   12  C14 UNL     1      16.595 -37.338  -9.316  1.00  0.00     0.173 C 
HETATM   13  N6  UNL     1      17.023 -38.564  -9.235  1.00  0.00    -0.376 N 
ATOM     14  H62 UNL     1      17.202 -38.958  -8.311  1.00  0.00     0.158 HD
ATOM     15  H61 UNL     1      17.167 -39.094 -10.094  1.00  0.00     0.158 HD
HETATM   16 CL2  UNL     1      16.289 -36.667 -10.892  1.00  0.00    -0.045 Cl
ENDBRANCH  10  12
ENDBRANCH   4   8
ENDBRANCH   1   2
BRANCH   1  17
HETATM   17  C5  UNL     1      20.733 -31.480  -9.134  1.00  0.00     0.174 C 
HETATM   18  N3  UNL     1      20.628 -30.707 -10.130  1.00  0.00    -0.247 N 
ATOM     19  H3  UNL     1      20.403 -31.087 -11.050  1.00  0.00     0.196 HD
BRANCH  17  20
HETATM   20  O2  UNL     1      21.039 -30.945  -7.896  1.00  0.00    -0.344 OA
ATOM     21  H2  UNL     1      20.336 -30.715  -7.299  1.00  0.00     0.219 HD
ENDBRANCH  17  20
BRANCH  18  22
HETATM   22  O3  UNL     1      20.816 -29.359  -9.973  1.00  0.00    -0.288 OA
ATOM     23  H3  UNL     1      21.645 -29.030  -9.645  1.00  0.00     0.244 HD
ENDBRANCH  18  22
ENDBRANCH   1  17
BRANCH   1  24
HETATM   24  C6  UNL     1      21.106 -33.771  -8.130  1.00  0.00     0.247 A 
HETATM   25  O4  UNL     1      22.477 -33.327  -8.020  1.00  0.00    -0.263 OA
HETATM   26  N4  UNL     1      22.893 -34.526  -8.299  1.00  0.00    -0.266 N 
HETATM   27  C7  UNL     1      21.697 -35.055  -8.419  1.00  0.00     0.080 A 
ATOM     28  H4  UNL     1      23.828 -34.922  -8.392  1.00  0.00     0.194 HD
BRANCH  27  29
HETATM   29  C8  UNL     1      21.471 -36.473  -8.768  1.00  0.00     0.013 A 
HETATM   30  C9  UNL     1      21.907 -36.982  -9.973  1.00  0.00     0.015 A 
HETATM   31  C10 UNL     1      21.661 -38.285 -10.409  1.00  0.00     0.001 A 
HETATM   32  C11 UNL     1      20.932 -39.068  -9.542  1.00  0.00     0.002 A 
HETATM   33  C12 UNL     1      20.487 -38.599  -8.340  1.00  0.00     0.025 A 
HETATM   34  C13 UNL     1      20.760 -37.303  -7.960  1.00  0.00     0.046 A 
HETATM   35 CL1  UNL     1      20.220 -36.852  -6.349  1.00  0.00    -0.083 Cl
ENDBRANCH  27  29
ENDBRANCH   1  24
TORSDOF 8
ENDMDL
MODEL 5
REMARK VINA RESULT: -7.933537546      3.269      5.328
REMARK  8 active torsions:
REMARK  status: ('A' for Active; 'I' for Inactive)
REMARK    1  A    between atoms: C2_2  and  N1_3 
REMARK       I    between atoms: N2_5  and  C3_7 
REMARK    2  A    between atoms: C3_7  and  C4_9 
REMARK    3  A    between atoms: C4_9  and  C5_10 
REMARK    4  A    between atoms: C4_9  and  C6_17 
REMARK    5  A    between atoms: C5_10  and  O2_11 
REMARK    6  A    between atoms: N3_13  and  O3_15 
REMARK    7  A    between atoms: C7_21  and  C8_22 
REMARK    8  A    between atoms: N5_29  and  C14_31 
ROOT
HETATM    1  C4  UNL     1      19.922 -32.569  -8.742  1.00  0.00     0.101 C 
ENDROOT
BRANCH   1   2
HETATM    2  C3  UNL     1      20.222 -33.427  -7.606  1.00  0.00     0.273 C 
HETATM    3  N2  UNL     1      21.089 -34.554  -7.590  1.00  0.00    -0.265 N 
HETATM    4  N1  UNL     1      20.752 -35.674  -8.082  1.00  0.00    -0.286 N 
ATOM      5  H2  UNL     1      22.013 -34.459  -7.170  1.00  0.00     0.190 HD
ATOM      6  H1  UNL     1      19.828 -35.774  -8.503  1.00  0.00     0.188 HD
HETATM    7  O1  UNL     1      19.673 -33.180  -6.480  1.00  0.00    -0.266 OA
BRANCH   4   8
HETATM    8  C2  UNL     1      21.624 -36.789  -8.060  1.00  0.00     0.094 C 
HETATM    9  C1  UNL     1      22.819 -36.739  -7.181  1.00  0.00     0.090 C 
HETATM   10  N5  UNL     1      21.435 -37.851  -8.765  1.00  0.00    -0.322 N 
ATOM     11  H5  UNL     1      22.119 -38.603  -8.684  1.00  0.00     0.169 HD
BRANCH  10  12
HETATM   12  C14 UNL     1      20.351 -38.044  -9.641  1.00  0.00     0.173 C 
HETATM   13  N6  UNL     1      19.374 -38.820  -9.271  1.00  0.00    -0.376 N 
ATOM     14  H62 UNL     1      19.425 -39.265  -8.354  1.00  0.00     0.158 HD
ATOM     15  H61 UNL     1      18.589 -38.960  -9.906  1.00  0.00     0.158 HD
HETATM   16 CL2  UNL     1      20.263 -37.285 -11.205  1.00  0.00    -0.045 Cl
ENDBRANCH  10  12
ENDBRANCH   4   8
ENDBRANCH   1   2
BRANCH   1  17
HETATM   17  C5  UNL     1      20.775 -31.395  -8.868  1.00  0.00     0.174 C 
HETATM   18  N3  UNL     1      20.893 -30.778  -9.967  1.00  0.00    -0.247 N 
ATOM     19  H3  UNL     1      20.383 -31.101 -10.790  1.00  0.00     0.196 HD
BRANCH  17  20
HETATM   20  O2  UNL     1      21.475 -30.941  -7.764  1.00  0.00    -0.344 OA
ATOM     21  H2  UNL     1      22.393 -30.714  -7.855  1.00  0.00     0.219 HD
ENDBRANCH  17  20
BRANCH  18  22
HETATM   22  O3  UNL     1      21.704 -29.678 -10.052  1.00  0.00    -0.288 OA
ATOM     23  H3  UNL     1      21.364 -28.862 -10.400  1.00  0.00     0.244 HD
ENDBRANCH  18  22
ENDBRANCH   1  17
BRANCH   1  24
HETATM   24  C6  UNL     1      19.610 -33.308 -10.041  1.00  0.00     0.247 A 
HETATM   25  O4  UNL     1      19.022 -32.289 -10.881  1.00  0.00    -0.263 OA
HETATM   26  N4  UNL     1      17.921 -32.975 -10.951  1.00  0.00    -0.266 N 
HETATM   27  C7  UNL     1      18.341 -33.972 -10.206  1.00  0.00     0.080 A 
ATOM     28  H4  UNL     1      17.035 -32.800 -11.423  1.00  0.00     0.194 HD
BRANCH  27  29
HETATM   29  C8  UNL     1      17.499 -35.139  -9.869  1.00  0.00     0.013 A 
HETATM   30  C9  UNL     1      17.291 -35.504  -8.556  1.00  0.00     0.015 A 
HETATM   31  C10 UNL     1      16.579 -36.637  -8.160  1.00  0.00     0.001 A 
HETATM   32  C11 UNL     1      16.075 -37.404  -9.187  1.00  0.00     0.002 A 
HETATM   33  C12 UNL     1      16.259 -37.072 -10.498  1.00  0.00     0.025 A 
HETATM   34  C13 UNL     1      16.970 -35.940 -10.831  1.00  0.00     0.046 A 
HETATM   35 CL1  UNL     1      17.050 -35.569 -12.548  1.00  0.00    -0.083 Cl
ENDBRANCH  27  29
ENDBRANCH   1  24
TORSDOF 8
ENDMDL
