MODEL 1
REMARK VINA RESULT: -7.325160943      0.000      0.000
REMARK  7 active torsions:
REMARK  status: ('A' for Active; 'I' for Inactive)
REMARK    1  A    between atoms: O1_2  and  C2_3 
REMARK    2  A    between atoms: C3_4  and  C4_5 
REMARK    3  A    between atoms: C4_5  and  O2_6 
REMARK    4  A    between atoms: C7_11  and  C8_12 
REMARK    5  A    between atoms: C11_15  and  S1_16 
REMARK    6  A    between atoms: S1_16  and  N1_17 
REMARK    7  A    between atoms: C14_24  and  O5_25 
ROOT
HETATM    1  C2  UNL     1      20.043 -31.921 -10.216  1.00  0.00     0.099 A 
HETATM    2  C3  UNL     1      19.122 -31.868 -11.239  1.00  0.00     0.003 A 
HETATM    3  C5  UNL     1      18.110 -32.797 -11.288  1.00  0.00     0.050 A 
HETATM    4  C6  UNL     1      18.008 -33.792 -10.306  1.00  0.00     0.091 A 
HETATM    5  O3  UNL     1      17.160 -34.752 -10.147  1.00  0.00    -0.306 OA
HETATM    6  C7  UNL     1      17.422 -35.488  -9.068  1.00  0.00     0.122 A 
HETATM    7  C14 UNL     1      18.540 -34.931  -8.507  1.00  0.00     0.115 A 
HETATM    8  C15 UNL     1      18.937 -33.831  -9.290  1.00  0.00     0.058 A 
HETATM    9  C16 UNL     1      19.960 -32.909  -9.224  1.00  0.00     0.083 A 
HETATM   10 CL2  UNL     1      21.142 -32.950  -7.942  1.00  0.00    -0.080 Cl
ENDROOT
BRANCH   6  11
HETATM   11  C8  UNL     1      16.607 -36.639  -8.679  1.00  0.00     0.022 A 
HETATM   12  C9  UNL     1      16.312 -37.590  -9.684  1.00  0.00     0.017 A 
HETATM   13  C10 UNL     1      15.519 -38.673  -9.453  1.00  0.00     0.024 A 
HETATM   14  C11 UNL     1      14.956 -38.907  -8.224  1.00  0.00     0.053 A 
HETATM   15  C12 UNL     1      15.220 -38.010  -7.236  1.00  0.00     0.047 A 
HETATM   16  C13 UNL     1      16.038 -36.892  -7.478  1.00  0.00     0.048 A 
HETATM   17 CL1  UNL     1      16.206 -35.774  -6.130  1.00  0.00    -0.083 Cl
BRANCH  14  18
HETATM   18  S1  UNL     1      13.933 -40.323  -7.950  1.00  0.00     0.144 S 
HETATM   19  O4  UNL     1      13.668 -40.466  -6.459  1.00  0.00    -0.230 OA
BRANCH  18  20
HETATM   20  N1  UNL     1      12.408 -40.024  -8.769  1.00  0.00    -0.346 NA
ATOM     21  H12 UNL     1      12.426 -39.083  -9.163  1.00  0.00     0.166 HD
ATOM     22  H11 UNL     1      12.336 -40.703  -9.527  1.00  0.00     0.166 HD
ENDBRANCH  18  20
ENDBRANCH  14  18
ENDBRANCH   6  11
BRANCH   7  23
HETATM   23  O5  UNL     1      19.230 -35.297  -7.400  1.00  0.00    -0.357 OA
ATOM     24  H5  UNL     1      20.131 -35.586  -7.312  1.00  0.00     0.217 HD
ENDBRANCH   7  23
BRANCH   2  25
HETATM   25  C4  UNL     1      19.284 -30.792 -12.243  1.00  0.00     0.205 C 
BRANCH  25  26
HETATM   26  O2  UNL     1      18.915 -31.276 -13.518  1.00  0.00    -0.396 OA
ATOM     27  H2  UNL     1      19.474 -30.887 -14.179  1.00  0.00     0.209 HD
ENDBRANCH  25  26
ENDBRANCH   2  25
BRANCH   1  28
HETATM   28  O1  UNL     1      21.071 -30.990 -10.154  1.00  0.00    -0.354 OA
HETATM   29  C1  UNL     1      20.882 -29.781  -9.444  1.00  0.00     0.210 C 
ENDBRANCH   1  28
TORSDOF 7
ENDMDL
MODEL 2
REMARK VINA RESULT: -7.052893610      0.993      1.065
REMARK  7 active torsions:
REMARK  status: ('A' for Active; 'I' for Inactive)
REMARK    1  A    between atoms: O1_2  and  C2_3 
REMARK    2  A    between atoms: C3_4  and  C4_5 
REMARK    3  A    between atoms: C4_5  and  O2_6 
REMARK    4  A    between atoms: C7_11  and  C8_12 
REMARK    5  A    between atoms: C11_15  and  S1_16 
REMARK    6  A    between atoms: S1_16  and  N1_17 
REMARK    7  A    between atoms: C14_24  and  O5_25 
ROOT
HETATM    1  C2  UNL     1      19.867 -32.339 -10.138  1.00  0.00     0.099 A 
HETATM    2  C3  UNL     1      18.990 -32.108 -11.175  1.00  0.00     0.003 A 
HETATM    3  C5  UNL     1      17.976 -33.004 -11.417  1.00  0.00     0.050 A 
HETATM    4  C6  UNL     1      17.829 -34.147 -10.618  1.00  0.00     0.091 A 
HETATM    5  O3  UNL     1      16.971 -35.110 -10.653  1.00  0.00    -0.306 OA
HETATM    6  C7  UNL     1      17.184 -36.016  -9.700  1.00  0.00     0.122 A 
HETATM    7  C14 UNL     1      18.279 -35.572  -9.011  1.00  0.00     0.115 A 
HETATM    8  C15 UNL     1      18.714 -34.363  -9.585  1.00  0.00     0.058 A 
HETATM    9  C16 UNL     1      19.738 -33.476  -9.327  1.00  0.00     0.083 A 
HETATM   10 CL2  UNL     1      20.865 -33.742  -8.021  1.00  0.00    -0.080 Cl
ENDROOT
BRANCH   6  11
HETATM   11  C8  UNL     1      16.347 -37.206  -9.540  1.00  0.00     0.022 A 
HETATM   12  C9  UNL     1      16.084 -37.971 -10.701  1.00  0.00     0.017 A 
HETATM   13  C10 UNL     1      15.276 -39.068 -10.683  1.00  0.00     0.024 A 
HETATM   14  C11 UNL     1      14.666 -39.497  -9.532  1.00  0.00     0.053 A 
HETATM   15  C12 UNL     1      14.898 -38.782  -8.399  1.00  0.00     0.047 A 
HETATM   16  C13 UNL     1      15.731 -37.649  -8.420  1.00  0.00     0.048 A 
HETATM   17 CL1  UNL     1      15.855 -36.774  -6.898  1.00  0.00    -0.083 Cl
BRANCH  14  18
HETATM   18  S1  UNL     1      13.624 -40.926  -9.537  1.00  0.00     0.144 S 
HETATM   19  O4  UNL     1      13.215 -41.249  -8.109  1.00  0.00    -0.230 OA
BRANCH  18  20
HETATM   20  N1  UNL     1      12.186 -40.513 -10.458  1.00  0.00    -0.346 NA
ATOM     21  H12 UNL     1      11.503 -41.264 -10.354  1.00  0.00     0.166 HD
ATOM     22  H11 UNL     1      11.806 -39.657 -10.053  1.00  0.00     0.166 HD
ENDBRANCH  18  20
ENDBRANCH  14  18
ENDBRANCH   6  11
BRANCH   7  23
HETATM   23  O5  UNL     1      18.921 -36.123  -7.952  1.00  0.00    -0.357 OA
ATOM     24  H5  UNL     1      19.460 -35.713  -7.287  1.00  0.00     0.217 HD
ENDBRANCH   7  23
BRANCH   2  25
HETATM   25  C4  UNL     1      19.199 -30.884 -11.980  1.00  0.00     0.205 C 
BRANCH  25  26
HETATM   26  O2  UNL     1      19.000 -31.178 -13.347  1.00  0.00    -0.396 OA
ATOM     27  H2  UNL     1      19.075 -30.381 -13.857  1.00  0.00     0.209 HD
ENDBRANCH  25  26
ENDBRANCH   2  25
BRANCH   1  28
HETATM   28  O1  UNL     1      20.896 -31.443  -9.881  1.00  0.00    -0.354 OA
HETATM   29  C1  UNL     1      20.937 -30.755  -8.646  1.00  0.00     0.210 C 
ENDBRANCH   1  28
TORSDOF 7
ENDMDL
MODEL 3
REMARK VINA RESULT: -7.041494219      1.288      1.583
REMARK  7 active torsions:
REMARK  status: ('A' for Active; 'I' for Inactive)
REMARK    1  A    between atoms: O1_2  and  C2_3 
REMARK    2  A    between atoms: C3_4  and  C4_5 
REMARK    3  A    between atoms: C4_5  and  O2_6 
REMARK    4  A    between atoms: C7_11  and  C8_12 
REMARK    5  A    between atoms: C11_15  and  S1_16 
REMARK    6  A    between atoms: S1_16  and  N1_17 
REMARK    7  A    between atoms: C14_24  and  O5_25 
ROOT
HETATM    1  C2  UNL     1      20.008 -32.017 -10.204  1.00  0.00     0.099 A 
HETATM    2  C3  UNL     1      19.097 -31.934 -11.233  1.00  0.00     0.003 A 
HETATM    3  C5  UNL     1      18.080 -32.855 -11.314  1.00  0.00     0.050 A 
HETATM    4  C6  UNL     1      17.964 -33.875 -10.359  1.00  0.00     0.091 A 
HETATM    5  O3  UNL     1      17.110 -34.833 -10.230  1.00  0.00    -0.306 OA
HETATM    6  C7  UNL     1      17.358 -35.597  -9.168  1.00  0.00     0.122 A 
HETATM    7  C14 UNL     1      18.474 -35.061  -8.584  1.00  0.00     0.115 A 
HETATM    8  C15 UNL     1      18.884 -33.944  -9.336  1.00  0.00     0.058 A 
HETATM    9  C16 UNL     1      19.911 -33.030  -9.238  1.00  0.00     0.083 A 
HETATM   10 CL2  UNL     1      21.082 -33.110  -7.947  1.00  0.00    -0.080 Cl
ENDROOT
BRANCH   6  11
HETATM   11  C8  UNL     1      16.533 -36.753  -8.815  1.00  0.00     0.022 A 
HETATM   12  C9  UNL     1      15.934 -36.750  -7.533  1.00  0.00     0.017 A 
HETATM   13  C10 UNL     1      15.188 -37.795  -7.075  1.00  0.00     0.024 A 
HETATM   14  C11 UNL     1      14.974 -38.917  -7.834  1.00  0.00     0.053 A 
HETATM   15  C12 UNL     1      15.538 -38.950  -9.071  1.00  0.00     0.047 A 
HETATM   16  C13 UNL     1      16.309 -37.872  -9.541  1.00  0.00     0.048 A 
HETATM   17 CL1  UNL     1      17.051 -38.105 -11.120  1.00  0.00    -0.083 Cl
BRANCH  14  18
HETATM   18  S1  UNL     1      14.000 -40.257  -7.216  1.00  0.00     0.144 S 
HETATM   19  O4  UNL     1      14.882 -41.169  -6.377  1.00  0.00    -0.230 OA
BRANCH  18  20
HETATM   20  N1  UNL     1      12.762 -39.562  -6.182  1.00  0.00    -0.346 NA
ATOM     21  H12 UNL     1      11.961 -40.193  -6.159  1.00  0.00     0.166 HD
ATOM     22  H11 UNL     1      13.158 -39.491  -5.244  1.00  0.00     0.166 HD
ENDBRANCH  18  20
ENDBRANCH  14  18
ENDBRANCH   6  11
BRANCH   7  23
HETATM   23  O5  UNL     1      19.153 -35.458  -7.481  1.00  0.00    -0.357 OA
ATOM     24  H5  UNL     1      19.014 -35.237  -6.568  1.00  0.00     0.217 HD
ENDBRANCH   7  23
BRANCH   2  25
HETATM   25  C4  UNL     1      19.273 -30.834 -12.209  1.00  0.00     0.205 C 
BRANCH  25  26
HETATM   26  O2  UNL     1      18.907 -31.283 -13.497  1.00  0.00    -0.396 OA
ATOM     27  H2  UNL     1      19.108 -32.207 -13.580  1.00  0.00     0.209 HD
ENDBRANCH  25  26
ENDBRANCH   2  25
BRANCH   1  28
HETATM   28  O1  UNL     1      21.041 -31.094 -10.110  1.00  0.00    -0.354 OA
HETATM   29  C1  UNL     1      20.848 -29.896  -9.382  1.00  0.00     0.210 C 
ENDBRANCH   1  28
TORSDOF 7
ENDMDL
MODEL 4
REMARK VINA RESULT: -6.939462812      1.508      1.772
REMARK  7 active torsions:
REMARK  status: ('A' for Active; 'I' for Inactive)
REMARK    1  A    between atoms: O1_2  and  C2_3 
REMARK    2  A    between atoms: C3_4  and  C4_5 
REMARK    3  A    between atoms: C4_5  and  O2_6 
REMARK    4  A    between atoms: C7_11  and  C8_12 
REMARK    5  A    between atoms: C11_15  and  S1_16 
REMARK    6  A    between atoms: S1_16  and  N1_17 
REMARK    7  A    between atoms: C14_24  and  O5_25 
ROOT
HETATM    1  C2  UNL     1      19.887 -32.221 -10.161  1.00  0.00     0.099 A 
HETATM    2  C3  UNL     1      19.010 -32.074 -11.213  1.00  0.00     0.003 A 
HETATM    3  C5  UNL     1      17.992 -32.981 -11.378  1.00  0.00     0.050 A 
HETATM    4  C6  UNL     1      17.840 -34.052 -10.486  1.00  0.00     0.091 A 
HETATM    5  O3  UNL     1      16.977 -35.011 -10.440  1.00  0.00    -0.306 OA
HETATM    6  C7  UNL     1      17.187 -35.835  -9.415  1.00  0.00     0.122 A 
HETATM    7  C14 UNL     1      18.285 -35.340  -8.766  1.00  0.00     0.115 A 
HETATM    8  C15 UNL     1      18.726 -34.185  -9.440  1.00  0.00     0.058 A 
HETATM    9  C16 UNL     1      19.754 -33.286  -9.257  1.00  0.00     0.083 A 
HETATM   10 CL2  UNL     1      20.881 -33.446  -7.936  1.00  0.00    -0.080 Cl
ENDROOT
BRANCH   6  11
HETATM   11  C8  UNL     1      16.344 -37.003  -9.155  1.00  0.00     0.022 A 
HETATM   12  C9  UNL     1      15.844 -37.157  -7.840  1.00  0.00     0.017 A 
HETATM   13  C10 UNL     1      15.094 -38.232  -7.468  1.00  0.00     0.024 A 
HETATM   14  C11 UNL     1      14.778 -39.233  -8.350  1.00  0.00     0.053 A 
HETATM   15  C12 UNL     1      15.245 -39.114  -9.622  1.00  0.00     0.047 A 
HETATM   16  C13 UNL     1      16.021 -38.004 -10.004  1.00  0.00     0.048 A 
HETATM   17 CL1  UNL     1      16.631 -38.042 -11.654  1.00  0.00    -0.083 Cl
BRANCH  14  18
HETATM   18  S1  UNL     1      13.800 -40.615  -7.841  1.00  0.00     0.144 S 
HETATM   19  O4  UNL     1      12.503 -40.629  -8.635  1.00  0.00    -0.230 OA
BRANCH  18  20
HETATM   20  N1  UNL     1      14.714 -42.065  -8.228  1.00  0.00    -0.346 NA
ATOM     21  H12 UNL     1      14.850 -42.107  -9.238  1.00  0.00     0.166 HD
ATOM     22  H11 UNL     1      15.622 -41.978  -7.771  1.00  0.00     0.166 HD
ENDBRANCH  18  20
ENDBRANCH  14  18
ENDBRANCH   6  11
BRANCH   7  23
HETATM   23  O5  UNL     1      18.926 -35.803  -7.666  1.00  0.00    -0.357 OA
ATOM     24  H5  UNL     1      18.936 -35.464  -6.779  1.00  0.00     0.217 HD
ENDBRANCH   7  23
BRANCH   2  25
HETATM   25  C4  UNL     1      19.224 -30.922 -12.118  1.00  0.00     0.205 C 
BRANCH  25  26
HETATM   26  O2  UNL     1      18.949 -31.309 -13.448  1.00  0.00    -0.396 OA
ATOM     27  H2  UNL     1      18.747 -30.540 -13.968  1.00  0.00     0.209 HD
ENDBRANCH  25  26
ENDBRANCH   2  25
BRANCH   1  28
HETATM   28  O1  UNL     1      20.921 -31.312  -9.982  1.00  0.00    -0.354 OA
HETATM   29  C1  UNL     1      20.959 -30.512  -8.815  1.00  0.00     0.210 C 
ENDBRANCH   1  28
TORSDOF 7
ENDMDL
MODEL 5
REMARK VINA RESULT: -6.546466409      2.476      3.279
REMARK  7 active torsions:
REMARK  status: ('A' for Active; 'I' for Inactive)
REMARK    1  A    between atoms: O1_2  and  C2_3 
REMARK    2  A    between atoms: C3_4  and  C4_5 
REMARK    3  A    between atoms: C4_5  and  O2_6 
REMARK    4  A    between atoms: C7_11  and  C8_12 
REMARK    5  A    between atoms: C11_15  and  S1_16 
REMARK    6  A    between atoms: S1_16  and  N1_17 
REMARK    7  A    between atoms: C14_24  and  O5_25 
ROOT
HETATM    1  C2  UNL     1      19.568 -32.223 -10.502  1.00  0.00     0.099 A 
HETATM    2  C3  UNL     1      20.277 -32.080  -9.330  1.00  0.00     0.003 A 
HETATM    3  C5  UNL     1      20.048 -32.948  -8.289  1.00  0.00     0.050 A 
HETATM    4  C6  UNL     1      19.101 -33.975  -8.413  1.00  0.00     0.091 A 
HETATM    5  O3  UNL     1      18.723 -34.893  -7.588  1.00  0.00    -0.306 OA
HETATM    6  C7  UNL     1      17.784 -35.684  -8.104  1.00  0.00     0.122 A 
HETATM    7  C14 UNL     1      17.559 -35.210  -9.368  1.00  0.00     0.115 A 
HETATM    8  C15 UNL     1      18.401 -34.104  -9.592  1.00  0.00     0.058 A 
HETATM    9  C16 UNL     1      18.616 -33.244 -10.647  1.00  0.00     0.083 A 
HETATM   10 CL2  UNL     1      17.734 -33.399 -12.144  1.00  0.00    -0.080 Cl
ENDROOT
BRANCH   6  11
HETATM   11  C8  UNL     1      17.189 -36.795  -7.359  1.00  0.00     0.022 A 
HETATM   12  C9  UNL     1      16.518 -36.477  -6.154  1.00  0.00     0.017 A 
HETATM   13  C10 UNL     1      15.972 -37.432  -5.351  1.00  0.00     0.024 A 
HETATM   14  C11 UNL     1      16.041 -38.766  -5.664  1.00  0.00     0.053 A 
HETATM   15  C12 UNL     1      16.681 -39.103  -6.816  1.00  0.00     0.047 A 
HETATM   16  C13 UNL     1      17.245 -38.116  -7.643  1.00  0.00     0.048 A 
HETATM   17 CL1  UNL     1      18.122 -38.716  -9.045  1.00  0.00    -0.083 Cl
BRANCH  14  18
HETATM   18  S1  UNL     1      15.321 -39.984  -4.604  1.00  0.00     0.144 S 
HETATM   19  O4  UNL     1      16.404 -40.951  -4.149  1.00  0.00    -0.230 OA
BRANCH  18  20
HETATM   20  N1  UNL     1      14.691 -39.139  -3.199  1.00  0.00    -0.346 NA
ATOM     21  H12 UNL     1      15.081 -39.566  -2.358  1.00  0.00     0.166 HD
ATOM     22  H11 UNL     1      15.011 -38.172  -3.262  1.00  0.00     0.166 HD
ENDBRANCH  18  20
ENDBRANCH  14  18
ENDBRANCH   6  11
BRANCH   7  23
HETATM   23  O5  UNL     1      16.697 -35.645 -10.318  1.00  0.00    -0.357 OA
ATOM     24  H5  UNL     1      16.164 -36.431 -10.343  1.00  0.00     0.217 HD
ENDBRANCH   7  23
BRANCH   2  25
HETATM   25  C4  UNL     1      21.262 -30.977  -9.263  1.00  0.00     0.205 C 
BRANCH  25  26
HETATM   26  O2  UNL     1      20.607 -29.745  -9.482  1.00  0.00    -0.396 OA
ATOM     27  H2  UNL     1      20.518 -29.594 -10.415  1.00  0.00     0.209 HD
ENDBRANCH  25  26
ENDBRANCH   2  25
BRANCH   1  28
HETATM   28  O1  UNL     1      19.789 -31.354 -11.562  1.00  0.00    -0.354 OA
HETATM   29  C1  UNL     1      18.692 -30.863 -12.309  1.00  0.00     0.210 C 
ENDBRANCH   1  28
TORSDOF 7
ENDMDL
