MODEL 1
REMARK VINA RESULT: -7.527442760      0.000      0.000
REMARK  6 active torsions:
REMARK  status: ('A' for Active; 'I' for Inactive)
REMARK    1  A    between atoms: C4_4  and  N1_5 
REMARK    2  A    between atoms: N1_5  and  C5_7 
REMARK    3  A    between atoms: C7_11  and  N3_12 
REMARK    4  A    between atoms: N8_29  and  C13_30 
REMARK    5  A    between atoms: C13_30  and  C14_31 
REMARK    6  A    between atoms: C14_31  and  C15_32 
ROOT
HETATM    1  C1  UNL     1      17.081 -35.893  -8.059  1.00  0.00     0.071 C 
HETATM    2  C2  UNL     1      18.175 -36.898  -7.975  1.00  0.00     0.041 A 
HETATM    3  C3  UNL     1      19.517 -36.557  -7.772  1.00  0.00     0.062 A 
HETATM    4  C4  UNL     1      20.185 -35.371  -7.605  1.00  0.00     0.121 A 
HETATM    5  N5  UNL     1      21.518 -35.380  -7.425  1.00  0.00    -0.332 N 
ATOM      6  H5  UNL     1      22.001 -34.490  -7.302  1.00  0.00     0.168 HD
HETATM    7  C9  UNL     1      22.239 -36.511  -7.400  1.00  0.00     0.139 A 
HETATM    8  C10 UNL     1      23.679 -36.489  -7.203  1.00  0.00     0.119 C 
HETATM    9  N6  UNL     1      24.826 -36.476  -7.045  1.00  0.00    -0.190 NA
HETATM   10  C11 UNL     1      21.615 -37.728  -7.563  1.00  0.00     0.100 A 
HETATM   11 CL2  UNL     1      22.514 -39.209  -7.536  1.00  0.00    -0.079 Cl
HETATM   12  C12 UNL     1      20.228 -37.720  -7.750  1.00  0.00     0.089 A 
HETATM   13  N7  UNL     1      19.365 -38.722  -7.932  1.00  0.00    -0.296 N 
ATOM     14  H7  UNL     1      19.605 -39.713  -7.963  1.00  0.00     0.187 HD
HETATM   15  N8  UNL     1      18.148 -38.222  -8.064  1.00  0.00    -0.295 N 
ENDROOT
BRANCH   4  16
HETATM   16  N1  UNL     1      19.547 -34.264  -7.620  1.00  0.00    -0.338 N 
ATOM     17  H1  UNL     1      18.660 -34.227  -7.118  1.00  0.00     0.167 HD
BRANCH  16  18
HETATM   18  C5  UNL     1      19.971 -33.096  -8.272  1.00  0.00     0.089 A 
HETATM   19  C6  UNL     1      20.686 -32.160  -7.542  1.00  0.00     0.139 A 
HETATM   20  N2  UNL     1      21.095 -31.039  -8.164  1.00  0.00    -0.200 N 
HETATM   21  C7  UNL     1      20.818 -30.828  -9.459  1.00  0.00     0.676 A 
ATOM     22  H2  UNL     1      21.622 -30.340  -7.642  1.00  0.00     0.183 HD
HETATM   23  N4  UNL     1      20.120 -31.751 -10.156  1.00  0.00    -0.179 N 
HETATM   24  C8  UNL     1      19.677 -32.897  -9.605  1.00  0.00     0.147 A 
ATOM     25  H4  UNL     1      19.920 -31.573 -11.140  1.00  0.00     0.185 HD
HETATM   26 CL1  UNL     1      18.769 -34.077 -10.548  1.00  0.00    -0.061 Cl
BRANCH  21  27
HETATM   27  N3  UNL     1      21.227 -29.746 -10.008  1.00  0.00    -0.234 N 
ATOM     28  H32 UNL     1      22.181 -29.410  -9.876  1.00  0.00     0.174 HD
ATOM     29  H31 UNL     1      20.578 -29.215 -10.589  1.00  0.00     0.174 HD
ENDBRANCH  21  27
ENDBRANCH  16  18
ENDBRANCH   4  16
BRANCH  15  30
HETATM   30  C13 UNL     1      16.951 -39.011  -8.278  1.00  0.00     0.149 C 
BRANCH  30  31
HETATM   31  C14 UNL     1      16.690 -39.240  -9.750  1.00  0.00     0.025 C 
BRANCH  31  32
HETATM   32  C15 UNL     1      15.499 -38.421 -10.198  1.00  0.00    -0.021 C 
HETATM   33  C16 UNL     1      15.867 -37.381 -11.211  1.00  0.00     0.009 C 
HETATM   34  C17 UNL     1      14.425 -39.314 -10.776  1.00  0.00     0.009 C 
ENDBRANCH  31  32
ENDBRANCH  30  31
ENDBRANCH  15  30
TORSDOF 6
ENDMDL
MODEL 2
REMARK VINA RESULT: -7.389181869      2.394      5.417
REMARK  6 active torsions:
REMARK  status: ('A' for Active; 'I' for Inactive)
REMARK    1  A    between atoms: C4_4  and  N1_5 
REMARK    2  A    between atoms: N1_5  and  C5_7 
REMARK    3  A    between atoms: C7_11  and  N3_12 
REMARK    4  A    between atoms: N8_29  and  C13_30 
REMARK    5  A    between atoms: C13_30  and  C14_31 
REMARK    6  A    between atoms: C14_31  and  C15_32 
ROOT
HETATM    1  C1  UNL     1      17.400 -36.357  -9.177  1.00  0.00     0.071 C 
HETATM    2  C2  UNL     1      17.592 -35.304 -10.211  1.00  0.00     0.041 A 
HETATM    3  C3  UNL     1      18.381 -34.166 -10.011  1.00  0.00     0.062 A 
HETATM    4  C4  UNL     1      19.130 -33.697  -8.962  1.00  0.00     0.121 A 
HETATM    5  N5  UNL     1      19.791 -32.533  -9.088  1.00  0.00    -0.332 N 
ATOM      6  H5  UNL     1      20.345 -32.197  -8.300  1.00  0.00     0.168 HD
HETATM    7  C9  UNL     1      19.754 -31.793 -10.207  1.00  0.00     0.139 A 
HETATM    8  C10 UNL     1      20.479 -30.539 -10.313  1.00  0.00     0.119 C 
HETATM    9  N6  UNL     1      21.058 -29.540 -10.403  1.00  0.00    -0.190 NA
HETATM   10  C11 UNL     1      19.015 -32.221 -11.288  1.00  0.00     0.100 A 
HETATM   11 CL2  UNL     1      18.943 -31.293 -12.750  1.00  0.00    -0.079 Cl
HETATM   12  C12 UNL     1      18.326 -33.432 -11.159  1.00  0.00     0.089 A 
HETATM   13  N7  UNL     1      17.544 -34.089 -12.018  1.00  0.00    -0.296 N 
ATOM     14  H7  UNL     1      17.316 -33.784 -12.965  1.00  0.00     0.187 HD
HETATM   15  N8  UNL     1      17.114 -35.200 -11.444  1.00  0.00    -0.295 N 
ENDROOT
BRANCH   4  16
HETATM   16  N1  UNL     1      19.202 -34.361  -7.873  1.00  0.00    -0.338 N 
ATOM     17  H1  UNL     1      18.425 -34.272  -7.217  1.00  0.00     0.167 HD
BRANCH  16  18
HETATM   18  C5  UNL     1      20.264 -35.202  -7.509  1.00  0.00     0.089 A 
HETATM   19  C6  UNL     1      21.399 -35.208  -8.305  1.00  0.00     0.139 A 
HETATM   20  N2  UNL     1      22.419 -36.014  -7.959  1.00  0.00    -0.200 N 
HETATM   21  C7  UNL     1      22.345 -36.794  -6.871  1.00  0.00     0.676 A 
ATOM     22  H2  UNL     1      23.262 -36.031  -8.533  1.00  0.00     0.183 HD
HETATM   23  N4  UNL     1      21.232 -36.775  -6.105  1.00  0.00    -0.179 N 
HETATM   24  C8  UNL     1      20.169 -35.997  -6.386  1.00  0.00     0.147 A 
ATOM     25  H4  UNL     1      21.195 -37.375  -5.281  1.00  0.00     0.185 HD
HETATM   26 CL1  UNL     1      18.734 -36.002  -5.363  1.00  0.00    -0.061 Cl
BRANCH  21  27
HETATM   27  N3  UNL     1      23.342 -37.545  -6.581  1.00  0.00    -0.234 N 
ATOM     28  H32 UNL     1      24.298 -37.266  -6.799  1.00  0.00     0.174 HD
ATOM     29  H31 UNL     1      23.166 -38.438  -6.123  1.00  0.00     0.174 HD
ENDBRANCH  21  27
ENDBRANCH  16  18
ENDBRANCH   4  16
BRANCH  15  30
HETATM   30  C13 UNL     1      16.239 -36.169 -12.075  1.00  0.00     0.149 C 
BRANCH  30  31
HETATM   31  C14 UNL     1      16.822 -37.563 -12.023  1.00  0.00     0.025 C 
BRANCH  31  32
HETATM   32  C15 UNL     1      17.751 -37.779 -13.198  1.00  0.00    -0.021 C 
HETATM   33  C16 UNL     1      19.177 -37.454 -12.868  1.00  0.00     0.009 C 
HETATM   34  C17 UNL     1      17.672 -39.207 -13.686  1.00  0.00     0.009 C 
ENDBRANCH  31  32
ENDBRANCH  30  31
ENDBRANCH  15  30
TORSDOF 6
ENDMDL
MODEL 3
REMARK VINA RESULT: -7.377218038      1.042      1.541
REMARK  6 active torsions:
REMARK  status: ('A' for Active; 'I' for Inactive)
REMARK    1  A    between atoms: C4_4  and  N1_5 
REMARK    2  A    between atoms: N1_5  and  C5_7 
REMARK    3  A    between atoms: C7_11  and  N3_12 
REMARK    4  A    between atoms: N8_29  and  C13_30 
REMARK    5  A    between atoms: C13_30  and  C14_31 
REMARK    6  A    between atoms: C14_31  and  C15_32 
ROOT
HETATM    1  C1  UNL     1      17.038 -36.018  -8.301  1.00  0.00     0.071 C 
HETATM    2  C2  UNL     1      18.143 -37.010  -8.190  1.00  0.00     0.041 A 
HETATM    3  C3  UNL     1      19.472 -36.653  -7.939  1.00  0.00     0.062 A 
HETATM    4  C4  UNL     1      20.119 -35.459  -7.739  1.00  0.00     0.121 A 
HETATM    5  N5  UNL     1      21.444 -35.453  -7.515  1.00  0.00    -0.332 N 
ATOM      6  H5  UNL     1      21.911 -34.558  -7.368  1.00  0.00     0.168 HD
HETATM    7  C9  UNL     1      22.180 -36.575  -7.477  1.00  0.00     0.139 A 
HETATM    8  C10 UNL     1      23.612 -36.535  -7.232  1.00  0.00     0.119 C 
HETATM    9  N6  UNL     1      24.753 -36.509  -7.035  1.00  0.00    -0.190 NA
HETATM   10  C11 UNL     1      21.578 -37.798  -7.671  1.00  0.00     0.100 A 
HETATM   11 CL2  UNL     1      22.495 -39.268  -7.628  1.00  0.00    -0.079 Cl
HETATM   12  C12 UNL     1      20.198 -37.807  -7.904  1.00  0.00     0.089 A 
HETATM   13  N7  UNL     1      19.355 -38.818  -8.123  1.00  0.00    -0.296 N 
ATOM     14  H7  UNL     1      19.609 -39.806  -8.155  1.00  0.00     0.187 HD
HETATM   15  N8  UNL     1      18.137 -38.332  -8.292  1.00  0.00    -0.295 N 
ENDROOT
BRANCH   4  16
HETATM   16  N1  UNL     1      19.467 -34.361  -7.765  1.00  0.00    -0.338 N 
ATOM     17  H1  UNL     1      18.552 -34.347  -7.313  1.00  0.00     0.167 HD
BRANCH  16  18
HETATM   18  C5  UNL     1      19.909 -33.173  -8.367  1.00  0.00     0.089 A 
HETATM   19  C6  UNL     1      20.639 -32.281  -7.597  1.00  0.00     0.139 A 
HETATM   20  N2  UNL     1      21.066 -31.141  -8.170  1.00  0.00    -0.200 N 
HETATM   21  C7  UNL     1      20.793 -30.870  -9.455  1.00  0.00     0.676 A 
ATOM     22  H2  UNL     1      21.604 -30.473  -7.619  1.00  0.00     0.183 HD
HETATM   23  N4  UNL     1      20.081 -31.751 -10.191  1.00  0.00    -0.179 N 
HETATM   24  C8  UNL     1      19.619 -32.912  -9.690  1.00  0.00     0.147 A 
ATOM     25  H4  UNL     1      19.884 -31.527 -11.166  1.00  0.00     0.185 HD
HETATM   26 CL1  UNL     1      18.693 -34.035 -10.682  1.00  0.00    -0.061 Cl
BRANCH  21  27
HETATM   27  N3  UNL     1      21.219 -29.771  -9.957  1.00  0.00    -0.234 N 
ATOM     28  H32 UNL     1      20.933 -29.466 -10.887  1.00  0.00     0.174 HD
ATOM     29  H31 UNL     1      21.857 -29.196  -9.408  1.00  0.00     0.174 HD
ENDBRANCH  21  27
ENDBRANCH  16  18
ENDBRANCH   4  16
BRANCH  15  30
HETATM   30  C13 UNL     1      16.958 -39.135  -8.552  1.00  0.00     0.149 C 
BRANCH  30  31
HETATM   31  C14 UNL     1      16.586 -39.984  -7.356  1.00  0.00     0.025 C 
BRANCH  31  32
HETATM   32  C15 UNL     1      15.400 -39.375  -6.640  1.00  0.00    -0.021 C 
HETATM   33  C16 UNL     1      15.811 -38.429  -5.552  1.00  0.00     0.009 C 
HETATM   34  C17 UNL     1      14.504 -38.645  -7.614  1.00  0.00     0.009 C 
ENDBRANCH  31  32
ENDBRANCH  30  31
ENDBRANCH  15  30
TORSDOF 6
ENDMDL
MODEL 4
REMARK VINA RESULT: -7.025280816      3.133      6.017
REMARK  6 active torsions:
REMARK  status: ('A' for Active; 'I' for Inactive)
REMARK    1  A    between atoms: C4_4  and  N1_5 
REMARK    2  A    between atoms: N1_5  and  C5_7 
REMARK    3  A    between atoms: C7_11  and  N3_12 
REMARK    4  A    between atoms: N8_29  and  C13_30 
REMARK    5  A    between atoms: C13_30  and  C14_31 
REMARK    6  A    between atoms: C14_31  and  C15_32 
ROOT
HETATM    1  C1  UNL     1      18.311 -34.115  -9.958  1.00  0.00     0.071 C 
HETATM    2  C2  UNL     1      19.486 -34.639  -9.210  1.00  0.00     0.041 A 
HETATM    3  C3  UNL     1      20.210 -35.768  -9.610  1.00  0.00     0.062 A 
HETATM    4  C4  UNL     1      20.106 -36.646 -10.660  1.00  0.00     0.121 A 
HETATM    5  N5  UNL     1      20.984 -37.659 -10.765  1.00  0.00    -0.332 N 
ATOM      6  H5  UNL     1      20.894 -38.303 -11.551  1.00  0.00     0.168 HD
HETATM    7  C9  UNL     1      21.972 -37.859  -9.880  1.00  0.00     0.139 A 
HETATM    8  C10 UNL     1      22.905 -38.964 -10.022  1.00  0.00     0.119 C 
HETATM    9  N6  UNL     1      23.653 -39.842 -10.132  1.00  0.00    -0.190 NA
HETATM   10  C11 UNL     1      22.119 -37.006  -8.809  1.00  0.00     0.100 A 
HETATM   11 CL2  UNL     1      23.383 -37.233  -7.646  1.00  0.00    -0.079 Cl
HETATM   12  C12 UNL     1      21.206 -35.950  -8.697  1.00  0.00     0.089 A 
HETATM   13  N7  UNL     1      21.098 -34.982  -7.786  1.00  0.00    -0.296 N 
ATOM     14  H7  UNL     1      21.708 -34.858  -6.977  1.00  0.00     0.187 HD
HETATM   15  N8  UNL     1      20.072 -34.209  -8.101  1.00  0.00    -0.295 N 
ENDROOT
BRANCH   4  16
HETATM   16  N1  UNL     1      19.184 -36.501 -11.532  1.00  0.00    -0.338 N 
ATOM     17  H1  UNL     1      18.968 -35.551 -11.834  1.00  0.00     0.167 HD
BRANCH  16  18
HETATM   18  C5  UNL     1      18.445 -37.547 -12.106  1.00  0.00     0.089 A 
HETATM   19  C6  UNL     1      18.852 -38.039 -13.336  1.00  0.00     0.139 A 
HETATM   20  N2  UNL     1      18.146 -39.042 -13.890  1.00  0.00    -0.200 N 
HETATM   21  C7  UNL     1      17.074 -39.556 -13.270  1.00  0.00     0.676 A 
ATOM     22  H2  UNL     1      18.431 -39.416 -14.794  1.00  0.00     0.183 HD
HETATM   23  N4  UNL     1      16.691 -39.064 -12.071  1.00  0.00    -0.179 N 
HETATM   24  C8  UNL     1      17.345 -38.063 -11.453  1.00  0.00     0.147 A 
ATOM     25  H4  UNL     1      15.873 -39.469 -11.616  1.00  0.00     0.185 HD
HETATM   26 CL1  UNL     1      16.813 -37.449  -9.889  1.00  0.00    -0.061 Cl
BRANCH  21  27
HETATM   27  N3  UNL     1      16.433 -40.509 -13.837  1.00  0.00    -0.234 N 
ATOM     28  H32 UNL     1      16.319 -40.545 -14.849  1.00  0.00     0.174 HD
ATOM     29  H31 UNL     1      16.031 -41.244 -13.255  1.00  0.00     0.174 HD
ENDBRANCH  21  27
ENDBRANCH  16  18
ENDBRANCH   4  16
BRANCH  15  30
HETATM   30  C13 UNL     1      19.647 -33.051  -7.339  1.00  0.00     0.149 C 
BRANCH  30  31
HETATM   31  C14 UNL     1      18.870 -33.452  -6.104  1.00  0.00     0.025 C 
BRANCH  31  32
HETATM   32  C15 UNL     1      18.262 -34.824  -6.299  1.00  0.00    -0.021 C 
HETATM   33  C16 UNL     1      18.553 -35.748  -5.156  1.00  0.00     0.009 C 
HETATM   34  C17 UNL     1      16.765 -34.723  -6.482  1.00  0.00     0.009 C 
ENDBRANCH  31  32
ENDBRANCH  30  31
ENDBRANCH  15  30
TORSDOF 6
ENDMDL
MODEL 5
REMARK VINA RESULT: -6.878020638      3.055      6.317
REMARK  6 active torsions:
REMARK  status: ('A' for Active; 'I' for Inactive)
REMARK    1  A    between atoms: C4_4  and  N1_5 
REMARK    2  A    between atoms: N1_5  and  C5_7 
REMARK    3  A    between atoms: C7_11  and  N3_12 
REMARK    4  A    between atoms: N8_29  and  C13_30 
REMARK    5  A    between atoms: C13_30  and  C14_31 
REMARK    6  A    between atoms: C14_31  and  C15_32 
ROOT
HETATM    1  C1  UNL     1      18.072 -34.761 -10.531  1.00  0.00     0.071 C 
HETATM    2  C2  UNL     1      19.315 -35.081  -9.777  1.00  0.00     0.041 A 
HETATM    3  C3  UNL     1      20.084 -36.226 -10.014  1.00  0.00     0.062 A 
HETATM    4  C4  UNL     1      19.979 -37.283 -10.882  1.00  0.00     0.121 A 
HETATM    5  N5  UNL     1      20.909 -38.253 -10.860  1.00  0.00    -0.332 N 
ATOM      6  H5  UNL     1      20.818 -39.033 -11.512  1.00  0.00     0.168 HD
HETATM    7  C9  UNL     1      21.953 -38.240 -10.017  1.00  0.00     0.139 A 
HETATM    8  C10 UNL     1      22.943 -39.305 -10.017  1.00  0.00     0.119 C 
HETATM    9  N6  UNL     1      23.735 -40.149 -10.016  1.00  0.00    -0.190 NA
HETATM   10  C11 UNL     1      22.103 -37.201  -9.125  1.00  0.00     0.100 A 
HETATM   11 CL2  UNL     1      23.437 -37.150  -8.021  1.00  0.00    -0.079 Cl
HETATM   12  C12 UNL     1      21.135 -36.190  -9.147  1.00  0.00     0.089 A 
HETATM   13  N7  UNL     1      21.016 -35.079  -8.417  1.00  0.00    -0.296 N 
ATOM     14  H7  UNL     1      21.658 -34.780  -7.682  1.00  0.00     0.187 HD
HETATM   15  N8  UNL     1      19.931 -34.428  -8.800  1.00  0.00    -0.295 N 
ENDROOT
BRANCH   4  16
HETATM   16  N1  UNL     1      19.005 -37.345 -11.707  1.00  0.00    -0.338 N 
ATOM     17  H1  UNL     1      18.988 -36.663 -12.465  1.00  0.00     0.167 HD
BRANCH  16  18
HETATM   18  C5  UNL     1      17.959 -38.278 -11.651  1.00  0.00     0.089 A 
HETATM   19  C6  UNL     1      17.221 -38.367 -10.481  1.00  0.00     0.139 A 
HETATM   20  N2  UNL     1      16.216 -39.260 -10.424  1.00  0.00    -0.200 N 
HETATM   21  C7  UNL     1      15.931 -40.047 -11.471  1.00  0.00     0.676 A 
ATOM     22  H2  UNL     1      15.663 -39.339  -9.571  1.00  0.00     0.183 HD
HETATM   23  N4  UNL     1      16.660 -39.947 -12.605  1.00  0.00    -0.179 N 
HETATM   24  C8  UNL     1      17.680 -39.079 -12.739  1.00  0.00     0.147 A 
ATOM     25  H4  UNL     1      16.427 -40.554 -13.391  1.00  0.00     0.185 HD
HETATM   26 CL1  UNL     1      18.608 -38.979 -14.234  1.00  0.00    -0.061 Cl
BRANCH  21  27
HETATM   27  N3  UNL     1      14.966 -40.883 -11.370  1.00  0.00    -0.234 N 
ATOM     28  H32 UNL     1      14.016 -40.575 -11.161  1.00  0.00     0.174 HD
ATOM     29  H31 UNL     1      15.160 -41.875 -11.504  1.00  0.00     0.174 HD
ENDBRANCH  21  27
ENDBRANCH  16  18
ENDBRANCH   4  16
BRANCH  15  30
HETATM   30  C13 UNL     1      19.477 -33.175  -8.231  1.00  0.00     0.149 C 
BRANCH  30  31
HETATM   31  C14 UNL     1      19.740 -33.111  -6.742  1.00  0.00     0.025 C 
BRANCH  31  32
HETATM   32  C15 UNL     1      18.566 -33.693  -5.985  1.00  0.00    -0.021 C 
HETATM   33  C16 UNL     1      17.310 -33.712  -6.802  1.00  0.00     0.009 C 
HETATM   34  C17 UNL     1      18.874 -35.098  -5.521  1.00  0.00     0.009 C 
ENDBRANCH  31  32
ENDBRANCH  30  31
ENDBRANCH  15  30
TORSDOF 6
ENDMDL
