MODEL 1
REMARK VINA RESULT: -8.331661660      0.000      0.000
REMARK  6 active torsions:
REMARK  status: ('A' for Active; 'I' for Inactive)
REMARK    1  A    between atoms: N1_1  and  C1_4 
REMARK    2  A    between atoms: C3_9  and  N4_10 
REMARK    3  A    between atoms: N4_10  and  N5_12 
REMARK       I    between atoms: N5_12  and  C4_14 
REMARK    4  A    between atoms: C4_14  and  C5_16 
REMARK    5  A    between atoms: C8_21  and  S1_22 
REMARK    6  A    between atoms: S1_22  and  C9_25 
ROOT
HETATM    1  C1  UNL     1      25.773 -21.575  -7.586  1.00  0.00     0.122 A 
HETATM    2  N2  UNL     1      26.502 -22.302  -6.722  1.00  0.00    -0.328 N 
ATOM      3  H2  UNL     1      27.453 -22.013  -6.490  1.00  0.00     0.168 HD
HETATM    4  C2  UNL     1      25.984 -23.403  -6.168  1.00  0.00     0.146 A 
HETATM    5  N3  UNL     1      26.770 -24.174  -5.247  1.00  0.00    -0.080 NA
HETATM    6  C3  UNL     1      24.702 -23.842  -6.445  1.00  0.00     0.090 A 
HETATM    7  C7  UNL     1      23.940 -23.116  -7.322  1.00  0.00     0.062 A 
HETATM    8  C8  UNL     1      24.497 -21.970  -7.892  1.00  0.00     0.110 A 
ENDROOT
BRANCH   6   9
HETATM    9  N4  UNL     1      24.198 -25.009  -5.836  1.00  0.00    -0.295 N 
ATOM     10  H4  UNL     1      24.656 -25.353  -4.992  1.00  0.00     0.187 HD
BRANCH   9  11
HETATM   11  N5  UNL     1      23.186 -25.660  -6.295  1.00  0.00    -0.265 N 
HETATM   12  C4  UNL     1      22.046 -25.725  -5.437  1.00  0.00     0.282 C 
HETATM   13  O1  UNL     1      22.168 -26.304  -4.345  1.00  0.00    -0.265 OA
ATOM     14  H5  UNL     1      23.198 -26.103  -7.214  1.00  0.00     0.190 HD
BRANCH  12  15
HETATM   15  C5  UNL     1      20.777 -25.138  -5.816  1.00  0.00     0.114 C 
HETATM   16 CL1  UNL     1      20.456 -23.428  -5.501  1.00  0.00    -0.077 Cl
HETATM   17  C6  UNL     1      19.855 -25.865  -6.392  1.00  0.00     0.114 C 
HETATM   18 CL2  UNL     1      20.119 -27.545  -6.721  1.00  0.00    -0.095 Cl
ENDBRANCH  12  15
ENDBRANCH   9  11
ENDBRANCH   6   9
BRANCH   8  19
HETATM   19  S1  UNL     1      23.498 -21.067  -8.998  1.00  0.00     0.210 S 
HETATM   20  O2  UNL     1      22.850 -19.887  -8.305  1.00  0.00    -0.217 OA
HETATM   21  O3  UNL     1      24.363 -20.508 -10.088  1.00  0.00    -0.217 OA
BRANCH  19  22
HETATM   22  C9  UNL     1      22.268 -22.125  -9.637  1.00  0.00     0.064 A 
HETATM   23  C10 UNL     1      22.008 -21.990 -10.995  1.00  0.00     0.024 A 
HETATM   24  C11 UNL     1      21.039 -22.786 -11.540  1.00  0.00     0.002 A 
HETATM   25  C12 UNL     1      20.349 -23.688 -10.762  1.00  0.00     0.000 A 
HETATM   26  C13 UNL     1      20.626 -23.802  -9.418  1.00  0.00     0.002 A 
HETATM   27  C14 UNL     1      21.606 -23.003  -8.841  1.00  0.00     0.024 A 
ENDBRANCH  19  22
ENDBRANCH   8  19
BRANCH   1  28
HETATM   28  N1  UNL     1      26.247 -20.512  -8.140  1.00  0.00    -0.384 N 
ATOM     29  H12 UNL     1      27.243 -20.311  -8.050  1.00  0.00     0.157 HD
ATOM     30  H11 UNL     1      25.649 -19.871  -8.662  1.00  0.00     0.157 HD
ENDBRANCH   1  28
TORSDOF 6
ENDMDL
MODEL 2
REMARK VINA RESULT: -8.232557302      3.077      5.639
REMARK  6 active torsions:
REMARK  status: ('A' for Active; 'I' for Inactive)
REMARK    1  A    between atoms: N1_1  and  C1_4 
REMARK    2  A    between atoms: C3_9  and  N4_10 
REMARK    3  A    between atoms: N4_10  and  N5_12 
REMARK       I    between atoms: N5_12  and  C4_14 
REMARK    4  A    between atoms: C4_14  and  C5_16 
REMARK    5  A    between atoms: C8_21  and  S1_22 
REMARK    6  A    between atoms: S1_22  and  C9_25 
ROOT
HETATM    1  C1  UNL     1      24.881 -25.245  -5.358  1.00  0.00     0.122 A 
HETATM    2  N2  UNL     1      25.863 -24.345  -5.538  1.00  0.00    -0.328 N 
ATOM      3  H2  UNL     1      26.743 -24.445  -5.032  1.00  0.00     0.168 HD
HETATM    4  C2  UNL     1      25.687 -23.320  -6.378  1.00  0.00     0.146 A 
HETATM    5  N3  UNL     1      26.741 -22.363  -6.564  1.00  0.00    -0.080 NA
HETATM    6  C3  UNL     1      24.516 -23.134  -7.090  1.00  0.00     0.090 A 
HETATM    7  C7  UNL     1      23.501 -24.040  -6.922  1.00  0.00     0.062 A 
HETATM    8  C8  UNL     1      23.702 -25.104  -6.041  1.00  0.00     0.110 A 
ENDROOT
BRANCH   6   9
HETATM    9  N4  UNL     1      24.377 -22.038  -7.965  1.00  0.00    -0.295 N 
ATOM     10  H4  UNL     1      24.306 -22.221  -8.965  1.00  0.00     0.187 HD
BRANCH   9  11
HETATM   11  N5  UNL     1      24.334 -20.816  -7.559  1.00  0.00    -0.265 N 
HETATM   12  C4  UNL     1      24.659 -19.824  -8.534  1.00  0.00     0.282 C 
HETATM   13  O1  UNL     1      25.805 -19.829  -9.012  1.00  0.00    -0.265 OA
ATOM     14  H5  UNL     1      24.084 -20.571  -6.601  1.00  0.00     0.190 HD
BRANCH  12  15
HETATM   15  C5  UNL     1      23.692 -18.835  -8.962  1.00  0.00     0.114 C 
HETATM   16 CL1  UNL     1      23.743 -17.194  -8.305  1.00  0.00    -0.077 Cl
HETATM   17  C6  UNL     1      22.770 -19.143  -9.837  1.00  0.00     0.114 C 
HETATM   18 CL2  UNL     1      22.675 -20.737 -10.510  1.00  0.00    -0.095 Cl
ENDBRANCH  12  15
ENDBRANCH   9  11
ENDBRANCH   6   9
BRANCH   8  19
HETATM   19  S1  UNL     1      22.394 -26.241  -5.857  1.00  0.00     0.210 S 
HETATM   20  O2  UNL     1      22.822 -27.633  -6.271  1.00  0.00    -0.217 OA
HETATM   21  O3  UNL     1      22.016 -26.316  -4.408  1.00  0.00    -0.217 OA
BRANCH  19  22
HETATM   22  C9  UNL     1      21.053 -25.718  -6.842  1.00  0.00     0.064 A 
HETATM   23  C10 UNL     1      20.028 -25.068  -6.163  1.00  0.00     0.024 A 
HETATM   24  C11 UNL     1      18.946 -24.655  -6.889  1.00  0.00     0.002 A 
HETATM   25  C12 UNL     1      18.880 -24.879  -8.245  1.00  0.00     0.000 A 
HETATM   26  C13 UNL     1      19.909 -25.525  -8.894  1.00  0.00     0.002 A 
HETATM   27  C14 UNL     1      21.019 -25.955  -8.178  1.00  0.00     0.024 A 
ENDBRANCH  19  22
ENDBRANCH   8  19
BRANCH   1  28
HETATM   28  N1  UNL     1      25.019 -26.241  -4.552  1.00  0.00    -0.384 N 
ATOM     29  H12 UNL     1      25.673 -26.986  -4.794  1.00  0.00     0.157 HD
ATOM     30  H11 UNL     1      24.488 -26.300  -3.682  1.00  0.00     0.157 HD
ENDBRANCH   1  28
TORSDOF 6
ENDMDL
MODEL 3
REMARK VINA RESULT: -8.152667883      2.860      3.693
REMARK  6 active torsions:
REMARK  status: ('A' for Active; 'I' for Inactive)
REMARK    1  A    between atoms: N1_1  and  C1_4 
REMARK    2  A    between atoms: C3_9  and  N4_10 
REMARK    3  A    between atoms: N4_10  and  N5_12 
REMARK       I    between atoms: N5_12  and  C4_14 
REMARK    4  A    between atoms: C4_14  and  C5_16 
REMARK    5  A    between atoms: C8_21  and  S1_22 
REMARK    6  A    between atoms: S1_22  and  C9_25 
ROOT
HETATM    1  C1  UNL     1      25.526 -21.349  -8.095  1.00  0.00     0.122 A 
HETATM    2  N2  UNL     1      25.818 -22.319  -7.213  1.00  0.00    -0.328 N 
ATOM      3  H2  UNL     1      26.747 -22.364  -6.794  1.00  0.00     0.168 HD
HETATM    4  C2  UNL     1      24.892 -23.226  -6.883  1.00  0.00     0.146 A 
HETATM    5  N3  UNL     1      25.212 -24.260  -5.939  1.00  0.00    -0.080 NA
HETATM    6  C3  UNL     1      23.617 -23.215  -7.417  1.00  0.00     0.090 A 
HETATM    7  C7  UNL     1      23.297 -22.234  -8.319  1.00  0.00     0.062 A 
HETATM    8  C8  UNL     1      24.275 -21.296  -8.652  1.00  0.00     0.110 A 
ENDROOT
BRANCH   6   9
HETATM    9  N4  UNL     1      22.674 -24.192  -7.039  1.00  0.00    -0.295 N 
ATOM     10  H4  UNL     1      22.720 -24.572  -6.094  1.00  0.00     0.187 HD
BRANCH   9  11
HETATM   11  N5  UNL     1      21.755 -24.626  -7.832  1.00  0.00    -0.265 N 
HETATM   12  C4  UNL     1      21.651 -26.046  -7.946  1.00  0.00     0.282 C 
HETATM   13  O1  UNL     1      22.620 -26.667  -8.414  1.00  0.00    -0.265 OA
ATOM     14  H5  UNL     1      21.140 -23.995  -8.346  1.00  0.00     0.190 HD
BRANCH  12  15
HETATM   15  C5  UNL     1      20.459 -26.755  -7.532  1.00  0.00     0.114 C 
HETATM   16 CL1  UNL     1      19.138 -27.025  -8.678  1.00  0.00    -0.077 Cl
HETATM   17  C6  UNL     1      20.343 -27.203  -6.309  1.00  0.00     0.114 C 
HETATM   18 CL2  UNL     1      21.606 -26.965  -5.149  1.00  0.00    -0.095 Cl
ENDBRANCH  12  15
ENDBRANCH   9  11
ENDBRANCH   6   9
BRANCH   8  19
HETATM   19  S1  UNL     1      23.833 -20.058  -9.796  1.00  0.00     0.210 S 
HETATM   20  O2  UNL     1      24.947 -19.814 -10.791  1.00  0.00    -0.217 OA
HETATM   21  O3  UNL     1      22.644 -20.526 -10.582  1.00  0.00    -0.217 OA
BRANCH  19  22
HETATM   22  C9  UNL     1      23.485 -18.587  -8.926  1.00  0.00     0.064 A 
HETATM   23  C10 UNL     1      23.835 -17.409  -9.575  1.00  0.00     0.024 A 
HETATM   24  C11 UNL     1      23.599 -16.230  -8.926  1.00  0.00     0.002 A 
HETATM   25  C12 UNL     1      23.033 -16.218  -7.671  1.00  0.00     0.000 A 
HETATM   26  C13 UNL     1      22.695 -17.399  -7.050  1.00  0.00     0.002 A 
HETATM   27  C14 UNL     1      22.926 -18.611  -7.689  1.00  0.00     0.024 A 
ENDBRANCH  19  22
ENDBRANCH   8  19
BRANCH   1  28
HETATM   28  N1  UNL     1      26.398 -20.464  -8.437  1.00  0.00    -0.384 N 
ATOM     29  H12 UNL     1      26.236 -19.907  -9.276  1.00  0.00     0.157 HD
ATOM     30  H11 UNL     1      27.246 -20.311  -7.889  1.00  0.00     0.157 HD
ENDBRANCH   1  28
TORSDOF 6
ENDMDL
MODEL 4
REMARK VINA RESULT: -8.150367568      2.696      3.667
REMARK  6 active torsions:
REMARK  status: ('A' for Active; 'I' for Inactive)
REMARK    1  A    between atoms: N1_1  and  C1_4 
REMARK    2  A    between atoms: C3_9  and  N4_10 
REMARK    3  A    between atoms: N4_10  and  N5_12 
REMARK       I    between atoms: N5_12  and  C4_14 
REMARK    4  A    between atoms: C4_14  and  C5_16 
REMARK    5  A    between atoms: C8_21  and  S1_22 
REMARK    6  A    between atoms: S1_22  and  C9_25 
ROOT
HETATM    1  C1  UNL     1      25.308 -21.462  -8.126  1.00  0.00     0.122 A 
HETATM    2  N2  UNL     1      25.519 -22.473  -7.266  1.00  0.00    -0.328 N 
ATOM      3  H2  UNL     1      26.440 -22.599  -6.845  1.00  0.00     0.168 HD
HETATM    4  C2  UNL     1      24.525 -23.314  -6.962  1.00  0.00     0.146 A 
HETATM    5  N3  UNL     1      24.759 -24.391  -6.043  1.00  0.00    -0.080 NA
HETATM    6  C3  UNL     1      23.258 -23.193  -7.501  1.00  0.00     0.090 A 
HETATM    7  C7  UNL     1      23.019 -22.168  -8.380  1.00  0.00     0.062 A 
HETATM    8  C8  UNL     1      24.068 -21.301  -8.687  1.00  0.00     0.110 A 
ENDROOT
BRANCH   6   9
HETATM    9  N4  UNL     1      22.240 -24.103  -7.151  1.00  0.00    -0.295 N 
ATOM     10  H4  UNL     1      21.402 -23.744  -6.694  1.00  0.00     0.187 HD
BRANCH   9  11
HETATM   11  N5  UNL     1      22.320 -25.369  -7.380  1.00  0.00    -0.265 N 
HETATM   12  C4  UNL     1      21.598 -26.211  -6.482  1.00  0.00     0.282 C 
HETATM   13  O1  UNL     1      21.932 -26.211  -5.285  1.00  0.00    -0.265 OA
ATOM     14  H5  UNL     1      22.865 -25.745  -8.156  1.00  0.00     0.190 HD
BRANCH  12  15
HETATM   15  C5  UNL     1      20.507 -27.048  -6.936  1.00  0.00     0.114 C 
HETATM   16 CL1  UNL     1      20.830 -28.658  -7.591  1.00  0.00    -0.077 Cl
HETATM   17  C6  UNL     1      19.272 -26.623  -6.869  1.00  0.00     0.114 C 
HETATM   18 CL2  UNL     1      18.902 -25.053  -6.237  1.00  0.00    -0.095 Cl
ENDBRANCH  12  15
ENDBRANCH   9  11
ENDBRANCH   6   9
BRANCH   8  19
HETATM   19  S1  UNL     1      23.728 -20.006  -9.802  1.00  0.00     0.210 S 
HETATM   20  O2  UNL     1      24.885 -19.792 -10.755  1.00  0.00    -0.217 OA
HETATM   21  O3  UNL     1      22.542 -20.383 -10.638  1.00  0.00    -0.217 OA
BRANCH  19  22
HETATM   22  C9  UNL     1      23.433 -18.546  -8.895  1.00  0.00     0.064 A 
HETATM   23  C10 UNL     1      23.804 -17.363  -9.524  1.00  0.00     0.024 A 
HETATM   24  C11 UNL     1      23.609 -16.192  -8.846  1.00  0.00     0.002 A 
HETATM   25  C12 UNL     1      23.063 -16.193  -7.582  1.00  0.00     0.000 A 
HETATM   26  C13 UNL     1      22.704 -17.379  -6.981  1.00  0.00     0.002 A 
HETATM   27  C14 UNL     1      22.893 -18.582  -7.650  1.00  0.00     0.024 A 
ENDBRANCH  19  22
ENDBRANCH   8  19
BRANCH   1  28
HETATM   28  N1  UNL     1      26.248 -20.639  -8.442  1.00  0.00    -0.384 N 
ATOM     29  H12 UNL     1      26.633 -20.028  -7.721  1.00  0.00     0.157 HD
ATOM     30  H11 UNL     1      26.610 -20.584  -9.394  1.00  0.00     0.157 HD
ENDBRANCH   1  28
TORSDOF 6
ENDMDL
MODEL 5
REMARK VINA RESULT: -8.145116028      2.184      2.911
REMARK  6 active torsions:
REMARK  status: ('A' for Active; 'I' for Inactive)
REMARK    1  A    between atoms: N1_1  and  C1_4 
REMARK    2  A    between atoms: C3_9  and  N4_10 
REMARK    3  A    between atoms: N4_10  and  N5_12 
REMARK       I    between atoms: N5_12  and  C4_14 
REMARK    4  A    between atoms: C4_14  and  C5_16 
REMARK    5  A    between atoms: C8_21  and  S1_22 
REMARK    6  A    between atoms: S1_22  and  C9_25 
ROOT
HETATM    1  C1  UNL     1      25.894 -21.387  -7.828  1.00  0.00     0.122 A 
HETATM    2  N2  UNL     1      26.585 -22.118  -6.937  1.00  0.00    -0.328 N 
ATOM      3  H2  UNL     1      27.547 -21.867  -6.708  1.00  0.00     0.168 HD
HETATM    4  C2  UNL     1      26.013 -23.175  -6.350  1.00  0.00     0.146 A 
HETATM    5  N3  UNL     1      26.757 -23.951  -5.400  1.00  0.00    -0.080 NA
HETATM    6  C3  UNL     1      24.713 -23.562  -6.620  1.00  0.00     0.090 A 
HETATM    7  C7  UNL     1      23.990 -22.830  -7.525  1.00  0.00     0.062 A 
HETATM    8  C8  UNL     1      24.602 -21.731  -8.129  1.00  0.00     0.110 A 
ENDROOT
BRANCH   6   9
HETATM    9  N4  UNL     1      24.152 -24.684  -5.977  1.00  0.00    -0.295 N 
ATOM     10  H4  UNL     1      24.549 -24.982  -5.086  1.00  0.00     0.187 HD
BRANCH   9  11
HETATM   11  N5  UNL     1      23.161 -25.350  -6.461  1.00  0.00    -0.265 N 
HETATM   12  C4  UNL     1      22.043 -25.526  -5.590  1.00  0.00     0.282 C 
HETATM   13  O1  UNL     1      22.215 -26.171  -4.542  1.00  0.00    -0.265 OA
ATOM     14  H5  UNL     1      23.173 -25.727  -7.408  1.00  0.00     0.190 HD
BRANCH  12  15
HETATM   15  C5  UNL     1      20.741 -24.975  -5.903  1.00  0.00     0.114 C 
HETATM   16 CL1  UNL     1      20.405 -23.262  -5.620  1.00  0.00    -0.077 Cl
HETATM   17  C6  UNL     1      19.800 -25.736  -6.398  1.00  0.00     0.114 C 
HETATM   18 CL2  UNL     1      20.077 -27.420  -6.693  1.00  0.00    -0.095 Cl
ENDBRANCH  12  15
ENDBRANCH   9  11
ENDBRANCH   6   9
BRANCH   8  19
HETATM   19  S1  UNL     1      23.652 -20.818  -9.269  1.00  0.00     0.210 S 
HETATM   20  O2  UNL     1      24.433 -20.554 -10.538  1.00  0.00    -0.217 OA
HETATM   21  O3  UNL     1      22.452 -21.628  -9.659  1.00  0.00    -0.217 OA
BRANCH  19  22
HETATM   22  C9  UNL     1      23.191 -19.306  -8.533  1.00  0.00     0.064 A 
HETATM   23  C10 UNL     1      22.970 -18.253  -9.413  1.00  0.00     0.024 A 
HETATM   24  C11 UNL     1      22.624 -17.041  -8.883  1.00  0.00     0.002 A 
HETATM   25  C12 UNL     1      22.501 -16.878  -7.521  1.00  0.00     0.000 A 
HETATM   26  C13 UNL     1      22.725 -17.937  -6.671  1.00  0.00     0.002 A 
HETATM   27  C14 UNL     1      23.079 -19.178  -7.186  1.00  0.00     0.024 A 
ENDBRANCH  19  22
ENDBRANCH   8  19
BRANCH   1  28
HETATM   28  N1  UNL     1      26.420 -20.366  -8.413  1.00  0.00    -0.384 N 
ATOM     29  H12 UNL     1      25.808 -19.682  -8.859  1.00  0.00     0.157 HD
ATOM     30  H11 UNL     1      27.430 -20.230  -8.442  1.00  0.00     0.157 HD
ENDBRANCH   1  28
TORSDOF 6
ENDMDL
