MODEL 1
REMARK VINA RESULT: -7.404299285      0.000      0.000
REMARK  9 active torsions:
REMARK  status: ('A' for Active; 'I' for Inactive)
REMARK    1  A    between atoms: C2_2  and  C5_5 
REMARK    2  A    between atoms: N3_11  and  C7_13 
REMARK    3  A    between atoms: C7_13  and  N4_15 
REMARK    4  A    between atoms: N4_15  and  C8_17 
REMARK    5  A    between atoms: C8_17  and  C9_18 
REMARK    6  A    between atoms: C12_21  and  C13_22 
REMARK    7  A    between atoms: C13_22  and  N5_23 
REMARK    8  A    between atoms: N5_23  and  O1_24 
REMARK    9  A    between atoms: O1_24  and  C14_25 
ROOT
HETATM    1  C7  UNL     1      19.760 -24.517 -10.338  1.00  0.00     0.173 C 
HETATM    2  S1  UNL     1      20.048 -25.969 -11.006  1.00  0.00    -0.041 SA
ENDROOT
BRANCH   1   3
HETATM    3  N3  UNL     1      20.420 -23.336 -10.792  1.00  0.00    -0.312 N 
HETATM    4  C6  UNL     1      21.385 -22.797 -10.095  1.00  0.00     0.167 A 
HETATM    5  N2  UNL     1      21.964 -23.092  -8.962  1.00  0.00    -0.279 N 
HETATM    6  S2  UNL     1      22.256 -21.355 -10.536  1.00  0.00    -0.037 SA
HETATM    7  N1  UNL     1      22.908 -22.356  -8.503  1.00  0.00    -0.295 N 
ATOM      8  H2  UNL     1      21.664 -23.914  -8.439  1.00  0.00     0.189 HD
HETATM    9  C5  UNL     1      23.293 -21.287  -9.191  1.00  0.00     0.077 A 
ATOM     10  H1  UNL     1      23.360 -22.590  -7.619  1.00  0.00     0.187 HD
ATOM     11  H3  UNL     1      20.134 -22.907 -11.672  1.00  0.00     0.170 HD
BRANCH   9  12
HETATM   12  C2  UNL     1      24.345 -20.265  -8.903  1.00  0.00    -0.001 C 
HETATM   13  C1  UNL     1      25.431 -20.879  -8.087  1.00  0.00     0.021 C 
HETATM   14  C3  UNL     1      24.867 -19.781 -10.249  1.00  0.00     0.021 C 
HETATM   15  C4  UNL     1      23.752 -19.097  -8.174  1.00  0.00     0.021 C 
ENDBRANCH   9  12
ENDBRANCH   1   3
BRANCH   1  16
HETATM   16  N4  UNL     1      18.809 -24.354  -9.301  1.00  0.00    -0.361 N 
ATOM     17  H4  UNL     1      18.249 -23.503  -9.268  1.00  0.00     0.162 HD
BRANCH  16  18
HETATM   18  C8  UNL     1      18.615 -25.359  -8.298  1.00  0.00     0.187 C 
BRANCH  18  19
HETATM   19  C9  UNL     1      19.714 -25.176  -7.277  1.00  0.00     0.071 A 
HETATM   20  C10 UNL     1      19.657 -24.413  -6.152  1.00  0.00     0.037 A 
HETATM   21  C11 UNL     1      20.880 -24.555  -5.528  1.00  0.00     0.042 A 
HETATM   22  C12 UNL     1      21.636 -25.396  -6.293  1.00  0.00     0.107 A 
HETATM   23  O2  UNL     1      20.905 -25.735  -7.312  1.00  0.00    -0.311 OA
BRANCH  22  24
HETATM   24  C13 UNL     1      23.028 -25.849  -6.017  1.00  0.00     0.255 C 
BRANCH  24  25
HETATM   25  N5  UNL     1      23.966 -25.133  -6.155  1.00  0.00    -0.287 NA
BRANCH  25  26
HETATM   26  O1  UNL     1      25.051 -24.498  -6.157  1.00  0.00    -0.155 OA
BRANCH  26  27
HETATM   27  C14 UNL     1      26.086 -24.323  -5.232  1.00  0.00     0.447 C 
HETATM   28  F1  UNL     1      26.882 -25.477  -5.190  1.00  0.00    -0.199 F 
HETATM   29 CL1  UNL     1      27.164 -22.992  -5.763  1.00  0.00    -0.058 Cl
ENDBRANCH  26  27
ENDBRANCH  25  26
ENDBRANCH  24  25
ENDBRANCH  22  24
ENDBRANCH  18  19
ENDBRANCH  16  18
ENDBRANCH   1  16
TORSDOF 9
ENDMDL
MODEL 2
REMARK VINA RESULT: -7.379073261      2.037      2.392
REMARK  9 active torsions:
REMARK  status: ('A' for Active; 'I' for Inactive)
REMARK    1  A    between atoms: C2_2  and  C5_5 
REMARK    2  A    between atoms: N3_11  and  C7_13 
REMARK    3  A    between atoms: C7_13  and  N4_15 
REMARK    4  A    between atoms: N4_15  and  C8_17 
REMARK    5  A    between atoms: C8_17  and  C9_18 
REMARK    6  A    between atoms: C12_21  and  C13_22 
REMARK    7  A    between atoms: C13_22  and  N5_23 
REMARK    8  A    between atoms: N5_23  and  O1_24 
REMARK    9  A    between atoms: O1_24  and  C14_25 
ROOT
HETATM    1  C7  UNL     1      19.623 -24.845 -10.033  1.00  0.00     0.173 C 
HETATM    2  S1  UNL     1      19.937 -26.142 -10.959  1.00  0.00    -0.041 SA
ENDROOT
BRANCH   1   3
HETATM    3  N3  UNL     1      20.275 -23.594 -10.246  1.00  0.00    -0.312 N 
HETATM    4  C6  UNL     1      21.322 -23.254  -9.540  1.00  0.00     0.167 A 
HETATM    5  N2  UNL     1      21.997 -23.828  -8.580  1.00  0.00    -0.279 N 
HETATM    6  S2  UNL     1      22.193 -21.755  -9.696  1.00  0.00    -0.037 SA
HETATM    7  N1  UNL     1      23.005 -23.238  -8.052  1.00  0.00    -0.295 N 
ATOM      8  H2  UNL     1      21.721 -24.752  -8.249  1.00  0.00     0.189 HD
HETATM    9  C5  UNL     1      23.357 -22.034  -8.489  1.00  0.00     0.077 A 
ATOM     10  H1  UNL     1      23.532 -23.689  -7.304  1.00  0.00     0.187 HD
ATOM     11  H3  UNL     1      19.920 -22.957 -10.959  1.00  0.00     0.170 HD
BRANCH   9  12
HETATM   12  C2  UNL     1      24.466 -21.125  -8.066  1.00  0.00    -0.001 C 
HETATM   13  C1  UNL     1      25.020 -20.422  -9.258  1.00  0.00     0.021 C 
HETATM   14  C3  UNL     1      23.871 -20.141  -7.068  1.00  0.00     0.021 C 
HETATM   15  C4  UNL     1      25.546 -21.905  -7.380  1.00  0.00     0.021 C 
ENDBRANCH   9  12
ENDBRANCH   1   3
BRANCH   1  16
HETATM   16  N4  UNL     1      18.656 -24.889  -9.000  1.00  0.00    -0.361 N 
ATOM     17  H4  UNL     1      17.670 -24.774  -9.235  1.00  0.00     0.162 HD
BRANCH  16  18
HETATM   18  C8  UNL     1      19.029 -25.094  -7.632  1.00  0.00     0.187 C 
BRANCH  18  19
HETATM   19  C9  UNL     1      19.804 -26.390  -7.579  1.00  0.00     0.071 A 
HETATM   20  C10 UNL     1      19.283 -27.643  -7.493  1.00  0.00     0.037 A 
HETATM   21  C11 UNL     1      20.359 -28.508  -7.480  1.00  0.00     0.042 A 
HETATM   22  C12 UNL     1      21.493 -27.752  -7.557  1.00  0.00     0.107 A 
HETATM   23  O2  UNL     1      21.114 -26.511  -7.612  1.00  0.00    -0.311 OA
BRANCH  22  24
HETATM   24  C13 UNL     1      22.898 -28.247  -7.580  1.00  0.00     0.255 C 
BRANCH  24  25
HETATM   25  N5  UNL     1      23.727 -27.833  -6.837  1.00  0.00    -0.287 NA
BRANCH  25  26
HETATM   26  O1  UNL     1      24.459 -27.254  -5.994  1.00  0.00    -0.155 OA
BRANCH  26  27
HETATM   27  C14 UNL     1      24.277 -26.187  -5.107  1.00  0.00     0.447 C 
HETATM   28  F1  UNL     1      24.509 -24.975  -5.774  1.00  0.00    -0.199 F 
HETATM   29 CL1  UNL     1      22.571 -26.134  -4.554  1.00  0.00    -0.058 Cl
ENDBRANCH  26  27
ENDBRANCH  25  26
ENDBRANCH  24  25
ENDBRANCH  22  24
ENDBRANCH  18  19
ENDBRANCH  16  18
ENDBRANCH   1  16
TORSDOF 9
ENDMDL
MODEL 3
REMARK VINA RESULT: -7.346912468      1.184      1.493
REMARK  9 active torsions:
REMARK  status: ('A' for Active; 'I' for Inactive)
REMARK    1  A    between atoms: C2_2  and  C5_5 
REMARK    2  A    between atoms: N3_11  and  C7_13 
REMARK    3  A    between atoms: C7_13  and  N4_15 
REMARK    4  A    between atoms: N4_15  and  C8_17 
REMARK    5  A    between atoms: C8_17  and  C9_18 
REMARK    6  A    between atoms: C12_21  and  C13_22 
REMARK    7  A    between atoms: C13_22  and  N5_23 
REMARK    8  A    between atoms: N5_23  and  O1_24 
REMARK    9  A    between atoms: O1_24  and  C14_25 
ROOT
HETATM    1  C7  UNL     1      19.850 -24.776 -10.519  1.00  0.00     0.173 C 
HETATM    2  S1  UNL     1      20.340 -26.147 -11.239  1.00  0.00    -0.041 SA
ENDROOT
BRANCH   1   3
HETATM    3  N3  UNL     1      20.312 -23.496 -10.947  1.00  0.00    -0.312 N 
HETATM    4  C6  UNL     1      21.209 -22.841 -10.258  1.00  0.00     0.167 A 
HETATM    5  N2  UNL     1      21.861 -23.083  -9.153  1.00  0.00    -0.279 N 
HETATM    6  S2  UNL     1      21.840 -21.272 -10.668  1.00  0.00    -0.037 SA
HETATM    7  N1  UNL     1      22.700 -22.229  -8.693  1.00  0.00    -0.295 N 
ATOM      8  H2  UNL     1      21.703 -23.958  -8.652  1.00  0.00     0.189 HD
HETATM    9  C5  UNL     1      22.898 -21.093  -9.350  1.00  0.00     0.077 A 
ATOM     10  H1  UNL     1      23.209 -22.421  -7.830  1.00  0.00     0.187 HD
ATOM     11  H3  UNL     1      19.937 -23.087 -11.803  1.00  0.00     0.170 HD
BRANCH   9  12
HETATM   12  C2  UNL     1      23.796 -19.934  -9.054  1.00  0.00    -0.001 C 
HETATM   13  C1  UNL     1      23.427 -18.780  -9.921  1.00  0.00     0.021 C 
HETATM   14  C3  UNL     1      23.611 -19.603  -7.579  1.00  0.00     0.021 C 
HETATM   15  C4  UNL     1      25.228 -20.313  -9.281  1.00  0.00     0.021 C 
ENDBRANCH   9  12
ENDBRANCH   1   3
BRANCH   1  16
HETATM   16  N4  UNL     1      18.909 -24.791  -9.461  1.00  0.00    -0.361 N 
ATOM     17  H4  UNL     1      18.223 -24.040  -9.394  1.00  0.00     0.162 HD
BRANCH  16  18
HETATM   18  C8  UNL     1      18.899 -25.837  -8.481  1.00  0.00     0.187 C 
BRANCH  18  19
HETATM   19  C9  UNL     1      19.941 -25.479  -7.448  1.00  0.00     0.071 A 
HETATM   20  C10 UNL     1      19.711 -25.074  -6.170  1.00  0.00     0.037 A 
HETATM   21  C11 UNL     1      20.952 -24.868  -5.601  1.00  0.00     0.042 A 
HETATM   22  C12 UNL     1      21.891 -25.153  -6.551  1.00  0.00     0.107 A 
HETATM   23  O2  UNL     1      21.246 -25.509  -7.621  1.00  0.00    -0.311 OA
BRANCH  22  24
HETATM   24  C13 UNL     1      23.371 -25.081  -6.396  1.00  0.00     0.255 C 
BRANCH  24  25
HETATM   25  N5  UNL     1      24.000 -24.141  -6.756  1.00  0.00    -0.287 NA
BRANCH  25  26
HETATM   26  O1  UNL     1      24.758 -23.157  -6.950  1.00  0.00    -0.155 OA
BRANCH  26  27
HETATM   27  C14 UNL     1      26.119 -22.911  -6.733  1.00  0.00     0.447 C 
HETATM   28  F1  UNL     1      26.305 -21.569  -6.372  1.00  0.00    -0.199 F 
HETATM   29 CL1  UNL     1      26.705 -23.888  -5.347  1.00  0.00    -0.058 Cl
ENDBRANCH  26  27
ENDBRANCH  25  26
ENDBRANCH  24  25
ENDBRANCH  22  24
ENDBRANCH  18  19
ENDBRANCH  16  18
ENDBRANCH   1  16
TORSDOF 9
ENDMDL
MODEL 4
REMARK VINA RESULT: -7.334641630      1.768      1.983
REMARK  9 active torsions:
REMARK  status: ('A' for Active; 'I' for Inactive)
REMARK    1  A    between atoms: C2_2  and  C5_5 
REMARK    2  A    between atoms: N3_11  and  C7_13 
REMARK    3  A    between atoms: C7_13  and  N4_15 
REMARK    4  A    between atoms: N4_15  and  C8_17 
REMARK    5  A    between atoms: C8_17  and  C9_18 
REMARK    6  A    between atoms: C12_21  and  C13_22 
REMARK    7  A    between atoms: C13_22  and  N5_23 
REMARK    8  A    between atoms: N5_23  and  O1_24 
REMARK    9  A    between atoms: O1_24  and  C14_25 
ROOT
HETATM    1  C7  UNL     1      19.917 -25.222  -9.626  1.00  0.00     0.173 C 
HETATM    2  S1  UNL     1      18.506 -25.223  -8.821  1.00  0.00    -0.041 SA
ENDROOT
BRANCH   1   3
HETATM    3  N3  UNL     1      20.385 -24.068 -10.322  1.00  0.00    -0.312 N 
HETATM    4  C6  UNL     1      21.165 -23.199  -9.733  1.00  0.00     0.167 A 
HETATM    5  N2  UNL     1      21.681 -23.104  -8.537  1.00  0.00    -0.279 N 
HETATM    6  S2  UNL     1      21.789 -21.751 -10.470  1.00  0.00    -0.037 SA
HETATM    7  N1  UNL     1      22.425 -22.108  -8.227  1.00  0.00    -0.295 N 
ATOM      8  H2  UNL     1      21.491 -23.829  -7.844  1.00  0.00     0.189 HD
HETATM    9  C5  UNL     1      22.667 -21.169  -9.135  1.00  0.00     0.077 A 
ATOM     10  H1  UNL     1      22.829 -22.037  -7.293  1.00  0.00     0.187 HD
ATOM     11  H3  UNL     1      20.107 -23.918 -11.292  1.00  0.00     0.170 HD
BRANCH   9  12
HETATM   12  C2  UNL     1      23.480 -19.917  -9.055  1.00  0.00    -0.001 C 
HETATM   13  C1  UNL     1      23.551 -19.455  -7.640  1.00  0.00     0.021 C 
HETATM   14  C3  UNL     1      24.861 -20.255  -9.600  1.00  0.00     0.021 C 
HETATM   15  C4  UNL     1      22.877 -18.848  -9.916  1.00  0.00     0.021 C 
ENDBRANCH   9  12
ENDBRANCH   1   3
BRANCH   1  16
HETATM   16  N4  UNL     1      20.764 -26.357  -9.637  1.00  0.00    -0.361 N 
ATOM     17  H4  UNL     1      21.434 -26.470 -10.396  1.00  0.00     0.162 HD
BRANCH  16  18
HETATM   18  C8  UNL     1      20.701 -27.350  -8.605  1.00  0.00     0.187 C 
BRANCH  18  19
HETATM   19  C9  UNL     1      21.424 -26.781  -7.406  1.00  0.00     0.071 A 
HETATM   20  C10 UNL     1      21.058 -26.908  -6.103  1.00  0.00     0.037 A 
HETATM   21  C11 UNL     1      22.013 -26.237  -5.367  1.00  0.00     0.042 A 
HETATM   22  C12 UNL     1      22.924 -25.727  -6.246  1.00  0.00     0.107 A 
HETATM   23  O2  UNL     1      22.534 -26.074  -7.435  1.00  0.00    -0.311 OA
BRANCH  22  24
HETATM   24  C13 UNL     1      24.139 -24.930  -5.915  1.00  0.00     0.255 C 
BRANCH  24  25
HETATM   25  N5  UNL     1      24.483 -23.999  -6.567  1.00  0.00    -0.287 NA
BRANCH  25  26
HETATM   26  O1  UNL     1      24.988 -22.982  -7.106  1.00  0.00    -0.155 OA
BRANCH  26  27
HETATM   27  C14 UNL     1      26.232 -22.345  -7.022  1.00  0.00     0.447 C 
HETATM   28  F1  UNL     1      26.050 -20.996  -6.684  1.00  0.00    -0.199 F 
HETATM   29 CL1  UNL     1      27.202 -23.066  -5.697  1.00  0.00    -0.058 Cl
ENDBRANCH  26  27
ENDBRANCH  25  26
ENDBRANCH  24  25
ENDBRANCH  22  24
ENDBRANCH  18  19
ENDBRANCH  16  18
ENDBRANCH   1  16
TORSDOF 9
ENDMDL
MODEL 5
REMARK VINA RESULT: -7.313036136      2.784      5.898
REMARK  9 active torsions:
REMARK  status: ('A' for Active; 'I' for Inactive)
REMARK    1  A    between atoms: C2_2  and  C5_5 
REMARK    2  A    between atoms: N3_11  and  C7_13 
REMARK    3  A    between atoms: C7_13  and  N4_15 
REMARK    4  A    between atoms: N4_15  and  C8_17 
REMARK    5  A    between atoms: C8_17  and  C9_18 
REMARK    6  A    between atoms: C12_21  and  C13_22 
REMARK    7  A    between atoms: C13_22  and  N5_23 
REMARK    8  A    between atoms: N5_23  and  O1_24 
REMARK    9  A    between atoms: O1_24  and  C14_25 
ROOT
HETATM    1  C7  UNL     1      23.621 -21.273  -8.251  1.00  0.00     0.173 C 
HETATM    2  S1  UNL     1      23.312 -20.019  -7.267  1.00  0.00    -0.041 SA
ENDROOT
BRANCH   1   3
HETATM    3  N3  UNL     1      22.581 -21.951  -8.955  1.00  0.00    -0.312 N 
HETATM    4  C6  UNL     1      21.854 -22.862  -8.363  1.00  0.00     0.167 A 
HETATM    5  N2  UNL     1      21.834 -23.369  -7.160  1.00  0.00    -0.279 N 
HETATM    6  S2  UNL     1      20.569 -23.764  -9.115  1.00  0.00    -0.037 SA
HETATM    7  N1  UNL     1      20.990 -24.284  -6.854  1.00  0.00    -0.295 N 
ATOM      8  H2  UNL     1      22.494 -23.035  -6.458  1.00  0.00     0.189 HD
HETATM    9  C5  UNL     1      20.134 -24.714  -7.774  1.00  0.00     0.077 A 
ATOM     10  H1  UNL     1      20.975 -24.678  -5.913  1.00  0.00     0.187 HD
ATOM     11  H3  UNL     1      22.403 -21.721  -9.932  1.00  0.00     0.170 HD
BRANCH   9  12
HETATM   12  C2  UNL     1      19.060 -25.752  -7.704  1.00  0.00    -0.001 C 
HETATM   13  C1  UNL     1      19.272 -26.610  -6.504  1.00  0.00     0.021 C 
HETATM   14  C3  UNL     1      17.734 -25.008  -7.628  1.00  0.00     0.021 C 
HETATM   15  C4  UNL     1      19.065 -26.592  -8.945  1.00  0.00     0.021 C 
ENDBRANCH   9  12
ENDBRANCH   1   3
BRANCH   1  16
HETATM   16  N4  UNL     1      24.944 -21.722  -8.486  1.00  0.00    -0.361 N 
ATOM     17  H4  UNL     1      25.173 -22.150  -9.382  1.00  0.00     0.162 HD
BRANCH  16  18
HETATM   18  C8  UNL     1      25.968 -21.589  -7.492  1.00  0.00     0.187 C 
BRANCH  18  19
HETATM   19  C9  UNL     1      25.906 -22.829  -6.631  1.00  0.00     0.071 A 
HETATM   20  C10 UNL     1      26.853 -23.254  -5.753  1.00  0.00     0.037 A 
HETATM   21  C11 UNL     1      26.365 -24.417  -5.193  1.00  0.00     0.042 A 
HETATM   22  C12 UNL     1      25.142 -24.659  -5.750  1.00  0.00     0.107 A 
HETATM   23  O2  UNL     1      24.916 -23.695  -6.591  1.00  0.00    -0.311 OA
BRANCH  22  24
HETATM   24  C13 UNL     1      24.232 -25.800  -5.451  1.00  0.00     0.255 C 
BRANCH  24  25
HETATM   25  N5  UNL     1      23.484 -26.241  -6.262  1.00  0.00    -0.287 NA
BRANCH  25  26
HETATM   26  O1  UNL     1      22.813 -26.609  -7.259  1.00  0.00    -0.155 OA
BRANCH  26  27
HETATM   27  C14 UNL     1      22.691 -27.808  -7.971  1.00  0.00     0.447 C 
HETATM   28  F1  UNL     1      21.616 -28.552  -7.462  1.00  0.00    -0.199 F 
HETATM   29 CL1  UNL     1      22.294 -27.465  -9.686  1.00  0.00    -0.058 Cl
ENDBRANCH  26  27
ENDBRANCH  25  26
ENDBRANCH  24  25
ENDBRANCH  22  24
ENDBRANCH  18  19
ENDBRANCH  16  18
ENDBRANCH   1  16
TORSDOF 9
ENDMDL
