MODEL 1
REMARK VINA RESULT: -7.848134301      0.000      0.000
REMARK  7 active torsions:
REMARK  status: ('A' for Active; 'I' for Inactive)
REMARK    1  A    between atoms: C2_2  and  S1_3 
REMARK    2  A    between atoms: S1_3  and  C3_4 
REMARK    3  A    between atoms: C3_4  and  N1_5 
REMARK    4  A    between atoms: N1_5  and  S2_7 
REMARK    5  A    between atoms: S2_7  and  C4_10 
REMARK    6  A    between atoms: C7_13  and  N2_14 
REMARK       I    between atoms: N2_14  and  C8_16 
REMARK    7  A    between atoms: C8_16  and  C9_18 
ROOT
HETATM    1  C4  UNL     1      23.264 -18.872  -8.958  1.00  0.00     0.082 A 
HETATM    2  C5  UNL     1      23.726 -19.163  -7.703  1.00  0.00     0.027 A 
HETATM    3  C6  UNL     1      23.660 -20.477  -7.240  1.00  0.00     0.033 A 
HETATM    4  C7  UNL     1      23.156 -21.522  -7.965  1.00  0.00     0.057 A 
HETATM    5  C13 UNL     1      22.690 -21.190  -9.248  1.00  0.00     0.062 A 
HETATM    6 CL1  UNL     1      22.026 -22.445 -10.259  1.00  0.00    -0.082 Cl
HETATM    7  C14 UNL     1      22.751 -19.906  -9.709  1.00  0.00     0.051 A 
ENDROOT
BRANCH   4   8
HETATM    8  N2  UNL     1      23.076 -22.866  -7.522  1.00  0.00    -0.320 N 
HETATM    9  C8  UNL     1      22.012 -23.536  -6.925  1.00  0.00     0.280 C 
HETATM   10  O3  UNL     1      20.916 -22.990  -6.692  1.00  0.00    -0.265 OA
ATOM     11  H2  UNL     1      23.919 -23.423  -7.660  1.00  0.00     0.169 HD
BRANCH   9  12
HETATM   12  C9  UNL     1      22.200 -24.960  -6.556  1.00  0.00     0.145 A 
HETATM   13  C10 UNL     1      21.418 -25.642  -5.660  1.00  0.00     0.047 A 
HETATM   14  C11 UNL     1      21.931 -26.926  -5.609  1.00  0.00     0.056 A 
HETATM   15  C12 UNL     1      23.000 -26.928  -6.490  1.00  0.00     0.158 A 
HETATM   16  N3  UNL     1      23.826 -28.063  -6.752  1.00  0.00    -0.075 NA
HETATM   17  O4  UNL     1      23.127 -25.723  -7.038  1.00  0.00    -0.290 OA
ENDBRANCH   9  12
ENDBRANCH   4   8
BRANCH   1  18
HETATM   18  S2  UNL     1      23.342 -17.234  -9.544  1.00  0.00     0.269 S 
HETATM   19  O1  UNL     1      21.953 -16.646  -9.659  1.00  0.00    -0.200 OA
HETATM   20  O2  UNL     1      24.190 -16.416  -8.637  1.00  0.00    -0.200 OA
BRANCH  18  21
HETATM   21  N1  UNL     1      23.999 -17.303 -11.157  1.00  0.00    -0.239 N 
ATOM     22  H1  UNL     1      23.746 -18.056 -11.797  1.00  0.00     0.189 HD
BRANCH  21  23
HETATM   23  C3  UNL     1      24.809 -16.380 -11.510  1.00  0.00     0.014 C 
BRANCH  23  24
HETATM   24  S1  UNL     1      25.963 -15.301 -11.912  1.00  0.00    -0.069 SA
BRANCH  24  25
HETATM   25  C2  UNL     1      27.634 -15.984 -12.226  1.00  0.00     0.084 C 
HETATM   26  C1  UNL     1      27.602 -17.441 -12.564  1.00  0.00     0.017 C 
ENDBRANCH  24  25
ENDBRANCH  23  24
ENDBRANCH  21  23
ENDBRANCH  18  21
ENDBRANCH   1  18
TORSDOF 7
ENDMDL
MODEL 2
REMARK VINA RESULT: -7.693277952      1.466      1.731
REMARK  7 active torsions:
REMARK  status: ('A' for Active; 'I' for Inactive)
REMARK    1  A    between atoms: C2_2  and  S1_3 
REMARK    2  A    between atoms: S1_3  and  C3_4 
REMARK    3  A    between atoms: C3_4  and  N1_5 
REMARK    4  A    between atoms: N1_5  and  S2_7 
REMARK    5  A    between atoms: S2_7  and  C4_10 
REMARK    6  A    between atoms: C7_13  and  N2_14 
REMARK       I    between atoms: N2_14  and  C8_16 
REMARK    7  A    between atoms: C8_16  and  C9_18 
ROOT
HETATM    1  C4  UNL     1      23.518 -18.218  -9.295  1.00  0.00     0.082 A 
HETATM    2  C5  UNL     1      23.752 -19.329 -10.060  1.00  0.00     0.027 A 
HETATM    3  C6  UNL     1      23.667 -20.591  -9.473  1.00  0.00     0.033 A 
HETATM    4  C7  UNL     1      23.360 -20.807  -8.158  1.00  0.00     0.057 A 
HETATM    5  C13 UNL     1      23.126 -19.647  -7.401  1.00  0.00     0.062 A 
HETATM    6 CL1  UNL     1      22.727 -19.804  -5.711  1.00  0.00    -0.082 Cl
HETATM    7  C14 UNL     1      23.207 -18.407  -7.967  1.00  0.00     0.051 A 
ENDROOT
BRANCH   4   8
HETATM    8  N2  UNL     1      23.266 -22.076  -7.533  1.00  0.00    -0.320 N 
HETATM    9  C8  UNL     1      22.252 -23.024  -7.611  1.00  0.00     0.280 C 
HETATM   10  O3  UNL     1      21.223 -22.858  -8.295  1.00  0.00    -0.265 OA
ATOM     11  H2  UNL     1      24.057 -22.330  -6.941  1.00  0.00     0.169 HD
BRANCH   9  12
HETATM   12  C9  UNL     1      22.412 -24.285  -6.845  1.00  0.00     0.145 A 
HETATM   13  C10 UNL     1      21.479 -24.791  -5.976  1.00  0.00     0.047 A 
HETATM   14  C11 UNL     1      22.020 -25.965  -5.482  1.00  0.00     0.056 A 
HETATM   15  C12 UNL     1      23.256 -26.085  -6.096  1.00  0.00     0.158 A 
HETATM   16  N3  UNL     1      24.164 -27.164  -5.873  1.00  0.00    -0.075 NA
HETATM   17  O4  UNL     1      23.451 -25.051  -6.908  1.00  0.00    -0.290 OA
ENDBRANCH   9  12
ENDBRANCH   4   8
BRANCH   1  18
HETATM   18  S2  UNL     1      23.623 -16.638 -10.020  1.00  0.00     0.269 S 
HETATM   19  O1  UNL     1      22.254 -16.002 -10.103  1.00  0.00    -0.200 OA
HETATM   20  O2  UNL     1      24.556 -15.786  -9.235  1.00  0.00    -0.200 OA
BRANCH  18  21
HETATM   21  N1  UNL     1      24.177 -16.867 -11.656  1.00  0.00    -0.239 N 
ATOM     22  H1  UNL     1      23.594 -17.335 -12.349  1.00  0.00     0.189 HD
BRANCH  21  23
HETATM   23  C3  UNL     1      25.339 -16.427 -11.958  1.00  0.00     0.014 C 
BRANCH  23  24
HETATM   24  S1  UNL     1      26.854 -16.017 -12.400  1.00  0.00    -0.069 SA
BRANCH  24  25
HETATM   25  C2  UNL     1      27.974 -17.403 -12.828  1.00  0.00     0.084 C 
HETATM   26  C1  UNL     1      28.521 -17.290 -14.215  1.00  0.00     0.017 C 
ENDBRANCH  24  25
ENDBRANCH  23  24
ENDBRANCH  21  23
ENDBRANCH  18  21
ENDBRANCH   1  18
TORSDOF 7
ENDMDL
MODEL 3
REMARK VINA RESULT: -7.640104610      4.068      9.133
REMARK  7 active torsions:
REMARK  status: ('A' for Active; 'I' for Inactive)
REMARK    1  A    between atoms: C2_2  and  S1_3 
REMARK    2  A    between atoms: S1_3  and  C3_4 
REMARK    3  A    between atoms: C3_4  and  N1_5 
REMARK    4  A    between atoms: N1_5  and  S2_7 
REMARK    5  A    between atoms: S2_7  and  C4_10 
REMARK    6  A    between atoms: C7_13  and  N2_14 
REMARK       I    between atoms: N2_14  and  C8_16 
REMARK    7  A    between atoms: C8_16  and  C9_18 
ROOT
HETATM    1  C4  UNL     1      23.363 -24.668  -6.629  1.00  0.00     0.082 A 
HETATM    2  C5  UNL     1      22.177 -24.123  -7.043  1.00  0.00     0.027 A 
HETATM    3  C6  UNL     1      22.165 -22.823  -7.550  1.00  0.00     0.033 A 
HETATM    4  C7  UNL     1      23.276 -22.035  -7.669  1.00  0.00     0.057 A 
HETATM    5  C13 UNL     1      24.476 -22.624  -7.237  1.00  0.00     0.062 A 
HETATM    6 CL1  UNL     1      25.955 -21.707  -7.343  1.00  0.00    -0.082 Cl
HETATM    7  C14 UNL     1      24.498 -23.895  -6.738  1.00  0.00     0.051 A 
ENDROOT
BRANCH   4   8
HETATM    8  N2  UNL     1      23.294 -20.712  -8.180  1.00  0.00    -0.320 N 
HETATM    9  C8  UNL     1      23.186 -19.504  -7.501  1.00  0.00     0.280 C 
HETATM   10  O3  UNL     1      23.050 -19.433  -6.264  1.00  0.00    -0.265 OA
ATOM     11  H2  UNL     1      23.402 -20.637  -9.192  1.00  0.00     0.169 HD
BRANCH   9  12
HETATM   12  C9  UNL     1      23.236 -18.249  -8.292  1.00  0.00     0.145 A 
HETATM   13  C10 UNL     1      22.226 -17.324  -8.350  1.00  0.00     0.047 A 
HETATM   14  C11 UNL     1      22.678 -16.321  -9.190  1.00  0.00     0.056 A 
HETATM   15  C12 UNL     1      23.945 -16.718  -9.584  1.00  0.00     0.158 A 
HETATM   16  N3  UNL     1      24.785 -15.971 -10.463  1.00  0.00    -0.075 NA
HETATM   17  O4  UNL     1      24.242 -17.885  -9.020  1.00  0.00    -0.290 OA
ENDBRANCH   9  12
ENDBRANCH   4   8
BRANCH   1  18
HETATM   18  S2  UNL     1      23.389 -26.289  -5.994  1.00  0.00     0.269 S 
HETATM   19  O1  UNL     1      23.423 -27.298  -7.119  1.00  0.00    -0.200 OA
HETATM   20  O2  UNL     1      24.561 -26.457  -5.095  1.00  0.00    -0.200 OA
BRANCH  18  21
HETATM   21  N1  UNL     1      21.884 -26.524  -5.146  1.00  0.00    -0.239 N 
ATOM     22  H1  UNL     1      21.768 -26.213  -4.182  1.00  0.00     0.189 HD
BRANCH  21  23
HETATM   23  C3  UNL     1      20.931 -27.099  -5.774  1.00  0.00     0.014 C 
BRANCH  23  24
HETATM   24  S1  UNL     1      19.693 -27.692  -6.655  1.00  0.00    -0.069 SA
BRANCH  24  25
HETATM   25  C2  UNL     1      18.560 -26.454  -7.391  1.00  0.00     0.084 C 
HETATM   26  C1  UNL     1      18.557 -25.161  -6.638  1.00  0.00     0.017 C 
ENDBRANCH  24  25
ENDBRANCH  23  24
ENDBRANCH  21  23
ENDBRANCH  18  21
ENDBRANCH   1  18
TORSDOF 7
ENDMDL
MODEL 4
REMARK VINA RESULT: -7.534372660      2.411      3.383
REMARK  7 active torsions:
REMARK  status: ('A' for Active; 'I' for Inactive)
REMARK    1  A    between atoms: C2_2  and  S1_3 
REMARK    2  A    between atoms: S1_3  and  C3_4 
REMARK    3  A    between atoms: C3_4  and  N1_5 
REMARK    4  A    between atoms: N1_5  and  S2_7 
REMARK    5  A    between atoms: S2_7  and  C4_10 
REMARK    6  A    between atoms: C7_13  and  N2_14 
REMARK       I    between atoms: N2_14  and  C8_16 
REMARK    7  A    between atoms: C8_16  and  C9_18 
ROOT
HETATM    1  C4  UNL     1      23.042 -18.701  -8.463  1.00  0.00     0.082 A 
HETATM    2  C5  UNL     1      23.307 -19.058  -7.168  1.00  0.00     0.027 A 
HETATM    3  C6  UNL     1      23.261 -20.405  -6.809  1.00  0.00     0.033 A 
HETATM    4  C7  UNL     1      22.965 -21.421  -7.676  1.00  0.00     0.057 A 
HETATM    5  C13 UNL     1      22.699 -21.021  -8.996  1.00  0.00     0.062 A 
HETATM    6 CL1  UNL     1      22.309 -22.235 -10.186  1.00  0.00    -0.082 Cl
HETATM    7  C14 UNL     1      22.741 -19.705  -9.356  1.00  0.00     0.051 A 
ENDROOT
BRANCH   4   8
HETATM    8  N2  UNL     1      22.911 -22.798  -7.341  1.00  0.00    -0.320 N 
HETATM    9  C8  UNL     1      21.848 -23.541  -6.838  1.00  0.00     0.280 C 
HETATM   10  O3  UNL     1      20.728 -23.046  -6.604  1.00  0.00    -0.265 OA
ATOM     11  H2  UNL     1      23.776 -23.318  -7.490  1.00  0.00     0.169 HD
BRANCH   9  12
HETATM   12  C9  UNL     1      22.068 -24.985  -6.573  1.00  0.00     0.145 A 
HETATM   13  C10 UNL     1      21.179 -25.800  -5.921  1.00  0.00     0.047 A 
HETATM   14  C11 UNL     1      21.767 -27.052  -5.888  1.00  0.00     0.056 A 
HETATM   15  C12 UNL     1      22.986 -26.901  -6.530  1.00  0.00     0.158 A 
HETATM   16  N3  UNL     1      23.929 -27.954  -6.724  1.00  0.00    -0.075 NA
HETATM   17  O4  UNL     1      23.126 -25.639  -6.926  1.00  0.00    -0.290 OA
ENDBRANCH   9  12
ENDBRANCH   4   8
BRANCH   1  18
HETATM   18  S2  UNL     1      23.096 -17.022  -8.920  1.00  0.00     0.269 S 
HETATM   19  O1  UNL     1      24.491 -16.637  -9.358  1.00  0.00    -0.200 OA
HETATM   20  O2  UNL     1      22.110 -16.764 -10.003  1.00  0.00    -0.200 OA
BRANCH  18  21
HETATM   21  N1  UNL     1      22.741 -16.096  -7.487  1.00  0.00    -0.239 N 
ATOM     22  H1  UNL     1      23.306 -16.192  -6.643  1.00  0.00     0.189 HD
BRANCH  21  23
HETATM   23  C3  UNL     1      21.749 -15.291  -7.529  1.00  0.00     0.014 C 
BRANCH  23  24
HETATM   24  S1  UNL     1      20.527 -14.215  -7.433  1.00  0.00    -0.069 SA
BRANCH  24  25
HETATM   25  C2  UNL     1      19.196 -14.392  -8.680  1.00  0.00     0.084 C 
HETATM   26  C1  UNL     1      19.691 -14.202 -10.078  1.00  0.00     0.017 C 
ENDBRANCH  24  25
ENDBRANCH  23  24
ENDBRANCH  21  23
ENDBRANCH  18  21
ENDBRANCH   1  18
TORSDOF 7
ENDMDL
MODEL 5
REMARK VINA RESULT: -7.503314454      4.733      5.989
REMARK  7 active torsions:
REMARK  status: ('A' for Active; 'I' for Inactive)
REMARK    1  A    between atoms: C2_2  and  S1_3 
REMARK    2  A    between atoms: S1_3  and  C3_4 
REMARK    3  A    between atoms: C3_4  and  N1_5 
REMARK    4  A    between atoms: N1_5  and  S2_7 
REMARK    5  A    between atoms: S2_7  and  C4_10 
REMARK    6  A    between atoms: C7_13  and  N2_14 
REMARK       I    between atoms: N2_14  and  C8_16 
REMARK    7  A    between atoms: C8_16  and  C9_18 
ROOT
HETATM    1  C4  UNL     1      22.280 -22.641  -8.332  1.00  0.00     0.082 A 
HETATM    2  C5  UNL     1      21.678 -22.795  -9.552  1.00  0.00     0.027 A 
HETATM    3  C6  UNL     1      20.562 -23.624  -9.662  1.00  0.00     0.033 A 
HETATM    4  C7  UNL     1      20.009 -24.311  -8.617  1.00  0.00     0.057 A 
HETATM    5  C13 UNL     1      20.650 -24.132  -7.379  1.00  0.00     0.062 A 
HETATM    6 CL1  UNL     1      20.030 -24.962  -5.977  1.00  0.00    -0.082 Cl
HETATM    7  C14 UNL     1      21.743 -23.323  -7.262  1.00  0.00     0.051 A 
ENDROOT
BRANCH   4   8
HETATM    8  N2  UNL     1      18.877 -25.160  -8.698  1.00  0.00    -0.320 N 
HETATM    9  C8  UNL     1      17.532 -24.856  -8.511  1.00  0.00     0.280 C 
HETATM   10  O3  UNL     1      17.131 -23.710  -8.229  1.00  0.00    -0.265 OA
ATOM     11  H2  UNL     1      19.077 -26.134  -8.926  1.00  0.00     0.169 HD
BRANCH   9  12
HETATM   12  C9  UNL     1      16.541 -25.950  -8.658  1.00  0.00     0.145 A 
HETATM   13  C10 UNL     1      16.794 -27.153  -9.264  1.00  0.00     0.047 A 
HETATM   14  C11 UNL     1      15.614 -27.873  -9.186  1.00  0.00     0.056 A 
HETATM   15  C12 UNL     1      14.721 -27.041  -8.530  1.00  0.00     0.158 A 
HETATM   16  N3  UNL     1      13.369 -27.386  -8.233  1.00  0.00    -0.075 NA
HETATM   17  O4  UNL     1      15.321 -25.893  -8.230  1.00  0.00    -0.290 OA
ENDBRANCH   9  12
ENDBRANCH   4   8
BRANCH   1  18
HETATM   18  S2  UNL     1      23.674 -21.609  -8.185  1.00  0.00     0.269 S 
HETATM   19  O1  UNL     1      24.794 -22.331  -7.470  1.00  0.00    -0.200 OA
HETATM   20  O2  UNL     1      24.110 -21.159  -9.534  1.00  0.00    -0.200 OA
BRANCH  18  21
HETATM   21  N1  UNL     1      23.208 -20.268  -7.174  1.00  0.00    -0.239 N 
ATOM     22  H1  UNL     1      23.051 -20.392  -6.174  1.00  0.00     0.189 HD
BRANCH  21  23
HETATM   23  C3  UNL     1      23.068 -19.125  -7.728  1.00  0.00     0.014 C 
BRANCH  23  24
HETATM   24  S1  UNL     1      22.841 -17.746  -8.569  1.00  0.00    -0.069 SA
BRANCH  24  25
HETATM   25  C2  UNL     1      23.091 -16.185  -7.643  1.00  0.00     0.084 C 
HETATM   26  C1  UNL     1      22.200 -16.080  -6.446  1.00  0.00     0.017 C 
ENDBRANCH  24  25
ENDBRANCH  23  24
ENDBRANCH  21  23
ENDBRANCH  18  21
ENDBRANCH   1  18
TORSDOF 7
ENDMDL
