MODEL 1
REMARK VINA RESULT: -8.496678611      0.000      0.000
REMARK  7 active torsions:
REMARK  status: ('A' for Active; 'I' for Inactive)
REMARK    1  A    between atoms: O1_1  and  C1_3 
REMARK    2  A    between atoms: C3_5  and  C4_6 
REMARK    3  A    between atoms: C4_6  and  O2_7 
REMARK    4  A    between atoms: C4_6  and  N1_9 
REMARK    5  A    between atoms: N1_9  and  N2_11 
REMARK    6  A    between atoms: C5_13  and  C6_15 
REMARK    7  A    between atoms: N3_22  and  C11_23 
ROOT
HETATM    1  C4  UNL     1      19.430 -24.710  -8.799  1.00  0.00     0.268 C 
ENDROOT
BRANCH   1   2
HETATM    2  C3  UNL     1      20.587 -23.805  -9.022  1.00  0.00     0.011 A 
HETATM    3  C2  UNL     1      20.787 -22.928 -10.054  1.00  0.00     0.069 A 
HETATM    4  C1  UNL     1      21.985 -22.291  -9.878  1.00  0.00     0.147 A 
HETATM    5  N3  UNL     1      22.523 -22.768  -8.743  1.00  0.00    -0.302 N 
HETATM    6  C10 UNL     1      21.711 -23.683  -8.196  1.00  0.00     0.111 A 
BRANCH   4   7
HETATM    7  O1  UNL     1      22.559 -21.316 -10.715  1.00  0.00    -0.346 OA
ATOM      8  H1  UNL     1      22.285 -20.411 -10.814  1.00  0.00     0.219 HD
ENDBRANCH   4   7
BRANCH   5   9
HETATM    9  C11 UNL     1      23.778 -22.339  -8.225  1.00  0.00     0.041 A 
HETATM   10  C12 UNL     1      24.429 -23.096  -7.274  1.00  0.00     0.030 A 
HETATM   11  C13 UNL     1      25.647 -22.698  -6.760  1.00  0.00     0.002 A 
HETATM   12  C14 UNL     1      26.268 -21.534  -7.166  1.00  0.00     0.000 A 
HETATM   13  C15 UNL     1      25.619 -20.775  -8.117  1.00  0.00     0.002 A 
HETATM   14  C16 UNL     1      24.389 -21.173  -8.639  1.00  0.00     0.030 A 
ENDBRANCH   5   9
ENDBRANCH   1   2
BRANCH   1  15
HETATM   15  O2  UNL     1      19.492 -25.840  -9.593  1.00  0.00    -0.371 OA
ATOM     16  H2  UNL     1      18.675 -26.001 -10.050  1.00  0.00     0.212 HD
ENDBRANCH   1  15
BRANCH   1  17
HETATM   17  N1  UNL     1      19.294 -25.046  -7.406  1.00  0.00    -0.301 N 
ATOM     18  H1  UNL     1      19.304 -24.265  -6.750  1.00  0.00     0.183 HD
BRANCH  17  19
HETATM   19  N2  UNL     1      19.153 -26.289  -6.861  1.00  0.00    -0.277 N 
HETATM   20  C5  UNL     1      19.977 -27.053  -6.298  1.00  0.00     0.216 C 
HETATM   21  F1  UNL     1      19.499 -28.257  -5.857  1.00  0.00    -0.184 F 
ATOM     22  H2  UNL     1      18.207 -26.667  -6.923  1.00  0.00     0.189 HD
BRANCH  20  23
HETATM   23  C6  UNL     1      21.404 -26.771  -6.071  1.00  0.00     0.064 A 
HETATM   24  C7  UNL     1      22.022 -26.151  -5.015  1.00  0.00     0.044 A 
HETATM   25  C8  UNL     1      23.378 -26.124  -5.260  1.00  0.00     0.144 A 
HETATM   26  O3  UNL     1      23.561 -26.705  -6.415  1.00  0.00    -0.314 OA
HETATM   27  C9  UNL     1      22.433 -27.107  -6.941  1.00  0.00     0.136 A 
HETATM   28 BR1  UNL     1      22.229 -28.000  -8.611  1.00  0.00    -0.022 Br
ENDBRANCH  20  23
ENDBRANCH  17  19
ENDBRANCH   1  17
TORSDOF 7
ENDMDL
MODEL 2
REMARK VINA RESULT: -8.382200069      1.339      1.645
REMARK  7 active torsions:
REMARK  status: ('A' for Active; 'I' for Inactive)
REMARK    1  A    between atoms: O1_1  and  C1_3 
REMARK    2  A    between atoms: C3_5  and  C4_6 
REMARK    3  A    between atoms: C4_6  and  O2_7 
REMARK    4  A    between atoms: C4_6  and  N1_9 
REMARK    5  A    between atoms: N1_9  and  N2_11 
REMARK    6  A    between atoms: C5_13  and  C6_15 
REMARK    7  A    between atoms: N3_22  and  C11_23 
ROOT
HETATM    1  C4  UNL     1      18.204 -25.039  -7.038  1.00  0.00     0.268 C 
ENDROOT
BRANCH   1   2
HETATM    2  C3  UNL     1      19.359 -24.532  -7.825  1.00  0.00     0.011 A 
HETATM    3  C2  UNL     1      19.576 -24.639  -9.172  1.00  0.00     0.069 A 
HETATM    4  C1  UNL     1      20.763 -24.038  -9.486  1.00  0.00     0.147 A 
HETATM    5  N3  UNL     1      21.279 -23.559  -8.342  1.00  0.00    -0.302 N 
HETATM    6  C10 UNL     1      20.462 -23.837  -7.316  1.00  0.00     0.111 A 
BRANCH   4   7
HETATM    7  O1  UNL     1      21.349 -23.929 -10.761  1.00  0.00    -0.346 OA
ATOM      8  H1  UNL     1      21.840 -24.597 -11.226  1.00  0.00     0.219 HD
ENDBRANCH   4   7
BRANCH   5   9
HETATM    9  C11 UNL     1      22.518 -22.862  -8.267  1.00  0.00     0.041 A 
HETATM   10  C12 UNL     1      23.519 -23.317  -7.433  1.00  0.00     0.030 A 
HETATM   11  C13 UNL     1      24.728 -22.655  -7.347  1.00  0.00     0.002 A 
HETATM   12  C14 UNL     1      24.993 -21.517  -8.080  1.00  0.00     0.000 A 
HETATM   13  C15 UNL     1      23.995 -21.060  -8.914  1.00  0.00     0.002 A 
HETATM   14  C16 UNL     1      22.773 -21.725  -9.005  1.00  0.00     0.030 A 
ENDBRANCH   5   9
ENDBRANCH   1   2
BRANCH   1  15
HETATM   15  O2  UNL     1      17.117 -25.330  -7.840  1.00  0.00    -0.371 OA
ATOM     16  H2  UNL     1      16.296 -25.068  -7.439  1.00  0.00     0.212 HD
ENDBRANCH   1  15
BRANCH   1  17
HETATM   17  N1  UNL     1      18.583 -26.165  -6.226  1.00  0.00    -0.301 N 
ATOM     18  H1  UNL     1      18.618 -26.004  -5.219  1.00  0.00     0.183 HD
BRANCH  17  19
HETATM   19  N2  UNL     1      18.901 -27.423  -6.647  1.00  0.00    -0.277 N 
HETATM   20  C5  UNL     1      20.009 -27.999  -6.798  1.00  0.00     0.216 C 
HETATM   21  F1  UNL     1      19.975 -29.291  -7.247  1.00  0.00    -0.184 F 
ATOM     22  H2  UNL     1      18.094 -28.002  -6.883  1.00  0.00     0.189 HD
BRANCH  20  23
HETATM   23  C6  UNL     1      21.333 -27.412  -6.537  1.00  0.00     0.064 A 
HETATM   24  C7  UNL     1      21.888 -26.979  -5.360  1.00  0.00     0.044 A 
HETATM   25  C8  UNL     1      23.156 -26.507  -5.624  1.00  0.00     0.144 A 
HETATM   26  O3  UNL     1      23.349 -26.653  -6.907  1.00  0.00    -0.314 OA
HETATM   27  C9  UNL     1      22.309 -27.182  -7.499  1.00  0.00     0.136 A 
HETATM   28 BR1  UNL     1      22.151 -27.571  -9.356  1.00  0.00    -0.022 Br
ENDBRANCH  20  23
ENDBRANCH  17  19
ENDBRANCH   1  17
TORSDOF 7
ENDMDL
MODEL 3
REMARK VINA RESULT: -8.368408803      3.509      5.658
REMARK  7 active torsions:
REMARK  status: ('A' for Active; 'I' for Inactive)
REMARK    1  A    between atoms: O1_1  and  C1_3 
REMARK    2  A    between atoms: C3_5  and  C4_6 
REMARK    3  A    between atoms: C4_6  and  O2_7 
REMARK    4  A    between atoms: C4_6  and  N1_9 
REMARK    5  A    between atoms: N1_9  and  N2_11 
REMARK    6  A    between atoms: C5_13  and  C6_15 
REMARK    7  A    between atoms: N3_22  and  C11_23 
ROOT
HETATM    1  C4  UNL     1      17.785 -25.527  -7.823  1.00  0.00     0.268 C 
ENDROOT
BRANCH   1   2
HETATM    2  C3  UNL     1      18.750 -26.420  -8.515  1.00  0.00     0.011 A 
HETATM    3  C2  UNL     1      19.260 -26.294  -9.780  1.00  0.00     0.069 A 
HETATM    4  C1  UNL     1      20.113 -27.335 -10.026  1.00  0.00     0.147 A 
HETATM    5  N3  UNL     1      20.133 -28.100  -8.922  1.00  0.00    -0.302 N 
HETATM    6  C10 UNL     1      19.324 -27.582  -7.988  1.00  0.00     0.111 A 
BRANCH   4   7
HETATM    7  O1  UNL     1      20.843 -27.573 -11.206  1.00  0.00    -0.346 OA
ATOM      8  H1  UNL     1      20.774 -28.328 -11.780  1.00  0.00     0.219 HD
ENDBRANCH   4   7
BRANCH   5   9
HETATM    9  C11 UNL     1      20.914 -29.284  -8.798  1.00  0.00     0.041 A 
HETATM   10  C12 UNL     1      20.296 -30.508  -8.652  1.00  0.00     0.030 A 
HETATM   11  C13 UNL     1      21.036 -31.668  -8.530  1.00  0.00     0.002 A 
HETATM   12  C14 UNL     1      22.416 -31.661  -8.548  1.00  0.00     0.000 A 
HETATM   13  C15 UNL     1      23.037 -30.438  -8.695  1.00  0.00     0.002 A 
HETATM   14  C16 UNL     1      22.293 -29.265  -8.818  1.00  0.00     0.030 A 
ENDBRANCH   5   9
ENDBRANCH   1   2
BRANCH   1  15
HETATM   15  O2  UNL     1      16.482 -25.968  -7.953  1.00  0.00    -0.371 OA
ATOM     16  H2  UNL     1      15.860 -25.364  -7.564  1.00  0.00     0.212 HD
ENDBRANCH   1  15
BRANCH   1  17
HETATM   17  N1  UNL     1      18.148 -25.341  -6.442  1.00  0.00    -0.301 N 
ATOM     18  H1  UNL     1      17.857 -26.075  -5.796  1.00  0.00     0.183 HD
BRANCH  17  19
HETATM   19  N2  UNL     1      18.837 -24.297  -5.898  1.00  0.00    -0.277 N 
HETATM   20  C5  UNL     1      20.066 -24.115  -5.707  1.00  0.00     0.216 C 
HETATM   21  F1  UNL     1      20.431 -22.931  -5.126  1.00  0.00    -0.184 F 
ATOM     22  H2  UNL     1      18.248 -23.522  -5.591  1.00  0.00     0.189 HD
BRANCH  20  23
HETATM   23  C6  UNL     1      21.144 -25.057  -6.049  1.00  0.00     0.064 A 
HETATM   24  C7  UNL     1      21.604 -26.154  -5.368  1.00  0.00     0.044 A 
HETATM   25  C8  UNL     1      22.632 -26.718  -6.094  1.00  0.00     0.144 A 
HETATM   26  O3  UNL     1      22.777 -25.986  -7.165  1.00  0.00    -0.314 OA
HETATM   27  C9  UNL     1      21.928 -24.992  -7.194  1.00  0.00     0.136 A 
HETATM   28 BR1  UNL     1      21.785 -23.678  -8.565  1.00  0.00    -0.022 Br
ENDBRANCH  20  23
ENDBRANCH  17  19
ENDBRANCH   1  17
TORSDOF 7
ENDMDL
MODEL 4
REMARK VINA RESULT: -8.225582677      2.339      3.146
REMARK  7 active torsions:
REMARK  status: ('A' for Active; 'I' for Inactive)
REMARK    1  A    between atoms: O1_1  and  C1_3 
REMARK    2  A    between atoms: C3_5  and  C4_6 
REMARK    3  A    between atoms: C4_6  and  O2_7 
REMARK    4  A    between atoms: C4_6  and  N1_9 
REMARK    5  A    between atoms: N1_9  and  N2_11 
REMARK    6  A    between atoms: C5_13  and  C6_15 
REMARK    7  A    between atoms: N3_22  and  C11_23 
ROOT
HETATM    1  C4  UNL     1      19.111 -24.877  -6.315  1.00  0.00     0.268 C 
ENDROOT
BRANCH   1   2
HETATM    2  C3  UNL     1      20.561 -24.614  -6.506  1.00  0.00     0.011 A 
HETATM    3  C2  UNL     1      21.619 -25.391  -6.117  1.00  0.00     0.069 A 
HETATM    4  C1  UNL     1      22.785 -24.779  -6.485  1.00  0.00     0.147 A 
HETATM    5  N3  UNL     1      22.454 -23.632  -7.099  1.00  0.00    -0.302 N 
HETATM    6  C10 UNL     1      21.121 -23.495  -7.132  1.00  0.00     0.111 A 
BRANCH   4   7
HETATM    7  O1  UNL     1      24.095 -25.250  -6.270  1.00  0.00    -0.346 OA
ATOM      8  H1  UNL     1      24.830 -25.193  -6.871  1.00  0.00     0.219 HD
ENDBRANCH   4   7
BRANCH   5   9
HETATM    9  C11 UNL     1      23.408 -22.716  -7.627  1.00  0.00     0.041 A 
HETATM   10  C12 UNL     1      23.054 -21.859  -8.647  1.00  0.00     0.030 A 
HETATM   11  C13 UNL     1      23.964 -20.964  -9.173  1.00  0.00     0.002 A 
HETATM   12  C14 UNL     1      25.261 -20.882  -8.710  1.00  0.00     0.000 A 
HETATM   13  C15 UNL     1      25.619 -21.738  -7.688  1.00  0.00     0.002 A 
HETATM   14  C16 UNL     1      24.703 -22.643  -7.156  1.00  0.00     0.030 A 
ENDBRANCH   5   9
ENDBRANCH   1   2
BRANCH   1  15
HETATM   15  O2  UNL     1      18.323 -23.976  -7.006  1.00  0.00    -0.371 OA
ATOM     16  H2  UNL     1      17.983 -24.344  -7.813  1.00  0.00     0.212 HD
ENDBRANCH   1  15
BRANCH   1  17
HETATM   17  N1  UNL     1      18.781 -26.237  -6.650  1.00  0.00    -0.301 N 
ATOM     18  H1  UNL     1      18.856 -26.918  -5.894  1.00  0.00     0.183 HD
BRANCH  17  19
HETATM   19  N2  UNL     1      18.380 -26.721  -7.861  1.00  0.00    -0.277 N 
HETATM   20  C5  UNL     1      19.024 -27.235  -8.810  1.00  0.00     0.216 C 
HETATM   21  F1  UNL     1      18.301 -27.621  -9.906  1.00  0.00    -0.184 F 
ATOM     22  H2  UNL     1      17.376 -26.652  -8.026  1.00  0.00     0.189 HD
BRANCH  20  23
HETATM   23  C6  UNL     1      20.478 -27.459  -8.849  1.00  0.00     0.064 A 
HETATM   24  C7  UNL     1      21.235 -28.438  -8.258  1.00  0.00     0.044 A 
HETATM   25  C8  UNL     1      22.556 -28.226  -8.589  1.00  0.00     0.144 A 
HETATM   26  O3  UNL     1      22.585 -27.164  -9.347  1.00  0.00    -0.314 OA
HETATM   27  C9  UNL     1      21.390 -26.668  -9.536  1.00  0.00     0.136 A 
HETATM   28 BR1  UNL     1      20.965 -25.126 -10.571  1.00  0.00    -0.022 Br
ENDBRANCH  20  23
ENDBRANCH  17  19
ENDBRANCH   1  17
TORSDOF 7
ENDMDL
MODEL 5
REMARK VINA RESULT: -8.210129386      3.249      6.003
REMARK  7 active torsions:
REMARK  status: ('A' for Active; 'I' for Inactive)
REMARK    1  A    between atoms: O1_1  and  C1_3 
REMARK    2  A    between atoms: C3_5  and  C4_6 
REMARK    3  A    between atoms: C4_6  and  O2_7 
REMARK    4  A    between atoms: C4_6  and  N1_9 
REMARK    5  A    between atoms: N1_9  and  N2_11 
REMARK    6  A    between atoms: C5_13  and  C6_15 
REMARK    7  A    between atoms: N3_22  and  C11_23 
ROOT
HETATM    1  C4  UNL     1      22.006 -27.949  -8.155  1.00  0.00     0.268 C 
ENDROOT
BRANCH   1   2
HETATM    2  C3  UNL     1      20.942 -27.002  -8.580  1.00  0.00     0.011 A 
HETATM    3  C2  UNL     1      21.062 -25.909  -9.395  1.00  0.00     0.069 A 
HETATM    4  C1  UNL     1      19.839 -25.311  -9.527  1.00  0.00     0.147 A 
HETATM    5  N3  UNL     1      18.967 -26.029  -8.801  1.00  0.00    -0.302 N 
HETATM    6  C10 UNL     1      19.593 -27.058  -8.214  1.00  0.00     0.111 A 
BRANCH   4   7
HETATM    7  O1  UNL     1      19.533 -24.161 -10.279  1.00  0.00    -0.346 OA
ATOM      8  H1  UNL     1      18.841 -23.532 -10.110  1.00  0.00     0.219 HD
ENDBRANCH   4   7
BRANCH   5   9
HETATM    9  C11 UNL     1      17.583 -25.713  -8.693  1.00  0.00     0.041 A 
HETATM   10  C12 UNL     1      16.631 -26.625  -9.098  1.00  0.00     0.030 A 
HETATM   11  C13 UNL     1      15.284 -26.338  -9.001  1.00  0.00     0.002 A 
HETATM   12  C14 UNL     1      14.825 -25.137  -8.500  1.00  0.00     0.000 A 
HETATM   13  C15 UNL     1      15.775 -24.222  -8.093  1.00  0.00     0.002 A 
HETATM   14  C16 UNL     1      17.136 -24.508  -8.190  1.00  0.00     0.030 A 
ENDBRANCH   5   9
ENDBRANCH   1   2
BRANCH   1  15
HETATM   15  O2  UNL     1      23.084 -27.944  -9.019  1.00  0.00    -0.371 OA
ATOM     16  H2  UNL     1      23.872 -27.611  -8.606  1.00  0.00     0.212 HD
ENDBRANCH   1  15
BRANCH   1  17
HETATM   17  N1  UNL     1      22.412 -27.699  -6.797  1.00  0.00    -0.301 N 
ATOM     18  H1  UNL     1      21.956 -28.262  -6.079  1.00  0.00     0.183 HD
BRANCH  17  19
HETATM   19  N2  UNL     1      23.336 -26.796  -6.359  1.00  0.00    -0.277 N 
HETATM   20  C5  UNL     1      23.235 -25.582  -6.047  1.00  0.00     0.216 C 
HETATM   21  F1  UNL     1      24.381 -24.954  -5.640  1.00  0.00    -0.184 F 
ATOM     22  H2  UNL     1      24.280 -27.173  -6.271  1.00  0.00     0.189 HD
BRANCH  20  23
HETATM   23  C6  UNL     1      22.002 -24.779  -6.078  1.00  0.00     0.064 A 
HETATM   24  C7  UNL     1      20.812 -24.967  -5.422  1.00  0.00     0.044 A 
HETATM   25  C8  UNL     1      19.956 -23.945  -5.773  1.00  0.00     0.144 A 
HETATM   26  O3  UNL     1      20.610 -23.180  -6.605  1.00  0.00    -0.314 OA
HETATM   27  C9  UNL     1      21.822 -23.621  -6.822  1.00  0.00     0.136 A 
HETATM   28 BR1  UNL     1      23.120 -22.820  -7.963  1.00  0.00    -0.022 Br
ENDBRANCH  20  23
ENDBRANCH  17  19
ENDBRANCH   1  17
TORSDOF 7
ENDMDL
