MODEL 1
REMARK VINA RESULT: -7.128620414      0.000      0.000
REMARK  3 active torsions:
REMARK  status: ('A' for Active; 'I' for Inactive)
REMARK    1  A    between atoms: C5_9  and  C6_10 
REMARK    2  A    between atoms: C11_17  and  O1_18 
REMARK    3  A    between atoms: C17_25  and  N5_26 
ROOT
HETATM    1  C1  UNL     1      11.245  40.403  10.170  1.00  0.00     0.038 C 
HETATM    2  C2  UNL     1      11.422  39.213  11.005  1.00  0.00     0.004 C 
HETATM    3  C3  UNL     1      11.867  38.009  10.702  1.00  0.00     0.135 C 
HETATM    4  C4  UNL     1      11.943  37.003  11.743  1.00  0.00     0.193 C 
HETATM    5  N1  UNL     1      12.010  37.509  13.127  1.00  0.00    -0.323 N 
ATOM      6  H1  UNL     1      12.165  38.499  13.314  1.00  0.00     0.181 HD
HETATM    7  N2  UNL     1      11.853  36.590  14.185  1.00  0.00    -0.306 N 
ATOM      8  H2  UNL     1      11.691  37.027  15.092  1.00  0.00     0.186 HD
HETATM    9  C5  UNL     1      11.877  35.302  14.220  1.00  0.00     0.066 C 
HETATM   10  C15 UNL     1      12.091  34.460  13.036  1.00  0.00     0.332 C 
HETATM   11  N4  UNL     1      13.076  34.852  12.104  1.00  0.00     0.106 N 
HETATM   12  C16 UNL     1      12.762  34.423  10.726  1.00  0.00     0.319 C 
HETATM   13  C17 UNL     1      13.470  35.688  10.268  1.00  0.00     0.242 C 
HETATM   14  C20 UNL     1      12.866  36.419   9.162  1.00  0.00     0.288 C 
HETATM   15  N6  UNL     1      12.223  37.670   9.388  1.00  0.00    -0.044 N 
HETATM   16  C21 UNL     1      13.104  38.715   8.841  1.00  0.00     0.279 C 
HETATM   17  C22 UNL     1      10.992  37.714   8.555  1.00  0.00     0.279 C 
HETATM   18  C23 UNL     1      13.170  36.168  11.631  1.00  0.00     0.295 C 
ENDROOT
BRANCH   9  19
HETATM   19  C6  UNL     1      11.681  34.606  15.491  1.00  0.00     0.018 A 
HETATM   20  C7  UNL     1      10.681  33.696  15.734  1.00  0.00     0.102 A 
HETATM   21  N3  UNL     1      10.808  33.275  17.026  1.00  0.00    -0.364 N 
HETATM   22  C8  UNL     1      11.851  33.895  17.583  1.00  0.00     0.043 A 
ATOM     23  H3  UNL     1      10.204  32.597  17.490  1.00  0.00     0.165 HD
HETATM   24  C9  UNL     1      12.394  33.823  18.847  1.00  0.00     0.033 A 
HETATM   25  C14 UNL     1      12.433  34.745  16.652  1.00  0.00     0.007 A 
HETATM   26  C10 UNL     1      13.495  34.589  19.163  1.00  0.00     0.039 A 
HETATM   27  C11 UNL     1      14.081  35.436  18.247  1.00  0.00     0.069 A 
HETATM   28  C13 UNL     1      13.522  35.503  16.964  1.00  0.00     0.051 A 
BRANCH  27  29
HETATM   29  O1  UNL     1      15.199  36.214  18.567  1.00  0.00    -0.356 OA
HETATM   30  C12 UNL     1      14.993  37.300  19.450  1.00  0.00     0.210 C 
ENDBRANCH  27  29
ENDBRANCH   9  19
BRANCH  13  31
HETATM   31  N5  UNL     1      14.869  35.384  10.094  1.00  0.00     0.095 N 
HETATM   32  C18 UNL     1      15.096  34.358   9.118  1.00  0.00     0.310 C 
HETATM   33  C19 UNL     1      15.745  36.494   9.979  1.00  0.00     0.310 C 
ENDBRANCH  13  31
TORSDOF 3
ENDMDL
MODEL 2
REMARK VINA RESULT: -7.038790089      1.433      3.308
REMARK  3 active torsions:
REMARK  status: ('A' for Active; 'I' for Inactive)
REMARK    1  A    between atoms: C5_9  and  C6_10 
REMARK    2  A    between atoms: C11_17  and  O1_18 
REMARK    3  A    between atoms: C17_25  and  N5_26 
ROOT
HETATM    1  C1  UNL     1      16.551  35.452   7.743  1.00  0.00     0.038 C 
HETATM    2  C2  UNL     1      15.767  35.305   8.970  1.00  0.00     0.004 C 
HETATM    3  C3  UNL     1      14.924  36.133   9.556  1.00  0.00     0.135 C 
HETATM    4  C4  UNL     1      14.272  35.723  10.784  1.00  0.00     0.193 C 
HETATM    5  N1  UNL     1      14.191  34.269  11.019  1.00  0.00    -0.323 N 
ATOM      6  H1  UNL     1      14.427  33.607  10.280  1.00  0.00     0.181 HD
HETATM    7  N2  UNL     1      13.781  33.816  12.289  1.00  0.00    -0.306 N 
ATOM      8  H2  UNL     1      13.956  32.824  12.452  1.00  0.00     0.186 HD
HETATM    9  C5  UNL     1      13.226  34.420  13.283  1.00  0.00     0.066 C 
HETATM   10  C15 UNL     1      12.883  35.849  13.278  1.00  0.00     0.332 C 
HETATM   11  N4  UNL     1      12.315  36.398  12.109  1.00  0.00     0.106 N 
HETATM   12  C16 UNL     1      12.648  37.825  11.927  1.00  0.00     0.319 C 
HETATM   13  C17 UNL     1      12.606  37.550  10.432  1.00  0.00     0.242 C 
HETATM   14  C20 UNL     1      13.630  38.187   9.614  1.00  0.00     0.288 C 
HETATM   15  N6  UNL     1      14.682  37.416   9.042  1.00  0.00    -0.044 N 
HETATM   16  C21 UNL     1      14.410  37.315   7.599  1.00  0.00     0.279 C 
HETATM   17  C22 UNL     1      15.942  38.198   9.154  1.00  0.00     0.279 C 
HETATM   18  C23 UNL     1      12.848  36.151  10.836  1.00  0.00     0.295 C 
ENDROOT
BRANCH   9  19
HETATM   19  C6  UNL     1      12.907  33.676  14.500  1.00  0.00     0.018 A 
HETATM   20  C7  UNL     1      12.176  32.512  14.533  1.00  0.00     0.102 A 
HETATM   21  N3  UNL     1      12.073  32.125  15.838  1.00  0.00    -0.364 N 
HETATM   22  C8  UNL     1      12.715  33.008  16.605  1.00  0.00     0.043 A 
ATOM     23  H3  UNL     1      11.584  31.294  16.172  1.00  0.00     0.165 HD
HETATM   24  C9  UNL     1      12.906  33.074  17.968  1.00  0.00     0.033 A 
HETATM   25  C14 UNL     1      13.257  34.006  15.804  1.00  0.00     0.007 A 
HETATM   26  C10 UNL     1      13.624  34.119  18.508  1.00  0.00     0.039 A 
HETATM   27  C11 UNL     1      14.167  35.113  17.724  1.00  0.00     0.069 A 
HETATM   28  C13 UNL     1      13.968  35.038  16.339  1.00  0.00     0.051 A 
BRANCH  27  29
HETATM   29  O1  UNL     1      14.896  36.175  18.273  1.00  0.00    -0.356 OA
HETATM   30  C12 UNL     1      14.169  37.138  19.010  1.00  0.00     0.210 C 
ENDBRANCH  27  29
ENDBRANCH   9  19
BRANCH  13  31
HETATM   31  N5  UNL     1      11.256  37.758   9.972  1.00  0.00     0.095 N 
HETATM   32  C18 UNL     1      10.893  39.145   9.924  1.00  0.00     0.310 C 
HETATM   33  C19 UNL     1      10.858  37.019   8.829  1.00  0.00     0.310 C 
ENDBRANCH  13  31
TORSDOF 3
ENDMDL
MODEL 3
REMARK VINA RESULT: -6.878131719      2.400      4.336
REMARK  3 active torsions:
REMARK  status: ('A' for Active; 'I' for Inactive)
REMARK    1  A    between atoms: C5_9  and  C6_10 
REMARK    2  A    between atoms: C11_17  and  O1_18 
REMARK    3  A    between atoms: C17_25  and  N5_26 
ROOT
HETATM    1  C1  UNL     1      16.121  34.393   7.961  1.00  0.00     0.038 C 
HETATM    2  C2  UNL     1      15.356  34.571   9.197  1.00  0.00     0.004 C 
HETATM    3  C3  UNL     1      14.758  35.637   9.692  1.00  0.00     0.135 C 
HETATM    4  C4  UNL     1      14.056  35.530  10.956  1.00  0.00     0.193 C 
HETATM    5  N1  UNL     1      13.627  34.173  11.343  1.00  0.00    -0.323 N 
ATOM      6  H1  UNL     1      13.674  33.401  10.678  1.00  0.00     0.181 HD
HETATM    7  N2  UNL     1      13.150  33.968  12.654  1.00  0.00    -0.306 N 
ATOM      8  H2  UNL     1      13.080  32.986  12.921  1.00  0.00     0.186 HD
HETATM    9  C5  UNL     1      12.786  34.790  13.577  1.00  0.00     0.066 C 
HETATM   10  C15 UNL     1      12.806  36.250  13.421  1.00  0.00     0.332 C 
HETATM   11  N4  UNL     1      12.359  36.799  12.200  1.00  0.00     0.106 N 
HETATM   12  C16 UNL     1      13.028  38.074  11.868  1.00  0.00     0.319 C 
HETATM   13  C17 UNL     1      12.882  37.665  10.411  1.00  0.00     0.242 C 
HETATM   14  C20 UNL     1      14.010  37.943   9.531  1.00  0.00     0.288 C 
HETATM   15  N6  UNL     1      14.826  36.881   9.045  1.00  0.00    -0.044 N 
HETATM   16  C21 UNL     1      14.501  36.703   7.620  1.00  0.00     0.279 C 
HETATM   17  C22 UNL     1      16.242  37.334   9.074  1.00  0.00     0.279 C 
HETATM   18  C23 UNL     1      12.783  36.299  10.961  1.00  0.00     0.295 C 
ENDROOT
BRANCH   9  19
HETATM   19  C6  UNL     1      12.325  34.276  14.866  1.00  0.00     0.018 A 
HETATM   20  C7  UNL     1      13.076  33.486  15.703  1.00  0.00     0.102 A 
HETATM   21  N3  UNL     1      12.310  33.193  16.794  1.00  0.00    -0.364 N 
HETATM   22  C8  UNL     1      11.117  33.777  16.657  1.00  0.00     0.043 A 
ATOM     23  H3  UNL     1      12.603  32.621  17.587  1.00  0.00     0.165 HD
HETATM   24  C9  UNL     1      10.003  33.792  17.466  1.00  0.00     0.033 A 
HETATM   25  C14 UNL     1      11.081  34.472  15.454  1.00  0.00     0.007 A 
HETATM   26  C10 UNL     1       8.882  34.489  17.073  1.00  0.00     0.039 A 
HETATM   27  C11 UNL     1       8.834  35.182  15.883  1.00  0.00     0.069 A 
HETATM   28  C13 UNL     1       9.972  35.161  15.065  1.00  0.00     0.051 A 
BRANCH  27  29
HETATM   29  O1  UNL     1       7.695  35.890  15.483  1.00  0.00    -0.356 OA
HETATM   30  C12 UNL     1       7.418  35.930  14.097  1.00  0.00     0.210 C 
ENDBRANCH  27  29
ENDBRANCH   9  19
BRANCH  13  31
HETATM   31  N5  UNL     1      11.613  38.152   9.930  1.00  0.00     0.095 N 
HETATM   32  C18 UNL     1      11.602  39.574   9.736  1.00  0.00     0.310 C 
HETATM   33  C19 UNL     1      11.017  37.421   8.872  1.00  0.00     0.310 C 
ENDBRANCH  13  31
TORSDOF 3
ENDMDL
MODEL 4
REMARK VINA RESULT: -6.766450586      2.492      3.410
REMARK  3 active torsions:
REMARK  status: ('A' for Active; 'I' for Inactive)
REMARK    1  A    between atoms: C5_9  and  C6_10 
REMARK    2  A    between atoms: C11_17  and  O1_18 
REMARK    3  A    between atoms: C17_25  and  N5_26 
ROOT
HETATM    1  C1  UNL     1      11.246  41.109   8.520  1.00  0.00     0.038 C 
HETATM    2  C2  UNL     1      11.607  40.009   9.416  1.00  0.00     0.004 C 
HETATM    3  C3  UNL     1      12.345  38.936   9.206  1.00  0.00     0.135 C 
HETATM    4  C4  UNL     1      12.546  37.995  10.290  1.00  0.00     0.193 C 
HETATM    5  N1  UNL     1      12.355  38.528  11.652  1.00  0.00    -0.323 N 
ATOM      6  H1  UNL     1      12.259  39.530  11.812  1.00  0.00     0.181 HD
HETATM    7  N2  UNL     1      12.309  37.618  12.728  1.00  0.00    -0.306 N 
ATOM      8  H2  UNL     1      11.960  38.022  13.598  1.00  0.00     0.186 HD
HETATM    9  C5  UNL     1      12.624  36.372  12.819  1.00  0.00     0.066 C 
HETATM   10  C15 UNL     1      13.144  35.581  11.695  1.00  0.00     0.332 C 
HETATM   11  N4  UNL     1      14.100  36.174  10.844  1.00  0.00     0.106 N 
HETATM   12  C16 UNL     1      14.033  35.658   9.462  1.00  0.00     0.319 C 
HETATM   13  C17 UNL     1      14.474  37.044   9.020  1.00  0.00     0.242 C 
HETATM   14  C20 UNL     1      13.832  37.594   7.833  1.00  0.00     0.288 C 
HETATM   15  N6  UNL     1      12.899  38.665   7.946  1.00  0.00    -0.044 N 
HETATM   16  C21 UNL     1      13.567  39.876   7.440  1.00  0.00     0.279 C 
HETATM   17  C22 UNL     1      11.781  38.405   7.001  1.00  0.00     0.279 C 
HETATM   18  C23 UNL     1      13.936  37.466  10.327  1.00  0.00     0.295 C 
ENDROOT
BRANCH   9  19
HETATM   19  C6  UNL     1      12.467  35.674  14.093  1.00  0.00     0.018 A 
HETATM   20  C7  UNL     1      13.495  35.090  14.794  1.00  0.00     0.102 A 
HETATM   21  N3  UNL     1      12.963  34.524  15.916  1.00  0.00    -0.364 N 
HETATM   22  C8  UNL     1      11.646  34.742  15.930  1.00  0.00     0.043 A 
ATOM     23  H3  UNL     1      13.487  34.018  16.630  1.00  0.00     0.165 HD
HETATM   24  C9  UNL     1      10.664  34.385  16.828  1.00  0.00     0.033 A 
HETATM   25  C14 UNL     1      11.287  35.464  14.798  1.00  0.00     0.007 A 
HETATM   26  C10 UNL     1       9.356  34.746  16.591  1.00  0.00     0.039 A 
HETATM   27  C11 UNL     1       8.988  35.463  15.473  1.00  0.00     0.069 A 
HETATM   28  C13 UNL     1       9.993  35.821  14.564  1.00  0.00     0.051 A 
BRANCH  27  29
HETATM   29  O1  UNL     1       7.659  35.829  15.232  1.00  0.00    -0.356 OA
HETATM   30  C12 UNL     1       7.328  36.203  13.909  1.00  0.00     0.210 C 
ENDBRANCH  27  29
ENDBRANCH   9  19
BRANCH  13  31
HETATM   31  N5  UNL     1      15.915  37.071   8.989  1.00  0.00     0.095 N 
HETATM   32  C18 UNL     1      16.468  36.136   8.052  1.00  0.00     0.310 C 
HETATM   33  C19 UNL     1      16.521  38.353   8.950  1.00  0.00     0.310 C 
ENDBRANCH  13  31
TORSDOF 3
ENDMDL
MODEL 5
REMARK VINA RESULT: -6.741744285      1.852      3.333
REMARK  3 active torsions:
REMARK  status: ('A' for Active; 'I' for Inactive)
REMARK    1  A    between atoms: C5_9  and  C6_10 
REMARK    2  A    between atoms: C11_17  and  O1_18 
REMARK    3  A    between atoms: C17_25  and  N5_26 
ROOT
HETATM    1  C1  UNL     1      14.946  37.464  10.505  1.00  0.00     0.038 C 
HETATM    2  C2  UNL     1      14.350  36.877  11.706  1.00  0.00     0.004 C 
HETATM    3  C3  UNL     1      13.086  36.718  12.049  1.00  0.00     0.135 C 
HETATM    4  C4  UNL     1      12.773  36.091  13.318  1.00  0.00     0.193 C 
HETATM    5  N1  UNL     1      13.827  35.234  13.893  1.00  0.00    -0.323 N 
ATOM      6  H1  UNL     1      14.644  34.972  13.343  1.00  0.00     0.181 HD
HETATM    7  N2  UNL     1      13.676  34.787  15.222  1.00  0.00    -0.306 N 
ATOM      8  H2  UNL     1      14.526  34.391  15.624  1.00  0.00     0.186 HD
HETATM    9  C5  UNL     1      12.667  34.783  16.022  1.00  0.00     0.066 C 
HETATM   10  C15 UNL     1      11.341  35.306  15.663  1.00  0.00     0.332 C 
HETATM   11  N4  UNL     1      10.833  35.016  14.378  1.00  0.00     0.106 N 
HETATM   12  C16 UNL     1       9.934  36.071  13.868  1.00  0.00     0.319 C 
HETATM   13  C17 UNL     1      10.450  35.714  12.483  1.00  0.00     0.242 C 
HETATM   14  C20 UNL     1      10.707  36.819  11.569  1.00  0.00     0.288 C 
HETATM   15  N6  UNL     1      12.043  37.183  11.234  1.00  0.00    -0.044 N 
HETATM   16  C21 UNL     1      12.278  36.741   9.849  1.00  0.00     0.279 C 
HETATM   17  C22 UNL     1      12.121  38.668  11.194  1.00  0.00     0.279 C 
HETATM   18  C23 UNL     1      11.608  35.171  13.220  1.00  0.00     0.295 C 
ENDROOT
BRANCH   9  19
HETATM   19  C6  UNL     1      12.811  34.241  17.372  1.00  0.00     0.018 A 
HETATM   20  C7  UNL     1      12.446  32.969  17.744  1.00  0.00     0.102 A 
HETATM   21  N3  UNL     1      12.713  32.834  19.075  1.00  0.00    -0.364 N 
HETATM   22  C8  UNL     1      13.231  33.977  19.533  1.00  0.00     0.043 A 
ATOM     23  H3  UNL     1      12.546  31.995  19.631  1.00  0.00     0.165 HD
HETATM   24  C9  UNL     1      13.664  34.353  20.785  1.00  0.00     0.033 A 
HETATM   25  C14 UNL     1      13.311  34.894  18.492  1.00  0.00     0.007 A 
HETATM   26  C10 UNL     1      14.164  35.622  20.983  1.00  0.00     0.039 A 
HETATM   27  C11 UNL     1      14.249  36.540  19.959  1.00  0.00     0.069 A 
HETATM   28  C13 UNL     1      13.806  36.149  18.688  1.00  0.00     0.051 A 
BRANCH  27  29
HETATM   29  O1  UNL     1      14.756  37.829  20.160  1.00  0.00    -0.356 OA
HETATM   30  C12 UNL     1      15.942  38.166  19.468  1.00  0.00     0.210 C 
ENDBRANCH  27  29
ENDBRANCH   9  19
BRANCH  13  31
HETATM   31  N5  UNL     1       9.611  34.673  11.944  1.00  0.00     0.095 N 
HETATM   32  C18 UNL     1       8.329  35.156  11.520  1.00  0.00     0.310 C 
HETATM   33  C19 UNL     1      10.223  33.782  11.025  1.00  0.00     0.310 C 
ENDBRANCH  13  31
TORSDOF 3
ENDMDL
