MODEL 1
REMARK VINA RESULT: -7.226563342      0.000      0.000
REMARK  4 active torsions:
REMARK  status: ('A' for Active; 'I' for Inactive)
REMARK    1  A    between atoms: C3_3  and  C4_4 
REMARK       I    between atoms: C4_4  and  N1_6 
REMARK    2  A    between atoms: C7_9  and  C8_10 
REMARK    3  A    between atoms: C8_10  and  C9_11 
REMARK       I    between atoms: C9_11  and  N2_13 
REMARK    4  A    between atoms: N2_13  and  C10_15 
ROOT
HETATM    1  C1  UNL     1       7.498  34.465  12.995  1.00  0.00     0.028 C 
HETATM    2  C2  UNL     1       8.930  34.826  13.080  1.00  0.00     0.084 C 
HETATM    3  C3  UNL     1       9.357  35.546  14.327  1.00  0.00     0.116 C 
HETATM    4  C7  UNL     1      10.884  35.415  14.204  1.00  0.00     0.147 C 
HETATM    5  S1  UNL     1      11.047  35.912  12.482  1.00  0.00     0.217 S 
HETATM    6  O3  UNL     1      11.381  37.348  12.349  1.00  0.00    -0.211 OA
HETATM    7  O4  UNL     1      11.949  35.000  11.724  1.00  0.00    -0.211 OA
HETATM    8  N3  UNL     1       9.380  35.681  11.987  1.00  0.00    -0.209 NA
HETATM    9  C19 UNL     1       8.674  36.922  11.920  1.00  0.00     0.129 C 
ENDROOT
BRANCH   4  10
HETATM   10  C8  UNL     1      11.588  36.361  15.113  1.00  0.00     0.125 C 
BRANCH  10  11
HETATM   11  C9  UNL     1      12.784  35.697  15.675  1.00  0.00     0.219 C 
HETATM   12  O2  UNL     1      13.582  35.105  14.895  1.00  0.00    -0.274 OA
HETATM   13  N2  UNL     1      13.040  35.721  17.087  1.00  0.00    -0.356 N 
ATOM     14  H2  UNL     1      12.384  36.204  17.699  1.00  0.00     0.162 HD
BRANCH  13  15
HETATM   15  C10 UNL     1      14.191  35.086  17.663  1.00  0.00     0.084 C 
HETATM   16  C11 UNL     1      13.882  33.696  18.192  1.00  0.00     0.025 C 
HETATM   17  C12 UNL     1      12.586  33.594  18.897  1.00  0.00     0.002 C 
HETATM   18  C13 UNL     1      12.434  34.313  20.180  1.00  0.00     0.000 C 
HETATM   19  C14 UNL     1      13.564  34.257  21.123  1.00  0.00     0.000 C 
HETATM   20  C15 UNL     1      14.271  35.502  21.452  1.00  0.00     0.000 C 
HETATM   21  C16 UNL     1      13.846  36.759  20.774  1.00  0.00     0.000 C 
HETATM   22  C17 UNL     1      14.249  36.969  19.365  1.00  0.00     0.002 C 
HETATM   23  C18 UNL     1      14.958  35.894  18.658  1.00  0.00     0.025 C 
ENDBRANCH  13  15
ENDBRANCH  10  11
ENDBRANCH   4  10
BRANCH   3  24
HETATM   24  C4  UNL     1       8.850  34.987  15.560  1.00  0.00     0.226 C 
HETATM   25  O1  UNL     1       7.950  35.667  16.165  1.00  0.00    -0.273 OA
HETATM   26  N1  UNL     1       9.243  33.771  16.169  1.00  0.00    -0.360 N 
HETATM   27  C5  UNL     1       8.655  33.350  17.454  1.00  0.00     0.152 C 
HETATM   28  C6  UNL     1      10.197  32.834  15.623  1.00  0.00     0.152 C 
ENDBRANCH   3  24
TORSDOF 4
ENDMDL
MODEL 2
REMARK VINA RESULT: -6.711636066      1.703      2.006
REMARK  4 active torsions:
REMARK  status: ('A' for Active; 'I' for Inactive)
REMARK    1  A    between atoms: C3_3  and  C4_4 
REMARK       I    between atoms: C4_4  and  N1_6 
REMARK    2  A    between atoms: C7_9  and  C8_10 
REMARK    3  A    between atoms: C8_10  and  C9_11 
REMARK       I    between atoms: C9_11  and  N2_13 
REMARK    4  A    between atoms: N2_13  and  C10_15 
ROOT
HETATM    1  C1  UNL     1       8.905  34.625  10.727  1.00  0.00     0.028 C 
HETATM    2  C2  UNL     1      10.016  34.709  11.699  1.00  0.00     0.084 C 
HETATM    3  C3  UNL     1       9.626  34.718  13.149  1.00  0.00     0.116 C 
HETATM    4  C7  UNL     1      10.994  34.450  13.799  1.00  0.00     0.147 C 
HETATM    5  S1  UNL     1      11.961  35.647  12.864  1.00  0.00     0.217 S 
HETATM    6  O3  UNL     1      12.113  36.926  13.594  1.00  0.00    -0.211 OA
HETATM    7  O4  UNL     1      13.241  35.065  12.375  1.00  0.00    -0.211 OA
HETATM    8  N3  UNL     1      10.847  35.896  11.532  1.00  0.00    -0.209 NA
HETATM    9  C19 UNL     1      10.116  37.116  11.678  1.00  0.00     0.129 C 
ENDROOT
BRANCH   4  10
HETATM   10  C8  UNL     1      10.981  34.774  15.252  1.00  0.00     0.125 C 
BRANCH  10  11
HETATM   11  C9  UNL     1      12.227  34.276  15.872  1.00  0.00     0.219 C 
HETATM   12  O2  UNL     1      12.868  33.346  15.305  1.00  0.00    -0.274 OA
HETATM   13  N2  UNL     1      12.707  34.836  17.103  1.00  0.00    -0.356 N 
ATOM     14  H2  UNL     1      12.176  35.586  17.545  1.00  0.00     0.162 HD
BRANCH  13  15
HETATM   15  C10 UNL     1      13.912  34.375  17.731  1.00  0.00     0.084 C 
HETATM   16  C11 UNL     1      13.655  33.255  18.725  1.00  0.00     0.025 C 
HETATM   17  C12 UNL     1      12.450  33.454  19.559  1.00  0.00     0.002 C 
HETATM   18  C13 UNL     1      12.456  34.564  20.535  1.00  0.00     0.000 C 
HETATM   19  C14 UNL     1      13.688  34.770  21.315  1.00  0.00     0.000 C 
HETATM   20  C15 UNL     1      14.440  36.019  21.129  1.00  0.00     0.000 C 
HETATM   21  C16 UNL     1      13.949  36.999  20.120  1.00  0.00     0.000 C 
HETATM   22  C17 UNL     1      14.186  36.710  18.687  1.00  0.00     0.002 C 
HETATM   23  C18 UNL     1      14.798  35.429  18.310  1.00  0.00     0.025 C 
ENDBRANCH  13  15
ENDBRANCH  10  11
ENDBRANCH   4  10
BRANCH   3  24
HETATM   24  C4  UNL     1       8.633  33.736  13.523  1.00  0.00     0.226 C 
HETATM   25  O1  UNL     1       9.036  32.524  13.608  1.00  0.00    -0.273 OA
HETATM   26  N1  UNL     1       7.266  33.972  13.804  1.00  0.00    -0.360 N 
HETATM   27  C5  UNL     1       6.364  32.853  14.139  1.00  0.00     0.152 C 
HETATM   28  C6  UNL     1       6.628  35.267  13.820  1.00  0.00     0.152 C 
ENDBRANCH   3  24
TORSDOF 4
ENDMDL
MODEL 3
REMARK VINA RESULT: -6.705106045      3.641      5.525
REMARK  4 active torsions:
REMARK  status: ('A' for Active; 'I' for Inactive)
REMARK    1  A    between atoms: C3_3  and  C4_4 
REMARK       I    between atoms: C4_4  and  N1_6 
REMARK    2  A    between atoms: C7_9  and  C8_10 
REMARK    3  A    between atoms: C8_10  and  C9_11 
REMARK       I    between atoms: C9_11  and  N2_13 
REMARK    4  A    between atoms: N2_13  and  C10_15 
ROOT
HETATM    1  C1  UNL     1      14.493  31.021  11.083  1.00  0.00     0.028 C 
HETATM    2  C2  UNL     1      14.380  32.488  11.234  1.00  0.00     0.084 C 
HETATM    3  C3  UNL     1      12.995  33.059  11.132  1.00  0.00     0.116 C 
HETATM    4  C7  UNL     1      13.243  34.472  11.685  1.00  0.00     0.147 C 
HETATM    5  S1  UNL     1      14.718  34.865  10.730  1.00  0.00     0.217 S 
HETATM    6  O3  UNL     1      14.396  35.639   9.510  1.00  0.00    -0.211 OA
HETATM    7  O4  UNL     1      15.782  35.472  11.578  1.00  0.00    -0.211 OA
HETATM    8  N3  UNL     1      15.161  33.236  10.255  1.00  0.00    -0.209 NA
HETATM    9  C19 UNL     1      14.779  32.959   8.905  1.00  0.00     0.129 C 
ENDROOT
BRANCH   4  10
HETATM   10  C8  UNL     1      12.119  35.391  11.358  1.00  0.00     0.125 C 
BRANCH  10  11
HETATM   11  C9  UNL     1      11.692  36.095  12.586  1.00  0.00     0.219 C 
HETATM   12  O2  UNL     1      11.957  37.323  12.715  1.00  0.00    -0.274 OA
HETATM   13  N2  UNL     1      10.986  35.397  13.622  1.00  0.00    -0.356 N 
ATOM     14  H2  UNL     1      10.782  34.405  13.498  1.00  0.00     0.162 HD
BRANCH  13  15
HETATM   15  C10 UNL     1      10.559  36.050  14.826  1.00  0.00     0.084 C 
HETATM   16  C11 UNL     1      11.593  35.957  15.934  1.00  0.00     0.025 C 
HETATM   17  C12 UNL     1      12.250  34.637  16.037  1.00  0.00     0.002 C 
HETATM   18  C13 UNL     1      11.428  33.482  16.461  1.00  0.00     0.000 C 
HETATM   19  C14 UNL     1      10.482  33.699  17.568  1.00  0.00     0.000 C 
HETATM   20  C15 UNL     1       9.042  33.578  17.300  1.00  0.00     0.000 C 
HETATM   21  C16 UNL     1       8.602  33.292  15.905  1.00  0.00     0.000 C 
HETATM   22  C17 UNL     1       8.635  34.396  14.918  1.00  0.00     0.002 C 
HETATM   23  C18 UNL     1       9.194  35.694  15.319  1.00  0.00     0.025 C 
ENDBRANCH  13  15
ENDBRANCH  10  11
ENDBRANCH   4  10
BRANCH   3  24
HETATM   24  C4  UNL     1      11.982  32.343  11.875  1.00  0.00     0.226 C 
HETATM   25  O1  UNL     1      12.015  32.468  13.149  1.00  0.00    -0.273 OA
HETATM   26  N1  UNL     1      10.959  31.520  11.345  1.00  0.00    -0.360 N 
HETATM   27  C5  UNL     1      10.016  30.824  12.240  1.00  0.00     0.152 C 
HETATM   28  C6  UNL     1      10.713  31.294   9.941  1.00  0.00     0.152 C 
ENDBRANCH   3  24
TORSDOF 4
ENDMDL
MODEL 4
REMARK VINA RESULT: -6.661702131      4.845      6.896
REMARK  4 active torsions:
REMARK  status: ('A' for Active; 'I' for Inactive)
REMARK    1  A    between atoms: C3_3  and  C4_4 
REMARK       I    between atoms: C4_4  and  N1_6 
REMARK    2  A    between atoms: C7_9  and  C8_10 
REMARK    3  A    between atoms: C8_10  and  C9_11 
REMARK       I    between atoms: C9_11  and  N2_13 
REMARK    4  A    between atoms: N2_13  and  C10_15 
ROOT
HETATM    1  C1  UNL     1      16.495  36.775   8.510  1.00  0.00     0.028 C 
HETATM    2  C2  UNL     1      15.871  36.156   9.700  1.00  0.00     0.084 C 
HETATM    3  C3  UNL     1      14.711  35.239   9.436  1.00  0.00     0.116 C 
HETATM    4  C7  UNL     1      14.595  34.551  10.806  1.00  0.00     0.147 C 
HETATM    5  S1  UNL     1      14.680  36.022  11.840  1.00  0.00     0.217 S 
HETATM    6  O3  UNL     1      13.335  36.511  12.219  1.00  0.00    -0.211 OA
HETATM    7  O4  UNL     1      15.611  35.839  12.989  1.00  0.00    -0.211 OA
HETATM    8  N3  UNL     1      15.364  37.128  10.662  1.00  0.00    -0.209 NA
HETATM    9  C19 UNL     1      14.366  37.992  10.112  1.00  0.00     0.129 C 
ENDROOT
BRANCH   4  10
HETATM   10  C8  UNL     1      13.288  33.854  10.957  1.00  0.00     0.125 C 
BRANCH  10  11
HETATM   11  C9  UNL     1      13.319  33.021  12.179  1.00  0.00     0.219 C 
HETATM   12  O2  UNL     1      14.000  31.957  12.180  1.00  0.00    -0.274 OA
HETATM   13  N2  UNL     1      12.587  33.411  13.350  1.00  0.00    -0.356 N 
ATOM     14  H2  UNL     1      12.044  34.273  13.328  1.00  0.00     0.162 HD
BRANCH  13  15
HETATM   15  C10 UNL     1      12.596  32.624  14.550  1.00  0.00     0.084 C 
HETATM   16  C11 UNL     1      11.482  31.592  14.575  1.00  0.00     0.025 C 
HETATM   17  C12 UNL     1      10.187  32.089  14.060  1.00  0.00     0.002 C 
HETATM   18  C13 UNL     1       9.485  33.133  14.838  1.00  0.00     0.000 C 
HETATM   19  C14 UNL     1       9.456  32.977  16.302  1.00  0.00     0.000 C 
HETATM   20  C15 UNL     1      10.140  33.980  17.132  1.00  0.00     0.000 C 
HETATM   21  C16 UNL     1      10.877  35.081  16.449  1.00  0.00     0.000 C 
HETATM   22  C17 UNL     1      12.190  34.774  15.838  1.00  0.00     0.002 C 
HETATM   23  C18 UNL     1      12.668  33.384  15.834  1.00  0.00     0.025 C 
ENDBRANCH  13  15
ENDBRANCH  10  11
ENDBRANCH   4  10
BRANCH   3  24
HETATM   24  C4  UNL     1      14.909  34.297   8.358  1.00  0.00     0.226 C 
HETATM   25  O1  UNL     1      15.745  33.352   8.574  1.00  0.00    -0.273 OA
HETATM   26  N1  UNL     1      14.277  34.308   7.091  1.00  0.00    -0.360 N 
HETATM   27  C5  UNL     1      14.611  33.291   6.076  1.00  0.00     0.152 C 
HETATM   28  C6  UNL     1      13.266  35.249   6.671  1.00  0.00     0.152 C 
ENDBRANCH   3  24
TORSDOF 4
ENDMDL
MODEL 5
REMARK VINA RESULT: -6.566289769      4.622      6.292
REMARK  4 active torsions:
REMARK  status: ('A' for Active; 'I' for Inactive)
REMARK    1  A    between atoms: C3_3  and  C4_4 
REMARK       I    between atoms: C4_4  and  N1_6 
REMARK    2  A    between atoms: C7_9  and  C8_10 
REMARK    3  A    between atoms: C8_10  and  C9_11 
REMARK       I    between atoms: C9_11  and  N2_13 
REMARK    4  A    between atoms: N2_13  and  C10_15 
ROOT
HETATM    1  C1  UNL     1      16.109  33.566   7.878  1.00  0.00     0.028 C 
HETATM    2  C2  UNL     1      15.548  34.485   8.892  1.00  0.00     0.084 C 
HETATM    3  C3  UNL     1      14.315  34.009   9.605  1.00  0.00     0.116 C 
HETATM    4  C7  UNL     1      14.268  35.016  10.766  1.00  0.00     0.147 C 
HETATM    5  S1  UNL     1      14.532  36.520   9.812  1.00  0.00     0.217 S 
HETATM    6  O3  UNL     1      13.257  37.190   9.472  1.00  0.00    -0.211 OA
HETATM    7  O4  UNL     1      15.542  37.411  10.449  1.00  0.00    -0.211 OA
HETATM    8  N3  UNL     1      15.184  35.792   8.356  1.00  0.00    -0.209 NA
HETATM    9  C19 UNL     1      14.201  35.717   7.319  1.00  0.00     0.129 C 
ENDROOT
BRANCH   4  10
HETATM   10  C8  UNL     1      12.937  35.019  11.433  1.00  0.00     0.125 C 
BRANCH  10  11
HETATM   11  C9  UNL     1      13.127  35.075  12.898  1.00  0.00     0.219 C 
HETATM   12  O2  UNL     1      14.237  35.465  13.361  1.00  0.00    -0.274 OA
HETATM   13  N2  UNL     1      12.070  34.691  13.789  1.00  0.00    -0.356 N 
ATOM     14  H2  UNL     1      11.182  34.380  13.396  1.00  0.00     0.162 HD
BRANCH  13  15
HETATM   15  C10 UNL     1      12.222  34.733  15.215  1.00  0.00     0.084 C 
HETATM   16  C11 UNL     1      12.198  33.349  15.841  1.00  0.00     0.025 C 
HETATM   17  C12 UNL     1      11.184  32.442  15.260  1.00  0.00     0.002 C 
HETATM   18  C13 UNL     1       9.757  32.764  15.479  1.00  0.00     0.000 C 
HETATM   19  C14 UNL     1       9.367  33.214  16.826  1.00  0.00     0.000 C 
HETATM   20  C15 UNL     1       8.852  34.581  16.990  1.00  0.00     0.000 C 
HETATM   21  C16 UNL     1       8.798  35.467  15.794  1.00  0.00     0.000 C 
HETATM   22  C17 UNL     1      10.062  36.064  15.304  1.00  0.00     0.002 C 
HETATM   23  C18 UNL     1      11.327  35.680  15.945  1.00  0.00     0.025 C 
ENDBRANCH  13  15
ENDBRANCH  10  11
ENDBRANCH   4  10
BRANCH   3  24
HETATM   24  C4  UNL     1      14.362  32.638  10.062  1.00  0.00     0.226 C 
HETATM   25  O1  UNL     1      15.018  32.420  11.140  1.00  0.00    -0.273 OA
HETATM   26  N1  UNL     1      13.762  31.514   9.445  1.00  0.00    -0.360 N 
HETATM   27  C5  UNL     1      13.931  30.165  10.017  1.00  0.00     0.152 C 
HETATM   28  C6  UNL     1      12.938  31.553   8.261  1.00  0.00     0.152 C 
ENDBRANCH   3  24
TORSDOF 4
ENDMDL
