MODEL 1
REMARK VINA RESULT: -6.900947166      0.000      0.000
REMARK  5 active torsions:
REMARK  status: ('A' for Active; 'I' for Inactive)
REMARK    1  A    between atoms: C4_4  and  C5_5 
REMARK    2  A    between atoms: N1_9  and  O1_10 
REMARK    3  A    between atoms: C10_15  and  C11_16 
REMARK    4  A    between atoms: C12_17  and  C13_18 
REMARK       I    between atoms: C13_18  and  N3_20 
REMARK    5  A    between atoms: N3_20  and  C14_22 
ROOT
HETATM    1  C1  UNL     1      15.129  35.036   9.683  1.00  0.00     0.018 C 
HETATM    2  C2  UNL     1      14.823  33.961  10.171  1.00  0.00    -0.076 C 
HETATM    3  C3  UNL     1      14.442  32.703  10.749  1.00  0.00     0.039 A 
HETATM    4  C4  UNL     1      14.854  31.500  10.206  1.00  0.00    -0.014 A 
HETATM    5  C7  UNL     1      14.498  30.284  10.747  1.00  0.00     0.046 A 
HETATM    6  C8  UNL     1      14.980  29.007  10.108  1.00  0.00     0.071 C 
HETATM    7  N1  UNL     1      13.731  30.243  11.833  1.00  0.00    -0.211 N 
HETATM    8  C9  UNL     1      13.298  31.404  12.407  1.00  0.00     0.145 A 
HETATM    9  N2  UNL     1      12.531  31.637  13.484  1.00  0.00    -0.341 N 
ATOM     10  H2  UNL     1      12.133  30.904  14.070  1.00  0.00     0.167 HD
HETATM   11  C10 UNL     1      12.353  32.953  13.695  1.00  0.00     0.037 A 
HETATM   12  C20 UNL     1      13.060  33.602  12.674  1.00  0.00     0.044 A 
HETATM   13  C21 UNL     1      13.640  32.634  11.885  1.00  0.00     0.032 A 
ENDROOT
BRANCH   4  14
HETATM   14  C5  UNL     1      15.712  31.506   8.993  1.00  0.00     0.037 C 
HETATM   15  C6  UNL     1      14.909  31.546   7.720  1.00  0.00     0.010 C 
ENDBRANCH   4  14
BRANCH   7  16
HETATM   16  O1  UNL     1      13.348  29.061  12.413  1.00  0.00    -0.281 OA
ATOM     17  H1  UNL     1      12.465  28.718  12.329  1.00  0.00     0.245 HD
ENDBRANCH   7  16
BRANCH  11  18
HETATM   18  C11 UNL     1      11.596  33.652  14.742  1.00  0.00     0.170 C 
HETATM   19  C12 UNL     1      12.432  34.690  15.460  1.00  0.00     0.209 C 
HETATM   20  N4  UNL     1      11.595  35.834  15.612  1.00  0.00    -0.323 N 
HETATM   21  C17 UNL     1      11.908  37.135  16.168  1.00  0.00     0.155 C 
HETATM   22  C18 UNL     1      10.304  35.506  15.099  1.00  0.00     0.321 C 
HETATM   23  O3  UNL     1       9.241  36.122  15.323  1.00  0.00    -0.247 OA
HETATM   24  N5  UNL     1      10.417  34.334  14.273  1.00  0.00    -0.326 N 
HETATM   25  C19 UNL     1       9.570  33.898  13.209  1.00  0.00     0.155 C 
BRANCH  19  26
HETATM   26  C13 UNL     1      12.995  34.133  16.686  1.00  0.00     0.243 C 
HETATM   27  O2  UNL     1      14.230  33.805  16.665  1.00  0.00    -0.271 OA
HETATM   28  N3  UNL     1      12.296  33.925  17.886  1.00  0.00    -0.355 N 
ATOM     29  H3  UNL     1      11.309  34.177  17.927  1.00  0.00     0.162 HD
BRANCH  28  30
HETATM   30  C14 UNL     1      12.925  33.363  19.078  1.00  0.00     0.084 A 
HETATM   31  C15 UNL     1      13.411  34.350  20.124  1.00  0.00     0.027 A 
HETATM   32  C16 UNL     1      12.176  33.580  20.410  1.00  0.00     0.027 A 
ENDBRANCH  28  30
ENDBRANCH  19  26
ENDBRANCH  11  18
TORSDOF 5
ENDMDL
MODEL 2
REMARK VINA RESULT: -6.799067152      2.279      3.591
REMARK  5 active torsions:
REMARK  status: ('A' for Active; 'I' for Inactive)
REMARK    1  A    between atoms: C4_4  and  C5_5 
REMARK    2  A    between atoms: N1_9  and  O1_10 
REMARK    3  A    between atoms: C10_15  and  C11_16 
REMARK    4  A    between atoms: C12_17  and  C13_18 
REMARK       I    between atoms: C13_18  and  N3_20 
REMARK    5  A    between atoms: N3_20  and  C14_22 
ROOT
HETATM    1  C1  UNL     1      10.511  26.747  14.557  1.00  0.00     0.018 C 
HETATM    2  C2  UNL     1      11.043  27.598  13.865  1.00  0.00    -0.076 C 
HETATM    3  C3  UNL     1      11.677  28.610  13.067  1.00  0.00     0.039 A 
HETATM    4  C4  UNL     1      12.362  28.297  11.907  1.00  0.00    -0.014 A 
HETATM    5  C7  UNL     1      12.975  29.255  11.129  1.00  0.00     0.046 A 
HETATM    6  C8  UNL     1      13.706  28.851   9.875  1.00  0.00     0.071 C 
HETATM    7  N1  UNL     1      12.919  30.534  11.489  1.00  0.00    -0.211 N 
HETATM    8  C9  UNL     1      12.253  30.894  12.627  1.00  0.00     0.145 A 
HETATM    9  N2  UNL     1      12.051  32.090  13.203  1.00  0.00    -0.341 N 
ATOM     10  H2  UNL     1      12.402  32.971  12.829  1.00  0.00     0.167 HD
HETATM   11  C10 UNL     1      11.329  31.983  14.333  1.00  0.00     0.037 A 
HETATM   12  C20 UNL     1      11.054  30.618  14.483  1.00  0.00     0.044 A 
HETATM   13  C21 UNL     1      11.632  29.955  13.423  1.00  0.00     0.032 A 
ENDROOT
BRANCH   4  14
HETATM   14  C5  UNL     1      12.446  26.879  11.472  1.00  0.00     0.037 C 
HETATM   15  C6  UNL     1      11.270  26.465  10.629  1.00  0.00     0.010 C 
ENDBRANCH   4  14
BRANCH   7  16
HETATM   16  O1  UNL     1      13.511  31.528  10.753  1.00  0.00    -0.281 OA
ATOM     17  H1  UNL     1      13.301  31.675   9.838  1.00  0.00     0.245 HD
ENDBRANCH   7  16
BRANCH  11  18
HETATM   18  C11 UNL     1      10.879  33.020  15.272  1.00  0.00     0.170 C 
HETATM   19  C12 UNL     1      11.935  34.078  15.510  1.00  0.00     0.209 C 
HETATM   20  N4  UNL     1      11.251  35.328  15.497  1.00  0.00    -0.323 N 
HETATM   21  C17 UNL     1      11.787  36.671  15.608  1.00  0.00     0.155 C 
HETATM   22  C18 UNL     1       9.857  35.066  15.343  1.00  0.00     0.321 C 
HETATM   23  O3  UNL     1       8.924  35.861  15.583  1.00  0.00    -0.247 OA
HETATM   24  N5  UNL     1       9.688  33.721  14.862  1.00  0.00    -0.326 N 
HETATM   25  C19 UNL     1       8.597  33.155  14.134  1.00  0.00     0.155 C 
BRANCH  19  26
HETATM   26  C13 UNL     1      12.700  33.771  16.715  1.00  0.00     0.243 C 
HETATM   27  O2  UNL     1      13.943  33.513  16.567  1.00  0.00    -0.271 OA
HETATM   28  N3  UNL     1      12.188  33.736  18.022  1.00  0.00    -0.355 N 
ATOM     29  H3  UNL     1      11.199  33.937  18.165  1.00  0.00     0.162 HD
BRANCH  28  30
HETATM   30  C14 UNL     1      13.014  33.422  19.185  1.00  0.00     0.084 A 
HETATM   31  C15 UNL     1      13.603  34.600  19.941  1.00  0.00     0.027 A 
HETATM   32  C16 UNL     1      12.464  33.875  20.553  1.00  0.00     0.027 A 
ENDBRANCH  28  30
ENDBRANCH  19  26
ENDBRANCH  11  18
TORSDOF 5
ENDMDL
MODEL 3
REMARK VINA RESULT: -6.675424313      3.520      5.033
REMARK  5 active torsions:
REMARK  status: ('A' for Active; 'I' for Inactive)
REMARK    1  A    between atoms: C4_4  and  C5_5 
REMARK    2  A    between atoms: N1_9  and  O1_10 
REMARK    3  A    between atoms: C10_15  and  C11_16 
REMARK    4  A    between atoms: C12_17  and  C13_18 
REMARK       I    between atoms: C13_18  and  N3_20 
REMARK    5  A    between atoms: N3_20  and  C14_22 
ROOT
HETATM    1  C1  UNL     1      10.809  39.735  10.829  1.00  0.00     0.018 C 
HETATM    2  C2  UNL     1      11.817  39.050  10.785  1.00  0.00    -0.076 C 
HETATM    3  C3  UNL     1      12.992  38.226  10.739  1.00  0.00     0.039 A 
HETATM    4  C4  UNL     1      13.939  38.367   9.741  1.00  0.00    -0.014 A 
HETATM    5  C7  UNL     1      15.072  37.585   9.682  1.00  0.00     0.046 A 
HETATM    6  C8  UNL     1      16.067  37.788   8.569  1.00  0.00     0.071 C 
HETATM    7  N1  UNL     1      15.283  36.655  10.608  1.00  0.00    -0.211 N 
HETATM    8  C9  UNL     1      14.376  36.476  11.615  1.00  0.00     0.145 A 
HETATM    9  N2  UNL     1      14.350  35.626  12.653  1.00  0.00    -0.341 N 
ATOM     10  H2  UNL     1      15.075  34.934  12.843  1.00  0.00     0.167 HD
HETATM   11  C10 UNL     1      13.252  35.797  13.411  1.00  0.00     0.037 A 
HETATM   12  C20 UNL     1      12.529  36.834  12.806  1.00  0.00     0.044 A 
HETATM   13  C21 UNL     1      13.235  37.245  11.697  1.00  0.00     0.032 A 
ENDROOT
BRANCH   4  14
HETATM   14  C5  UNL     1      13.738  39.396   8.688  1.00  0.00     0.037 C 
HETATM   15  C6  UNL     1      12.914  38.887   7.536  1.00  0.00     0.010 C 
ENDBRANCH   4  14
BRANCH   7  16
HETATM   16  O1  UNL     1      16.393  35.850  10.596  1.00  0.00    -0.281 OA
ATOM     17  H1  UNL     1      16.448  35.055  11.115  1.00  0.00     0.245 HD
ENDBRANCH   7  16
BRANCH  11  18
HETATM   18  C11 UNL     1      12.821  35.095  14.627  1.00  0.00     0.170 C 
HETATM   19  C12 UNL     1      11.760  35.863  15.388  1.00  0.00     0.209 C 
HETATM   20  N4  UNL     1      10.793  34.898  15.796  1.00  0.00    -0.323 N 
HETATM   21  C17 UNL     1       9.538  35.094  16.496  1.00  0.00     0.155 C 
HETATM   22  C18 UNL     1      11.256  33.611  15.391  1.00  0.00     0.321 C 
HETATM   23  O3  UNL     1      10.850  32.510  15.820  1.00  0.00    -0.247 OA
HETATM   24  N5  UNL     1      12.282  33.778  14.397  1.00  0.00    -0.326 N 
HETATM   25  C19 UNL     1      12.711  32.868  13.384  1.00  0.00     0.155 C 
BRANCH  19  26
HETATM   26  C13 UNL     1      12.370  36.658  16.448  1.00  0.00     0.243 C 
HETATM   27  O2  UNL     1      12.146  37.916  16.437  1.00  0.00    -0.271 OA
HETATM   28  N3  UNL     1      13.181  36.160  17.482  1.00  0.00    -0.355 N 
ATOM     29  H3  UNL     1      13.375  35.159  17.511  1.00  0.00     0.162 HD
BRANCH  28  30
HETATM   30  C14 UNL     1      13.757  37.016  18.514  1.00  0.00     0.084 A 
HETATM   31  C15 UNL     1      13.910  36.409  19.898  1.00  0.00     0.027 A 
HETATM   32  C16 UNL     1      15.129  36.581  19.071  1.00  0.00     0.027 A 
ENDBRANCH  28  30
ENDBRANCH  19  26
ENDBRANCH  11  18
TORSDOF 5
ENDMDL
MODEL 4
REMARK VINA RESULT: -6.563098432      3.816      5.627
REMARK  5 active torsions:
REMARK  status: ('A' for Active; 'I' for Inactive)
REMARK    1  A    between atoms: C4_4  and  C5_5 
REMARK    2  A    between atoms: N1_9  and  O1_10 
REMARK    3  A    between atoms: C10_15  and  C11_16 
REMARK    4  A    between atoms: C12_17  and  C13_18 
REMARK       I    between atoms: C13_18  and  N3_20 
REMARK    5  A    between atoms: N3_20  and  C14_22 
ROOT
HETATM    1  C1  UNL     1       8.879  38.346  10.899  1.00  0.00     0.018 C 
HETATM    2  C2  UNL     1      10.088  38.204  10.823  1.00  0.00    -0.076 C 
HETATM    3  C3  UNL     1      11.510  38.017  10.739  1.00  0.00     0.039 A 
HETATM    4  C4  UNL     1      12.256  38.574   9.717  1.00  0.00    -0.014 A 
HETATM    5  C7  UNL     1      13.620  38.404   9.621  1.00  0.00     0.046 A 
HETATM    6  C8  UNL     1      14.378  39.038   8.483  1.00  0.00     0.071 C 
HETATM    7  N1  UNL     1      14.263  37.682  10.534  1.00  0.00    -0.211 N 
HETATM    8  C9  UNL     1      13.569  37.111  11.564  1.00  0.00     0.145 A 
HETATM    9  N2  UNL     1      13.968  36.351  12.596  1.00  0.00    -0.341 N 
ATOM     10  H2  UNL     1      14.935  36.074  12.762  1.00  0.00     0.167 HD
HETATM   11  C10 UNL     1      12.936  36.000  13.385  1.00  0.00     0.037 A 
HETATM   12  C20 UNL     1      11.799  36.581  12.808  1.00  0.00     0.044 A 
HETATM   13  C21 UNL     1      12.204  37.265  11.683  1.00  0.00     0.032 A 
ENDROOT
BRANCH   4  14
HETATM   14  C5  UNL     1      11.574  39.387   8.678  1.00  0.00     0.037 C 
HETATM   15  C6  UNL     1      11.256  40.779   9.153  1.00  0.00     0.010 C 
ENDBRANCH   4  14
BRANCH   7  16
HETATM   16  O1  UNL     1      15.618  37.482  10.487  1.00  0.00    -0.281 OA
ATOM     17  H1  UNL     1      16.231  38.193  10.341  1.00  0.00     0.245 HD
ENDBRANCH   7  16
BRANCH  11  18
HETATM   18  C11 UNL     1      12.911  35.185  14.607  1.00  0.00     0.170 C 
HETATM   19  C12 UNL     1      11.863  35.658  15.592  1.00  0.00     0.209 C 
HETATM   20  N4  UNL     1      11.237  34.482  16.097  1.00  0.00    -0.323 N 
HETATM   21  C17 UNL     1      10.124  34.355  17.017  1.00  0.00     0.155 C 
HETATM   22  C18 UNL     1      11.900  33.352  15.530  1.00  0.00     0.321 C 
HETATM   23  O3  UNL     1      11.845  32.176  15.947  1.00  0.00    -0.247 OA
HETATM   24  N5  UNL     1      12.656  33.784  14.386  1.00  0.00    -0.326 N 
HETATM   25  C19 UNL     1      13.087  33.028  13.253  1.00  0.00     0.155 C 
BRANCH  19  26
HETATM   26  C13 UNL     1      12.461  36.549  16.582  1.00  0.00     0.243 C 
HETATM   27  O2  UNL     1      12.252  37.803  16.440  1.00  0.00    -0.271 OA
HETATM   28  N3  UNL     1      13.245  36.149  17.676  1.00  0.00    -0.355 N 
ATOM     29  H3  UNL     1      13.426  35.155  17.810  1.00  0.00     0.162 HD
BRANCH  28  30
HETATM   30  C14 UNL     1      13.810  37.098  18.631  1.00  0.00     0.084 A 
HETATM   31  C15 UNL     1      14.061  36.584  20.037  1.00  0.00     0.027 A 
HETATM   32  C16 UNL     1      15.230  36.782  19.146  1.00  0.00     0.027 A 
ENDBRANCH  28  30
ENDBRANCH  19  26
ENDBRANCH  11  18
TORSDOF 5
ENDMDL
MODEL 5
REMARK VINA RESULT: -6.482479277      3.852      7.767
REMARK  5 active torsions:
REMARK  status: ('A' for Active; 'I' for Inactive)
REMARK    1  A    between atoms: C4_4  and  C5_5 
REMARK    2  A    between atoms: N1_9  and  O1_10 
REMARK    3  A    between atoms: C10_15  and  C11_16 
REMARK    4  A    between atoms: C12_17  and  C13_18 
REMARK       I    between atoms: C13_18  and  N3_20 
REMARK    5  A    between atoms: N3_20  and  C14_22 
ROOT
HETATM    1  C1  UNL     1       7.828  35.436  14.078  1.00  0.00     0.018 C 
HETATM    2  C2  UNL     1       8.972  35.251  14.456  1.00  0.00    -0.076 C 
HETATM    3  C3  UNL     1      10.327  35.050  14.890  1.00  0.00     0.039 A 
HETATM    4  C4  UNL     1      10.630  34.736  16.202  1.00  0.00    -0.014 A 
HETATM    5  C7  UNL     1      11.923  34.540  16.635  1.00  0.00     0.046 A 
HETATM    6  C8  UNL     1      12.189  34.199  18.078  1.00  0.00     0.071 C 
HETATM    7  N1  UNL     1      12.932  34.652  15.776  1.00  0.00    -0.211 N 
HETATM    8  C9  UNL     1      12.684  34.960  14.468  1.00  0.00     0.145 A 
HETATM    9  N2  UNL     1      13.504  35.129  13.419  1.00  0.00    -0.341 N 
ATOM     10  H2  UNL     1      14.519  35.040  13.467  1.00  0.00     0.167 HD
HETATM   11  C10 UNL     1      12.825  35.429  12.298  1.00  0.00     0.037 A 
HETATM   12  C20 UNL     1      11.473  35.453  12.665  1.00  0.00     0.044 A 
HETATM   13  C21 UNL     1      11.400  35.162  14.009  1.00  0.00     0.032 A 
ENDROOT
BRANCH   4  14
HETATM   14  C5  UNL     1       9.530  34.603  17.191  1.00  0.00     0.037 C 
HETATM   15  C6  UNL     1       8.914  33.229  17.185  1.00  0.00     0.010 C 
ENDBRANCH   4  14
BRANCH   7  16
HETATM   16  O1  UNL     1      14.237  34.467  16.153  1.00  0.00    -0.281 OA
ATOM     17  H1  UNL     1      14.940  35.026  15.840  1.00  0.00     0.245 HD
ENDBRANCH   7  16
BRANCH  11  18
HETATM   18  C11 UNL     1      13.310  35.693  10.937  1.00  0.00     0.170 C 
HETATM   19  C12 UNL     1      13.703  37.142  10.737  1.00  0.00     0.209 C 
HETATM   20  N4  UNL     1      14.922  37.122   9.999  1.00  0.00    -0.323 N 
HETATM   21  C17 UNL     1      15.770  38.226   9.594  1.00  0.00     0.155 C 
HETATM   22  C18 UNL     1      15.227  35.763   9.689  1.00  0.00     0.321 C 
HETATM   23  O3  UNL     1      16.030  35.365   8.819  1.00  0.00    -0.247 OA
HETATM   24  N5  UNL     1      14.453  34.907  10.546  1.00  0.00    -0.326 N 
HETATM   25  C19 UNL     1      14.716  33.562  10.952  1.00  0.00     0.155 C 
BRANCH  19  26
HETATM   26  C13 UNL     1      12.600  37.891  10.144  1.00  0.00     0.243 C 
HETATM   27  O2  UNL     1      12.132  37.463   9.034  1.00  0.00    -0.271 OA
HETATM   28  N3  UNL     1      12.006  39.042  10.689  1.00  0.00    -0.355 N 
ATOM     29  H3  UNL     1      12.362  39.404  11.573  1.00  0.00     0.162 HD
BRANCH  28  30
HETATM   30  C14 UNL     1      10.900  39.741  10.041  1.00  0.00     0.084 A 
HETATM   31  C15 UNL     1       9.526  39.571  10.664  1.00  0.00     0.027 A 
HETATM   32  C16 UNL     1      10.229  40.862  10.862  1.00  0.00     0.027 A 
ENDBRANCH  28  30
ENDBRANCH  19  26
ENDBRANCH  11  18
TORSDOF 5
ENDMDL
