MODEL 1
REMARK VINA RESULT: -6.274260550      0.000      0.000
REMARK  5 active torsions:
REMARK  status: ('A' for Active; 'I' for Inactive)
REMARK       I    between atoms: N1_5  and  C5_6 
REMARK    1  A    between atoms: C5_6  and  C6_8 
REMARK    2  A    between atoms: C16_21  and  N2_22 
REMARK    3  A    between atoms: N2_22  and  C18_24 
REMARK    4  A    between atoms: C18_24  and  C19_25 
REMARK    5  A    between atoms: C19_25  and  O3_26 
ROOT
HETATM    1  C1  UNL     1      11.576  33.258  20.365  1.00  0.00     0.012 C 
HETATM    2  C2  UNL     1      11.963  34.240  19.247  1.00  0.00     0.026 C 
HETATM    3  C3  UNL     1      11.091  34.055  18.076  1.00  0.00     0.027 C 
HETATM    4  C4  UNL     1      11.710  33.662  16.800  1.00  0.00     0.135 C 
HETATM    5  N1  UNL     1      13.040  34.176  16.546  1.00  0.00    -0.285 N 
HETATM    6  C5  UNL     1      13.459  34.634  15.277  1.00  0.00     0.240 C 
HETATM    7  O1  UNL     1      14.630  35.057  15.174  1.00  0.00    -0.272 OA
HETATM    8  C15 UNL     1      13.912  34.191  17.664  1.00  0.00     0.260 C 
HETATM    9  O2  UNL     1      15.179  34.164  17.503  1.00  0.00    -0.270 OA
HETATM   10  C16 UNL     1      13.431  34.238  19.046  1.00  0.00     0.318 C 
ENDROOT
BRANCH   6  11
HETATM   11  C6  UNL     1      12.622  34.652  14.063  1.00  0.00     0.142 C 
HETATM   12  C7  UNL     1      13.271  34.206  12.825  1.00  0.00     0.040 C 
HETATM   13  C8  UNL     1      13.626  35.170  11.774  1.00  0.00     0.046 C 
HETATM   14  C9  UNL     1      13.908  36.556  12.171  1.00  0.00     0.021 C 
HETATM   15  S1  UNL     1      12.198  35.721  10.932  1.00  0.00    -0.200 SA
HETATM   16  C10 UNL     1      14.549  37.414  11.156  1.00  0.00     0.007 C 
HETATM   17  C14 UNL     1      12.409  36.894  12.246  1.00  0.00     0.105 C 
HETATM   18  C11 UNL     1      14.920  36.776   9.862  1.00  0.00     0.001 C 
HETATM   19  C12 UNL     1      13.844  36.552   8.880  1.00  0.00     0.009 C 
HETATM   20  C13 UNL     1      12.470  36.334   9.327  1.00  0.00     0.065 C 
HETATM   21  S2  UNL     1      11.816  36.242  13.810  1.00  0.00    -0.140 SA
ENDBRANCH   6  11
BRANCH  10  22
HETATM   22  N2  UNL     1      14.112  35.294  19.779  1.00  0.00     0.100 N 
HETATM   23  C17 UNL     1      13.972  35.091  21.189  1.00  0.00     0.311 C 
BRANCH  22  24
HETATM   24  C18 UNL     1      13.838  36.607  19.308  1.00  0.00     0.299 C 
BRANCH  24  25
HETATM   25  C19 UNL     1      15.086  37.446  19.507  1.00  0.00     0.194 C 
BRANCH  25  26
HETATM   26  O3  UNL     1      16.182  36.723  19.052  1.00  0.00    -0.399 OA
ATOM     27  H3  UNL     1      16.332  36.942  18.140  1.00  0.00     0.209 HD
ENDBRANCH  25  26
ENDBRANCH  24  25
ENDBRANCH  22  24
ENDBRANCH  10  22
TORSDOF 5
ENDMDL
MODEL 2
REMARK VINA RESULT: -6.198483096      1.853      2.935
REMARK  5 active torsions:
REMARK  status: ('A' for Active; 'I' for Inactive)
REMARK       I    between atoms: N1_5  and  C5_6 
REMARK    1  A    between atoms: C5_6  and  C6_8 
REMARK    2  A    between atoms: C16_21  and  N2_22 
REMARK    3  A    between atoms: N2_22  and  C18_24 
REMARK    4  A    between atoms: C18_24  and  C19_25 
REMARK    5  A    between atoms: C19_25  and  O3_26 
ROOT
HETATM    1  C1  UNL     1       9.346  34.334  17.164  1.00  0.00     0.012 C 
HETATM    2  C2  UNL     1      10.526  35.025  16.459  1.00  0.00     0.026 C 
HETATM    3  C3  UNL     1      10.062  35.731  15.254  1.00  0.00     0.027 C 
HETATM    4  C4  UNL     1      10.610  35.320  13.952  1.00  0.00     0.135 C 
HETATM    5  N1  UNL     1      11.983  34.859  13.948  1.00  0.00    -0.285 N 
HETATM    6  C5  UNL     1      12.903  35.188  12.927  1.00  0.00     0.240 C 
HETATM    7  O1  UNL     1      14.063  34.735  13.028  1.00  0.00    -0.272 OA
HETATM    8  C15 UNL     1      12.356  34.044  15.046  1.00  0.00     0.260 C 
HETATM    9  O2  UNL     1      13.325  33.219  14.946  1.00  0.00    -0.270 OA
HETATM   10  C16 UNL     1      11.671  34.092  16.340  1.00  0.00     0.318 C 
ENDROOT
BRANCH   6  11
HETATM   11  C6  UNL     1      12.602  36.025  11.751  1.00  0.00     0.142 C 
HETATM   12  C7  UNL     1      12.772  35.385  10.443  1.00  0.00     0.040 C 
HETATM   13  C8  UNL     1      13.895  35.750   9.567  1.00  0.00     0.046 C 
HETATM   14  C9  UNL     1      15.128  36.246  10.193  1.00  0.00     0.021 C 
HETATM   15  S1  UNL     1      13.641  37.328   8.862  1.00  0.00    -0.200 SA
HETATM   16  C10 UNL     1      16.323  36.313   9.330  1.00  0.00     0.007 C 
HETATM   17  C14 UNL     1      14.539  37.658  10.355  1.00  0.00     0.105 C 
HETATM   18  C11 UNL     1      16.186  35.801   7.939  1.00  0.00     0.001 C 
HETATM   19  C12 UNL     1      15.521  36.673   6.953  1.00  0.00     0.009 C 
HETATM   20  C13 UNL     1      14.504  37.630   7.382  1.00  0.00     0.065 C 
HETATM   21  S2  UNL     1      13.467  37.603  11.794  1.00  0.00    -0.140 SA
ENDBRANCH   6  11
BRANCH  10  22
HETATM   22  N2  UNL     1      12.640  34.231  17.416  1.00  0.00     0.100 N 
HETATM   23  C17 UNL     1      12.166  33.581  18.599  1.00  0.00     0.311 C 
BRANCH  22  24
HETATM   24  C18 UNL     1      13.141  35.551  17.587  1.00  0.00     0.299 C 
BRANCH  24  25
HETATM   25  C19 UNL     1      14.617  35.452  17.922  1.00  0.00     0.194 C 
BRANCH  25  26
HETATM   26  O3  UNL     1      15.282  34.905  16.830  1.00  0.00    -0.399 OA
ATOM     27  H3  UNL     1      15.500  35.606  16.227  1.00  0.00     0.209 HD
ENDBRANCH  25  26
ENDBRANCH  24  25
ENDBRANCH  22  24
ENDBRANCH  10  22
TORSDOF 5
ENDMDL
MODEL 3
REMARK VINA RESULT: -6.118697448      4.288      5.110
REMARK  5 active torsions:
REMARK  status: ('A' for Active; 'I' for Inactive)
REMARK       I    between atoms: N1_5  and  C5_6 
REMARK    1  A    between atoms: C5_6  and  C6_8 
REMARK    2  A    between atoms: C16_21  and  N2_22 
REMARK    3  A    between atoms: N2_22  and  C18_24 
REMARK    4  A    between atoms: C18_24  and  C19_25 
REMARK    5  A    between atoms: C19_25  and  O3_26 
ROOT
HETATM    1  C1  UNL     1      13.160  32.919  19.162  1.00  0.00     0.012 C 
HETATM    2  C2  UNL     1      12.354  34.009  18.435  1.00  0.00     0.026 C 
HETATM    3  C3  UNL     1      10.916  33.695  18.472  1.00  0.00     0.027 C 
HETATM    4  C4  UNL     1      10.213  33.496  17.195  1.00  0.00     0.135 C 
HETATM    5  N1  UNL     1      10.676  34.290  16.076  1.00  0.00    -0.285 N 
HETATM    6  C5  UNL     1       9.803  34.880  15.136  1.00  0.00     0.240 C 
HETATM    7  O1  UNL     1      10.314  35.545  14.210  1.00  0.00    -0.272 OA
HETATM    8  C15 UNL     1      12.082  34.440  15.976  1.00  0.00     0.260 C 
HETATM    9  O2  UNL     1      12.633  34.688  14.850  1.00  0.00    -0.270 OA
HETATM   10  C16 UNL     1      12.978  34.325  17.129  1.00  0.00     0.318 C 
ENDROOT
BRANCH   6  11
HETATM   11  C6  UNL     1       8.332  34.774  15.162  1.00  0.00     0.142 C 
HETATM   12  C7  UNL     1       7.754  33.643  14.429  1.00  0.00     0.040 C 
HETATM   13  C8  UNL     1       7.038  33.855  13.162  1.00  0.00     0.046 C 
HETATM   14  C9  UNL     1       7.411  35.015  12.342  1.00  0.00     0.021 C 
HETATM   15  S1  UNL     1       5.476  34.583  13.449  1.00  0.00    -0.200 SA
HETATM   16  C10 UNL     1       6.901  35.032  10.957  1.00  0.00     0.007 C 
HETATM   17  C14 UNL     1       6.562  35.964  13.206  1.00  0.00     0.105 C 
HETATM   18  C11 UNL     1       6.130  33.843  10.501  1.00  0.00     0.001 C 
HETATM   19  C12 UNL     1       4.725  33.735  10.934  1.00  0.00     0.009 C 
HETATM   20  C13 UNL     1       4.294  34.327  12.199  1.00  0.00     0.065 C 
HETATM   21  S2  UNL     1       7.525  36.310  14.681  1.00  0.00    -0.140 SA
ENDBRANCH   6  11
BRANCH  10  22
HETATM   22  N2  UNL     1      13.876  35.468  17.183  1.00  0.00     0.100 N 
HETATM   23  C17 UNL     1      15.237  35.028  17.244  1.00  0.00     0.311 C 
BRANCH  22  24
HETATM   24  C18 UNL     1      13.500  36.465  18.124  1.00  0.00     0.299 C 
BRANCH  24  25
HETATM   25  C19 UNL     1      14.686  36.721  19.035  1.00  0.00     0.194 C 
BRANCH  25  26
HETATM   26  O3  UNL     1      14.670  38.057  19.417  1.00  0.00    -0.399 OA
ATOM     27  H3  UNL     1      13.900  38.469  19.042  1.00  0.00     0.209 HD
ENDBRANCH  25  26
ENDBRANCH  24  25
ENDBRANCH  22  24
ENDBRANCH  10  22
TORSDOF 5
ENDMDL
MODEL 4
REMARK VINA RESULT: -6.051643415      2.164      2.664
REMARK  5 active torsions:
REMARK  status: ('A' for Active; 'I' for Inactive)
REMARK       I    between atoms: N1_5  and  C5_6 
REMARK    1  A    between atoms: C5_6  and  C6_8 
REMARK    2  A    between atoms: C16_21  and  N2_22 
REMARK    3  A    between atoms: N2_22  and  C18_24 
REMARK    4  A    between atoms: C18_24  and  C19_25 
REMARK    5  A    between atoms: C19_25  and  O3_26 
ROOT
HETATM    1  C1  UNL     1      12.679  33.778  20.577  1.00  0.00     0.012 C 
HETATM    2  C2  UNL     1      12.470  34.459  19.214  1.00  0.00     0.026 C 
HETATM    3  C3  UNL     1      11.689  33.590  18.319  1.00  0.00     0.027 C 
HETATM    4  C4  UNL     1      12.311  33.145  17.062  1.00  0.00     0.135 C 
HETATM    5  N1  UNL     1      13.222  34.077  16.432  1.00  0.00    -0.285 N 
HETATM    6  C5  UNL     1      13.273  34.279  15.034  1.00  0.00     0.240 C 
HETATM    7  O1  UNL     1      14.099  35.110  14.600  1.00  0.00    -0.272 OA
HETATM    8  C15 UNL     1      14.077  34.785  17.313  1.00  0.00     0.260 C 
HETATM    9  O2  UNL     1      15.193  35.253  16.903  1.00  0.00    -0.270 OA
HETATM   10  C16 UNL     1      13.748  35.023  18.719  1.00  0.00     0.318 C 
ENDROOT
BRANCH   6  11
HETATM   11  C6  UNL     1      12.425  33.586  14.046  1.00  0.00     0.142 C 
HETATM   12  C7  UNL     1      12.938  32.310  13.537  1.00  0.00     0.040 C 
HETATM   13  C8  UNL     1      13.452  32.200  12.164  1.00  0.00     0.046 C 
HETATM   14  C9  UNL     1      14.016  33.403  11.537  1.00  0.00     0.021 C 
HETATM   15  S1  UNL     1      12.141  32.236  11.009  1.00  0.00    -0.200 SA
HETATM   16  C10 UNL     1      14.789  33.198  10.297  1.00  0.00     0.007 C 
HETATM   17  C14 UNL     1      12.617  33.936  11.181  1.00  0.00     0.105 C 
HETATM   18  C11 UNL     1      14.990  31.793   9.846  1.00  0.00     0.001 C 
HETATM   19  C12 UNL     1      13.865  31.130   9.162  1.00  0.00     0.009 C 
HETATM   20  C13 UNL     1      12.488  31.509   9.467  1.00  0.00     0.065 C 
HETATM   21  S2  UNL     1      11.947  34.659  12.681  1.00  0.00    -0.140 SA
ENDBRANCH   6  11
BRANCH  10  22
HETATM   22  N2  UNL     1      13.919  36.431  19.045  1.00  0.00     0.100 N 
HETATM   23  C17 UNL     1      13.495  37.249  17.950  1.00  0.00     0.311 C 
BRANCH  22  24
HETATM   24  C18 UNL     1      15.182  36.752  19.611  1.00  0.00     0.299 C 
BRANCH  24  25
HETATM   25  C19 UNL     1      14.988  36.955  21.102  1.00  0.00     0.194 C 
BRANCH  25  26
HETATM   26  O3  UNL     1      15.370  35.792  21.760  1.00  0.00    -0.399 OA
ATOM     27  H3  UNL     1      16.314  35.801  21.868  1.00  0.00     0.209 HD
ENDBRANCH  25  26
ENDBRANCH  24  25
ENDBRANCH  22  24
ENDBRANCH  10  22
TORSDOF 5
ENDMDL
MODEL 5
REMARK VINA RESULT: -5.931051133      1.883      2.751
REMARK  5 active torsions:
REMARK  status: ('A' for Active; 'I' for Inactive)
REMARK       I    between atoms: N1_5  and  C5_6 
REMARK    1  A    between atoms: C5_6  and  C6_8 
REMARK    2  A    between atoms: C16_21  and  N2_22 
REMARK    3  A    between atoms: N2_22  and  C18_24 
REMARK    4  A    between atoms: C18_24  and  C19_25 
REMARK    5  A    between atoms: C19_25  and  O3_26 
ROOT
HETATM    1  C1  UNL     1      10.031  34.185  17.303  1.00  0.00     0.012 C 
HETATM    2  C2  UNL     1      10.918  35.105  16.447  1.00  0.00     0.026 C 
HETATM    3  C3  UNL     1      10.251  35.424  15.175  1.00  0.00     0.027 C 
HETATM    4  C4  UNL     1      10.909  35.018  13.923  1.00  0.00     0.135 C 
HETATM    5  N1  UNL     1      12.357  35.038  13.921  1.00  0.00    -0.285 N 
HETATM    6  C5  UNL     1      13.120  35.486  12.820  1.00  0.00     0.240 C 
HETATM    7  O1  UNL     1      14.364  35.460  12.931  1.00  0.00    -0.272 OA
HETATM    8  C15 UNL     1      12.974  34.571  15.109  1.00  0.00     0.260 C 
HETATM    9  O2  UNL     1      14.163  34.104  15.085  1.00  0.00    -0.270 OA
HETATM   10  C16 UNL     1      12.308  34.593  16.412  1.00  0.00     0.318 C 
ENDROOT
BRANCH   6  11
HETATM   11  C6  UNL     1      12.563  35.985  11.549  1.00  0.00     0.142 C 
HETATM   12  C7  UNL     1      13.259  35.561  10.329  1.00  0.00     0.040 C 
HETATM   13  C8  UNL     1      14.074  36.513   9.560  1.00  0.00     0.046 C 
HETATM   14  C9  UNL     1      14.686  37.639  10.278  1.00  0.00     0.021 C 
HETATM   15  S1  UNL     1      13.058  37.640   8.696  1.00  0.00    -0.200 SA
HETATM   16  C10 UNL     1      15.730  38.391   9.556  1.00  0.00     0.007 C 
HETATM   17  C14 UNL     1      13.372  38.439  10.248  1.00  0.00     0.105 C 
HETATM   18  C11 UNL     1      16.118  37.891   8.208  1.00  0.00     0.001 C 
HETATM   19  C12 UNL     1      15.221  38.205   7.080  1.00  0.00     0.009 C 
HETATM   20  C13 UNL     1      13.789  38.386   7.304  1.00  0.00     0.065 C 
HETATM   21  S2  UNL     1      12.336  37.771  11.553  1.00  0.00    -0.140 SA
ENDBRANCH   6  11
BRANCH  10  22
HETATM   22  N2  UNL     1      13.172  35.208  17.408  1.00  0.00     0.100 N 
HETATM   23  C17 UNL     1      13.204  34.413  18.598  1.00  0.00     0.311 C 
BRANCH  22  24
HETATM   24  C18 UNL     1      12.954  36.600  17.594  1.00  0.00     0.299 C 
BRANCH  24  25
HETATM   25  C19 UNL     1      13.874  37.074  18.704  1.00  0.00     0.194 C 
BRANCH  25  26
HETATM   26  O3  UNL     1      13.902  38.464  18.692  1.00  0.00    -0.399 OA
ATOM     27  H3  UNL     1      14.787  38.750  18.885  1.00  0.00     0.209 HD
ENDBRANCH  25  26
ENDBRANCH  24  25
ENDBRANCH  22  24
ENDBRANCH  10  22
TORSDOF 5
ENDMDL
