MODEL 1
REMARK VINA RESULT: -7.826885924      0.000      0.000
REMARK  5 active torsions:
REMARK  status: ('A' for Active; 'I' for Inactive)
REMARK    1  A    between atoms: C2_2  and  C4_4 
REMARK    2  A    between atoms: C8_9  and  C9_10 
REMARK    3  A    between atoms: C9_10  and  C10_11 
REMARK    4  A    between atoms: C10_11  and  O1_12 
REMARK    5  A    between atoms: C10_11  and  C11_14 
ROOT
HETATM    1  C11 UNL     1      12.185  35.008  16.164  1.00  0.00     0.016 C 
HETATM    2  N2  UNL     1      11.621  33.892  16.417  1.00  0.00    -0.373 N 
ATOM      3  H2  UNL     1      10.640  33.762  16.172  1.00  0.00     0.164 HD
HETATM    4  C12 UNL     1      12.319  32.840  17.023  1.00  0.00     0.067 C 
HETATM    5  C13 UNL     1      13.238  33.248  18.136  1.00  0.00     0.045 C 
HETATM    6  C14 UNL     1      12.398  33.369  19.390  1.00  0.00     0.033 C 
HETATM    7  C15 UNL     1      13.419  33.668  20.497  1.00  0.00     0.147 C 
HETATM    8  N3  UNL     1      13.862  35.023  20.215  1.00  0.00    -0.280 N 
HETATM    9  C16 UNL     1      14.428  35.741  21.299  1.00  0.00     0.234 C 
HETATM   10  O2  UNL     1      14.787  35.168  22.348  1.00  0.00    -0.272 OA
HETATM   11  C17 UNL     1      14.555  37.224  21.083  1.00  0.00     0.105 C 
HETATM   12  C18 UNL     1      15.220  37.354  19.744  1.00  0.00     0.025 C 
HETATM   13  C19 UNL     1      14.527  36.669  18.622  1.00  0.00     0.115 C 
HETATM   14  N4  UNL     1      13.714  35.546  18.939  1.00  0.00    -0.221 NA
HETATM   15  C20 UNL     1      13.930  34.555  17.905  1.00  0.00     0.094 C 
HETATM   16  C21 UNL     1      13.610  35.153  16.555  1.00  0.00     0.077 C 
ENDROOT
BRANCH   1  17
HETATM   17  C10 UNL     1      11.483  36.135  15.527  1.00  0.00     0.164 C 
BRANCH  17  18
HETATM   18  C9  UNL     1      10.021  36.074  15.357  1.00  0.00     0.044 C 
BRANCH  18  19
HETATM   19  C8  UNL     1       9.480  35.427  14.118  1.00  0.00     0.020 C 
HETATM   20  C7  UNL     1       9.498  36.317  12.907  1.00  0.00     0.242 C 
HETATM   21  N1  UNL     1       8.143  36.150  12.348  1.00  0.00    -0.070 N 
HETATM   22  C5  UNL     1       7.978  34.744  12.046  1.00  0.00     0.242 C 
HETATM   23  C6  UNL     1       7.814  37.054  11.331  1.00  0.00     0.272 C 
HETATM   24  C23 UNL     1       7.406  36.356  13.614  1.00  0.00     0.242 C 
HETATM   25  C4  UNL     1       7.488  34.110  13.344  1.00  0.00     0.021 C 
HETATM   26  C22 UNL     1       8.023  35.101  14.317  1.00  0.00     0.023 C 
BRANCH  25  27
HETATM   27  C2  UNL     1       7.717  32.687  13.519  1.00  0.00    -0.017 C 
HETATM   28  C1  UNL     1       8.849  32.022  12.835  1.00  0.00     0.010 C 
HETATM   29  C3  UNL     1       6.456  31.914  13.067  1.00  0.00     0.010 C 
ENDBRANCH  25  27
ENDBRANCH  18  19
ENDBRANCH  17  18
BRANCH  17  30
HETATM   30  O1  UNL     1      11.831  37.395  16.041  1.00  0.00    -0.390 OA
ATOM     31  H1  UNL     1      12.777  37.482  16.030  1.00  0.00     0.210 HD
ENDBRANCH  17  30
ENDBRANCH   1  17
TORSDOF 5
ENDMDL
MODEL 2
REMARK VINA RESULT: -7.772818095      0.869      1.128
REMARK  5 active torsions:
REMARK  status: ('A' for Active; 'I' for Inactive)
REMARK    1  A    between atoms: C2_2  and  C4_4 
REMARK    2  A    between atoms: C8_9  and  C9_10 
REMARK    3  A    between atoms: C9_10  and  C10_11 
REMARK    4  A    between atoms: C10_11  and  O1_12 
REMARK    5  A    between atoms: C10_11  and  C11_14 
ROOT
HETATM    1  C11 UNL     1      12.144  34.979  16.146  1.00  0.00     0.016 C 
HETATM    2  N2  UNL     1      11.572  33.871  16.416  1.00  0.00    -0.373 N 
ATOM      3  H2  UNL     1      10.589  33.746  16.178  1.00  0.00     0.164 HD
HETATM    4  C12 UNL     1      12.265  32.822  17.034  1.00  0.00     0.067 C 
HETATM    5  C13 UNL     1      13.193  33.237  18.136  1.00  0.00     0.045 C 
HETATM    6  C14 UNL     1      12.359  33.382  19.393  1.00  0.00     0.033 C 
HETATM    7  C15 UNL     1      13.388  33.688  20.490  1.00  0.00     0.147 C 
HETATM    8  N3  UNL     1      13.840  35.035  20.188  1.00  0.00    -0.280 N 
HETATM    9  C16 UNL     1      14.417  35.764  21.259  1.00  0.00     0.234 C 
HETATM   10  O2  UNL     1      14.778  35.202  22.314  1.00  0.00    -0.272 OA
HETATM   11  C17 UNL     1      14.556  37.243  21.023  1.00  0.00     0.105 C 
HETATM   12  C18 UNL     1      15.215  37.348  19.679  1.00  0.00     0.025 C 
HETATM   13  C19 UNL     1      14.511  36.654  18.569  1.00  0.00     0.115 C 
HETATM   14  N4  UNL     1      13.691  35.542  18.905  1.00  0.00    -0.221 NA
HETATM   15  C20 UNL     1      13.894  34.535  17.884  1.00  0.00     0.094 C 
HETATM   16  C21 UNL     1      13.572  35.118  16.527  1.00  0.00     0.077 C 
ENDROOT
BRANCH   1  17
HETATM   17  C10 UNL     1      11.448  36.103  15.497  1.00  0.00     0.164 C 
BRANCH  17  18
HETATM   18  C9  UNL     1       9.980  36.078  15.386  1.00  0.00     0.044 C 
BRANCH  18  19
HETATM   19  C8  UNL     1       9.365  35.228  14.316  1.00  0.00     0.020 C 
HETATM   20  C7  UNL     1      10.241  35.039  13.109  1.00  0.00     0.242 C 
HETATM   21  N1  UNL     1       9.326  35.312  11.985  1.00  0.00    -0.070 N 
HETATM   22  C5  UNL     1       8.239  34.360  12.081  1.00  0.00     0.242 C 
HETATM   23  C6  UNL     1       9.949  35.429  10.737  1.00  0.00     0.272 C 
HETATM   24  C23 UNL     1       8.771  36.577  12.515  1.00  0.00     0.242 C 
HETATM   25  C4  UNL     1       7.225  35.004  13.022  1.00  0.00     0.021 C 
HETATM   26  C22 UNL     1       8.134  35.909  13.778  1.00  0.00     0.023 C 
BRANCH  25  27
HETATM   27  C2  UNL     1       6.302  34.120  13.712  1.00  0.00    -0.017 C 
HETATM   28  C1  UNL     1       6.468  32.652  13.628  1.00  0.00     0.010 C 
HETATM   29  C3  UNL     1       4.866  34.399  13.208  1.00  0.00     0.010 C 
ENDBRANCH  25  27
ENDBRANCH  18  19
ENDBRANCH  17  18
BRANCH  17  30
HETATM   30  O1  UNL     1      11.851  37.369  15.951  1.00  0.00    -0.390 OA
ATOM     31  H1  UNL     1      12.656  37.278  16.446  1.00  0.00     0.210 HD
ENDBRANCH  17  30
ENDBRANCH   1  17
TORSDOF 5
ENDMDL
MODEL 3
REMARK VINA RESULT: -7.627170237      0.780      1.127
REMARK  5 active torsions:
REMARK  status: ('A' for Active; 'I' for Inactive)
REMARK    1  A    between atoms: C2_2  and  C4_4 
REMARK    2  A    between atoms: C8_9  and  C9_10 
REMARK    3  A    between atoms: C9_10  and  C10_11 
REMARK    4  A    between atoms: C10_11  and  O1_12 
REMARK    5  A    between atoms: C10_11  and  C11_14 
ROOT
HETATM    1  C11 UNL     1      12.280  34.974  16.242  1.00  0.00     0.016 C 
HETATM    2  N2  UNL     1      11.696  33.875  16.522  1.00  0.00    -0.373 N 
ATOM      3  H2  UNL     1      10.716  33.753  16.269  1.00  0.00     0.164 HD
HETATM    4  C12 UNL     1      12.370  32.832  17.170  1.00  0.00     0.067 C 
HETATM    5  C13 UNL     1      13.282  33.261  18.281  1.00  0.00     0.045 C 
HETATM    6  C14 UNL     1      12.428  33.435  19.520  1.00  0.00     0.033 C 
HETATM    7  C15 UNL     1      13.440  33.753  20.630  1.00  0.00     0.147 C 
HETATM    8  N3  UNL     1      13.908  35.091  20.311  1.00  0.00    -0.280 N 
HETATM    9  C16 UNL     1      14.472  35.835  21.378  1.00  0.00     0.234 C 
HETATM   10  O2  UNL     1      14.810  35.290  22.450  1.00  0.00    -0.272 OA
HETATM   11  C17 UNL     1      14.625  37.308  21.118  1.00  0.00     0.105 C 
HETATM   12  C18 UNL     1      15.308  37.385  19.784  1.00  0.00     0.025 C 
HETATM   13  C19 UNL     1      14.618  36.676  18.675  1.00  0.00     0.115 C 
HETATM   14  N4  UNL     1      13.784  35.576  19.017  1.00  0.00    -0.221 NA
HETATM   15  C20 UNL     1      13.997  34.549  18.018  1.00  0.00     0.094 C 
HETATM   16  C21 UNL     1      13.703  35.109  16.645  1.00  0.00     0.077 C 
ENDROOT
BRANCH   1  17
HETATM   17  C10 UNL     1      11.604  36.091  15.560  1.00  0.00     0.164 C 
BRANCH  17  18
HETATM   18  C9  UNL     1      10.152  36.022  15.324  1.00  0.00     0.044 C 
BRANCH  18  19
HETATM   19  C8  UNL     1       9.670  35.339  14.080  1.00  0.00     0.020 C 
HETATM   20  C7  UNL     1       8.829  36.214  13.192  1.00  0.00     0.242 C 
HETATM   21  N1  UNL     1       7.670  35.358  12.878  1.00  0.00    -0.070 N 
HETATM   22  C5  UNL     1       8.181  34.170  12.227  1.00  0.00     0.242 C 
HETATM   23  C6  UNL     1       6.611  36.017  12.243  1.00  0.00     0.272 C 
HETATM   24  C23 UNL     1       7.385  34.936  14.267  1.00  0.00     0.242 C 
HETATM   25  C4  UNL     1       8.541  33.215  13.360  1.00  0.00     0.021 C 
HETATM   26  C22 UNL     1       8.754  34.203  14.454  1.00  0.00     0.023 C 
BRANCH  25  27
HETATM   27  C2  UNL     1       9.525  32.186  13.077  1.00  0.00    -0.017 C 
HETATM   28  C1  UNL     1      10.522  31.801  14.101  1.00  0.00     0.010 C 
HETATM   29  C3  UNL     1      10.354  32.608  11.840  1.00  0.00     0.010 C 
ENDBRANCH  25  27
ENDBRANCH  18  19
ENDBRANCH  17  18
BRANCH  17  30
HETATM   30  O1  UNL     1      11.924  37.357  16.075  1.00  0.00    -0.390 OA
ATOM     31  H1  UNL     1      11.308  37.575  16.764  1.00  0.00     0.210 HD
ENDBRANCH  17  30
ENDBRANCH   1  17
TORSDOF 5
ENDMDL
MODEL 4
REMARK VINA RESULT: -7.600577718      0.848      2.286
REMARK  5 active torsions:
REMARK  status: ('A' for Active; 'I' for Inactive)
REMARK    1  A    between atoms: C2_2  and  C4_4 
REMARK    2  A    between atoms: C8_9  and  C9_10 
REMARK    3  A    between atoms: C9_10  and  C10_11 
REMARK    4  A    between atoms: C10_11  and  O1_12 
REMARK    5  A    between atoms: C10_11  and  C11_14 
ROOT
HETATM    1  C11 UNL     1      12.140  34.980  16.204  1.00  0.00     0.016 C 
HETATM    2  N2  UNL     1      11.649  33.827  16.442  1.00  0.00    -0.373 N 
ATOM      3  H2  UNL     1      10.673  33.643  16.210  1.00  0.00     0.164 HD
HETATM    4  C12 UNL     1      12.418  32.807  17.015  1.00  0.00     0.067 C 
HETATM    5  C13 UNL     1      13.330  33.247  18.122  1.00  0.00     0.045 C 
HETATM    6  C14 UNL     1      12.505  33.293  19.391  1.00  0.00     0.033 C 
HETATM    7  C15 UNL     1      13.524  33.631  20.488  1.00  0.00     0.147 C 
HETATM    8  N3  UNL     1      13.881  35.015  20.227  1.00  0.00    -0.280 N 
HETATM    9  C16 UNL     1      14.420  35.745  21.317  1.00  0.00     0.234 C 
HETATM   10  O2  UNL     1      14.831  35.174  22.348  1.00  0.00    -0.272 OA
HETATM   11  C17 UNL     1      14.455  37.237  21.130  1.00  0.00     0.105 C 
HETATM   12  C18 UNL     1      15.089  37.433  19.784  1.00  0.00     0.025 C 
HETATM   13  C19 UNL     1      14.419  36.730  18.658  1.00  0.00     0.115 C 
HETATM   14  N4  UNL     1      13.680  35.554  18.965  1.00  0.00    -0.221 NA
HETATM   15  C20 UNL     1      13.939  34.598  17.907  1.00  0.00     0.094 C 
HETATM   16  C21 UNL     1      13.561  35.202  16.575  1.00  0.00     0.077 C 
ENDROOT
BRANCH   1  17
HETATM   17  C10 UNL     1      11.362  36.075  15.601  1.00  0.00     0.164 C 
BRANCH  17  18
HETATM   18  C9  UNL     1       9.891  36.043  15.675  1.00  0.00     0.044 C 
BRANCH  18  19
HETATM   19  C8  UNL     1       9.119  36.020  14.390  1.00  0.00     0.020 C 
HETATM   20  C7  UNL     1       7.779  35.346  14.496  1.00  0.00     0.242 C 
HETATM   21  N1  UNL     1       7.764  34.446  13.327  1.00  0.00    -0.070 N 
HETATM   22  C5  UNL     1       7.918  35.275  12.150  1.00  0.00     0.242 C 
HETATM   23  C6  UNL     1       6.711  33.523  13.312  1.00  0.00     0.272 C 
HETATM   24  C23 UNL     1       9.099  33.850  13.549  1.00  0.00     0.242 C 
HETATM   25  C4  UNL     1       9.424  35.436  11.968  1.00  0.00     0.021 C 
HETATM   26  C22 UNL     1       9.866  35.202  13.369  1.00  0.00     0.023 C 
BRANCH  25  27
HETATM   27  C2  UNL     1       9.884  36.592  11.219  1.00  0.00    -0.017 C 
HETATM   28  C1  UNL     1      11.089  37.333  11.653  1.00  0.00     0.010 C 
HETATM   29  C3  UNL     1       8.752  37.645  11.171  1.00  0.00     0.010 C 
ENDBRANCH  25  27
ENDBRANCH  18  19
ENDBRANCH  17  18
BRANCH  17  30
HETATM   30  O1  UNL     1      11.809  37.359  15.950  1.00  0.00    -0.390 OA
ATOM     31  H1  UNL     1      11.770  37.454  16.894  1.00  0.00     0.210 HD
ENDBRANCH  17  30
ENDBRANCH   1  17
TORSDOF 5
ENDMDL
MODEL 5
REMARK VINA RESULT: -7.480483560      2.588      3.196
REMARK  5 active torsions:
REMARK  status: ('A' for Active; 'I' for Inactive)
REMARK    1  A    between atoms: C2_2  and  C4_4 
REMARK    2  A    between atoms: C8_9  and  C9_10 
REMARK    3  A    between atoms: C9_10  and  C10_11 
REMARK    4  A    between atoms: C10_11  and  O1_12 
REMARK    5  A    between atoms: C10_11  and  C11_14 
ROOT
HETATM    1  C11 UNL     1      12.248  35.065  16.223  1.00  0.00     0.016 C 
HETATM    2  N2  UNL     1      11.644  33.971  16.477  1.00  0.00    -0.373 N 
ATOM      3  H2  UNL     1      10.662  33.872  16.220  1.00  0.00     0.164 HD
HETATM    4  C12 UNL     1      12.298  32.901  17.102  1.00  0.00     0.067 C 
HETATM    5  C13 UNL     1      13.216  33.288  18.224  1.00  0.00     0.045 C 
HETATM    6  C14 UNL     1      12.363  33.448  19.465  1.00  0.00     0.033 C 
HETATM    7  C15 UNL     1      13.378  33.722  20.583  1.00  0.00     0.147 C 
HETATM    8  N3  UNL     1      13.870  35.059  20.296  1.00  0.00    -0.280 N 
HETATM    9  C16 UNL     1      14.445  35.767  21.382  1.00  0.00     0.234 C 
HETATM   10  O2  UNL     1      14.771  35.191  22.441  1.00  0.00    -0.272 OA
HETATM   11  C17 UNL     1      14.624  37.243  21.156  1.00  0.00     0.105 C 
HETATM   12  C18 UNL     1      15.312  37.339  19.825  1.00  0.00     0.025 C 
HETATM   13  C19 UNL     1      14.611  36.669  18.699  1.00  0.00     0.115 C 
HETATM   14  N4  UNL     1      13.757  35.576  19.014  1.00  0.00    -0.221 NA
HETATM   15  C20 UNL     1      13.954  34.569  17.991  1.00  0.00     0.094 C 
HETATM   16  C21 UNL     1      13.672  35.166  16.632  1.00  0.00     0.077 C 
ENDROOT
BRANCH   1  17
HETATM   17  C10 UNL     1      11.593  36.210  15.568  1.00  0.00     0.164 C 
BRANCH  17  18
HETATM   18  C9  UNL     1      11.995  36.588  14.202  1.00  0.00     0.044 C 
BRANCH  18  19
HETATM   19  C8  UNL     1      12.842  35.629  13.423  1.00  0.00     0.020 C 
HETATM   20  C7  UNL     1      13.719  36.287  12.393  1.00  0.00     0.242 C 
HETATM   21  N1  UNL     1      13.492  35.467  11.188  1.00  0.00    -0.070 N 
HETATM   22  C5  UNL     1      13.879  34.111  11.515  1.00  0.00     0.242 C 
HETATM   23  C6  UNL     1      14.020  36.004  10.008  1.00  0.00     0.272 C 
HETATM   24  C23 UNL     1      12.014  35.466  11.253  1.00  0.00     0.242 C 
HETATM   25  C4  UNL     1      12.639  33.480  12.140  1.00  0.00     0.021 C 
HETATM   26  C22 UNL     1      11.955  34.711  12.622  1.00  0.00     0.023 C 
BRANCH  25  27
HETATM   27  C2  UNL     1      12.842  32.341  13.018  1.00  0.00    -0.017 C 
HETATM   28  C1  UNL     1      13.483  31.108  12.508  1.00  0.00     0.010 C 
HETATM   29  C3  UNL     1      11.473  31.888  13.578  1.00  0.00     0.010 C 
ENDBRANCH  25  27
ENDBRANCH  18  19
ENDBRANCH  17  18
BRANCH  17  30
HETATM   30  O1  UNL     1      10.191  36.192  15.643  1.00  0.00    -0.390 OA
ATOM     31  H1  UNL     1       9.932  35.952  16.525  1.00  0.00     0.210 HD
ENDBRANCH  17  30
ENDBRANCH   1  17
TORSDOF 5
ENDMDL
