MODEL 1
REMARK VINA RESULT: -7.651289202      0.000      0.000
REMARK  5 active torsions:
REMARK  status: ('A' for Active; 'I' for Inactive)
REMARK    1  A    between atoms: C2_2  and  C3_3 
REMARK    2  A    between atoms: C3_3  and  N1_4 
REMARK    3  A    between atoms: N2_10  and  C9_11 
REMARK    4  A    between atoms: C9_11  and  C10_12 
REMARK    5  A    between atoms: C10_12  and  O1_13 
ROOT
HETATM    1  N1  UNL     1       8.742  35.419  13.719  1.00  0.00     0.115 N 
HETATM    2  C4  UNL     1      10.027  35.873  14.088  1.00  0.00     0.285 C 
HETATM    3  C5  UNL     1      10.644  34.902  15.141  1.00  0.00     0.004 C 
HETATM    4  C6  UNL     1       9.978  35.092  16.462  1.00  0.00     0.018 C 
HETATM    5  C7  UNL     1      10.555  34.060  17.398  1.00  0.00     0.046 C 
HETATM    6  C8  UNL     1      12.042  33.990  17.323  1.00  0.00     0.063 C 
HETATM    7  N2  UNL     1      12.706  34.934  16.526  1.00  0.00    -0.370 N 
HETATM    8  C16 UNL     1      12.083  35.225  15.261  1.00  0.00     0.138 C 
HETATM    9  C17 UNL     1      10.440  33.542  14.522  1.00  0.00     0.041 C 
HETATM   10  C18 UNL     1       9.006  33.096  14.482  1.00  0.00     0.239 C 
HETATM   11  N4  UNL     1       8.439  33.128  13.135  1.00  0.00    -0.048 N 
HETATM   12  C19 UNL     1       9.074  32.122  12.345  1.00  0.00     0.274 C 
HETATM   13  C20 UNL     1       7.004  32.957  13.246  1.00  0.00     0.274 C 
HETATM   14  C21 UNL     1       8.669  34.493  12.632  1.00  0.00     0.506 C 
ENDROOT
BRANCH   7  15
HETATM   15  C9  UNL     1      13.270  36.088  17.101  1.00  0.00     0.101 C 
BRANCH  15  16
HETATM   16  C10 UNL     1      14.197  35.892  18.269  1.00  0.00     0.096 C 
HETATM   17  C11 UNL     1      13.815  34.830  19.264  1.00  0.00     0.050 C 
HETATM   18  C12 UNL     1      13.714  35.852  20.379  1.00  0.00     0.023 C 
HETATM   19  C13 UNL     1      14.961  35.894  21.194  1.00  0.00     0.237 C 
HETATM   20  C15 UNL     1      13.791  36.924  19.348  1.00  0.00     0.057 C 
HETATM   21  N3  UNL     1      15.456  37.223  21.032  1.00  0.00    -0.074 N 
HETATM   22  C14 UNL     1      14.919  37.794  19.832  1.00  0.00     0.240 C 
ATOM     23  H32 UNL     1      15.272  37.804  21.850  1.00  0.00     0.277 HD
ATOM     24  H31 UNL     1      16.475  37.259  21.052  1.00  0.00     0.277 HD
BRANCH  16  25
HETATM   25  O1  UNL     1      15.538  36.090  18.024  1.00  0.00    -0.384 OA
ATOM     26  H1  UNL     1      16.046  36.458  18.737  1.00  0.00     0.211 HD
ENDBRANCH  16  25
ENDBRANCH  15  16
ENDBRANCH   7  15
BRANCH   1  27
HETATM   27  C3  UNL     1       7.768  36.436  13.596  1.00  0.00     0.274 C 
BRANCH  27  28
HETATM   28  C2  UNL     1       6.945  36.497  12.362  1.00  0.00     0.026 C 
HETATM   29  C1  UNL     1       7.072  37.728  11.524  1.00  0.00     0.007 C 
ENDBRANCH  27  28
ENDBRANCH   1  27
TORSDOF 5
ENDMDL
MODEL 2
REMARK VINA RESULT: -7.606846454      0.977      1.160
REMARK  5 active torsions:
REMARK  status: ('A' for Active; 'I' for Inactive)
REMARK    1  A    between atoms: C2_2  and  C3_3 
REMARK    2  A    between atoms: C3_3  and  N1_4 
REMARK    3  A    between atoms: N2_10  and  C9_11 
REMARK    4  A    between atoms: C9_11  and  C10_12 
REMARK    5  A    between atoms: C10_12  and  O1_13 
ROOT
HETATM    1  N1  UNL     1      10.050  34.908  12.616  1.00  0.00     0.115 N 
HETATM    2  C4  UNL     1      11.206  35.310  13.319  1.00  0.00     0.285 C 
HETATM    3  C5  UNL     1      11.268  34.573  14.692  1.00  0.00     0.004 C 
HETATM    4  C6  UNL     1      10.255  35.145  15.625  1.00  0.00     0.018 C 
HETATM    5  C7  UNL     1      10.308  34.322  16.888  1.00  0.00     0.046 C 
HETATM    6  C8  UNL     1      11.703  34.091  17.362  1.00  0.00     0.063 C 
HETATM    7  N2  UNL     1      12.744  34.742  16.684  1.00  0.00    -0.370 N 
HETATM    8  C16 UNL     1      12.624  34.773  15.248  1.00  0.00     0.138 C 
HETATM    9  C17 UNL     1      11.039  33.128  14.321  1.00  0.00     0.041 C 
HETATM   10  C18 UNL     1       9.640  32.828  13.863  1.00  0.00     0.239 C 
HETATM   11  N4  UNL     1       9.554  32.584  12.425  1.00  0.00    -0.048 N 
HETATM   12  C19 UNL     1      10.223  31.358  12.126  1.00  0.00     0.274 C 
HETATM   13  C20 UNL     1       8.154  32.586  12.051  1.00  0.00     0.274 C 
HETATM   14  C21 UNL     1      10.171  33.755  11.778  1.00  0.00     0.506 C 
ENDROOT
BRANCH   7  15
HETATM   15  C9  UNL     1      13.286  35.941  17.182  1.00  0.00     0.101 C 
BRANCH  15  16
HETATM   16  C10 UNL     1      14.226  35.837  18.351  1.00  0.00     0.096 C 
HETATM   17  C11 UNL     1      13.927  34.767  19.366  1.00  0.00     0.050 C 
HETATM   18  C12 UNL     1      13.749  35.797  20.463  1.00  0.00     0.023 C 
HETATM   19  C13 UNL     1      14.990  35.949  21.274  1.00  0.00     0.237 C 
HETATM   20  C15 UNL     1      13.744  36.854  19.413  1.00  0.00     0.057 C 
HETATM   21  N3  UNL     1      15.382  37.309  21.087  1.00  0.00    -0.074 N 
HETATM   22  C14 UNL     1      14.802  37.816  19.879  1.00  0.00     0.240 C 
ATOM     23  H32 UNL     1      15.155  37.889  21.896  1.00  0.00     0.277 HD
ATOM     24  H31 UNL     1      16.396  37.424  21.105  1.00  0.00     0.277 HD
BRANCH  16  25
HETATM   25  O1  UNL     1      15.548  36.133  18.100  1.00  0.00    -0.384 OA
ATOM     26  H1  UNL     1      15.861  35.946  17.223  1.00  0.00     0.211 HD
ENDBRANCH  16  25
ENDBRANCH  15  16
ENDBRANCH   7  15
BRANCH   1  27
HETATM   27  C3  UNL     1       9.364  35.953  11.958  1.00  0.00     0.274 C 
BRANCH  27  28
HETATM   28  C2  UNL     1       8.324  36.709  12.700  1.00  0.00     0.026 C 
HETATM   29  C1  UNL     1       7.370  35.911  13.529  1.00  0.00     0.007 C 
ENDBRANCH  27  28
ENDBRANCH   1  27
TORSDOF 5
ENDMDL
MODEL 3
REMARK VINA RESULT: -7.568197347      1.467      2.635
REMARK  5 active torsions:
REMARK  status: ('A' for Active; 'I' for Inactive)
REMARK    1  A    between atoms: C2_2  and  C3_3 
REMARK    2  A    between atoms: C3_3  and  N1_4 
REMARK    3  A    between atoms: N2_10  and  C9_11 
REMARK    4  A    between atoms: C9_11  and  C10_12 
REMARK    5  A    between atoms: C10_12  and  O1_13 
ROOT
HETATM    1  N1  UNL     1       9.146  35.438  13.577  1.00  0.00     0.115 N 
HETATM    2  C4  UNL     1       9.740  35.665  14.837  1.00  0.00     0.285 C 
HETATM    3  C5  UNL     1      11.265  35.349  14.763  1.00  0.00     0.004 C 
HETATM    4  C6  UNL     1      11.478  33.874  14.703  1.00  0.00     0.018 C 
HETATM    5  C7  UNL     1      12.960  33.650  14.535  1.00  0.00     0.046 C 
HETATM    6  C8  UNL     1      13.772  34.478  15.473  1.00  0.00     0.063 C 
HETATM    7  N2  UNL     1      13.093  35.231  16.441  1.00  0.00    -0.370 N 
HETATM    8  C16 UNL     1      11.896  35.891  15.986  1.00  0.00     0.138 C 
HETATM    9  C17 UNL     1      11.717  36.102  13.536  1.00  0.00     0.041 C 
HETATM   10  C18 UNL     1      11.211  35.526  12.243  1.00  0.00     0.239 C 
HETATM   11  N4  UNL     1      10.171  36.347  11.626  1.00  0.00    -0.048 N 
HETATM   12  C19 UNL     1      10.755  37.573  11.185  1.00  0.00     0.274 C 
HETATM   13  C20 UNL     1       9.565  35.578  10.558  1.00  0.00     0.274 C 
HETATM   14  C21 UNL     1       9.137  36.535  12.658  1.00  0.00     0.506 C 
ENDROOT
BRANCH   7  15
HETATM   15  C9  UNL     1      12.948  34.749  17.755  1.00  0.00     0.101 C 
BRANCH  15  16
HETATM   16  C10 UNL     1      13.993  35.155  18.756  1.00  0.00     0.096 C 
HETATM   17  C11 UNL     1      13.824  34.635  20.158  1.00  0.00     0.050 C 
HETATM   18  C12 UNL     1      13.713  36.042  20.712  1.00  0.00     0.023 C 
HETATM   19  C13 UNL     1      15.017  36.520  21.252  1.00  0.00     0.237 C 
HETATM   20  C15 UNL     1      13.576  36.536  19.313  1.00  0.00     0.057 C 
HETATM   21  N3  UNL     1      15.343  37.659  20.457  1.00  0.00    -0.074 N 
HETATM   22  C14 UNL     1      14.639  37.596  19.211  1.00  0.00     0.240 C 
ATOM     23  H32 UNL     1      15.172  38.535  20.952  1.00  0.00     0.277 HD
ATOM     24  H31 UNL     1      16.350  37.761  20.325  1.00  0.00     0.277 HD
BRANCH  16  25
HETATM   25  O1  UNL     1      15.276  35.300  18.274  1.00  0.00    -0.384 OA
ATOM     26  H1  UNL     1      15.755  36.062  18.576  1.00  0.00     0.211 HD
ENDBRANCH  16  25
ENDBRANCH  15  16
ENDBRANCH   7  15
BRANCH   1  27
HETATM   27  C3  UNL     1       7.889  34.794  13.622  1.00  0.00     0.274 C 
BRANCH  27  28
HETATM   28  C2  UNL     1       7.843  33.315  13.731  1.00  0.00     0.026 C 
HETATM   29  C1  UNL     1       6.719  32.619  13.033  1.00  0.00     0.007 C 
ENDBRANCH  27  28
ENDBRANCH   1  27
TORSDOF 5
ENDMDL
MODEL 4
REMARK VINA RESULT: -7.454538350      2.982      3.868
REMARK  5 active torsions:
REMARK  status: ('A' for Active; 'I' for Inactive)
REMARK    1  A    between atoms: C2_2  and  C3_3 
REMARK    2  A    between atoms: C3_3  and  N1_4 
REMARK    3  A    between atoms: N2_10  and  C9_11 
REMARK    4  A    between atoms: C9_11  and  C10_12 
REMARK    5  A    between atoms: C10_12  and  O1_13 
ROOT
HETATM    1  N1  UNL     1      14.048  35.309  11.632  1.00  0.00     0.115 N 
HETATM    2  C4  UNL     1      14.440  35.447  12.981  1.00  0.00     0.285 C 
HETATM    3  C5  UNL     1      13.204  35.246  13.911  1.00  0.00     0.004 C 
HETATM    4  C6  UNL     1      12.311  36.438  13.838  1.00  0.00     0.018 C 
HETATM    5  C7  UNL     1      11.098  36.130  14.680  1.00  0.00     0.046 C 
HETATM    6  C8  UNL     1      11.457  35.554  16.008  1.00  0.00     0.063 C 
HETATM    7  N2  UNL     1      12.814  35.490  16.352  1.00  0.00    -0.370 N 
HETATM    8  C16 UNL     1      13.703  35.084  15.294  1.00  0.00     0.138 C 
HETATM    9  C17 UNL     1      12.590  33.966  13.400  1.00  0.00     0.041 C 
HETATM   10  C18 UNL     1      11.951  34.091  12.045  1.00  0.00     0.239 C 
HETATM   11  N4  UNL     1      12.723  33.434  10.992  1.00  0.00    -0.048 N 
HETATM   12  C19 UNL     1      12.677  32.022  11.201  1.00  0.00     0.274 C 
HETATM   13  C20 UNL     1      12.181  33.848   9.712  1.00  0.00     0.274 C 
HETATM   14  C21 UNL     1      14.084  33.991  11.079  1.00  0.00     0.506 C 
ENDROOT
BRANCH   7  15
HETATM   15  C9  UNL     1      13.397  36.481  17.164  1.00  0.00     0.101 C 
BRANCH  15  16
HETATM   16  C10 UNL     1      14.235  36.017  18.322  1.00  0.00     0.096 C 
HETATM   17  C11 UNL     1      13.795  34.755  19.012  1.00  0.00     0.050 C 
HETATM   18  C12 UNL     1      13.596  35.491  20.322  1.00  0.00     0.023 C 
HETATM   19  C13 UNL     1      14.777  35.338  21.218  1.00  0.00     0.237 C 
HETATM   20  C15 UNL     1      13.735  36.772  19.576  1.00  0.00     0.057 C 
HETATM   21  N3  UNL     1      15.264  36.667  21.406  1.00  0.00    -0.074 N 
HETATM   22  C14 UNL     1      14.810  37.502  20.333  1.00  0.00     0.240 C 
ATOM     23  H32 UNL     1      15.011  37.044  22.320  1.00  0.00     0.277 HD
ATOM     24  H31 UNL     1      16.278  36.695  21.512  1.00  0.00     0.277 HD
BRANCH  16  25
HETATM   25  O1  UNL     1      15.589  36.262  18.233  1.00  0.00    -0.384 OA
ATOM     26  H1  UNL     1      15.928  36.953  18.789  1.00  0.00     0.211 HD
ENDBRANCH  16  25
ENDBRANCH  15  16
ENDBRANCH   7  15
BRANCH   1  27
HETATM   27  C3  UNL     1      14.620  36.253  10.750  1.00  0.00     0.274 C 
BRANCH  27  28
HETATM   28  C2  UNL     1      14.720  37.671  11.181  1.00  0.00     0.026 C 
HETATM   29  C1  UNL     1      13.523  38.535  10.948  1.00  0.00     0.007 C 
ENDBRANCH  27  28
ENDBRANCH   1  27
TORSDOF 5
ENDMDL
MODEL 5
REMARK VINA RESULT: -7.018945540      2.791      3.737
REMARK  5 active torsions:
REMARK  status: ('A' for Active; 'I' for Inactive)
REMARK    1  A    between atoms: C2_2  and  C3_3 
REMARK    2  A    between atoms: C3_3  and  N1_4 
REMARK    3  A    between atoms: N2_10  and  C9_11 
REMARK    4  A    between atoms: C9_11  and  C10_12 
REMARK    5  A    between atoms: C10_12  and  O1_13 
ROOT
HETATM    1  N1  UNL     1      12.781  32.838  11.816  1.00  0.00     0.115 N 
HETATM    2  C4  UNL     1      13.478  33.435  12.889  1.00  0.00     0.285 C 
HETATM    3  C5  UNL     1      12.565  33.473  14.152  1.00  0.00     0.004 C 
HETATM    4  C6  UNL     1      11.513  34.518  13.990  1.00  0.00     0.018 C 
HETATM    5  C7  UNL     1      10.616  34.430  15.199  1.00  0.00     0.046 C 
HETATM    6  C8  UNL     1      11.383  34.344  16.474  1.00  0.00     0.063 C 
HETATM    7  N2  UNL     1      12.777  34.479  16.414  1.00  0.00    -0.370 N 
HETATM    8  C16 UNL     1      13.418  33.805  15.314  1.00  0.00     0.138 C 
HETATM    9  C17 UNL     1      12.042  32.061  14.245  1.00  0.00     0.041 C 
HETATM   10  C18 UNL     1      11.068  31.696  13.161  1.00  0.00     0.239 C 
HETATM   11  N4  UNL     1      11.635  30.779  12.175  1.00  0.00    -0.048 N 
HETATM   12  C19 UNL     1      11.858  29.514  12.798  1.00  0.00     0.274 C 
HETATM   13  C20 UNL     1      10.729  30.716  11.044  1.00  0.00     0.274 C 
HETATM   14  C21 UNL     1      12.874  31.416  11.695  1.00  0.00     0.506 C 
ENDROOT
BRANCH   7  15
HETATM   15  C9  UNL     1      13.391  35.716  16.689  1.00  0.00     0.101 C 
BRANCH  15  16
HETATM   16  C10 UNL     1      14.302  35.781  17.882  1.00  0.00     0.096 C 
HETATM   17  C11 UNL     1      13.894  34.981  19.089  1.00  0.00     0.050 C 
HETATM   18  C12 UNL     1      13.798  36.232  19.939  1.00  0.00     0.023 C 
HETATM   19  C13 UNL     1      15.038  36.444  20.739  1.00  0.00     0.237 C 
HETATM   20  C15 UNL     1      13.903  37.038  18.690  1.00  0.00     0.057 C 
HETATM   21  N3  UNL     1      15.555  37.694  20.283  1.00  0.00    -0.074 N 
HETATM   22  C14 UNL     1      15.039  37.981  18.977  1.00  0.00     0.240 C 
ATOM     23  H32 UNL     1      15.373  38.450  20.943  1.00  0.00     0.277 HD
ATOM     24  H31 UNL     1      16.575  37.721  20.307  1.00  0.00     0.277 HD
BRANCH  16  25
HETATM   25  O1  UNL     1      15.649  35.900  17.616  1.00  0.00    -0.384 OA
ATOM     26  H1  UNL     1      16.081  35.126  17.276  1.00  0.00     0.211 HD
ENDBRANCH  16  25
ENDBRANCH  15  16
ENDBRANCH   7  15
BRANCH   1  27
HETATM   27  C3  UNL     1      12.960  33.475  10.567  1.00  0.00     0.274 C 
BRANCH  27  28
HETATM   28  C2  UNL     1      14.126  34.375  10.380  1.00  0.00     0.026 C 
HETATM   29  C1  UNL     1      15.325  33.798   9.700  1.00  0.00     0.007 C 
ENDBRANCH  27  28
ENDBRANCH   1  27
TORSDOF 5
ENDMDL
