MODEL 1
REMARK VINA RESULT: -6.143648323      0.000      0.000
REMARK  6 active torsions:
REMARK  status: ('A' for Active; 'I' for Inactive)
REMARK    1  A    between atoms: C2_2  and  C3_3 
REMARK    2  A    between atoms: C4_4  and  C5_5 
REMARK    3  A    between atoms: C6_6  and  C7_7 
REMARK    4  A    between atoms: C12_16  and  C13_17 
REMARK       I    between atoms: C13_17  and  N2_19 
REMARK    5  A    between atoms: C16_22  and  C17_23 
REMARK       I    between atoms: C17_23  and  N3_25 
REMARK    6  A    between atoms: N3_25  and  C18_27 
ROOT
HETATM    1  C7  UNL     1      12.136  33.563  15.609  1.00  0.00     0.046 C 
HETATM    2  C8  UNL     1      13.200  32.816  14.822  1.00  0.00     0.105 C 
HETATM    3  N1  UNL     1      12.756  31.472  14.472  1.00  0.00    -0.348 N 
ATOM      4  H1  UNL     1      12.253  30.844  15.101  1.00  0.00     0.163 HD
HETATM    5  C9  UNL     1      13.121  31.158  13.127  1.00  0.00     0.288 C 
HETATM    6  O1  UNL     1      13.014  30.089  12.484  1.00  0.00    -0.264 OA
HETATM    7  C10 UNL     1      13.690  32.391  12.572  1.00  0.00     0.223 C 
HETATM    8  O2  UNL     1      14.430  32.503  11.566  1.00  0.00    -0.287 OA
HETATM    9  C11 UNL     1      13.225  33.478  13.427  1.00  0.00     0.103 C 
HETATM   10  C12 UNL     1      11.784  33.865  13.307  1.00  0.00     0.105 C 
HETATM   11  C16 UNL     1      11.571  34.586  14.660  1.00  0.00     0.101 C 
ENDROOT
BRANCH   1  12
HETATM   12  C6  UNL     1      12.665  34.164  16.827  1.00  0.00    -0.010 C 
HETATM   13  C5  UNL     1      12.391  33.784  18.031  1.00  0.00     0.061 C 
BRANCH  13  14
HETATM   14  C4  UNL     1      12.999  34.487  19.160  1.00  0.00    -0.079 C 
HETATM   15  C3  UNL     1      13.511  35.071  20.077  1.00  0.00    -0.102 C 
BRANCH  15  16
HETATM   16  C2  UNL     1      14.134  35.806  21.189  1.00  0.00     0.090 C 
HETATM   17  C1  UNL     1      13.118  36.828  21.649  1.00  0.00     0.018 C 
ENDBRANCH  15  16
ENDBRANCH  13  14
ENDBRANCH   1  12
BRANCH  11  18
HETATM   18  C17 UNL     1      10.150  34.853  14.881  1.00  0.00     0.223 C 
HETATM   19  O4  UNL     1       9.414  33.965  15.360  1.00  0.00    -0.273 OA
HETATM   20  N3  UNL     1       9.588  36.109  14.562  1.00  0.00    -0.361 N 
ATOM     21  H3  UNL     1      10.195  36.830  14.172  1.00  0.00     0.162 HD
BRANCH  20  22
HETATM   22  C18 UNL     1       8.189  36.417  14.765  1.00  0.00     0.118 C 
HETATM   23  C19 UNL     1       7.378  36.175  13.504  1.00  0.00     0.026 C 
ENDBRANCH  20  22
ENDBRANCH  11  18
BRANCH  10  24
HETATM   24  C13 UNL     1      11.440  34.742  12.190  1.00  0.00     0.225 C 
HETATM   25  O3  UNL     1      12.262  35.716  11.995  1.00  0.00    -0.273 OA
HETATM   26  N2  UNL     1      10.324  34.618  11.330  1.00  0.00    -0.360 N 
HETATM   27  C14 UNL     1      10.191  35.597  10.243  1.00  0.00     0.152 C 
HETATM   28  C15 UNL     1       9.292  33.617  11.450  1.00  0.00     0.152 C 
ENDBRANCH  10  24
TORSDOF 6
ENDMDL
MODEL 2
REMARK VINA RESULT: -6.098982145      2.245      4.280
REMARK  6 active torsions:
REMARK  status: ('A' for Active; 'I' for Inactive)
REMARK    1  A    between atoms: C2_2  and  C3_3 
REMARK    2  A    between atoms: C4_4  and  C5_5 
REMARK    3  A    between atoms: C6_6  and  C7_7 
REMARK    4  A    between atoms: C12_16  and  C13_17 
REMARK       I    between atoms: C13_17  and  N2_19 
REMARK    5  A    between atoms: C16_22  and  C17_23 
REMARK       I    between atoms: C17_23  and  N3_25 
REMARK    6  A    between atoms: N3_25  and  C18_27 
ROOT
HETATM    1  C7  UNL     1      11.703  36.333  14.915  1.00  0.00     0.046 C 
HETATM    2  C8  UNL     1      10.346  35.700  15.174  1.00  0.00     0.105 C 
HETATM    3  N1  UNL     1       9.293  36.382  14.432  1.00  0.00    -0.348 N 
ATOM      4  H1  UNL     1       9.214  37.394  14.332  1.00  0.00     0.163 HD
HETATM    5  C9  UNL     1       8.387  35.434  13.864  1.00  0.00     0.288 C 
HETATM    6  O1  UNL     1       7.310  35.606  13.247  1.00  0.00    -0.264 OA
HETATM    7  C10 UNL     1       8.966  34.115  14.143  1.00  0.00     0.223 C 
HETATM    8  O2  UNL     1       8.379  33.007  14.132  1.00  0.00    -0.287 OA
HETATM    9  C11 UNL     1      10.376  34.342  14.441  1.00  0.00     0.103 C 
HETATM   10  C12 UNL     1      11.264  34.697  13.289  1.00  0.00     0.105 C 
HETATM   11  C16 UNL     1      12.444  35.362  14.037  1.00  0.00     0.101 C 
ENDROOT
BRANCH   1  12
HETATM   12  C6  UNL     1      12.422  36.633  16.147  1.00  0.00    -0.010 C 
HETATM   13  C5  UNL     1      13.208  35.820  16.773  1.00  0.00     0.061 C 
BRANCH  13  14
HETATM   14  C4  UNL     1      13.863  36.262  18.004  1.00  0.00    -0.079 C 
HETATM   15  C3  UNL     1      14.388  36.637  19.017  1.00  0.00    -0.102 C 
BRANCH  15  16
HETATM   16  C2  UNL     1      15.013  37.090  20.270  1.00  0.00     0.090 C 
HETATM   17  C1  UNL     1      14.837  35.966  21.267  1.00  0.00     0.018 C 
ENDBRANCH  15  16
ENDBRANCH  13  14
ENDBRANCH   1  12
BRANCH  11  18
HETATM   18  C17 UNL     1      13.349  36.015  13.090  1.00  0.00     0.223 C 
HETATM   19  O4  UNL     1      14.508  35.581  12.932  1.00  0.00    -0.273 OA
HETATM   20  N3  UNL     1      12.931  37.138  12.342  1.00  0.00    -0.361 N 
ATOM     21  H3  UNL     1      11.982  37.487  12.475  1.00  0.00     0.162 HD
BRANCH  20  22
HETATM   22  C18 UNL     1      13.790  37.814  11.395  1.00  0.00     0.118 C 
HETATM   23  C19 UNL     1      13.037  38.885  10.626  1.00  0.00     0.026 C 
ENDBRANCH  20  22
ENDBRANCH  11  18
BRANCH  10  24
HETATM   24  C13 UNL     1      11.729  33.585  12.463  1.00  0.00     0.225 C 
HETATM   25  O3  UNL     1      12.143  32.558  13.124  1.00  0.00    -0.273 OA
HETATM   26  N2  UNL     1      11.760  33.537  11.050  1.00  0.00    -0.360 N 
HETATM   27  C14 UNL     1      12.237  32.297  10.422  1.00  0.00     0.152 C 
HETATM   28  C15 UNL     1      11.381  34.619  10.174  1.00  0.00     0.152 C 
ENDBRANCH  10  24
TORSDOF 6
ENDMDL
MODEL 3
REMARK VINA RESULT: -6.058802996      2.216      4.568
REMARK  6 active torsions:
REMARK  status: ('A' for Active; 'I' for Inactive)
REMARK    1  A    between atoms: C2_2  and  C3_3 
REMARK    2  A    between atoms: C4_4  and  C5_5 
REMARK    3  A    between atoms: C6_6  and  C7_7 
REMARK    4  A    between atoms: C12_16  and  C13_17 
REMARK       I    between atoms: C13_17  and  N2_19 
REMARK    5  A    between atoms: C16_22  and  C17_23 
REMARK       I    between atoms: C17_23  and  N3_25 
REMARK    6  A    between atoms: N3_25  and  C18_27 
ROOT
HETATM    1  C7  UNL     1      11.575  36.352  14.878  1.00  0.00     0.046 C 
HETATM    2  C8  UNL     1      10.217  35.749  15.196  1.00  0.00     0.105 C 
HETATM    3  N1  UNL     1       9.152  36.426  14.465  1.00  0.00    -0.348 N 
ATOM      4  H1  UNL     1       9.087  37.436  14.337  1.00  0.00     0.163 HD
HETATM    5  C9  UNL     1       8.215  35.477  13.954  1.00  0.00     0.288 C 
HETATM    6  O1  UNL     1       7.123  35.648  13.363  1.00  0.00    -0.264 OA
HETATM    7  C10 UNL     1       8.781  34.157  14.255  1.00  0.00     0.223 C 
HETATM    8  O2  UNL     1       8.176  33.059  14.295  1.00  0.00    -0.287 OA
HETATM    9  C11 UNL     1      10.203  34.369  14.504  1.00  0.00     0.103 C 
HETATM   10  C12 UNL     1      11.061  34.675  13.317  1.00  0.00     0.105 C 
HETATM   11  C16 UNL     1      12.274  35.341  14.008  1.00  0.00     0.101 C 
ENDROOT
BRANCH   1  12
HETATM   12  C6  UNL     1      12.336  36.675  16.079  1.00  0.00    -0.010 C 
HETATM   13  C5  UNL     1      13.087  35.854  16.734  1.00  0.00     0.061 C 
BRANCH  13  14
HETATM   14  C4  UNL     1      13.792  36.324  17.927  1.00  0.00    -0.079 C 
HETATM   15  C3  UNL     1      14.355  36.713  18.914  1.00  0.00    -0.102 C 
BRANCH  15  16
HETATM   16  C2  UNL     1      15.034  37.174  20.135  1.00  0.00     0.090 C 
HETATM   17  C1  UNL     1      14.834  36.091  21.172  1.00  0.00     0.018 C 
ENDBRANCH  15  16
ENDBRANCH  13  14
ENDBRANCH   1  12
BRANCH  11  18
HETATM   18  C17 UNL     1      13.160  35.951  13.016  1.00  0.00     0.223 C 
HETATM   19  O4  UNL     1      12.761  36.915  12.331  1.00  0.00    -0.273 OA
HETATM   20  N3  UNL     1      14.471  35.466  12.816  1.00  0.00    -0.361 N 
ATOM     21  H3  UNL     1      14.791  34.678  13.379  1.00  0.00     0.162 HD
BRANCH  20  22
HETATM   22  C18 UNL     1      15.380  36.038  11.847  1.00  0.00     0.118 C 
HETATM   23  C19 UNL     1      15.842  35.002  10.838  1.00  0.00     0.026 C 
ENDBRANCH  20  22
ENDBRANCH  11  18
BRANCH  10  24
HETATM   24  C13 UNL     1      11.484  33.530  12.512  1.00  0.00     0.225 C 
HETATM   25  O3  UNL     1      11.900  32.517  13.191  1.00  0.00    -0.273 OA
HETATM   26  N2  UNL     1      11.473  33.440  11.101  1.00  0.00    -0.360 N 
HETATM   27  C14 UNL     1      11.911  32.174  10.497  1.00  0.00     0.152 C 
HETATM   28  C15 UNL     1      11.086  34.502  10.203  1.00  0.00     0.152 C 
ENDBRANCH  10  24
TORSDOF 6
ENDMDL
MODEL 4
REMARK VINA RESULT: -6.035012897      1.299      1.412
REMARK  6 active torsions:
REMARK  status: ('A' for Active; 'I' for Inactive)
REMARK    1  A    between atoms: C2_2  and  C3_3 
REMARK    2  A    between atoms: C4_4  and  C5_5 
REMARK    3  A    between atoms: C6_6  and  C7_7 
REMARK    4  A    between atoms: C12_16  and  C13_17 
REMARK       I    between atoms: C13_17  and  N2_19 
REMARK    5  A    between atoms: C16_22  and  C17_23 
REMARK       I    between atoms: C17_23  and  N3_25 
REMARK    6  A    between atoms: N3_25  and  C18_27 
ROOT
HETATM    1  C7  UNL     1      11.916  33.943  15.620  1.00  0.00     0.046 C 
HETATM    2  C8  UNL     1      12.631  32.730  15.048  1.00  0.00     0.105 C 
HETATM    3  N1  UNL     1      11.683  31.758  14.518  1.00  0.00    -0.348 N 
ATOM      4  H1  UNL     1      10.809  31.491  14.972  1.00  0.00     0.163 HD
HETATM    5  C9  UNL     1      12.148  31.232  13.273  1.00  0.00     0.288 C 
HETATM    6  O1  UNL     1      11.686  30.318  12.552  1.00  0.00    -0.264 OA
HETATM    7  C10 UNL     1      13.356  31.998  12.945  1.00  0.00     0.223 C 
HETATM    8  O2  UNL     1      14.267  31.679  12.144  1.00  0.00    -0.287 OA
HETATM    9  C11 UNL     1      13.296  33.219  13.743  1.00  0.00     0.103 C 
HETATM   10  C12 UNL     1      12.299  34.253  13.324  1.00  0.00     0.105 C 
HETATM   11  C16 UNL     1      12.158  35.058  14.638  1.00  0.00     0.101 C 
ENDROOT
BRANCH   1  12
HETATM   12  C6  UNL     1      12.373  34.275  16.965  1.00  0.00    -0.010 C 
HETATM   13  C5  UNL     1      13.405  34.999  17.248  1.00  0.00     0.061 C 
BRANCH  13  14
HETATM   14  C4  UNL     1      13.742  35.247  18.650  1.00  0.00    -0.079 C 
HETATM   15  C3  UNL     1      14.034  35.459  19.796  1.00  0.00    -0.102 C 
BRANCH  15  16
HETATM   16  C2  UNL     1      14.391  35.740  21.195  1.00  0.00     0.090 C 
HETATM   17  C1  UNL     1      14.997  37.126  21.212  1.00  0.00     0.018 C 
ENDBRANCH  15  16
ENDBRANCH  13  14
ENDBRANCH   1  12
BRANCH  11  18
HETATM   18  C17 UNL     1      11.039  35.997  14.547  1.00  0.00     0.223 C 
HETATM   19  O4  UNL     1      11.258  37.225  14.483  1.00  0.00    -0.273 OA
HETATM   20  N3  UNL     1       9.704  35.538  14.529  1.00  0.00    -0.361 N 
ATOM     21  H3  UNL     1       9.532  34.534  14.581  1.00  0.00     0.162 HD
BRANCH  20  22
HETATM   22  C18 UNL     1       8.569  36.431  14.440  1.00  0.00     0.118 C 
HETATM   23  C19 UNL     1       7.659  36.059  13.282  1.00  0.00     0.026 C 
ENDBRANCH  20  22
ENDBRANCH  11  18
BRANCH  10  24
HETATM   24  C13 UNL     1      12.694  35.124  12.219  1.00  0.00     0.225 C 
HETATM   25  O3  UNL     1      13.901  35.572  12.290  1.00  0.00    -0.273 OA
HETATM   26  N2  UNL     1      11.897  35.501  11.114  1.00  0.00    -0.360 N 
HETATM   27  C14 UNL     1      12.512  36.362  10.095  1.00  0.00     0.152 C 
HETATM   28  C15 UNL     1      10.517  35.127  10.919  1.00  0.00     0.152 C 
ENDBRANCH  10  24
TORSDOF 6
ENDMDL
MODEL 5
REMARK VINA RESULT: -5.982809041      2.061      4.415
REMARK  6 active torsions:
REMARK  status: ('A' for Active; 'I' for Inactive)
REMARK    1  A    between atoms: C2_2  and  C3_3 
REMARK    2  A    between atoms: C4_4  and  C5_5 
REMARK    3  A    between atoms: C6_6  and  C7_7 
REMARK    4  A    between atoms: C12_16  and  C13_17 
REMARK       I    between atoms: C13_17  and  N2_19 
REMARK    5  A    between atoms: C16_22  and  C17_23 
REMARK       I    between atoms: C17_23  and  N3_25 
REMARK    6  A    between atoms: N3_25  and  C18_27 
ROOT
HETATM    1  C7  UNL     1      11.305  35.792  15.203  1.00  0.00     0.046 C 
HETATM    2  C8  UNL     1       9.890  35.244  15.286  1.00  0.00     0.105 C 
HETATM    3  N1  UNL     1       8.922  36.191  14.749  1.00  0.00    -0.348 N 
ATOM      4  H1  UNL     1       8.937  37.197  14.918  1.00  0.00     0.163 HD
HETATM    5  C9  UNL     1       7.948  35.514  13.951  1.00  0.00     0.288 C 
HETATM    6  O1  UNL     1       6.908  35.941  13.400  1.00  0.00    -0.264 OA
HETATM    7  C10 UNL     1       8.399  34.120  13.874  1.00  0.00     0.223 C 
HETATM    8  O2  UNL     1       7.714  33.113  13.572  1.00  0.00    -0.287 OA
HETATM    9  C11 UNL     1       9.816  34.128  14.222  1.00  0.00     0.103 C 
HETATM   10  C12 UNL     1      10.761  34.687  13.204  1.00  0.00     0.105 C 
HETATM   11  C16 UNL     1      11.977  35.019  14.101  1.00  0.00     0.101 C 
ENDROOT
BRANCH   1  12
HETATM   12  C6  UNL     1      12.017  35.690  16.472  1.00  0.00    -0.010 C 
HETATM   13  C5  UNL     1      12.165  34.608  17.162  1.00  0.00     0.061 C 
BRANCH  13  14
HETATM   14  C4  UNL     1      12.907  34.659  18.422  1.00  0.00    -0.079 C 
HETATM   15  C3  UNL     1      13.503  34.710  19.464  1.00  0.00    -0.102 C 
BRANCH  15  16
HETATM   16  C2  UNL     1      14.217  34.761  20.749  1.00  0.00     0.090 C 
HETATM   17  C1  UNL     1      14.061  36.173  21.270  1.00  0.00     0.018 C 
ENDBRANCH  15  16
ENDBRANCH  13  14
ENDBRANCH   1  12
BRANCH  11  18
HETATM   18  C17 UNL     1      12.961  35.810  13.360  1.00  0.00     0.223 C 
HETATM   19  O4  UNL     1      12.694  36.981  13.023  1.00  0.00    -0.273 OA
HETATM   20  N3  UNL     1      14.219  35.268  13.016  1.00  0.00    -0.361 N 
ATOM     21  H3  UNL     1      14.431  34.311  13.295  1.00  0.00     0.162 HD
BRANCH  20  22
HETATM   22  C18 UNL     1      15.220  36.014  12.285  1.00  0.00     0.118 C 
HETATM   23  C19 UNL     1      15.717  35.241  11.076  1.00  0.00     0.026 C 
ENDBRANCH  20  22
ENDBRANCH  11  18
BRANCH  10  24
HETATM   24  C13 UNL     1      11.144  33.791  12.116  1.00  0.00     0.225 C 
HETATM   25  O3  UNL     1      11.422  32.586  12.480  1.00  0.00    -0.273 OA
HETATM   26  N2  UNL     1      11.230  34.118  10.743  1.00  0.00    -0.360 N 
HETATM   27  C14 UNL     1      11.604  33.046   9.810  1.00  0.00     0.152 C 
HETATM   28  C15 UNL     1      11.003  35.430  10.186  1.00  0.00     0.152 C 
ENDBRANCH  10  24
TORSDOF 6
ENDMDL
