MODEL 1
REMARK VINA RESULT: -6.347098068      0.000      0.000
REMARK  8 active torsions:
REMARK  status: ('A' for Active; 'I' for Inactive)
REMARK    1  A    between atoms: N3_9  and  C7_10 
REMARK    2  A    between atoms: C7_10  and  O1_11 
REMARK    3  A    between atoms: C7_10  and  C8_13 
REMARK    4  A    between atoms: C8_13  and  O2_14 
REMARK    5  A    between atoms: C8_13  and  C9_16 
REMARK    6  A    between atoms: C9_16  and  N4_17 
REMARK    7  A    between atoms: N4_17  and  C11_19 
REMARK    8  A    between atoms: C14_22  and  O3_24 
ROOT
HETATM    1  C1  UNL     1       8.851  33.581  17.137  1.00  0.00     0.222 C 
HETATM    2  N1  UNL     1       9.401  34.003  16.214  1.00  0.00    -0.460 NA
HETATM    3  C2  UNL     1      10.010  34.504  15.095  1.00  0.00     0.218 C 
HETATM    4  C3  UNL     1       9.522  35.941  14.848  1.00  0.00     0.061 C 
HETATM    5  C4  UNL     1       8.219  35.929  14.174  1.00  0.00     0.019 C 
HETATM    6  C5  UNL     1      10.604  36.400  13.846  1.00  0.00     0.068 C 
HETATM    7  N2  UNL     1      11.776  36.702  14.209  1.00  0.00    -0.371 N 
HETATM    8  C6  UNL     1      12.345  36.727  15.495  1.00  0.00     0.256 C 
HETATM    9  N3  UNL     1      12.306  35.223  15.796  1.00  0.00    -0.313 N 
HETATM   10  C13 UNL     1      11.506  34.324  15.015  1.00  0.00     0.063 C 
HETATM   11  C14 UNL     1      12.019  34.103  13.621  1.00  0.00     0.105 C 
HETATM   12  C15 UNL     1      13.203  33.102  13.717  1.00  0.00     0.053 C 
HETATM   13  C16 UNL     1      12.447  35.094  12.661  1.00  0.00     0.015 A 
HETATM   14  C17 UNL     1      12.123  34.769  11.210  1.00  0.00     0.021 C 
HETATM   15  C18 UNL     1      13.736  35.890  12.778  1.00  0.00     0.040 A 
HETATM   16  C19 UNL     1      12.449  36.553  12.952  1.00  0.00     0.097 A 
ENDROOT
BRANCH   9  17
HETATM   17  C7  UNL     1      13.165  34.900  16.839  1.00  0.00     0.150 C 
BRANCH  17  18
HETATM   18  O1  UNL     1      14.427  34.831  16.476  1.00  0.00    -0.347 OA
ATOM     19  H1  UNL     1      14.881  34.074  16.825  1.00  0.00     0.219 HD
ENDBRANCH  17  18
BRANCH  17  20
HETATM   20  C8  UNL     1      12.956  34.620  18.236  1.00  0.00     0.221 C 
BRANCH  20  21
HETATM   21  O2  UNL     1      12.709  33.214  18.409  1.00  0.00    -0.386 OA
ATOM     22  H2  UNL     1      12.193  33.078  19.195  1.00  0.00     0.210 HD
ENDBRANCH  20  21
BRANCH  20  23
HETATM   23  C9  UNL     1      14.017  34.907  19.232  1.00  0.00     0.311 C 
BRANCH  23  24
HETATM   24  N4  UNL     1      13.953  36.146  19.936  1.00  0.00     0.086 N 
HETATM   25  C10 UNL     1      14.181  36.034  21.339  1.00  0.00     0.310 C 
BRANCH  24  26
HETATM   26  C11 UNL     1      14.938  37.061  19.396  1.00  0.00     0.267 C 
HETATM   27  C12 UNL     1      14.374  38.084  18.457  1.00  0.00     0.037 C 
ENDBRANCH  24  26
ENDBRANCH  23  24
ENDBRANCH  20  23
ENDBRANCH  17  20
ENDBRANCH   9  17
BRANCH  11  28
HETATM   28  O3  UNL     1      11.012  33.307  13.005  1.00  0.00    -0.383 OA
ATOM     29  H3  UNL     1      11.125  33.471  12.075  1.00  0.00     0.211 HD
ENDBRANCH  11  28
TORSDOF 8
ENDMDL
MODEL 2
REMARK VINA RESULT: -6.284141460      1.630      2.204
REMARK  8 active torsions:
REMARK  status: ('A' for Active; 'I' for Inactive)
REMARK    1  A    between atoms: N3_9  and  C7_10 
REMARK    2  A    between atoms: C7_10  and  O1_11 
REMARK    3  A    between atoms: C7_10  and  C8_13 
REMARK    4  A    between atoms: C8_13  and  O2_14 
REMARK    5  A    between atoms: C8_13  and  C9_16 
REMARK    6  A    between atoms: C9_16  and  N4_17 
REMARK    7  A    between atoms: N4_17  and  C11_19 
REMARK    8  A    between atoms: C14_22  and  O3_24 
ROOT
HETATM    1  C1  UNL     1      11.417  33.863  19.145  1.00  0.00     0.222 C 
HETATM    2  N1  UNL     1      11.260  33.909  18.001  1.00  0.00    -0.460 NA
HETATM    3  C2  UNL     1      11.026  33.953  16.654  1.00  0.00     0.218 C 
HETATM    4  C3  UNL     1      10.112  35.147  16.332  1.00  0.00     0.061 C 
HETATM    5  C4  UNL     1       8.710  34.802  16.597  1.00  0.00     0.019 C 
HETATM    6  C5  UNL     1      10.332  35.222  14.805  1.00  0.00     0.068 C 
HETATM    7  N2  UNL     1      11.386  35.702  14.298  1.00  0.00    -0.371 N 
HETATM    8  C6  UNL     1      12.513  36.265  14.922  1.00  0.00     0.256 C 
HETATM    9  N3  UNL     1      13.049  35.005  15.615  1.00  0.00    -0.313 N 
HETATM   10  C13 UNL     1      12.239  33.831  15.765  1.00  0.00     0.063 C 
HETATM   11  C14 UNL     1      11.981  33.099  14.479  1.00  0.00     0.105 C 
HETATM   12  C15 UNL     1      13.258  32.280  14.148  1.00  0.00     0.053 C 
HETATM   13  C16 UNL     1      11.551  33.646  13.213  1.00  0.00     0.015 A 
HETATM   14  C17 UNL     1      10.617  32.754  12.408  1.00  0.00     0.021 C 
HETATM   15  C18 UNL     1      12.435  34.486  12.306  1.00  0.00     0.040 A 
HETATM   16  C19 UNL     1      11.309  35.098  13.000  1.00  0.00     0.097 A 
ENDROOT
BRANCH   9  17
HETATM   17  C7  UNL     1      14.378  35.168  15.988  1.00  0.00     0.150 C 
BRANCH  17  18
HETATM   18  O1  UNL     1      15.182  35.395  14.974  1.00  0.00    -0.347 OA
ATOM     19  H1  UNL     1      16.007  35.792  15.226  1.00  0.00     0.219 HD
ENDBRANCH  17  18
BRANCH  17  20
HETATM   20  C8  UNL     1      15.055  35.134  17.259  1.00  0.00     0.221 C 
BRANCH  20  21
HETATM   21  O2  UNL     1      16.337  35.775  17.134  1.00  0.00    -0.386 OA
ATOM     22  H2  UNL     1      16.832  35.649  17.934  1.00  0.00     0.210 HD
ENDBRANCH  20  21
BRANCH  20  23
HETATM   23  C9  UNL     1      14.460  35.788  18.450  1.00  0.00     0.311 C 
BRANCH  23  24
HETATM   24  N4  UNL     1      14.946  37.079  18.815  1.00  0.00     0.086 N 
HETATM   25  C10 UNL     1      14.161  38.161  18.319  1.00  0.00     0.310 C 
BRANCH  24  26
HETATM   26  C11 UNL     1      14.993  37.187  20.260  1.00  0.00     0.267 C 
HETATM   27  C12 UNL     1      14.689  35.908  20.979  1.00  0.00     0.037 C 
ENDBRANCH  24  26
ENDBRANCH  23  24
ENDBRANCH  20  23
ENDBRANCH  17  20
ENDBRANCH   9  17
BRANCH  11  28
HETATM   28  O3  UNL     1      11.062  32.075  14.844  1.00  0.00    -0.383 OA
ATOM     29  H3  UNL     1      11.044  31.501  14.086  1.00  0.00     0.211 HD
ENDBRANCH  11  28
TORSDOF 8
ENDMDL
MODEL 3
REMARK VINA RESULT: -6.146407951      1.550      1.929
REMARK  8 active torsions:
REMARK  status: ('A' for Active; 'I' for Inactive)
REMARK    1  A    between atoms: N3_9  and  C7_10 
REMARK    2  A    between atoms: C7_10  and  O1_11 
REMARK    3  A    between atoms: C7_10  and  C8_13 
REMARK    4  A    between atoms: C8_13  and  O2_14 
REMARK    5  A    between atoms: C8_13  and  C9_16 
REMARK    6  A    between atoms: C9_16  and  N4_17 
REMARK    7  A    between atoms: N4_17  and  C11_19 
REMARK    8  A    between atoms: C14_22  and  O3_24 
ROOT
HETATM    1  C1  UNL     1      10.963  33.708  19.232  1.00  0.00     0.222 C 
HETATM    2  N1  UNL     1      10.938  33.856  18.088  1.00  0.00    -0.460 NA
HETATM    3  C2  UNL     1      10.860  34.019  16.731  1.00  0.00     0.218 C 
HETATM    4  C3  UNL     1       9.965  35.229  16.412  1.00  0.00     0.061 C 
HETATM    5  C4  UNL     1       8.549  34.849  16.482  1.00  0.00     0.019 C 
HETATM    6  C5  UNL     1      10.358  35.443  14.935  1.00  0.00     0.068 C 
HETATM    7  N2  UNL     1      11.454  35.977  14.598  1.00  0.00    -0.371 N 
HETATM    8  C6  UNL     1      12.491  36.492  15.396  1.00  0.00     0.256 C 
HETATM    9  N3  UNL     1      12.968  35.179  16.032  1.00  0.00    -0.313 N 
HETATM   10  C13 UNL     1      12.169  33.989  15.982  1.00  0.00     0.063 C 
HETATM   11  C14 UNL     1      12.074  33.374  14.614  1.00  0.00     0.105 C 
HETATM   12  C15 UNL     1      13.396  32.600  14.363  1.00  0.00     0.053 C 
HETATM   13  C16 UNL     1      11.782  34.029  13.360  1.00  0.00     0.015 A 
HETATM   14  C17 UNL     1      10.963  33.205  12.377  1.00  0.00     0.021 C 
HETATM   15  C18 UNL     1      12.748  34.956  12.641  1.00  0.00     0.040 A 
HETATM   16  C19 UNL     1      11.537  35.492  13.251  1.00  0.00     0.097 A 
ENDROOT
BRANCH   9  17
HETATM   17  C7  UNL     1      14.241  35.320  16.569  1.00  0.00     0.150 C 
BRANCH  17  18
HETATM   18  O1  UNL     1      15.201  35.204  15.679  1.00  0.00    -0.347 OA
ATOM     19  H1  UNL     1      15.843  35.903  15.720  1.00  0.00     0.219 HD
ENDBRANCH  17  18
BRANCH  17  20
HETATM   20  C8  UNL     1      14.725  35.562  17.904  1.00  0.00     0.221 C 
BRANCH  20  21
HETATM   21  O2  UNL     1      15.991  36.243  17.837  1.00  0.00    -0.386 OA
ATOM     22  H2  UNL     1      16.532  35.976  18.570  1.00  0.00     0.210 HD
ENDBRANCH  20  21
BRANCH  20  23
HETATM   23  C9  UNL     1      13.942  36.388  18.854  1.00  0.00     0.311 C 
BRANCH  23  24
HETATM   24  N4  UNL     1      13.526  35.784  20.078  1.00  0.00     0.086 N 
HETATM   25  C10 UNL     1      14.190  34.559  20.382  1.00  0.00     0.310 C 
BRANCH  24  26
HETATM   26  C11 UNL     1      13.760  36.702  21.174  1.00  0.00     0.267 C 
HETATM   27  C12 UNL     1      15.119  37.333  21.164  1.00  0.00     0.037 C 
ENDBRANCH  24  26
ENDBRANCH  23  24
ENDBRANCH  20  23
ENDBRANCH  17  20
ENDBRANCH   9  17
BRANCH  11  28
HETATM   28  O3  UNL     1      11.140  32.313  14.778  1.00  0.00    -0.383 OA
ATOM     29  H3  UNL     1      10.650  32.309  13.963  1.00  0.00     0.211 HD
ENDBRANCH  11  28
TORSDOF 8
ENDMDL
MODEL 4
REMARK VINA RESULT: -6.053012304      0.598      1.156
REMARK  8 active torsions:
REMARK  status: ('A' for Active; 'I' for Inactive)
REMARK    1  A    between atoms: N3_9  and  C7_10 
REMARK    2  A    between atoms: C7_10  and  O1_11 
REMARK    3  A    between atoms: C7_10  and  C8_13 
REMARK    4  A    between atoms: C8_13  and  O2_14 
REMARK    5  A    between atoms: C8_13  and  C9_16 
REMARK    6  A    between atoms: C9_16  and  N4_17 
REMARK    7  A    between atoms: N4_17  and  C11_19 
REMARK    8  A    between atoms: C14_22  and  O3_24 
ROOT
HETATM    1  C1  UNL     1       9.072  33.608  17.092  1.00  0.00     0.222 C 
HETATM    2  N1  UNL     1       9.516  34.019  16.108  1.00  0.00    -0.460 NA
HETATM    3  C2  UNL     1       9.996  34.504  14.922  1.00  0.00     0.218 C 
HETATM    4  C3  UNL     1       9.430  35.913  14.680  1.00  0.00     0.061 C 
HETATM    5  C4  UNL     1       8.070  35.831  14.134  1.00  0.00     0.019 C 
HETATM    6  C5  UNL     1      10.393  36.377  13.566  1.00  0.00     0.068 C 
HETATM    7  N2  UNL     1      11.582  36.734  13.806  1.00  0.00    -0.371 N 
HETATM    8  C6  UNL     1      12.268  36.823  15.031  1.00  0.00     0.256 C 
HETATM    9  N3  UNL     1      12.317  35.330  15.379  1.00  0.00    -0.313 N 
HETATM   10  C13 UNL     1      11.483  34.376  14.706  1.00  0.00     0.063 C 
HETATM   11  C14 UNL     1      11.871  34.127  13.276  1.00  0.00     0.105 C 
HETATM   12  C15 UNL     1      13.098  33.175  13.288  1.00  0.00     0.053 C 
HETATM   13  C16 UNL     1      12.167  35.101  12.250  1.00  0.00     0.015 A 
HETATM   14  C17 UNL     1      11.721  34.715  10.847  1.00  0.00     0.021 C 
HETATM   15  C18 UNL     1      13.429  35.947  12.220  1.00  0.00     0.040 A 
HETATM   16  C19 UNL     1      12.139  36.568  12.495  1.00  0.00     0.097 A 
ENDROOT
BRANCH   9  17
HETATM   17  C7  UNL     1      13.283  35.074  16.344  1.00  0.00     0.150 C 
BRANCH  17  18
HETATM   18  O1  UNL     1      14.448  34.732  15.842  1.00  0.00    -0.347 OA
ATOM     19  H1  UNL     1      15.034  34.339  16.477  1.00  0.00     0.219 HD
ENDBRANCH  17  18
BRANCH  17  20
HETATM   20  C8  UNL     1      13.267  35.103  17.785  1.00  0.00     0.221 C 
BRANCH  20  21
HETATM   21  O2  UNL     1      12.806  33.834  18.281  1.00  0.00    -0.386 OA
ATOM     22  H2  UNL     1      12.000  33.596  17.839  1.00  0.00     0.210 HD
ENDBRANCH  20  21
BRANCH  20  23
HETATM   23  C9  UNL     1      14.515  35.337  18.550  1.00  0.00     0.311 C 
BRANCH  23  24
HETATM   24  N4  UNL     1      14.701  36.620  19.146  1.00  0.00     0.086 N 
HETATM   25  C10 UNL     1      14.157  37.701  18.391  1.00  0.00     0.310 C 
BRANCH  24  26
HETATM   26  C11 UNL     1      14.083  36.637  20.458  1.00  0.00     0.267 C 
HETATM   27  C12 UNL     1      14.763  35.761  21.465  1.00  0.00     0.037 C 
ENDBRANCH  24  26
ENDBRANCH  23  24
ENDBRANCH  20  23
ENDBRANCH  17  20
ENDBRANCH   9  17
BRANCH  11  28
HETATM   28  O3  UNL     1      10.844  33.275  12.783  1.00  0.00    -0.383 OA
ATOM     29  H3  UNL     1      10.190  33.875  12.441  1.00  0.00     0.211 HD
ENDBRANCH  11  28
TORSDOF 8
ENDMDL
MODEL 5
REMARK VINA RESULT: -6.041955362      1.745      3.774
REMARK  8 active torsions:
REMARK  status: ('A' for Active; 'I' for Inactive)
REMARK    1  A    between atoms: N3_9  and  C7_10 
REMARK    2  A    between atoms: C7_10  and  O1_11 
REMARK    3  A    between atoms: C7_10  and  C8_13 
REMARK    4  A    between atoms: C8_13  and  O2_14 
REMARK    5  A    between atoms: C8_13  and  C9_16 
REMARK    6  A    between atoms: C9_16  and  N4_17 
REMARK    7  A    between atoms: N4_17  and  C11_19 
REMARK    8  A    between atoms: C14_22  and  O3_24 
ROOT
HETATM    1  C1  UNL     1      14.221  32.889  11.517  1.00  0.00     0.222 C 
HETATM    2  N1  UNL     1      13.261  33.092  12.127  1.00  0.00    -0.460 NA
HETATM    3  C2  UNL     1      12.099  33.306  12.818  1.00  0.00     0.218 C 
HETATM    4  C3  UNL     1      11.614  31.980  13.425  1.00  0.00     0.061 C 
HETATM    5  C4  UNL     1      10.906  31.185  12.415  1.00  0.00     0.019 C 
HETATM    6  C5  UNL     1      10.589  32.533  14.439  1.00  0.00     0.068 C 
HETATM    7  N2  UNL     1      10.940  33.074  15.527  1.00  0.00    -0.371 N 
HETATM    8  C6  UNL     1      12.225  33.271  16.064  1.00  0.00     0.256 C 
HETATM    9  N3  UNL     1      12.756  34.276  15.032  1.00  0.00    -0.313 N 
HETATM   10  C13 UNL     1      12.100  34.474  13.773  1.00  0.00     0.063 C 
HETATM   11  C14 UNL     1      10.775  35.175  13.878  1.00  0.00     0.105 C 
HETATM   12  C15 UNL     1      11.067  36.689  14.061  1.00  0.00     0.053 C 
HETATM   13  C16 UNL     1       9.687  34.894  14.785  1.00  0.00     0.015 A 
HETATM   14  C17 UNL     1       8.295  35.102  14.207  1.00  0.00     0.021 C 
HETATM   15  C18 UNL     1       9.722  35.196  16.274  1.00  0.00     0.040 A 
HETATM   16  C19 UNL     1       9.745  33.815  15.808  1.00  0.00     0.097 A 
ENDROOT
BRANCH   9  17
HETATM   17  C7  UNL     1      13.866  34.954  15.523  1.00  0.00     0.150 C 
BRANCH  17  18
HETATM   18  O1  UNL     1      14.523  35.620  14.600  1.00  0.00    -0.347 OA
ATOM     19  H1  UNL     1      15.460  35.471  14.620  1.00  0.00     0.219 HD
ENDBRANCH  17  18
BRANCH  17  20
HETATM   20  C8  UNL     1      14.446  35.072  16.836  1.00  0.00     0.221 C 
BRANCH  20  21
HETATM   21  O2  UNL     1      15.878  35.143  16.720  1.00  0.00    -0.386 OA
ATOM     22  H2  UNL     1      16.259  34.324  17.015  1.00  0.00     0.210 HD
ENDBRANCH  20  21
BRANCH  20  23
HETATM   23  C9  UNL     1      14.116  36.226  17.707  1.00  0.00     0.311 C 
BRANCH  23  24
HETATM   24  N4  UNL     1      13.786  35.960  19.069  1.00  0.00     0.086 N 
HETATM   25  C10 UNL     1      13.638  34.575  19.377  1.00  0.00     0.310 C 
BRANCH  24  26
HETATM   26  C11 UNL     1      14.818  36.500  19.931  1.00  0.00     0.267 C 
HETATM   27  C12 UNL     1      14.835  35.913  21.309  1.00  0.00     0.037 C 
ENDBRANCH  24  26
ENDBRANCH  23  24
ENDBRANCH  20  23
ENDBRANCH  17  20
ENDBRANCH   9  17
BRANCH  11  28
HETATM   28  O3  UNL     1      10.258  35.135  12.553  1.00  0.00    -0.383 OA
ATOM     29  H3  UNL     1       9.718  34.353  12.539  1.00  0.00     0.211 HD
ENDBRANCH  11  28
TORSDOF 8
ENDMDL
