MODEL 1
REMARK VINA RESULT: -8.883491716      0.000      0.000
REMARK  5 active torsions:
REMARK  status: ('A' for Active; 'I' for Inactive)
REMARK    1  A    between atoms: N2_3  and  C2_5 
REMARK    2  A    between atoms: C3_10  and  N5_11 
REMARK    3  A    between atoms: C5_13  and  N6_14 
REMARK    4  A    between atoms: C6_17  and  O3_18 
REMARK    5  A    between atoms: C7_24  and  N9_25 
ROOT
HETATM    1  N1  UNL     1      -9.333  66.059  18.072  1.00  0.00    -0.172 NA
HETATM    2  C1  UNL     1     -10.246  65.575  18.583  1.00  0.00     0.183 C 
HETATM    3  N2  UNL     1     -11.360  64.976  19.185  1.00  0.00    -0.275 N 
ATOM      4  H2  UNL     1     -11.530  63.974  19.112  1.00  0.00     0.180 HD
ENDROOT
BRANCH   3   5
HETATM    5  C2  UNL     1     -12.172  65.763  19.844  1.00  0.00     0.174 A 
HETATM    6  N3  UNL     1     -12.187  67.090  19.651  1.00  0.00    -0.268 N 
HETATM    7  N4  UNL     1     -13.040  67.806  20.360  1.00  0.00    -0.128 N 
ATOM      8  H3  UNL     1     -11.560  67.532  18.979  1.00  0.00     0.189 HD
HETATM    9  C3  UNL     1     -13.891  67.288  21.262  1.00  0.00     0.719 A 
ATOM     10  H4  UNL     1     -13.053  68.816  20.215  1.00  0.00     0.205 HD
HETATM   11  N8  UNL     1     -13.865  65.958  21.443  1.00  0.00    -0.170 N 
HETATM   12  C7  UNL     1     -13.022  65.175  20.754  1.00  0.00     0.161 A 
ATOM     13  H8  UNL     1     -14.500  65.534  22.119  1.00  0.00     0.186 HD
BRANCH   9  14
HETATM   14  N5  UNL     1     -14.788  68.137  21.993  1.00  0.00    -0.092 N 
HETATM   15  C4  UNL     1     -15.657  69.030  21.487  1.00  0.00     0.175 A 
HETATM   16  C5  UNL     1     -16.341  69.650  22.512  1.00  0.00     0.172 A 
HETATM   17  C6  UNL     1     -15.836  69.081  23.671  1.00  0.00     0.191 A 
HETATM   18  N7  UNL     1     -14.915  68.187  23.289  1.00  0.00    -0.257 N 
ATOM     19  H7  UNL     1     -14.375  67.614  23.936  1.00  0.00     0.190 HD
BRANCH  16  20
HETATM   20  N6  UNL     1     -17.345  70.653  22.422  1.00  0.00    -0.110 N 
HETATM   21  O1  UNL     1     -17.247  71.663  23.133  1.00  0.00    -0.532 OA
HETATM   22  O2  UNL     1     -18.426  70.560  21.579  1.00  0.00    -0.532 OA
ENDBRANCH  16  20
BRANCH  17  23
HETATM   23  O3  UNL     1     -16.188  69.355  24.963  1.00  0.00    -0.343 OA
ATOM     24  H3  UNL     1     -16.101  68.792  25.723  1.00  0.00     0.219 HD
ENDBRANCH  17  23
ENDBRANCH   9  14
BRANCH  12  25
HETATM   25  N9  UNL     1     -12.987  63.884  20.922  1.00  0.00    -0.382 N 
ATOM     26  H92 UNL     1     -12.113  63.360  20.892  1.00  0.00     0.157 HD
ATOM     27  H91 UNL     1     -13.855  63.377  21.089  1.00  0.00     0.157 HD
ENDBRANCH  12  25
ENDBRANCH   3   5
TORSDOF 5
ENDMDL
MODEL 2
REMARK VINA RESULT: -8.479787881      0.819      1.718
REMARK  5 active torsions:
REMARK  status: ('A' for Active; 'I' for Inactive)
REMARK    1  A    between atoms: N2_3  and  C2_5 
REMARK    2  A    between atoms: C3_10  and  N5_11 
REMARK    3  A    between atoms: C5_13  and  N6_14 
REMARK    4  A    between atoms: C6_17  and  O3_18 
REMARK    5  A    between atoms: C7_24  and  N9_25 
ROOT
HETATM    1  N1  UNL     1      -9.228  65.991  18.020  1.00  0.00    -0.172 NA
HETATM    2  C1  UNL     1     -10.052  65.530  18.682  1.00  0.00     0.183 C 
HETATM    3  N2  UNL     1     -11.054  64.954  19.471  1.00  0.00    -0.275 N 
ATOM      4  H2  UNL     1     -11.072  63.952  19.664  1.00  0.00     0.180 HD
ENDROOT
BRANCH   3   5
HETATM    5  C2  UNL     1     -11.967  65.759  19.951  1.00  0.00     0.174 A 
HETATM    6  N3  UNL     1     -12.015  67.057  19.617  1.00  0.00    -0.268 N 
HETATM    7  N4  UNL     1     -12.971  67.796  20.149  1.00  0.00    -0.128 N 
ATOM      8  H3  UNL     1     -11.334  67.461  18.974  1.00  0.00     0.189 HD
HETATM    9  C3  UNL     1     -13.898  67.328  21.003  1.00  0.00     0.719 A 
ATOM     10  H4  UNL     1     -13.009  68.784  19.897  1.00  0.00     0.205 HD
HETATM   11  N8  UNL     1     -13.838  66.026  21.326  1.00  0.00    -0.170 N 
HETATM   12  C7  UNL     1     -12.891  65.222  20.820  1.00  0.00     0.161 A 
ATOM     13  H8  UNL     1     -14.528  65.640  21.970  1.00  0.00     0.186 HD
BRANCH   9  14
HETATM   14  N5  UNL     1     -14.906  68.198  21.537  1.00  0.00    -0.092 N 
HETATM   15  C4  UNL     1     -15.132  68.483  22.832  1.00  0.00     0.175 A 
HETATM   16  C5  UNL     1     -16.190  69.361  22.941  1.00  0.00     0.172 A 
HETATM   17  C6  UNL     1     -16.594  69.593  21.635  1.00  0.00     0.191 A 
HETATM   18  N7  UNL     1     -15.787  68.868  20.850  1.00  0.00    -0.257 N 
ATOM     19  H7  UNL     1     -15.854  68.844  19.833  1.00  0.00     0.190 HD
BRANCH  16  20
HETATM   20  N6  UNL     1     -16.756  69.917  24.120  1.00  0.00    -0.110 N 
HETATM   21  O1  UNL     1     -17.193  71.076  24.085  1.00  0.00    -0.532 OA
HETATM   22  O2  UNL     1     -16.845  69.231  25.308  1.00  0.00    -0.532 OA
ENDBRANCH  16  20
BRANCH  17  23
HETATM   23  O3  UNL     1     -17.612  70.395  21.201  1.00  0.00    -0.343 OA
ATOM     24  H3  UNL     1     -17.868  71.246  21.537  1.00  0.00     0.219 HD
ENDBRANCH  17  23
ENDBRANCH   9  14
BRANCH  12  25
HETATM   25  N9  UNL     1     -12.823  63.959  21.128  1.00  0.00    -0.382 N 
ATOM     26  H92 UNL     1     -12.207  63.615  21.864  1.00  0.00     0.157 HD
ATOM     27  H91 UNL     1     -13.399  63.288  20.622  1.00  0.00     0.157 HD
ENDBRANCH  12  25
ENDBRANCH   3   5
TORSDOF 5
ENDMDL
MODEL 3
REMARK VINA RESULT: -8.294387315      1.674      2.517
REMARK  5 active torsions:
REMARK  status: ('A' for Active; 'I' for Inactive)
REMARK    1  A    between atoms: N2_3  and  C2_5 
REMARK    2  A    between atoms: C3_10  and  N5_11 
REMARK    3  A    between atoms: C5_13  and  N6_14 
REMARK    4  A    between atoms: C6_17  and  O3_18 
REMARK    5  A    between atoms: C7_24  and  N9_25 
ROOT
HETATM    1  N1  UNL     1      -9.448  66.330  18.469  1.00  0.00    -0.172 NA
HETATM    2  C1  UNL     1     -10.568  66.298  18.197  1.00  0.00     0.183 C 
HETATM    3  N2  UNL     1     -11.923  66.265  17.845  1.00  0.00    -0.275 N 
ATOM      4  H2  UNL     1     -12.246  65.771  17.013  1.00  0.00     0.180 HD
ENDROOT
BRANCH   3   5
HETATM    5  C2  UNL     1     -12.756  66.895  18.634  1.00  0.00     0.174 A 
HETATM    6  N3  UNL     1     -12.390  67.333  19.847  1.00  0.00    -0.268 N 
HETATM    7  N4  UNL     1     -13.297  67.960  20.575  1.00  0.00    -0.128 N 
ATOM      8  H3  UNL     1     -11.443  67.188  20.197  1.00  0.00     0.189 HD
HETATM    9  C3  UNL     1     -14.560  68.184  20.175  1.00  0.00     0.719 A 
ATOM     10  H4  UNL     1     -13.021  68.295  21.499  1.00  0.00     0.205 HD
HETATM   11  N8  UNL     1     -14.910  67.740  18.958  1.00  0.00    -0.170 N 
HETATM   12  C7  UNL     1     -14.036  67.096  18.170  1.00  0.00     0.161 A 
ATOM     13  H8  UNL     1     -15.862  67.895  18.625  1.00  0.00     0.186 HD
BRANCH   9  14
HETATM   14  N5  UNL     1     -15.485  68.874  21.028  1.00  0.00    -0.092 N 
HETATM   15  C4  UNL     1     -15.470  68.927  22.372  1.00  0.00     0.175 A 
HETATM   16  C5  UNL     1     -16.528  69.690  22.822  1.00  0.00     0.172 A 
HETATM   17  C6  UNL     1     -17.187  70.097  21.673  1.00  0.00     0.191 A 
HETATM   18  N7  UNL     1     -16.513  69.575  20.640  1.00  0.00    -0.257 N 
ATOM     19  H7  UNL     1     -16.774  69.711  19.663  1.00  0.00     0.190 HD
BRANCH  16  20
HETATM   20  N6  UNL     1     -16.880  70.002  24.163  1.00  0.00    -0.110 N 
HETATM   21  O1  UNL     1     -17.254  71.152  24.431  1.00  0.00    -0.532 OA
HETATM   22  O2  UNL     1     -16.830  69.086  25.187  1.00  0.00    -0.532 OA
ENDBRANCH  16  20
BRANCH  17  23
HETATM   23  O3  UNL     1     -18.305  70.877  21.578  1.00  0.00    -0.343 OA
ATOM     24  H3  UNL     1     -19.205  70.630  21.755  1.00  0.00     0.219 HD
ENDBRANCH  17  23
ENDBRANCH   9  14
BRANCH  12  25
HETATM   25  N9  UNL     1     -14.366  66.660  16.988  1.00  0.00    -0.382 N 
ATOM     26  H92 UNL     1     -14.867  65.782  16.857  1.00  0.00     0.157 HD
ATOM     27  H91 UNL     1     -14.119  67.208  16.165  1.00  0.00     0.157 HD
ENDBRANCH  12  25
ENDBRANCH   3   5
TORSDOF 5
ENDMDL
MODEL 4
REMARK VINA RESULT: -8.147341622      1.040      1.932
REMARK  5 active torsions:
REMARK  status: ('A' for Active; 'I' for Inactive)
REMARK    1  A    between atoms: N2_3  and  C2_5 
REMARK    2  A    between atoms: C3_10  and  N5_11 
REMARK    3  A    between atoms: C5_13  and  N6_14 
REMARK    4  A    between atoms: C6_17  and  O3_18 
REMARK    5  A    between atoms: C7_24  and  N9_25 
ROOT
HETATM    1  N1  UNL     1     -11.081  62.550  20.688  1.00  0.00    -0.172 NA
HETATM    2  C1  UNL     1     -11.383  63.534  20.169  1.00  0.00     0.183 C 
HETATM    3  N2  UNL     1     -11.728  64.732  19.533  1.00  0.00    -0.275 N 
ATOM      4  H2  UNL     1     -11.378  64.962  18.603  1.00  0.00     0.180 HD
ENDROOT
BRANCH   3   5
HETATM    5  C2  UNL     1     -12.520  65.543  20.186  1.00  0.00     0.174 A 
HETATM    6  N3  UNL     1     -13.292  65.120  21.198  1.00  0.00    -0.268 N 
HETATM    7  N4  UNL     1     -14.061  66.008  21.800  1.00  0.00    -0.128 N 
ATOM      8  H3  UNL     1     -13.287  64.143  21.492  1.00  0.00     0.189 HD
HETATM    9  C3  UNL     1     -14.117  67.308  21.463  1.00  0.00     0.719 A 
ATOM     10  H4  UNL     1     -14.649  65.688  22.570  1.00  0.00     0.205 HD
HETATM   11  N8  UNL     1     -13.338  67.717  20.449  1.00  0.00    -0.170 N 
HETATM   12  C7  UNL     1     -12.535  66.864  19.796  1.00  0.00     0.161 A 
ATOM     13  H8  UNL     1     -13.357  68.697  20.170  1.00  0.00     0.186 HD
BRANCH   9  14
HETATM   14  N5  UNL     1     -14.980  68.210  22.170  1.00  0.00    -0.092 N 
HETATM   15  C4  UNL     1     -15.810  69.126  21.639  1.00  0.00     0.175 A 
HETATM   16  C5  UNL     1     -16.471  69.800  22.646  1.00  0.00     0.172 A 
HETATM   17  C6  UNL     1     -15.993  69.238  23.820  1.00  0.00     0.191 A 
HETATM   18  N7  UNL     1     -15.109  68.298  23.464  1.00  0.00    -0.257 N 
ATOM     19  H7  UNL     1     -14.595  67.719  24.127  1.00  0.00     0.190 HD
BRANCH  16  20
HETATM   20  N6  UNL     1     -17.431  70.840  22.527  1.00  0.00    -0.110 N 
HETATM   21  O1  UNL     1     -17.278  71.874  23.191  1.00  0.00    -0.532 OA
HETATM   22  O2  UNL     1     -18.530  70.759  21.706  1.00  0.00    -0.532 OA
ENDBRANCH  16  20
BRANCH  17  23
HETATM   23  O3  UNL     1     -16.337  69.558  25.104  1.00  0.00    -0.343 OA
ATOM     24  H3  UNL     1     -15.877  70.132  25.705  1.00  0.00     0.219 HD
ENDBRANCH  17  23
ENDBRANCH   9  14
BRANCH  12  25
HETATM   25  N9  UNL     1     -11.776  67.249  18.811  1.00  0.00    -0.382 N 
ATOM     26  H92 UNL     1     -10.842  67.629  18.965  1.00  0.00     0.157 HD
ATOM     27  H91 UNL     1     -12.119  67.172  17.854  1.00  0.00     0.157 HD
ENDBRANCH  12  25
ENDBRANCH   3   5
TORSDOF 5
ENDMDL
MODEL 5
REMARK VINA RESULT: -8.060653544      1.290      1.693
REMARK  5 active torsions:
REMARK  status: ('A' for Active; 'I' for Inactive)
REMARK    1  A    between atoms: N2_3  and  C2_5 
REMARK    2  A    between atoms: C3_10  and  N5_11 
REMARK    3  A    between atoms: C5_13  and  N6_14 
REMARK    4  A    between atoms: C6_17  and  O3_18 
REMARK    5  A    between atoms: C7_24  and  N9_25 
ROOT
HETATM    1  N1  UNL     1      -9.252  65.948  18.048  1.00  0.00    -0.172 NA
HETATM    2  C1  UNL     1     -10.394  65.963  17.891  1.00  0.00     0.183 C 
HETATM    3  N2  UNL     1     -11.778  65.987  17.679  1.00  0.00    -0.275 N 
ATOM      4  H2  UNL     1     -12.198  65.560  16.854  1.00  0.00     0.180 HD
ENDROOT
BRANCH   3   5
HETATM    5  C2  UNL     1     -12.507  66.582  18.588  1.00  0.00     0.174 A 
HETATM    6  N3  UNL     1     -12.064  66.771  19.841  1.00  0.00    -0.268 N 
HETATM    7  N4  UNL     1     -12.868  67.381  20.692  1.00  0.00    -0.128 N 
ATOM      8  H3  UNL     1     -11.138  66.453  20.125  1.00  0.00     0.189 HD
HETATM    9  C3  UNL     1     -14.098  67.822  20.383  1.00  0.00     0.719 A 
ATOM     10  H4  UNL     1     -12.533  67.526  21.646  1.00  0.00     0.205 HD
HETATM   11  N8  UNL     1     -14.527  67.626  19.126  1.00  0.00    -0.170 N 
HETATM   12  C7  UNL     1     -13.759  67.013  18.213  1.00  0.00     0.161 A 
ATOM     13  H8  UNL     1     -15.456  67.951  18.859  1.00  0.00     0.186 HD
BRANCH   9  14
HETATM   14  N5  UNL     1     -14.910  68.477  21.369  1.00  0.00    -0.092 N 
HETATM   15  C4  UNL     1     -15.885  69.378  21.153  1.00  0.00     0.175 A 
HETATM   16  C5  UNL     1     -16.432  69.775  22.356  1.00  0.00     0.172 A 
HETATM   17  C6  UNL     1     -15.731  69.061  23.316  1.00  0.00     0.191 A 
HETATM   18  N7  UNL     1     -14.840  68.308  22.659  1.00  0.00    -0.257 N 
ATOM     19  H7  UNL     1     -14.182  67.676  23.116  1.00  0.00     0.190 HD
BRANCH  16  20
HETATM   20  N6  UNL     1     -17.480  70.706  22.582  1.00  0.00    -0.110 N 
HETATM   21  O1  UNL     1     -17.364  71.526  23.503  1.00  0.00    -0.532 OA
HETATM   22  O2  UNL     1     -18.627  70.747  21.825  1.00  0.00    -0.532 OA
ENDBRANCH  16  20
BRANCH  17  23
HETATM   23  O3  UNL     1     -15.893  69.097  24.673  1.00  0.00    -0.343 OA
ATOM     24  H3  UNL     1     -15.263  68.856  25.342  1.00  0.00     0.219 HD
ENDBRANCH  17  23
ENDBRANCH   9  14
BRANCH  12  25
HETATM   25  N9  UNL     1     -14.165  66.817  16.991  1.00  0.00    -0.382 N 
ATOM     26  H92 UNL     1     -14.447  65.896  16.658  1.00  0.00     0.157 HD
ATOM     27  H91 UNL     1     -14.204  67.603  16.344  1.00  0.00     0.157 HD
ENDBRANCH  12  25
ENDBRANCH   3   5
TORSDOF 5
ENDMDL
