MODEL 1
REMARK VINA RESULT: -8.291407324      0.000      0.000
REMARK  6 active torsions:
REMARK  status: ('A' for Active; 'I' for Inactive)
REMARK    1  A    between atoms: O1_2  and  C2_3 
REMARK    2  A    between atoms: C2_3  and  C3_5 
REMARK    3  A    between atoms: C5_11  and  N3_12 
REMARK    4  A    between atoms: C6_15  and  N4_16 
REMARK    5  A    between atoms: C7_22  and  O3_23 
REMARK    6  A    between atoms: O3_23  and  N7_24 
ROOT
HETATM    1  C3  UNL     1     -14.219  66.482  21.412  1.00  0.00     0.134 A 
HETATM    2  N1  UNL     1     -14.585  66.954  22.610  1.00  0.00    -0.183 N 
ATOM      3  H1  UNL     1     -14.315  66.463  23.463  1.00  0.00     0.184 HD
HETATM    4  C4  UNL     1     -15.324  68.101  22.675  1.00  0.00     0.708 A 
HETATM    5  N2  UNL     1     -15.706  68.597  23.856  1.00  0.00    -0.171 N 
ATOM      6  H2  UNL     1     -15.441  68.114  24.714  1.00  0.00     0.186 HD
HETATM    7  C5  UNL     1     -16.447  69.746  23.926  1.00  0.00     0.160 A 
HETATM    8  C6  UNL     1     -16.821  70.421  22.789  1.00  0.00     0.159 A 
HETATM    9  N5  UNL     1     -16.409  69.876  21.604  1.00  0.00    -0.259 N 
ATOM     10  H5  UNL     1     -16.658  70.336  20.728  1.00  0.00     0.190 HD
HETATM   11  N6  UNL     1     -15.694  68.766  21.570  1.00  0.00    -0.059 N 
HETATM   12  C7  UNL     1     -15.314  68.272  20.361  1.00  0.00     0.216 A 
HETATM   13  C8  UNL     1     -14.574  67.130  20.244  1.00  0.00     0.027 A 
HETATM   14  C9  UNL     1     -14.185  66.630  18.895  1.00  0.00     0.056 C 
ENDROOT
BRANCH   1  15
HETATM   15  C2  UNL     1     -13.431  65.260  21.360  1.00  0.00     0.310 C 
HETATM   16  O2  UNL     1     -14.011  64.172  21.609  1.00  0.00    -0.258 OA
BRANCH  15  17
HETATM   17  O1  UNL     1     -12.093  65.181  21.061  1.00  0.00    -0.321 OA
HETATM   18  C1  UNL     1     -11.534  64.292  20.121  1.00  0.00     0.213 C 
ENDBRANCH  15  17
ENDBRANCH   1  15
BRANCH  12  19
HETATM   19  O3  UNL     1     -15.707  68.977  19.217  1.00  0.00    -0.224 OA
BRANCH  19  20
HETATM   20  N7  UNL     1     -14.750  69.854  18.707  1.00  0.00    -0.303 N 
ATOM     21  H72 UNL     1     -14.177  69.608  17.899  1.00  0.00     0.184 HD
ATOM     22  H71 UNL     1     -14.674  70.743  19.200  1.00  0.00     0.184 HD
ENDBRANCH  19  20
ENDBRANCH  12  19
BRANCH   7  23
HETATM   23  N3  UNL     1     -16.793  70.191  25.082  1.00  0.00    -0.382 N 
ATOM     24  H32 UNL     1     -17.687  69.916  25.488  1.00  0.00     0.157 HD
ATOM     25  H31 UNL     1     -16.160  70.820  25.576  1.00  0.00     0.157 HD
ENDBRANCH   7  23
BRANCH   8  26
HETATM   26  N4  UNL     1     -17.512  71.496  22.768  1.00  0.00    -0.381 N 
ATOM     27  H42 UNL     1     -17.569  72.062  23.614  1.00  0.00     0.157 HD
ATOM     28  H41 UNL     1     -18.024  71.848  21.959  1.00  0.00     0.157 HD
ENDBRANCH   8  26
TORSDOF 6
ENDMDL
MODEL 2
REMARK VINA RESULT: -7.538682052      0.816      1.138
REMARK  6 active torsions:
REMARK  status: ('A' for Active; 'I' for Inactive)
REMARK    1  A    between atoms: O1_2  and  C2_3 
REMARK    2  A    between atoms: C2_3  and  C3_5 
REMARK    3  A    between atoms: C5_11  and  N3_12 
REMARK    4  A    between atoms: C6_15  and  N4_16 
REMARK    5  A    between atoms: C7_22  and  O3_23 
REMARK    6  A    between atoms: O3_23  and  N7_24 
ROOT
HETATM    1  C3  UNL     1     -13.797  66.542  20.781  1.00  0.00     0.134 A 
HETATM    2  N1  UNL     1     -14.153  66.847  22.034  1.00  0.00    -0.183 N 
ATOM      3  H1  UNL     1     -13.800  66.300  22.820  1.00  0.00     0.184 HD
HETATM    4  C4  UNL     1     -14.996  67.901  22.249  1.00  0.00     0.708 A 
HETATM    5  N2  UNL     1     -15.370  68.230  23.489  1.00  0.00    -0.171 N 
ATOM      6  H2  UNL     1     -15.022  67.690  24.280  1.00  0.00     0.186 HD
HETATM    7  C5  UNL     1     -16.214  69.285  23.708  1.00  0.00     0.160 A 
HETATM    8  C6  UNL     1     -16.702  70.034  22.664  1.00  0.00     0.159 A 
HETATM    9  N5  UNL     1     -16.292  69.660  21.413  1.00  0.00    -0.259 N 
ATOM     10  H5  UNL     1     -16.623  70.182  20.602  1.00  0.00     0.190 HD
HETATM   11  N6  UNL     1     -15.476  68.637  21.236  1.00  0.00    -0.059 N 
HETATM   12  C7  UNL     1     -15.104  68.313  19.968  1.00  0.00     0.216 A 
HETATM   13  C8  UNL     1     -14.264  67.270  19.703  1.00  0.00     0.027 A 
HETATM   14  C9  UNL     1     -13.889  66.955  18.295  1.00  0.00     0.056 C 
ENDROOT
BRANCH   1  15
HETATM   15  C2  UNL     1     -12.898  65.418  20.571  1.00  0.00     0.310 C 
HETATM   16  O2  UNL     1     -11.659  65.636  20.606  1.00  0.00    -0.258 OA
BRANCH  15  17
HETATM   17  O1  UNL     1     -13.279  64.120  20.334  1.00  0.00    -0.321 OA
HETATM   18  C1  UNL     1     -13.685  63.210  21.331  1.00  0.00     0.213 C 
ENDBRANCH  15  17
ENDBRANCH   1  15
BRANCH  12  19
HETATM   19  O3  UNL     1     -15.614  69.091  18.921  1.00  0.00    -0.224 OA
BRANCH  19  20
HETATM   20  N7  UNL     1     -14.843  70.203  18.583  1.00  0.00    -0.303 N 
ATOM     21  H72 UNL     1     -14.083  70.527  19.180  1.00  0.00     0.184 HD
ATOM     22  H71 UNL     1     -15.100  70.654  17.705  1.00  0.00     0.184 HD
ENDBRANCH  19  20
ENDBRANCH  12  19
BRANCH   7  23
HETATM   23  N3  UNL     1     -16.550  69.571  24.916  1.00  0.00    -0.382 N 
ATOM     24  H32 UNL     1     -17.480  69.938  25.114  1.00  0.00     0.157 HD
ATOM     25  H31 UNL     1     -15.871  69.424  25.663  1.00  0.00     0.157 HD
ENDBRANCH   7  23
BRANCH   8  26
HETATM   26  N4  UNL     1     -17.493  71.031  22.783  1.00  0.00    -0.381 N 
ATOM     27  H42 UNL     1     -18.216  71.005  23.502  1.00  0.00     0.157 HD
ATOM     28  H41 UNL     1     -17.465  71.873  22.208  1.00  0.00     0.157 HD
ENDBRANCH   8  26
TORSDOF 6
ENDMDL
MODEL 3
REMARK VINA RESULT: -7.525784501      2.511      4.641
REMARK  6 active torsions:
REMARK  status: ('A' for Active; 'I' for Inactive)
REMARK    1  A    between atoms: O1_2  and  C2_3 
REMARK    2  A    between atoms: C2_3  and  C3_5 
REMARK    3  A    between atoms: C5_11  and  N3_12 
REMARK    4  A    between atoms: C6_15  and  N4_16 
REMARK    5  A    between atoms: C7_22  and  O3_23 
REMARK    6  A    between atoms: O3_23  and  N7_24 
ROOT
HETATM    1  C3  UNL     1     -11.299  66.086  18.786  1.00  0.00     0.134 A 
HETATM    2  N1  UNL     1     -11.941  67.171  18.337  1.00  0.00    -0.183 N 
ATOM      3  H1  UNL     1     -11.623  67.649  17.494  1.00  0.00     0.184 HD
HETATM    4  C4  UNL     1     -13.030  67.630  19.023  1.00  0.00     0.708 A 
HETATM    5  N2  UNL     1     -13.693  68.711  18.601  1.00  0.00    -0.171 N 
ATOM      6  H2  UNL     1     -13.382  69.195  17.759  1.00  0.00     0.186 HD
HETATM    7  C5  UNL     1     -14.784  69.175  19.285  1.00  0.00     0.160 A 
HETATM    8  C6  UNL     1     -15.229  68.546  20.424  1.00  0.00     0.159 A 
HETATM    9  N5  UNL     1     -14.520  67.445  20.818  1.00  0.00    -0.259 N 
ATOM     10  H5  UNL     1     -14.806  66.940  21.656  1.00  0.00     0.190 HD
HETATM   11  N6  UNL     1     -13.471  67.023  20.135  1.00  0.00    -0.059 N 
HETATM   12  C7  UNL     1     -12.806  65.922  20.577  1.00  0.00     0.216 A 
HETATM   13  C8  UNL     1     -11.714  65.424  19.926  1.00  0.00     0.027 A 
HETATM   14  C9  UNL     1     -11.019  64.215  20.454  1.00  0.00     0.056 C 
ENDROOT
BRANCH   1  15
HETATM   15  C2  UNL     1     -10.142  65.610  18.043  1.00  0.00     0.310 C 
HETATM   16  O2  UNL     1      -9.090  66.299  18.081  1.00  0.00    -0.258 OA
BRANCH  15  17
HETATM   17  O1  UNL     1     -10.089  64.461  17.293  1.00  0.00    -0.321 OA
HETATM   18  C1  UNL     1      -9.245  64.269  16.181  1.00  0.00     0.213 C 
ENDBRANCH  15  17
ENDBRANCH   1  15
BRANCH  12  19
HETATM   19  O3  UNL     1     -13.278  65.299  21.739  1.00  0.00    -0.224 OA
BRANCH  19  20
HETATM   20  N7  UNL     1     -14.147  64.230  21.523  1.00  0.00    -0.303 N 
ATOM     21  H72 UNL     1     -14.480  63.648  22.292  1.00  0.00     0.184 HD
ATOM     22  H71 UNL     1     -14.416  64.082  20.551  1.00  0.00     0.184 HD
ENDBRANCH  19  20
ENDBRANCH  12  19
BRANCH   7  23
HETATM   23  N3  UNL     1     -15.395  70.217  18.846  1.00  0.00    -0.382 N 
ATOM     24  H32 UNL     1     -15.466  71.051  19.429  1.00  0.00     0.157 HD
ATOM     25  H31 UNL     1     -15.803  70.191  17.911  1.00  0.00     0.157 HD
ENDBRANCH   7  23
BRANCH   8  26
HETATM   26  N4  UNL     1     -16.236  68.915  21.119  1.00  0.00    -0.381 N 
ATOM     27  H42 UNL     1     -16.919  69.548  20.702  1.00  0.00     0.157 HD
ATOM     28  H41 UNL     1     -16.422  68.625  22.079  1.00  0.00     0.157 HD
ENDBRANCH   8  26
TORSDOF 6
ENDMDL
MODEL 4
REMARK VINA RESULT: -6.985276350      2.806      5.361
REMARK  6 active torsions:
REMARK  status: ('A' for Active; 'I' for Inactive)
REMARK    1  A    between atoms: O1_2  and  C2_3 
REMARK    2  A    between atoms: C2_3  and  C3_5 
REMARK    3  A    between atoms: C5_11  and  N3_12 
REMARK    4  A    between atoms: C6_15  and  N4_16 
REMARK    5  A    between atoms: C7_22  and  O3_23 
REMARK    6  A    between atoms: O3_23  and  N7_24 
ROOT
HETATM    1  C3  UNL     1     -14.913  68.279  21.988  1.00  0.00     0.134 A 
HETATM    2  N1  UNL     1     -13.846  67.547  21.649  1.00  0.00    -0.183 N 
ATOM      3  H1  UNL     1     -13.325  67.032  22.359  1.00  0.00     0.184 HD
HETATM    4  C4  UNL     1     -13.462  67.497  20.338  1.00  0.00     0.708 A 
HETATM    5  N2  UNL     1     -12.401  66.775  19.968  1.00  0.00    -0.171 N 
ATOM      6  H2  UNL     1     -11.874  66.256  20.671  1.00  0.00     0.186 HD
HETATM    7  C5  UNL     1     -12.012  66.723  18.656  1.00  0.00     0.160 A 
HETATM    8  C6  UNL     1     -12.700  67.410  17.683  1.00  0.00     0.159 A 
HETATM    9  N5  UNL     1     -13.778  68.135  18.110  1.00  0.00    -0.259 N 
ATOM     10  H5  UNL     1     -14.324  68.664  17.430  1.00  0.00     0.190 HD
HETATM   11  N6  UNL     1     -14.126  68.165  19.383  1.00  0.00    -0.059 N 
HETATM   12  C7  UNL     1     -15.209  68.904  19.745  1.00  0.00     0.216 A 
HETATM   13  C8  UNL     1     -15.632  68.985  21.041  1.00  0.00     0.027 A 
HETATM   14  C9  UNL     1     -16.823  69.812  21.386  1.00  0.00     0.056 C 
ENDROOT
BRANCH   1  15
HETATM   15  C2  UNL     1     -15.308  68.320  23.387  1.00  0.00     0.310 C 
HETATM   16  O2  UNL     1     -15.357  67.234  24.020  1.00  0.00    -0.258 OA
BRANCH  15  17
HETATM   17  O1  UNL     1     -15.637  69.450  24.094  1.00  0.00    -0.321 OA
HETATM   18  C1  UNL     1     -16.823  69.612  24.838  1.00  0.00     0.213 C 
ENDBRANCH  15  17
ENDBRANCH   1  15
BRANCH  12  19
HETATM   19  O3  UNL     1     -15.892  69.595  18.737  1.00  0.00    -0.224 OA
BRANCH  19  20
HETATM   20  N7  UNL     1     -15.309  70.801  18.349  1.00  0.00    -0.303 N 
ATOM     21  H72 UNL     1     -15.351  71.630  18.942  1.00  0.00     0.184 HD
ATOM     22  H71 UNL     1     -14.847  70.783  17.440  1.00  0.00     0.184 HD
ENDBRANCH  19  20
ENDBRANCH  12  19
BRANCH   7  23
HETATM   23  N3  UNL     1     -10.986  66.015  18.340  1.00  0.00    -0.382 N 
ATOM     24  H32 UNL     1     -11.075  65.268  17.651  1.00  0.00     0.157 HD
ATOM     25  H31 UNL     1     -10.093  66.216  18.789  1.00  0.00     0.157 HD
ENDBRANCH   7  23
BRANCH   8  26
HETATM   26  N4  UNL     1     -12.403  67.414  16.440  1.00  0.00    -0.381 N 
ATOM     27  H42 UNL     1     -12.802  66.697  15.835  1.00  0.00     0.157 HD
ATOM     28  H41 UNL     1     -11.787  68.089  15.988  1.00  0.00     0.157 HD
ENDBRANCH   8  26
TORSDOF 6
ENDMDL
MODEL 5
REMARK VINA RESULT: -6.838161676      2.665      5.447
REMARK  6 active torsions:
REMARK  status: ('A' for Active; 'I' for Inactive)
REMARK    1  A    between atoms: O1_2  and  C2_3 
REMARK    2  A    between atoms: C2_3  and  C3_5 
REMARK    3  A    between atoms: C5_11  and  N3_12 
REMARK    4  A    between atoms: C6_15  and  N4_16 
REMARK    5  A    between atoms: C7_22  and  O3_23 
REMARK    6  A    between atoms: O3_23  and  N7_24 
ROOT
HETATM    1  C3  UNL     1     -15.565  68.454  21.508  1.00  0.00     0.134 A 
HETATM    2  N1  UNL     1     -15.034  67.338  22.022  1.00  0.00    -0.183 N 
ATOM      3  H1  UNL     1     -15.322  67.004  22.942  1.00  0.00     0.184 HD
HETATM    4  C4  UNL     1     -14.099  66.652  21.298  1.00  0.00     0.708 A 
HETATM    5  N2  UNL     1     -13.550  65.536  21.783  1.00  0.00    -0.171 N 
ATOM      6  H2  UNL     1     -13.832  65.193  22.702  1.00  0.00     0.186 HD
HETATM    7  C5  UNL     1     -12.613  64.845  21.062  1.00  0.00     0.160 A 
HETATM    8  C6  UNL     1     -12.210  65.279  19.821  1.00  0.00     0.159 A 
HETATM    9  N5  UNL     1     -12.800  66.427  19.366  1.00  0.00    -0.259 N 
ATOM     10  H5  UNL     1     -12.538  66.794  18.451  1.00  0.00     0.190 HD
HETATM   11  N6  UNL     1     -13.700  67.069  20.087  1.00  0.00    -0.059 N 
HETATM   12  C7  UNL     1     -14.251  68.205  19.580  1.00  0.00     0.216 A 
HETATM   13  C8  UNL     1     -15.188  68.925  20.265  1.00  0.00     0.027 A 
HETATM   14  C9  UNL     1     -15.758  70.165  19.666  1.00  0.00     0.056 C 
ENDROOT
BRANCH   1  15
HETATM   15  C2  UNL     1     -16.559  69.171  22.292  1.00  0.00     0.310 C 
HETATM   16  O2  UNL     1     -17.774  68.969  22.034  1.00  0.00    -0.258 OA
BRANCH  15  17
HETATM   17  O1  UNL     1     -16.293  70.061  23.303  1.00  0.00    -0.321 OA
HETATM   18  C1  UNL     1     -16.705  69.901  24.641  1.00  0.00     0.213 C 
ENDBRANCH  15  17
ENDBRANCH   1  15
BRANCH  12  19
HETATM   19  O3  UNL     1     -13.824  68.627  18.315  1.00  0.00    -0.224 OA
BRANCH  19  20
HETATM   20  N7  UNL     1     -12.817  69.592  18.324  1.00  0.00    -0.303 N 
ATOM     21  H72 UNL     1     -13.018  70.576  18.148  1.00  0.00     0.184 HD
ATOM     22  H71 UNL     1     -11.882  69.236  18.518  1.00  0.00     0.184 HD
ENDBRANCH  19  20
ENDBRANCH  12  19
BRANCH   7  23
HETATM   23  N3  UNL     1     -12.109  63.774  21.563  1.00  0.00    -0.382 N 
ATOM     24  H32 UNL     1     -11.626  63.809  22.460  1.00  0.00     0.157 HD
ATOM     25  H31 UNL     1     -12.203  62.898  21.048  1.00  0.00     0.157 HD
ENDBRANCH   7  23
BRANCH   8  26
HETATM   26  N4  UNL     1     -11.343  64.695  19.085  1.00  0.00    -0.381 N 
ATOM     27  H42 UNL     1     -11.004  63.773  19.359  1.00  0.00     0.157 HD
ATOM     28  H41 UNL     1     -10.951  65.079  18.226  1.00  0.00     0.157 HD
ENDBRANCH   8  26
TORSDOF 6
ENDMDL
