MODEL 1
REMARK VINA RESULT: -7.825243565      0.000      0.000
REMARK  3 active torsions:
REMARK  status: ('A' for Active; 'I' for Inactive)
REMARK    1  A    between atoms: S1_2  and  C2_3 
REMARK    2  A    between atoms: N3_9  and  N4_10 
REMARK    3  A    between atoms: C5_14  and  N5_15 
REMARK       I    between atoms: N7_20  and  C6_21 
ROOT
HETATM    1  C2  UNL     1     -12.862  66.861  18.899  1.00  0.00     0.184 A 
HETATM    2  N1  UNL     1     -12.615  67.297  17.619  1.00  0.00    -0.265 N 
ATOM      3  H1  UNL     1     -11.953  66.869  16.972  1.00  0.00     0.189 HD
HETATM    4  N2  UNL     1     -13.351  68.339  17.356  1.00  0.00    -0.128 N 
ATOM      5  H2  UNL     1     -13.361  68.858  16.478  1.00  0.00     0.205 HD
HETATM    6  C3  UNL     1     -14.097  68.614  18.444  1.00  0.00     0.728 A 
HETATM    7  N3  UNL     1     -15.017  69.471  18.888  1.00  0.00    -0.083 N 
HETATM    8  C4  UNL     1     -15.292  69.092  20.123  1.00  0.00     0.166 A 
HETATM    9  C5  UNL     1     -16.058  69.378  21.234  1.00  0.00     0.148 A 
HETATM   10  N6  UNL     1     -15.752  68.482  22.150  1.00  0.00    -0.272 N 
ATOM     11  H6  UNL     1     -16.169  68.450  23.080  1.00  0.00     0.189 HD
HETATM   12  N7  UNL     1     -14.824  67.612  21.711  1.00  0.00    -0.186 N 
HETATM   13  C6  UNL     1     -14.367  66.575  22.552  1.00  0.00     0.355 C 
HETATM   14  N8  UNL     1     -14.911  66.457  23.901  1.00  0.00    -0.038 NA
HETATM   15  O1  UNL     1     -13.536  65.700  22.329  1.00  0.00    -0.249 OA
HETATM   16  C7  UNL     1     -14.526  67.966  20.473  1.00  0.00     0.190 A 
HETATM   17  N9  UNL     1     -13.772  67.680  19.384  1.00  0.00    -0.102 N 
ENDROOT
BRANCH   7  18
HETATM   18  N4  UNL     1     -15.609  70.563  18.236  1.00  0.00    -0.323 N 
ATOM     19  H42 UNL     1     -15.774  70.622  17.232  1.00  0.00     0.178 HD
ATOM     20  H41 UNL     1     -15.960  71.439  18.624  1.00  0.00     0.178 HD
ENDBRANCH   7  18
BRANCH   9  21
HETATM   21  N5  UNL     1     -16.903  70.353  21.318  1.00  0.00    -0.382 N 
ATOM     22  H52 UNL     1     -17.860  70.390  20.967  1.00  0.00     0.157 HD
ATOM     23  H51 UNL     1     -16.717  71.250  21.766  1.00  0.00     0.157 HD
ENDBRANCH   9  21
BRANCH   1  24
HETATM   24  S1  UNL     1     -12.032  65.464  19.580  1.00  0.00    -0.096 SA
HETATM   25  C1  UNL     1     -10.345  65.321  18.964  1.00  0.00     0.099 C 
ENDBRANCH   1  24
TORSDOF 3
ENDMDL
MODEL 2
REMARK VINA RESULT: -7.075341632      1.608      2.308
REMARK  3 active torsions:
REMARK  status: ('A' for Active; 'I' for Inactive)
REMARK    1  A    between atoms: S1_2  and  C2_3 
REMARK    2  A    between atoms: N3_9  and  N4_10 
REMARK    3  A    between atoms: C5_14  and  N5_15 
REMARK       I    between atoms: N7_20  and  C6_21 
ROOT
HETATM    1  C2  UNL     1     -11.817  65.395  19.725  1.00  0.00     0.184 A 
HETATM    2  N1  UNL     1     -11.075  65.175  18.589  1.00  0.00    -0.265 N 
ATOM      3  H1  UNL     1     -10.380  64.438  18.477  1.00  0.00     0.189 HD
HETATM    4  N2  UNL     1     -11.393  66.049  17.677  1.00  0.00    -0.128 N 
ATOM      5  H2  UNL     1     -10.991  66.110  16.742  1.00  0.00     0.205 HD
HETATM    6  C3  UNL     1     -12.343  66.860  18.182  1.00  0.00     0.728 A 
HETATM    7  N3  UNL     1     -13.098  67.911  17.857  1.00  0.00    -0.083 N 
HETATM    8  C4  UNL     1     -13.835  68.163  18.924  1.00  0.00     0.166 A 
HETATM    9  C5  UNL     1     -14.807  68.997  19.436  1.00  0.00     0.148 A 
HETATM   10  N6  UNL     1     -15.050  68.590  20.665  1.00  0.00    -0.272 N 
ATOM     11  H6  UNL     1     -15.730  69.026  21.288  1.00  0.00     0.189 HD
HETATM   12  N7  UNL     1     -14.292  67.531  21.002  1.00  0.00    -0.186 N 
HETATM   13  C6  UNL     1     -14.410  66.951  22.284  1.00  0.00     0.355 C 
HETATM   14  N8  UNL     1     -15.361  67.514  23.238  1.00  0.00    -0.038 NA
HETATM   15  O1  UNL     1     -13.810  65.994  22.764  1.00  0.00    -0.249 OA
HETATM   16  C7  UNL     1     -13.540  67.252  19.952  1.00  0.00     0.190 A 
HETATM   17  N9  UNL     1     -12.585  66.430  19.454  1.00  0.00    -0.102 N 
ENDROOT
BRANCH   7  18
HETATM   18  N4  UNL     1     -13.148  68.638  16.659  1.00  0.00    -0.323 N 
ATOM     19  H42 UNL     1     -12.736  69.560  16.521  1.00  0.00     0.178 HD
ATOM     20  H41 UNL     1     -13.578  68.392  15.768  1.00  0.00     0.178 HD
ENDBRANCH   7  18
BRANCH   9  21
HETATM   21  N5  UNL     1     -15.351  69.980  18.796  1.00  0.00    -0.382 N 
ATOM     22  H52 UNL     1     -15.134  70.320  17.859  1.00  0.00     0.157 HD
ATOM     23  H51 UNL     1     -16.102  70.568  19.158  1.00  0.00     0.157 HD
ENDBRANCH   9  21
BRANCH   1  24
HETATM   24  S1  UNL     1     -11.637  64.388  21.160  1.00  0.00    -0.096 SA
HETATM   25  C1  UNL     1     -12.917  63.125  21.258  1.00  0.00     0.099 C 
ENDBRANCH   1  24
TORSDOF 3
ENDMDL
MODEL 3
REMARK VINA RESULT: -6.977722047      1.688      3.989
REMARK  3 active torsions:
REMARK  status: ('A' for Active; 'I' for Inactive)
REMARK    1  A    between atoms: S1_2  and  C2_3 
REMARK    2  A    between atoms: N3_9  and  N4_10 
REMARK    3  A    between atoms: C5_14  and  N5_15 
REMARK       I    between atoms: N7_20  and  C6_21 
ROOT
HETATM    1  C2  UNL     1     -13.825  66.102  21.636  1.00  0.00     0.184 A 
HETATM    2  N1  UNL     1     -14.461  66.162  22.853  1.00  0.00    -0.265 N 
ATOM      3  H1  UNL     1     -14.344  65.486  23.608  1.00  0.00     0.189 HD
HETATM    4  N2  UNL     1     -15.235  67.209  22.898  1.00  0.00    -0.128 N 
ATOM      5  H2  UNL     1     -15.819  67.486  23.686  1.00  0.00     0.205 HD
HETATM    6  C3  UNL     1     -15.130  67.861  21.724  1.00  0.00     0.728 A 
HETATM    7  N3  UNL     1     -15.591  68.937  21.084  1.00  0.00    -0.083 N 
HETATM    8  C4  UNL     1     -15.006  68.926  19.900  1.00  0.00     0.166 A 
HETATM    9  C5  UNL     1     -14.903  69.598  18.700  1.00  0.00     0.148 A 
HETATM   10  N6  UNL     1     -14.054  68.921  17.955  1.00  0.00    -0.272 N 
ATOM     11  H6  UNL     1     -13.785  69.189  17.008  1.00  0.00     0.189 HD
HETATM   12  N7  UNL     1     -13.583  67.833  18.592  1.00  0.00    -0.186 N 
HETATM   13  C6  UNL     1     -12.659  66.979  17.953  1.00  0.00     0.355 C 
HETATM   14  N8  UNL     1     -12.220  67.289  16.596  1.00  0.00    -0.038 NA
HETATM   15  O1  UNL     1     -12.127  65.955  18.371  1.00  0.00    -0.249 OA
HETATM   16  C7  UNL     1     -14.153  67.815  19.785  1.00  0.00     0.190 A 
HETATM   17  N9  UNL     1     -14.249  67.151  20.962  1.00  0.00    -0.102 N 
ENDROOT
BRANCH   7  18
HETATM   18  N4  UNL     1     -16.503  69.911  21.517  1.00  0.00    -0.323 N 
ATOM     19  H42 UNL     1     -17.476  69.730  21.760  1.00  0.00     0.178 HD
ATOM     20  H41 UNL     1     -16.365  70.912  21.659  1.00  0.00     0.178 HD
ENDBRANCH   7  18
BRANCH   9  21
HETATM   21  N5  UNL     1     -15.539  70.684  18.404  1.00  0.00    -0.382 N 
ATOM     22  H52 UNL     1     -15.154  71.609  18.213  1.00  0.00     0.157 HD
ATOM     23  H51 UNL     1     -16.553  70.762  18.318  1.00  0.00     0.157 HD
ENDBRANCH   9  21
BRANCH   1  24
HETATM   24  S1  UNL     1     -12.701  64.806  21.239  1.00  0.00    -0.096 SA
HETATM   25  C1  UNL     1     -13.537  63.219  21.075  1.00  0.00     0.099 C 
ENDBRANCH   1  24
TORSDOF 3
ENDMDL
MODEL 4
REMARK VINA RESULT: -6.960697031      2.027      4.365
REMARK  3 active torsions:
REMARK  status: ('A' for Active; 'I' for Inactive)
REMARK    1  A    between atoms: S1_2  and  C2_3 
REMARK    2  A    between atoms: N3_9  and  N4_10 
REMARK    3  A    between atoms: C5_14  and  N5_15 
REMARK       I    between atoms: N7_20  and  C6_21 
ROOT
HETATM    1  C2  UNL     1     -15.248  68.639  20.376  1.00  0.00     0.184 A 
HETATM    2  N1  UNL     1     -15.646  69.718  19.624  1.00  0.00    -0.265 N 
ATOM      3  H1  UNL     1     -16.368  70.386  19.893  1.00  0.00     0.189 HD
HETATM    4  N2  UNL     1     -14.964  69.760  18.515  1.00  0.00    -0.128 N 
ATOM      5  H2  UNL     1     -15.063  70.459  17.779  1.00  0.00     0.205 HD
HETATM    6  C3  UNL     1     -14.106  68.722  18.507  1.00  0.00     0.728 A 
HETATM    7  N3  UNL     1     -13.158  68.157  17.758  1.00  0.00    -0.083 N 
HETATM    8  C4  UNL     1     -12.740  67.108  18.442  1.00  0.00     0.166 A 
HETATM    9  C5  UNL     1     -11.859  66.046  18.428  1.00  0.00     0.148 A 
HETATM   10  N6  UNL     1     -12.043  65.384  19.552  1.00  0.00    -0.272 N 
ATOM     11  H6  UNL     1     -11.524  64.545  19.813  1.00  0.00     0.189 HD
HETATM   12  N7  UNL     1     -12.998  65.946  20.316  1.00  0.00    -0.186 N 
HETATM   13  C6  UNL     1     -13.338  65.377  21.562  1.00  0.00     0.355 C 
HETATM   14  N8  UNL     1     -12.643  64.175  22.012  1.00  0.00    -0.038 NA
HETATM   15  O1  UNL     1     -14.171  65.745  22.384  1.00  0.00    -0.249 OA
HETATM   16  C7  UNL     1     -13.439  67.003  19.656  1.00  0.00     0.190 A 
HETATM   17  N9  UNL     1     -14.305  68.044  19.675  1.00  0.00    -0.102 N 
ENDROOT
BRANCH   7  18
HETATM   18  N4  UNL     1     -12.665  68.543  16.503  1.00  0.00    -0.323 N 
ATOM     19  H42 UNL     1     -12.017  67.994  15.938  1.00  0.00     0.178 HD
ATOM     20  H41 UNL     1     -12.853  69.387  15.962  1.00  0.00     0.178 HD
ENDBRANCH   7  18
BRANCH   9  21
HETATM   21  N5  UNL     1     -11.029  65.786  17.472  1.00  0.00    -0.382 N 
ATOM     22  H52 UNL     1     -10.011  65.738  17.516  1.00  0.00     0.157 HD
ATOM     23  H51 UNL     1     -11.293  65.586  16.507  1.00  0.00     0.157 HD
ENDBRANCH   9  21
BRANCH   1  24
HETATM   24  S1  UNL     1     -15.970  68.284  21.944  1.00  0.00    -0.096 SA
HETATM   25  C1  UNL     1     -17.158  69.545  22.437  1.00  0.00     0.099 C 
ENDBRANCH   1  24
TORSDOF 3
ENDMDL
MODEL 5
REMARK VINA RESULT: -6.641114105      2.264      4.495
REMARK  3 active torsions:
REMARK  status: ('A' for Active; 'I' for Inactive)
REMARK    1  A    between atoms: S1_2  and  C2_3 
REMARK    2  A    between atoms: N3_9  and  N4_10 
REMARK    3  A    between atoms: C5_14  and  N5_15 
REMARK       I    between atoms: N7_20  and  C6_21 
ROOT
HETATM    1  C2  UNL     1     -16.438  69.383  22.461  1.00  0.00     0.184 A 
HETATM    2  N1  UNL     1     -17.143  70.539  22.225  1.00  0.00    -0.265 N 
ATOM      3  H1  UNL     1     -17.713  71.029  22.914  1.00  0.00     0.189 HD
HETATM    4  N2  UNL     1     -16.975  70.915  20.989  1.00  0.00    -0.128 N 
ATOM      5  H2  UNL     1     -17.387  71.740  20.554  1.00  0.00     0.205 HD
HETATM    6  C3  UNL     1     -16.162  70.027  20.384  1.00  0.00     0.728 A 
HETATM    7  N3  UNL     1     -15.586  69.773  19.208  1.00  0.00    -0.083 N 
HETATM    8  C4  UNL     1     -14.892  68.663  19.384  1.00  0.00     0.166 A 
HETATM    9  C5  UNL     1     -14.061  67.757  18.759  1.00  0.00     0.148 A 
HETATM   10  N6  UNL     1     -13.748  66.844  19.657  1.00  0.00    -0.272 N 
ATOM     11  H6  UNL     1     -13.142  66.045  19.472  1.00  0.00     0.189 HD
HETATM   12  N7  UNL     1     -14.325  67.092  20.846  1.00  0.00    -0.186 N 
HETATM   13  C6  UNL     1     -14.108  66.222  21.937  1.00  0.00     0.355 C 
HETATM   14  N8  UNL     1     -13.252  65.053  21.759  1.00  0.00    -0.038 NA
HETATM   15  O1  UNL     1     -14.545  66.285  23.082  1.00  0.00    -0.249 OA
HETATM   16  C7  UNL     1     -15.031  68.200  20.704  1.00  0.00     0.190 A 
HETATM   17  N9  UNL     1     -15.846  69.088  21.322  1.00  0.00    -0.102 N 
ENDROOT
BRANCH   7  18
HETATM   18  N4  UNL     1     -15.660  70.488  18.004  1.00  0.00    -0.323 N 
ATOM     19  H42 UNL     1     -15.031  71.245  17.737  1.00  0.00     0.178 HD
ATOM     20  H41 UNL     1     -16.314  70.387  17.228  1.00  0.00     0.178 HD
ENDBRANCH   7  18
BRANCH   9  21
HETATM   21  N5  UNL     1     -13.685  67.827  17.524  1.00  0.00    -0.382 N 
ATOM     22  H52 UNL     1     -14.188  67.519  16.692  1.00  0.00     0.157 HD
ATOM     23  H51 UNL     1     -12.798  68.218  17.206  1.00  0.00     0.157 HD
ENDBRANCH   9  21
BRANCH   1  24
HETATM   24  S1  UNL     1     -16.446  68.597  24.038  1.00  0.00    -0.096 SA
HETATM   25  C1  UNL     1     -17.179  69.646  25.306  1.00  0.00     0.099 C 
ENDBRANCH   1  24
TORSDOF 3
ENDMDL
