MODEL 1
REMARK VINA RESULT: -8.318315405      0.000      0.000
REMARK  3 active torsions:
REMARK  status: ('A' for Active; 'I' for Inactive)
REMARK    1  A    between atoms: C2_3  and  O1_4 
REMARK    2  A    between atoms: O1_4  and  C3_5 
REMARK    3  A    between atoms: C5_9  and  N3_10 
ROOT
HETATM    1  C1  UNL     1     -13.770  65.327  21.455  1.00  0.00     0.163 C 
HETATM    2  N1  UNL     1     -13.252  66.224  20.444  1.00  0.00    -0.280 N 
HETATM    3  C2  UNL     1     -13.957  67.353  20.089  1.00  0.00     0.193 A 
HETATM    4  C7  UNL     1     -13.430  68.207  19.121  1.00  0.00     0.180 A 
HETATM    5  C8  UNL     1     -14.064  69.462  18.814  1.00  0.00     0.123 C 
HETATM    6  N6  UNL     1     -14.574  70.474  18.591  1.00  0.00    -0.190 NA
HETATM    7  N7  UNL     1     -12.254  67.894  18.562  1.00  0.00    -0.283 N 
ATOM      8  H7  UNL     1     -11.867  68.515  17.852  1.00  0.00     0.188 HD
HETATM    9  N8  UNL     1     -11.578  66.809  18.899  1.00  0.00    -0.250 N 
ATOM     10  H8  UNL     1     -10.684  66.597  18.456  1.00  0.00     0.192 HD
HETATM   11  C9  UNL     1     -12.090  65.986  19.843  1.00  0.00     0.342 A 
HETATM   12  O2  UNL     1     -11.400  64.971  20.124  1.00  0.00    -0.245 OA
ENDROOT
BRANCH   3  13
HETATM   13  O1  UNL     1     -15.104  67.550  20.719  1.00  0.00    -0.285 OA
BRANCH  13  14
HETATM   14  C3  UNL     1     -15.580  68.323  21.715  1.00  0.00     0.137 A 
HETATM   15  C4  UNL     1     -15.162  67.967  23.044  1.00  0.00     0.147 A 
HETATM   16  N2  UNL     1     -15.543  68.623  24.121  1.00  0.00    -0.199 N 
HETATM   17  C5  UNL     1     -16.361  69.676  23.979  1.00  0.00     0.677 A 
ATOM     18  H2  UNL     1     -15.223  68.334  25.045  1.00  0.00     0.183 HD
HETATM   19  N4  UNL     1     -16.792  70.067  22.782  1.00  0.00    -0.175 N 
HETATM   20  C6  UNL     1     -16.409  69.402  21.658  1.00  0.00     0.150 A 
ATOM     21  H4  UNL     1     -17.413  70.873  22.706  1.00  0.00     0.186 HD
HETATM   22  N5  UNL     1     -16.885  69.791  20.538  1.00  0.00    -0.383 N 
ATOM     23  H52 UNL     1     -16.598  69.292  19.695  1.00  0.00     0.157 HD
ATOM     24  H51 UNL     1     -17.506  70.598  20.495  1.00  0.00     0.157 HD
BRANCH  17  25
HETATM   25  N3  UNL     1     -16.743  70.330  25.037  1.00  0.00    -0.234 N 
ATOM     26  H32 UNL     1     -16.768  69.850  25.937  1.00  0.00     0.174 HD
ATOM     27  H31 UNL     1     -17.009  71.311  24.947  1.00  0.00     0.174 HD
ENDBRANCH  17  25
ENDBRANCH  13  14
ENDBRANCH   3  13
TORSDOF 3
ENDMDL
MODEL 2
REMARK VINA RESULT: -8.286363560      1.976      5.527
REMARK  3 active torsions:
REMARK  status: ('A' for Active; 'I' for Inactive)
REMARK    1  A    between atoms: C2_3  and  O1_4 
REMARK    2  A    between atoms: O1_4  and  C3_5 
REMARK    3  A    between atoms: C5_9  and  N3_10 
ROOT
HETATM    1  C1  UNL     1     -14.829  67.956  22.638  1.00  0.00     0.163 C 
HETATM    2  N1  UNL     1     -14.992  68.490  21.302  1.00  0.00    -0.280 N 
HETATM    3  C2  UNL     1     -14.063  68.209  20.324  1.00  0.00     0.193 A 
HETATM    4  C7  UNL     1     -14.249  68.726  19.042  1.00  0.00     0.180 A 
HETATM    5  C8  UNL     1     -13.380  68.354  17.958  1.00  0.00     0.123 C 
HETATM    6  N6  UNL     1     -12.685  68.031  17.094  1.00  0.00    -0.190 NA
HETATM    7  N7  UNL     1     -15.326  69.487  18.809  1.00  0.00    -0.283 N 
ATOM      8  H7  UNL     1     -15.464  69.870  17.873  1.00  0.00     0.188 HD
HETATM    9  N8  UNL     1     -16.216  69.760  19.747  1.00  0.00    -0.250 N 
ATOM     10  H8  UNL     1     -17.027  70.344  19.539  1.00  0.00     0.192 HD
HETATM   11  C9  UNL     1     -16.034  69.252  20.988  1.00  0.00     0.342 A 
HETATM   12  O2  UNL     1     -16.916  69.544  21.838  1.00  0.00    -0.245 OA
ENDROOT
BRANCH   3  13
HETATM   13  O1  UNL     1     -13.047  67.442  20.683  1.00  0.00    -0.285 OA
BRANCH  13  14
HETATM   14  C3  UNL     1     -12.613  66.186  20.461  1.00  0.00     0.137 A 
HETATM   15  C4  UNL     1     -13.357  65.139  21.105  1.00  0.00     0.147 A 
HETATM   16  N2  UNL     1     -13.056  63.861  20.989  1.00  0.00    -0.199 N 
HETATM   17  C5  UNL     1     -12.005  63.513  20.232  1.00  0.00     0.677 A 
ATOM     18  H2  UNL     1     -13.611  63.151  21.465  1.00  0.00     0.183 HD
HETATM   19  N4  UNL     1     -11.267  64.425  19.603  1.00  0.00    -0.175 N 
HETATM   20  C6  UNL     1     -11.562  65.749  19.713  1.00  0.00     0.150 A 
ATOM     21  H4  UNL     1     -10.474  64.129  19.033  1.00  0.00     0.186 HD
HETATM   22  N5  UNL     1     -10.796  66.586  19.125  1.00  0.00    -0.383 N 
ATOM     23  H52 UNL     1     -11.018  67.579  19.207  1.00  0.00     0.157 HD
ATOM     24  H51 UNL     1     -10.009  66.259  18.565  1.00  0.00     0.157 HD
BRANCH  17  25
HETATM   25  N3  UNL     1     -11.701  62.254  20.110  1.00  0.00    -0.234 N 
ATOM     26  H32 UNL     1     -11.051  61.832  20.774  1.00  0.00     0.174 HD
ATOM     27  H31 UNL     1     -12.118  61.712  19.353  1.00  0.00     0.174 HD
ENDBRANCH  17  25
ENDBRANCH  13  14
ENDBRANCH   3  13
TORSDOF 3
ENDMDL
MODEL 3
REMARK VINA RESULT: -8.221854515      1.438      3.128
REMARK  3 active torsions:
REMARK  status: ('A' for Active; 'I' for Inactive)
REMARK    1  A    between atoms: C2_3  and  O1_4 
REMARK    2  A    between atoms: O1_4  and  C3_5 
REMARK    3  A    between atoms: C5_9  and  N3_10 
ROOT
HETATM    1  C1  UNL     1     -14.646  69.547  18.794  1.00  0.00     0.163 C 
HETATM    2  N1  UNL     1     -13.751  68.441  19.061  1.00  0.00    -0.280 N 
HETATM    3  C2  UNL     1     -14.073  67.502  20.017  1.00  0.00     0.193 A 
HETATM    4  C7  UNL     1     -13.199  66.440  20.248  1.00  0.00     0.180 A 
HETATM    5  C8  UNL     1     -13.554  65.368  21.139  1.00  0.00     0.123 C 
HETATM    6  N6  UNL     1     -13.860  64.505  21.842  1.00  0.00    -0.190 NA
HETATM    7  N7  UNL     1     -12.069  66.375  19.533  1.00  0.00    -0.283 N 
ATOM      8  H7  UNL     1     -11.426  65.601  19.701  1.00  0.00     0.188 HD
HETATM    9  N8  UNL     1     -11.756  67.276  18.618  1.00  0.00    -0.250 N 
ATOM     10  H8  UNL     1     -10.887  67.200  18.090  1.00  0.00     0.192 HD
HETATM   11  C9  UNL     1     -12.610  68.302  18.394  1.00  0.00     0.342 A 
HETATM   12  O2  UNL     1     -12.260  69.127  17.509  1.00  0.00    -0.245 OA
ENDROOT
BRANCH   3  13
HETATM   13  O1  UNL     1     -15.221  67.680  20.650  1.00  0.00    -0.285 OA
BRANCH  13  14
HETATM   14  C3  UNL     1     -15.680  68.357  21.721  1.00  0.00     0.137 A 
HETATM   15  C4  UNL     1     -16.471  69.523  21.438  1.00  0.00     0.147 A 
HETATM   16  N2  UNL     1     -16.988  70.290  22.376  1.00  0.00    -0.199 N 
HETATM   17  C5  UNL     1     -16.771  69.974  23.660  1.00  0.00     0.677 A 
ATOM     18  H2  UNL     1     -17.543  71.110  22.130  1.00  0.00     0.183 HD
HETATM   19  N4  UNL     1     -16.049  68.909  24.003  1.00  0.00    -0.175 N 
HETATM   20  C6  UNL     1     -15.506  68.106  23.048  1.00  0.00     0.150 A 
ATOM     21  H4  UNL     1     -15.901  68.693  24.989  1.00  0.00     0.186 HD
HETATM   22  N5  UNL     1     -14.785  67.122  23.429  1.00  0.00    -0.383 N 
ATOM     23  H52 UNL     1     -14.378  66.520  22.713  1.00  0.00     0.157 HD
ATOM     24  H51 UNL     1     -14.654  66.934  24.423  1.00  0.00     0.157 HD
BRANCH  17  25
HETATM   25  N3  UNL     1     -17.278  70.725  24.594  1.00  0.00    -0.234 N 
ATOM     26  H32 UNL     1     -16.805  70.787  25.495  1.00  0.00     0.174 HD
ATOM     27  H31 UNL     1     -18.139  71.239  24.406  1.00  0.00     0.174 HD
ENDBRANCH  17  25
ENDBRANCH  13  14
ENDBRANCH   3  13
TORSDOF 3
ENDMDL
MODEL 4
REMARK VINA RESULT: -8.116988192      1.405      2.748
REMARK  3 active torsions:
REMARK  status: ('A' for Active; 'I' for Inactive)
REMARK    1  A    between atoms: C2_3  and  O1_4 
REMARK    2  A    between atoms: O1_4  and  C3_5 
REMARK    3  A    between atoms: C5_9  and  N3_10 
ROOT
HETATM    1  C1  UNL     1     -14.682  69.789  18.762  1.00  0.00     0.163 C 
HETATM    2  N1  UNL     1     -13.827  68.665  19.080  1.00  0.00    -0.280 N 
HETATM    3  C2  UNL     1     -14.195  67.769  20.060  1.00  0.00     0.193 A 
HETATM    4  C7  UNL     1     -13.360  66.688  20.340  1.00  0.00     0.180 A 
HETATM    5  C8  UNL     1     -13.762  65.657  21.259  1.00  0.00     0.123 C 
HETATM    6  N6  UNL     1     -14.107  64.828  21.986  1.00  0.00    -0.190 NA
HETATM    7  N7  UNL     1     -12.221  66.561  19.645  1.00  0.00    -0.283 N 
ATOM      8  H7  UNL     1     -11.607  65.773  19.849  1.00  0.00     0.188 HD
HETATM    9  N8  UNL     1     -11.866  67.422  18.706  1.00  0.00    -0.250 N 
ATOM     10  H8  UNL     1     -10.992  67.299  18.195  1.00  0.00     0.192 HD
HETATM   11  C9  UNL     1     -12.682  68.467  18.435  1.00  0.00     0.342 A 
HETATM   12  O2  UNL     1     -12.292  69.250  17.530  1.00  0.00    -0.245 OA
ENDROOT
BRANCH   3  13
HETATM   13  O1  UNL     1     -15.345  68.004  20.669  1.00  0.00    -0.285 OA
BRANCH  13  14
HETATM   14  C3  UNL     1     -15.783  68.642  21.772  1.00  0.00     0.137 A 
HETATM   15  C4  UNL     1     -15.243  68.181  23.022  1.00  0.00     0.147 A 
HETATM   16  N2  UNL     1     -15.574  68.699  24.187  1.00  0.00    -0.199 N 
HETATM   17  C5  UNL     1     -16.456  69.709  24.217  1.00  0.00     0.677 A 
ATOM     18  H2  UNL     1     -15.168  68.340  25.051  1.00  0.00     0.183 HD
HETATM   19  N4  UNL     1     -17.000  70.192  23.102  1.00  0.00    -0.175 N 
HETATM   20  C6  UNL     1     -16.671  69.667  21.889  1.00  0.00     0.150 A 
ATOM     21  H4  UNL     1     -17.668  70.960  23.156  1.00  0.00     0.186 HD
HETATM   22  N5  UNL     1     -17.254  70.137  20.853  1.00  0.00    -0.383 N 
ATOM     23  H52 UNL     1     -17.007  69.744  19.945  1.00  0.00     0.157 HD
ATOM     24  H51 UNL     1     -17.919  70.905  20.941  1.00  0.00     0.157 HD
BRANCH  17  25
HETATM   25  N3  UNL     1     -16.789  70.228  25.363  1.00  0.00    -0.234 N 
ATOM     26  H32 UNL     1     -17.325  69.669  26.026  1.00  0.00     0.174 HD
ATOM     27  H31 UNL     1     -16.506  71.185  25.576  1.00  0.00     0.174 HD
ENDBRANCH  17  25
ENDBRANCH  13  14
ENDBRANCH   3  13
TORSDOF 3
ENDMDL
MODEL 5
REMARK VINA RESULT: -8.073967446      1.910      5.895
REMARK  3 active torsions:
REMARK  status: ('A' for Active; 'I' for Inactive)
REMARK    1  A    between atoms: C2_3  and  O1_4 
REMARK    2  A    between atoms: O1_4  and  C3_5 
REMARK    3  A    between atoms: C5_9  and  N3_10 
ROOT
HETATM    1  C1  UNL     1     -13.273  69.098  18.545  1.00  0.00     0.163 C 
HETATM    2  N1  UNL     1     -14.298  69.019  19.564  1.00  0.00    -0.280 N 
HETATM    3  C2  UNL     1     -14.126  68.202  20.660  1.00  0.00     0.193 A 
HETATM    4  C7  UNL     1     -15.123  68.153  21.634  1.00  0.00     0.180 A 
HETATM    5  C8  UNL     1     -14.932  67.418  22.856  1.00  0.00     0.123 C 
HETATM    6  N6  UNL     1     -14.756  66.839  23.840  1.00  0.00    -0.190 NA
HETATM    7  N7  UNL     1     -16.221  68.901  21.464  1.00  0.00    -0.283 N 
ATOM      8  H7  UNL     1     -16.954  68.865  22.173  1.00  0.00     0.188 HD
HETATM    9  N8  UNL     1     -16.388  69.683  20.412  1.00  0.00    -0.250 N 
ATOM     10  H8  UNL     1     -17.236  70.241  20.310  1.00  0.00     0.192 HD
HETATM   11  C9  UNL     1     -15.416  69.731  19.472  1.00  0.00     0.342 A 
HETATM   12  O2  UNL     1     -15.631  70.496  18.495  1.00  0.00    -0.245 OA
ENDROOT
BRANCH   3  13
HETATM   13  O1  UNL     1     -12.995  67.518  20.710  1.00  0.00    -0.285 OA
BRANCH  13  14
HETATM   14  C3  UNL     1     -12.567  66.269  20.438  1.00  0.00     0.137 A 
HETATM   15  C4  UNL     1     -13.252  65.205  21.118  1.00  0.00     0.147 A 
HETATM   16  N2  UNL     1     -12.948  63.933  20.960  1.00  0.00    -0.199 N 
HETATM   17  C5  UNL     1     -11.952  63.607  20.123  1.00  0.00     0.677 A 
ATOM     18  H2  UNL     1     -13.461  63.209  21.464  1.00  0.00     0.183 HD
HETATM   19  N4  UNL     1     -11.270  64.535  19.457  1.00  0.00    -0.175 N 
HETATM   20  C6  UNL     1     -11.569  65.854  19.609  1.00  0.00     0.150 A 
ATOM     21  H4  UNL     1     -10.518  64.257  18.827  1.00  0.00     0.186 HD
HETATM   22  N5  UNL     1     -10.855  66.709  18.980  1.00  0.00    -0.383 N 
ATOM     23  H52 UNL     1     -11.080  67.697  19.094  1.00  0.00     0.157 HD
ATOM     24  H51 UNL     1     -10.108  66.398  18.359  1.00  0.00     0.157 HD
BRANCH  17  25
HETATM   25  N3  UNL     1     -11.646  62.353  19.960  1.00  0.00    -0.234 N 
ATOM     26  H32 UNL     1     -12.364  61.642  20.097  1.00  0.00     0.174 HD
ATOM     27  H31 UNL     1     -10.692  62.104  19.697  1.00  0.00     0.174 HD
ENDBRANCH  17  25
ENDBRANCH  13  14
ENDBRANCH   3  13
TORSDOF 3
ENDMDL
