MODEL 1
REMARK VINA RESULT: -7.838060288      0.000      0.000
REMARK  4 active torsions:
REMARK  status: ('A' for Active; 'I' for Inactive)
REMARK    1  A    between atoms: C2_2  and  O2_4 
REMARK    2  A    between atoms: O2_4  and  C3_5 
REMARK    3  A    between atoms: C8_16  and  N4_17 
REMARK    4  A    between atoms: N4_17  and  O4_18 
REMARK       I    between atoms: N4_17  and  C9_20 
REMARK       I    between atoms: C9_20  and  N5_21 
REMARK       I    between atoms: C9_20  and  N6_25 
ROOT
HETATM    1  C3  UNL     1     -13.462  65.972  20.739  1.00  0.00     0.195 A 
HETATM    2  C4  UNL     1     -14.294  64.960  19.978  1.00  0.00     0.065 C 
HETATM    3  C5  UNL     1     -14.230  66.491  21.865  1.00  0.00     0.230 A 
HETATM    4  O3  UNL     1     -14.765  65.708  22.735  1.00  0.00    -0.286 OA
HETATM    5  C6  UNL     1     -14.447  67.898  22.085  1.00  0.00     0.178 A 
HETATM    6  C7  UNL     1     -15.177  68.336  23.254  1.00  0.00     0.123 C 
HETATM    7  N1  UNL     1     -15.764  68.710  24.193  1.00  0.00    -0.190 NA
HETATM    8  N2  UNL     1     -13.997  68.767  21.251  1.00  0.00    -0.286 N 
ATOM      9  H2  UNL     1     -14.145  69.766  21.386  1.00  0.00     0.188 HD
HETATM   10  N3  UNL     1     -13.307  68.283  20.168  1.00  0.00    -0.283 N 
ATOM     11  H3  UNL     1     -12.968  68.991  19.517  1.00  0.00     0.188 HD
HETATM   12  C8  UNL     1     -13.024  67.078  19.854  1.00  0.00     0.166 A 
ENDROOT
BRANCH   1  13
HETATM   13  O2  UNL     1     -12.251  65.353  21.140  1.00  0.00    -0.294 OA
BRANCH  13  14
HETATM   14  C2  UNL     1     -11.981  64.026  21.299  1.00  0.00     0.256 C 
HETATM   15  C1  UNL     1     -11.227  63.345  20.195  1.00  0.00     0.126 C 
HETATM   16  O1  UNL     1     -12.350  63.422  22.315  1.00  0.00    -0.266 OA
ENDBRANCH  13  14
ENDBRANCH   1  13
BRANCH  12  17
HETATM   17  N4  UNL     1     -12.296  66.889  18.624  1.00  0.00    -0.188 N 
HETATM   18  C9  UNL     1     -12.791  66.919  17.306  1.00  0.00     0.507 C 
HETATM   19  N5  UNL     1     -11.744  66.398  16.404  1.00  0.00    -0.031 N 
HETATM   20  N6  UNL     1     -13.122  68.243  16.791  1.00  0.00    -0.031 N 
ATOM     21  H53 UNL     1     -10.859  66.896  16.502  1.00  0.00     0.279 HD
ATOM     22  H52 UNL     1     -11.415  65.473  16.678  1.00  0.00     0.279 HD
ATOM     23  H51 UNL     1     -12.102  66.420  15.449  1.00  0.00     0.279 HD
ATOM     24  H63 UNL     1     -13.775  68.711  17.420  1.00  0.00     0.279 HD
ATOM     25  H62 UNL     1     -12.316  68.863  16.877  1.00  0.00     0.279 HD
ATOM     26  H61 UNL     1     -13.479  68.265  15.836  1.00  0.00     0.279 HD
BRANCH  17  27
HETATM   27  O4  UNL     1     -10.948  66.659  18.801  1.00  0.00    -0.282 OA
ATOM     28  H4  UNL     1     -10.483  66.450  17.998  1.00  0.00     0.245 HD
ENDBRANCH  17  27
ENDBRANCH  12  17
TORSDOF 4
ENDMDL
MODEL 2
REMARK VINA RESULT: -7.187087821      1.078      1.280
REMARK  4 active torsions:
REMARK  status: ('A' for Active; 'I' for Inactive)
REMARK    1  A    between atoms: C2_2  and  O2_4 
REMARK    2  A    between atoms: O2_4  and  C3_5 
REMARK    3  A    between atoms: C8_16  and  N4_17 
REMARK    4  A    between atoms: N4_17  and  O4_18 
REMARK       I    between atoms: N4_17  and  C9_20 
REMARK       I    between atoms: C9_20  and  N5_21 
REMARK       I    between atoms: C9_20  and  N6_25 
ROOT
HETATM    1  C3  UNL     1     -13.890  66.064  20.603  1.00  0.00     0.195 A 
HETATM    2  C4  UNL     1     -14.740  64.911  20.111  1.00  0.00     0.065 C 
HETATM    3  C5  UNL     1     -14.462  66.606  21.831  1.00  0.00     0.230 A 
HETATM    4  O3  UNL     1     -14.712  65.857  22.847  1.00  0.00    -0.286 OA
HETATM    5  C6  UNL     1     -14.787  68.000  21.996  1.00  0.00     0.178 A 
HETATM    6  C7  UNL     1     -15.304  68.469  23.263  1.00  0.00     0.123 C 
HETATM    7  N1  UNL     1     -15.722  68.869  24.278  1.00  0.00    -0.190 NA
HETATM    8  N2  UNL     1     -14.622  68.829  21.027  1.00  0.00    -0.286 N 
ATOM      9  H2  UNL     1     -14.853  69.817  21.123  1.00  0.00     0.188 HD
HETATM   10  N3  UNL     1     -14.121  68.318  19.857  1.00  0.00    -0.283 N 
ATOM     11  H3  UNL     1     -14.009  68.994  19.101  1.00  0.00     0.188 HD
HETATM   12  C8  UNL     1     -13.775  67.122  19.572  1.00  0.00     0.166 A 
ENDROOT
BRANCH   1  13
HETATM   13  O2  UNL     1     -12.559  65.605  20.775  1.00  0.00    -0.294 OA
BRANCH  13  14
HETATM   14  C2  UNL     1     -12.124  64.368  21.147  1.00  0.00     0.256 C 
HETATM   15  C1  UNL     1     -11.492  63.517  20.085  1.00  0.00     0.126 C 
HETATM   16  O1  UNL     1     -12.252  63.976  22.315  1.00  0.00    -0.266 OA
ENDBRANCH  13  14
ENDBRANCH   1  13
BRANCH  12  17
HETATM   17  N4  UNL     1     -13.301  66.894  18.229  1.00  0.00    -0.188 N 
HETATM   18  C9  UNL     1     -11.974  66.910  17.760  1.00  0.00     0.507 C 
HETATM   19  N5  UNL     1     -12.001  66.903  16.284  1.00  0.00    -0.031 N 
HETATM   20  N6  UNL     1     -11.162  65.757  18.136  1.00  0.00    -0.031 N 
ATOM     21  H53 UNL     1     -12.542  66.126  15.905  1.00  0.00     0.279 HD
ATOM     22  H52 UNL     1     -12.562  67.663  15.899  1.00  0.00     0.279 HD
ATOM     23  H51 UNL     1     -11.040  66.915  15.943  1.00  0.00     0.279 HD
ATOM     24  H63 UNL     1     -11.173  65.636  19.149  1.00  0.00     0.279 HD
ATOM     25  H62 UNL     1     -11.625  64.895  17.848  1.00  0.00     0.279 HD
ATOM     26  H61 UNL     1     -10.201  65.768  17.796  1.00  0.00     0.279 HD
BRANCH  17  27
HETATM   27  O4  UNL     1     -14.302  66.622  17.320  1.00  0.00    -0.282 OA
ATOM     28  H4  UNL     1     -15.160  66.508  17.713  1.00  0.00     0.245 HD
ENDBRANCH  17  27
ENDBRANCH  12  17
TORSDOF 4
ENDMDL
MODEL 3
REMARK VINA RESULT: -6.559868758      2.343      5.750
REMARK  4 active torsions:
REMARK  status: ('A' for Active; 'I' for Inactive)
REMARK    1  A    between atoms: C2_2  and  O2_4 
REMARK    2  A    between atoms: O2_4  and  C3_5 
REMARK    3  A    between atoms: C8_16  and  N4_17 
REMARK    4  A    between atoms: N4_17  and  O4_18 
REMARK       I    between atoms: N4_17  and  C9_20 
REMARK       I    between atoms: C9_20  and  N5_21 
REMARK       I    between atoms: C9_20  and  N6_25 
ROOT
HETATM    1  C3  UNL     1     -13.159  66.793  19.116  1.00  0.00     0.195 A 
HETATM    2  C4  UNL     1     -14.494  66.397  18.518  1.00  0.00     0.065 C 
HETATM    3  C5  UNL     1     -12.092  66.509  18.163  1.00  0.00     0.230 A 
HETATM    4  O3  UNL     1     -12.121  66.966  16.961  1.00  0.00    -0.286 OA
HETATM    5  C6  UNL     1     -10.942  65.706  18.491  1.00  0.00     0.178 A 
HETATM    6  C7  UNL     1      -9.900  65.511  17.507  1.00  0.00     0.123 C 
HETATM    7  N1  UNL     1      -9.047  65.342  16.726  1.00  0.00    -0.190 NA
HETATM    8  N2  UNL     1     -10.835  65.160  19.651  1.00  0.00    -0.286 N 
ATOM      9  H2  UNL     1     -10.031  64.583  19.898  1.00  0.00     0.188 HD
HETATM   10  N3  UNL     1     -11.855  65.392  20.538  1.00  0.00    -0.283 N 
ATOM     11  H3  UNL     1     -11.751  64.941  21.447  1.00  0.00     0.188 HD
HETATM   12  C8  UNL     1     -12.916  66.089  20.396  1.00  0.00     0.166 A 
ENDROOT
BRANCH   1  13
HETATM   13  O2  UNL     1     -13.216  68.163  19.482  1.00  0.00    -0.294 OA
BRANCH  13  14
HETATM   14  C2  UNL     1     -13.461  69.248  18.696  1.00  0.00     0.256 C 
HETATM   15  C1  UNL     1     -14.844  69.830  18.744  1.00  0.00     0.126 C 
HETATM   16  O1  UNL     1     -12.573  69.722  17.976  1.00  0.00    -0.266 OA
ENDBRANCH  13  14
ENDBRANCH   1  13
BRANCH  12  17
HETATM   17  N4  UNL     1     -13.818  66.119  21.520  1.00  0.00    -0.188 N 
HETATM   18  C9  UNL     1     -14.360  67.244  22.171  1.00  0.00     0.507 C 
HETATM   19  N5  UNL     1     -14.996  66.794  23.426  1.00  0.00    -0.031 N 
HETATM   20  N6  UNL     1     -15.407  67.949  21.438  1.00  0.00    -0.031 N 
ATOM     21  H53 UNL     1     -15.686  66.059  23.274  1.00  0.00     0.279 HD
ATOM     22  H52 UNL     1     -14.359  66.266  24.021  1.00  0.00     0.279 HD
ATOM     23  H51 UNL     1     -15.389  67.608  23.898  1.00  0.00     0.279 HD
ATOM     24  H63 UNL     1     -15.070  68.210  20.512  1.00  0.00     0.279 HD
ATOM     25  H62 UNL     1     -16.151  67.301  21.182  1.00  0.00     0.279 HD
ATOM     26  H61 UNL     1     -15.799  68.763  21.910  1.00  0.00     0.279 HD
BRANCH  17  27
HETATM   27  O4  UNL     1     -14.180  64.871  21.983  1.00  0.00    -0.282 OA
ATOM     28  H4  UNL     1     -13.963  64.161  21.389  1.00  0.00     0.245 HD
ENDBRANCH  17  27
ENDBRANCH  12  17
TORSDOF 4
ENDMDL
MODEL 4
REMARK VINA RESULT: -6.229893324      2.877      4.010
REMARK  4 active torsions:
REMARK  status: ('A' for Active; 'I' for Inactive)
REMARK    1  A    between atoms: C2_2  and  O2_4 
REMARK    2  A    between atoms: O2_4  and  C3_5 
REMARK    3  A    between atoms: C8_16  and  N4_17 
REMARK    4  A    between atoms: N4_17  and  O4_18 
REMARK       I    between atoms: N4_17  and  C9_20 
REMARK       I    between atoms: C9_20  and  N5_21 
REMARK       I    between atoms: C9_20  and  N6_25 
ROOT
HETATM    1  C3  UNL     1     -14.675  68.152  19.922  1.00  0.00     0.195 A 
HETATM    2  C4  UNL     1     -13.448  68.796  19.310  1.00  0.00     0.065 C 
HETATM    3  C5  UNL     1     -15.614  69.185  20.342  1.00  0.00     0.230 A 
HETATM    4  O3  UNL     1     -16.028  70.093  19.529  1.00  0.00    -0.286 OA
HETATM    5  C6  UNL     1     -16.141  69.269  21.680  1.00  0.00     0.178 A 
HETATM    6  C7  UNL     1     -17.108  70.294  22.006  1.00  0.00     0.123 C 
HETATM    7  N1  UNL     1     -17.892  71.114  22.289  1.00  0.00    -0.190 NA
HETATM    8  N2  UNL     1     -15.758  68.441  22.587  1.00  0.00    -0.286 N 
ATOM      9  H2  UNL     1     -16.115  68.489  23.540  1.00  0.00     0.188 HD
HETATM   10  N3  UNL     1     -14.845  67.490  22.207  1.00  0.00    -0.283 N 
ATOM     11  H3  UNL     1     -14.550  66.852  22.946  1.00  0.00     0.188 HD
HETATM   12  C8  UNL     1     -14.308  67.285  21.067  1.00  0.00     0.166 A 
ENDROOT
BRANCH   1  13
HETATM   13  O2  UNL     1     -15.234  67.254  18.976  1.00  0.00    -0.294 OA
BRANCH  13  14
HETATM   14  C2  UNL     1     -14.630  66.641  17.920  1.00  0.00     0.256 C 
HETATM   15  C1  UNL     1     -13.323  67.210  17.455  1.00  0.00     0.126 C 
HETATM   16  O1  UNL     1     -15.151  65.657  17.377  1.00  0.00    -0.266 OA
ENDBRANCH  13  14
ENDBRANCH   1  13
BRANCH  12  17
HETATM   17  N4  UNL     1     -13.354  66.207  20.991  1.00  0.00    -0.188 N 
HETATM   18  C9  UNL     1     -13.576  64.832  21.194  1.00  0.00     0.507 C 
HETATM   19  N5  UNL     1     -12.267  64.157  21.290  1.00  0.00    -0.031 N 
HETATM   20  N6  UNL     1     -14.286  64.146  20.119  1.00  0.00    -0.031 N 
ATOM     21  H53 UNL     1     -11.669  64.342  20.485  1.00  0.00     0.279 HD
ATOM     22  H52 UNL     1     -11.666  64.566  22.006  1.00  0.00     0.279 HD
ATOM     23  H51 UNL     1     -12.428  63.160  21.437  1.00  0.00     0.279 HD
ATOM     24  H63 UNL     1     -15.170  64.619  19.926  1.00  0.00     0.279 HD
ATOM     25  H62 UNL     1     -13.806  64.296  19.232  1.00  0.00     0.279 HD
ATOM     26  H61 UNL     1     -14.447  63.150  20.265  1.00  0.00     0.279 HD
BRANCH  17  27
HETATM   27  O4  UNL     1     -12.075  66.612  20.671  1.00  0.00    -0.282 OA
ATOM     28  H4  UNL     1     -11.408  65.956  20.841  1.00  0.00     0.245 HD
ENDBRANCH  17  27
ENDBRANCH  12  17
TORSDOF 4
ENDMDL
MODEL 5
REMARK VINA RESULT: -6.201384924      1.950      4.963
REMARK  4 active torsions:
REMARK  status: ('A' for Active; 'I' for Inactive)
REMARK    1  A    between atoms: C2_2  and  O2_4 
REMARK    2  A    between atoms: O2_4  and  C3_5 
REMARK    3  A    between atoms: C8_16  and  N4_17 
REMARK    4  A    between atoms: N4_17  and  O4_18 
REMARK       I    between atoms: N4_17  and  C9_20 
REMARK       I    between atoms: C9_20  and  N5_21 
REMARK       I    between atoms: C9_20  and  N6_25 
ROOT
HETATM    1  C3  UNL     1     -12.227  65.855  19.274  1.00  0.00     0.195 A 
HETATM    2  C4  UNL     1     -11.509  66.437  20.474  1.00  0.00     0.065 C 
HETATM    3  C5  UNL     1     -11.261  65.552  18.223  1.00  0.00     0.230 A 
HETATM    4  O3  UNL     1     -10.231  64.813  18.446  1.00  0.00    -0.286 OA
HETATM    5  C6  UNL     1     -11.384  66.052  16.878  1.00  0.00     0.178 A 
HETATM    6  C7  UNL     1     -10.412  65.666  15.879  1.00  0.00     0.123 C 
HETATM    7  N1  UNL     1      -9.637  65.364  15.057  1.00  0.00    -0.190 NA
HETATM    8  N2  UNL     1     -12.350  66.838  16.558  1.00  0.00    -0.286 N 
ATOM      9  H2  UNL     1     -12.449  67.207  15.613  1.00  0.00     0.188 HD
HETATM   10  N3  UNL     1     -13.240  67.158  17.552  1.00  0.00    -0.283 N 
ATOM     11  H3  UNL     1     -13.991  67.790  17.275  1.00  0.00     0.188 HD
HETATM   12  C8  UNL     1     -13.268  66.782  18.772  1.00  0.00     0.166 A 
ENDROOT
BRANCH   1  13
HETATM   13  O2  UNL     1     -12.956  64.712  19.693  1.00  0.00    -0.294 OA
BRANCH  13  14
HETATM   14  C2  UNL     1     -12.898  64.052  20.884  1.00  0.00     0.256 C 
HETATM   15  C1  UNL     1     -11.795  63.050  21.057  1.00  0.00     0.126 C 
HETATM   16  O1  UNL     1     -13.728  64.278  21.775  1.00  0.00    -0.266 OA
ENDBRANCH  13  14
ENDBRANCH   1  13
BRANCH  12  17
HETATM   17  N4  UNL     1     -14.333  67.317  19.584  1.00  0.00    -0.188 N 
HETATM   18  C9  UNL     1     -14.575  68.661  19.927  1.00  0.00     0.507 C 
HETATM   19  N5  UNL     1     -15.598  68.694  20.991  1.00  0.00    -0.031 N 
HETATM   20  N6  UNL     1     -15.107  69.495  18.854  1.00  0.00    -0.031 N 
ATOM     21  H53 UNL     1     -16.449  68.196  20.732  1.00  0.00     0.279 HD
ATOM     22  H52 UNL     1     -15.343  68.123  21.797  1.00  0.00     0.279 HD
ATOM     23  H51 UNL     1     -15.773  69.667  21.240  1.00  0.00     0.279 HD
ATOM     24  H63 UNL     1     -14.497  69.447  18.038  1.00  0.00     0.279 HD
ATOM     25  H62 UNL     1     -15.953  69.075  18.471  1.00  0.00     0.279 HD
ATOM     26  H61 UNL     1     -15.282  70.469  19.102  1.00  0.00     0.279 HD
BRANCH  17  27
HETATM   27  O4  UNL     1     -15.208  66.364  20.060  1.00  0.00    -0.282 OA
ATOM     28  H4  UNL     1     -14.854  65.831  20.764  1.00  0.00     0.245 HD
ENDBRANCH  17  27
ENDBRANCH  12  17
TORSDOF 4
ENDMDL
