MODEL 1
REMARK VINA RESULT: -7.206897749      0.000      0.000
REMARK  9 active torsions:
REMARK  status: ('A' for Active; 'I' for Inactive)
REMARK    1  A    between atoms: N2_3  and  C2_5 
REMARK    2  A    between atoms: C2_5  and  C3_6 
REMARK    3  A    between atoms: C3_6  and  C4_7 
REMARK    4  A    between atoms: C6_12  and  C7_13 
REMARK    5  A    between atoms: C7_13  and  C8_14 
REMARK    6  A    between atoms: C8_14  and  N4_15 
REMARK    7  A    between atoms: N4_15  and  C9_17 
REMARK    8  A    between atoms: C9_17  and  C10_18 
REMARK    9  A    between atoms: C10_18  and  C11_19 
ROOT
HETATM    1  C4  UNL     1      21.082   4.421  30.570  1.00  0.00     0.289 C 
HETATM    2  N3  UNL     1      21.737   3.538  29.629  1.00  0.00    -0.331 N 
ATOM      3  H3  UNL     1      21.292   3.039  28.858  1.00  0.00     0.164 HD
HETATM    4  C5  UNL     1      23.120   3.492  29.980  1.00  0.00     0.250 C 
HETATM    5  O1  UNL     1      23.965   2.782  29.410  1.00  0.00    -0.271 OA
HETATM    6  C6  UNL     1      23.251   4.426  31.092  1.00  0.00     0.284 C 
HETATM    7  N5  UNL     1      22.185   5.367  30.836  1.00  0.00    -0.041 N 
ATOM      8  H51 UNL     1      22.015   6.060  31.565  1.00  0.00     0.280 HD
ATOM      9  H52 UNL     1      22.365   6.060  30.110  1.00  0.00     0.280 HD
ENDROOT
BRANCH   6  10
HETATM   10  C7  UNL     1      24.580   4.970  31.370  1.00  0.00     0.087 C 
BRANCH  10  11
HETATM   11  C8  UNL     1      24.735   6.446  31.456  1.00  0.00     0.062 C 
BRANCH  11  12
HETATM   12  N4  UNL     1      24.988   7.023  32.702  1.00  0.00    -0.382 N 
ATOM     13  H4  UNL     1      24.808   8.019  32.835  1.00  0.00     0.164 HD
BRANCH  12  14
HETATM   14  C9  UNL     1      25.483   6.269  33.772  1.00  0.00     0.064 C 
BRANCH  14  15
HETATM   15  C10 UNL     1      24.559   6.071  34.932  1.00  0.00     0.083 C 
BRANCH  15  16
HETATM   16  C11 UNL     1      23.546   5.015  34.700  1.00  0.00    -0.053 A 
HETATM   17  C12 UNL     1      23.892   3.684  34.679  1.00  0.00     0.007 A 
HETATM   18  C13 UNL     1      22.927   2.694  34.461  1.00  0.00     0.001 A 
HETATM   19  C14 UNL     1      21.615   3.019  34.262  1.00  0.00     0.000 A 
HETATM   20  C15 UNL     1      21.249   4.332  34.278  1.00  0.00     0.001 A 
HETATM   21  C16 UNL     1      22.204   5.308  34.495  1.00  0.00     0.007 A 
ENDBRANCH  15  16
ENDBRANCH  14  15
ENDBRANCH  12  14
ENDBRANCH  11  12
ENDBRANCH  10  11
ENDBRANCH   6  10
BRANCH   1  22
HETATM   22  C3  UNL     1      19.868   5.102  30.070  1.00  0.00     0.074 C 
BRANCH  22  23
HETATM   23  C2  UNL     1      18.757   4.933  31.077  1.00  0.00     0.123 C 
BRANCH  23  24
HETATM   24  N2  UNL     1      18.612   3.587  31.530  1.00  0.00    -0.388 N 
HETATM   25  C1  UNL     1      18.072   3.312  32.653  1.00  0.00     0.185 C 
HETATM   26  N1  UNL     1      17.595   4.343  33.493  1.00  0.00    -0.097 NA
ATOM     27  H2  UNL     1      18.948   2.826  30.940  1.00  0.00     0.159 HD
ENDBRANCH  23  24
ENDBRANCH  22  23
ENDBRANCH   1  22
TORSDOF 9
ENDMDL
MODEL 2
REMARK VINA RESULT: -7.111410057      2.318      5.725
REMARK  9 active torsions:
REMARK  status: ('A' for Active; 'I' for Inactive)
REMARK    1  A    between atoms: N2_3  and  C2_5 
REMARK    2  A    between atoms: C2_5  and  C3_6 
REMARK    3  A    between atoms: C3_6  and  C4_7 
REMARK    4  A    between atoms: C6_12  and  C7_13 
REMARK    5  A    between atoms: C7_13  and  C8_14 
REMARK    6  A    between atoms: C8_14  and  N4_15 
REMARK    7  A    between atoms: N4_15  and  C9_17 
REMARK    8  A    between atoms: C9_17  and  C10_18 
REMARK    9  A    between atoms: C10_18  and  C11_19 
ROOT
HETATM    1  C4  UNL     1      24.933   5.928  34.390  1.00  0.00     0.289 C 
HETATM    2  N3  UNL     1      24.163   4.948  35.126  1.00  0.00    -0.331 N 
ATOM      3  H3  UNL     1      24.072   4.889  36.140  1.00  0.00     0.164 HD
HETATM    4  C5  UNL     1      23.554   4.080  34.171  1.00  0.00     0.250 C 
HETATM    5  O1  UNL     1      22.865   3.088  34.463  1.00  0.00    -0.271 OA
HETATM    6  C6  UNL     1      23.933   4.632  32.875  1.00  0.00     0.284 C 
HETATM    7  N5  UNL     1      24.104   6.035  33.172  1.00  0.00    -0.041 N 
ATOM      8  H51 UNL     1      24.486   6.609  32.420  1.00  0.00     0.280 HD
ATOM      9  H52 UNL     1      23.248   6.582  33.259  1.00  0.00     0.280 HD
ENDROOT
BRANCH   6  10
HETATM   10  C7  UNL     1      23.107   4.282  31.720  1.00  0.00     0.087 C 
BRANCH  10  11
HETATM   11  C8  UNL     1      22.328   5.361  31.056  1.00  0.00     0.062 C 
BRANCH  11  12
HETATM   12  N4  UNL     1      21.224   5.010  30.277  1.00  0.00    -0.382 N 
ATOM     13  H4  UNL     1      21.290   4.206  29.652  1.00  0.00     0.164 HD
BRANCH  12  14
HETATM   14  C9  UNL     1      20.027   5.736  30.333  1.00  0.00     0.064 C 
BRANCH  14  15
HETATM   15  C10 UNL     1      19.428   5.929  31.691  1.00  0.00     0.083 C 
BRANCH  15  16
HETATM   16  C11 UNL     1      19.046   4.659  32.348  1.00  0.00    -0.053 A 
HETATM   17  C12 UNL     1      17.994   3.902  31.886  1.00  0.00     0.007 A 
HETATM   18  C13 UNL     1      17.643   2.701  32.514  1.00  0.00     0.001 A 
HETATM   19  C14 UNL     1      18.332   2.245  33.602  1.00  0.00     0.000 A 
HETATM   20  C15 UNL     1      19.378   2.978  34.077  1.00  0.00     0.001 A 
HETATM   21  C16 UNL     1      19.724   4.163  33.455  1.00  0.00     0.007 A 
ENDBRANCH  15  16
ENDBRANCH  14  15
ENDBRANCH  12  14
ENDBRANCH  11  12
ENDBRANCH  10  11
ENDBRANCH   6  10
BRANCH   1  22
HETATM   22  C3  UNL     1      25.115   7.234  35.060  1.00  0.00     0.074 C 
BRANCH  22  23
HETATM   23  C2  UNL     1      24.193   8.247  34.427  1.00  0.00     0.123 C 
BRANCH  23  24
HETATM   24  N2  UNL     1      24.856   9.457  34.063  1.00  0.00    -0.388 N 
HETATM   25  C1  UNL     1      24.307  10.598  34.227  1.00  0.00     0.185 C 
HETATM   26  N1  UNL     1      23.013  10.699  34.783  1.00  0.00    -0.097 NA
ATOM     27  H2  UNL     1      25.791   9.409  33.660  1.00  0.00     0.159 HD
ENDBRANCH  23  24
ENDBRANCH  22  23
ENDBRANCH   1  22
TORSDOF 9
ENDMDL
MODEL 3
REMARK VINA RESULT: -7.060778236      1.430      1.817
REMARK  9 active torsions:
REMARK  status: ('A' for Active; 'I' for Inactive)
REMARK    1  A    between atoms: N2_3  and  C2_5 
REMARK    2  A    between atoms: C2_5  and  C3_6 
REMARK    3  A    between atoms: C3_6  and  C4_7 
REMARK    4  A    between atoms: C6_12  and  C7_13 
REMARK    5  A    between atoms: C7_13  and  C8_14 
REMARK    6  A    between atoms: C8_14  and  N4_15 
REMARK    7  A    between atoms: N4_15  and  C9_17 
REMARK    8  A    between atoms: C9_17  and  C10_18 
REMARK    9  A    between atoms: C10_18  and  C11_19 
ROOT
HETATM    1  C4  UNL     1      20.629   4.841  30.628  1.00  0.00     0.289 C 
HETATM    2  N3  UNL     1      20.999   3.901  29.592  1.00  0.00    -0.331 N 
ATOM      3  H3  UNL     1      20.406   3.580  28.827  1.00  0.00     0.164 HD
HETATM    4  C5  UNL     1      22.347   3.504  29.840  1.00  0.00     0.250 C 
HETATM    5  O1  UNL     1      22.964   2.658  29.171  1.00  0.00    -0.271 OA
HETATM    6  C6  UNL     1      22.760   4.295  30.994  1.00  0.00     0.284 C 
HETATM    7  N5  UNL     1      21.940   5.477  30.870  1.00  0.00    -0.041 N 
ATOM      8  H51 UNL     1      21.981   6.135  31.649  1.00  0.00     0.280 HD
ATOM      9  H52 UNL     1      22.241   6.161  30.176  1.00  0.00     0.280 HD
ENDROOT
BRANCH   6  10
HETATM   10  C7  UNL     1      24.194   4.488  31.207  1.00  0.00     0.087 C 
BRANCH  10  11
HETATM   11  C8  UNL     1      24.691   5.865  31.466  1.00  0.00     0.062 C 
BRANCH  11  12
HETATM   12  N4  UNL     1      25.363   6.123  32.662  1.00  0.00    -0.382 N 
ATOM     13  H4  UNL     1      26.361   5.919  32.727  1.00  0.00     0.164 HD
BRANCH  12  14
HETATM   14  C9  UNL     1      24.700   6.657  33.774  1.00  0.00     0.064 C 
BRANCH  14  15
HETATM   15  C10 UNL     1      24.484   5.730  34.929  1.00  0.00     0.083 C 
BRANCH  15  16
HETATM   16  C11 UNL     1      23.377   4.771  34.710  1.00  0.00    -0.053 A 
HETATM   17  C12 UNL     1      22.092   5.202  34.480  1.00  0.00     0.007 A 
HETATM   18  C13 UNL     1      21.053   4.287  34.272  1.00  0.00     0.001 A 
HETATM   19  C14 UNL     1      21.284   2.941  34.292  1.00  0.00     0.000 A 
HETATM   20  C15 UNL     1      22.550   2.490  34.518  1.00  0.00     0.001 A 
HETATM   21  C16 UNL     1      23.574   3.395  34.722  1.00  0.00     0.007 A 
ENDBRANCH  15  16
ENDBRANCH  14  15
ENDBRANCH  12  14
ENDBRANCH  11  12
ENDBRANCH  10  11
ENDBRANCH   6  10
BRANCH   1  22
HETATM   22  C3  UNL     1      19.588   5.825  30.257  1.00  0.00     0.074 C 
BRANCH  22  23
HETATM   23  C2  UNL     1      18.862   5.336  29.027  1.00  0.00     0.123 C 
BRANCH  23  24
HETATM   24  N2  UNL     1      17.470   5.116  29.250  1.00  0.00    -0.388 N 
HETATM   25  C1  UNL     1      17.000   3.946  29.450  1.00  0.00     0.185 C 
HETATM   26  N1  UNL     1      17.853   2.821  29.459  1.00  0.00    -0.097 NA
ATOM     27  H2  UNL     1      16.835   5.914  29.248  1.00  0.00     0.159 HD
ENDBRANCH  23  24
ENDBRANCH  22  23
ENDBRANCH   1  22
TORSDOF 9
ENDMDL
MODEL 4
REMARK VINA RESULT: -7.021573856      3.634      6.839
REMARK  9 active torsions:
REMARK  status: ('A' for Active; 'I' for Inactive)
REMARK    1  A    between atoms: N2_3  and  C2_5 
REMARK    2  A    between atoms: C2_5  and  C3_6 
REMARK    3  A    between atoms: C3_6  and  C4_7 
REMARK    4  A    between atoms: C6_12  and  C7_13 
REMARK    5  A    between atoms: C7_13  and  C8_14 
REMARK    6  A    between atoms: C8_14  and  N4_15 
REMARK    7  A    between atoms: N4_15  and  C9_17 
REMARK    8  A    between atoms: C9_17  and  C10_18 
REMARK    9  A    between atoms: C10_18  and  C11_19 
ROOT
HETATM    1  C4  UNL     1      24.865   9.498  34.446  1.00  0.00     0.289 C 
HETATM    2  N3  UNL     1      23.989   8.640  35.214  1.00  0.00    -0.331 N 
ATOM      3  H3  UNL     1      23.296   8.942  35.899  1.00  0.00     0.164 HD
HETATM    4  C5  UNL     1      24.274   7.294  34.837  1.00  0.00     0.250 C 
HETATM    5  O1  UNL     1      23.739   6.294  35.346  1.00  0.00    -0.271 OA
HETATM    6  C6  UNL     1      25.277   7.409  33.785  1.00  0.00     0.284 C 
HETATM    7  N5  UNL     1      24.979   8.699  33.209  1.00  0.00    -0.041 N 
ATOM      8  H51 UNL     1      25.640   9.043  32.513  1.00  0.00     0.280 HD
ATOM      9  H52 UNL     1      24.178   8.734  32.579  1.00  0.00     0.280 HD
ENDROOT
BRANCH   6  10
HETATM   10  C7  UNL     1      25.432   6.280  32.867  1.00  0.00     0.087 C 
BRANCH  10  11
HETATM   11  C8  UNL     1      25.050   6.469  31.443  1.00  0.00     0.062 C 
BRANCH  11  12
HETATM   12  N4  UNL     1      23.732   6.213  31.061  1.00  0.00    -0.382 N 
ATOM     13  H4  UNL     1      23.329   6.735  30.282  1.00  0.00     0.164 HD
BRANCH  12  14
HETATM   14  C9  UNL     1      22.951   5.255  31.721  1.00  0.00     0.064 C 
BRANCH  14  15
HETATM   15  C10 UNL     1      21.564   5.052  31.197  1.00  0.00     0.083 C 
BRANCH  15  16
HETATM   16  C11 UNL     1      20.702   4.269  32.112  1.00  0.00    -0.053 A 
HETATM   17  C12 UNL     1      21.213   3.674  33.242  1.00  0.00     0.007 A 
HETATM   18  C13 UNL     1      20.389   2.938  34.102  1.00  0.00     0.001 A 
HETATM   19  C14 UNL     1      19.056   2.788  33.845  1.00  0.00     0.000 A 
HETATM   20  C15 UNL     1      18.528   3.369  32.731  1.00  0.00     0.001 A 
HETATM   21  C16 UNL     1      19.343   4.096  31.884  1.00  0.00     0.007 A 
ENDBRANCH  15  16
ENDBRANCH  14  15
ENDBRANCH  12  14
ENDBRANCH  11  12
ENDBRANCH  10  11
ENDBRANCH   6  10
BRANCH   1  22
HETATM   22  C3  UNL     1      24.358  10.864  34.187  1.00  0.00     0.074 C 
BRANCH  22  23
HETATM   23  C2  UNL     1      25.456  11.860  34.472  1.00  0.00     0.123 C 
BRANCH  23  24
HETATM   24  N2  UNL     1      26.035  12.409  33.289  1.00  0.00    -0.388 N 
HETATM   25  C1  UNL     1      26.514  13.591  33.263  1.00  0.00     0.185 C 
HETATM   26  N1  UNL     1      26.486  14.403  34.419  1.00  0.00    -0.097 NA
ATOM     27  H2  UNL     1      26.066  11.841  32.442  1.00  0.00     0.159 HD
ENDBRANCH  23  24
ENDBRANCH  22  23
ENDBRANCH   1  22
TORSDOF 9
ENDMDL
MODEL 5
REMARK VINA RESULT: -6.960060039      3.041      7.163
REMARK  9 active torsions:
REMARK  status: ('A' for Active; 'I' for Inactive)
REMARK    1  A    between atoms: N2_3  and  C2_5 
REMARK    2  A    between atoms: C2_5  and  C3_6 
REMARK    3  A    between atoms: C3_6  and  C4_7 
REMARK    4  A    between atoms: C6_12  and  C7_13 
REMARK    5  A    between atoms: C7_13  and  C8_14 
REMARK    6  A    between atoms: C8_14  and  N4_15 
REMARK    7  A    between atoms: N4_15  and  C9_17 
REMARK    8  A    between atoms: C9_17  and  C10_18 
REMARK    9  A    between atoms: C10_18  and  C11_19 
ROOT
HETATM    1  C4  UNL     1      24.572   5.606  34.511  1.00  0.00     0.289 C 
HETATM    2  N3  UNL     1      23.351   5.367  35.251  1.00  0.00    -0.331 N 
ATOM      3  H3  UNL     1      23.146   5.686  36.198  1.00  0.00     0.164 HD
HETATM    4  C5  UNL     1      22.488   4.601  34.411  1.00  0.00     0.250 C 
HETATM    5  O1  UNL     1      21.374   4.172  34.756  1.00  0.00    -0.271 OA
HETATM    6  C6  UNL     1      23.213   4.475  33.152  1.00  0.00     0.284 C 
HETATM    7  N5  UNL     1      24.026   5.668  33.140  1.00  0.00    -0.041 N 
ATOM      8  H51 UNL     1      24.712   5.735  32.388  1.00  0.00     0.280 HD
ATOM      9  H52 UNL     1      23.549   6.533  32.887  1.00  0.00     0.280 HD
ENDROOT
BRANCH   6  10
HETATM   10  C7  UNL     1      22.437   4.174  31.949  1.00  0.00     0.087 C 
BRANCH  10  11
HETATM   11  C8  UNL     1      21.930   5.309  31.134  1.00  0.00     0.062 C 
BRANCH  11  12
HETATM   12  N4  UNL     1      20.965   5.057  30.158  1.00  0.00    -0.382 N 
ATOM     13  H4  UNL     1      21.167   4.383  29.419  1.00  0.00     0.164 HD
BRANCH  12  14
HETATM   14  C9  UNL     1      19.725   5.708  30.168  1.00  0.00     0.064 C 
BRANCH  14  15
HETATM   15  C10 UNL     1      18.515   4.838  30.027  1.00  0.00     0.083 C 
BRANCH  15  16
HETATM   16  C11 UNL     1      17.518   5.375  29.072  1.00  0.00    -0.053 A 
HETATM   17  C12 UNL     1      17.843   5.616  27.757  1.00  0.00     0.007 A 
HETATM   18  C13 UNL     1      16.892   6.121  26.862  1.00  0.00     0.001 A 
HETATM   19  C14 UNL     1      15.615   6.390  27.267  1.00  0.00     0.000 A 
HETATM   20  C15 UNL     1      15.270   6.158  28.565  1.00  0.00     0.001 A 
HETATM   21  C16 UNL     1      16.210   5.659  29.446  1.00  0.00     0.007 A 
ENDBRANCH  15  16
ENDBRANCH  14  15
ENDBRANCH  12  14
ENDBRANCH  11  12
ENDBRANCH  10  11
ENDBRANCH   6  10
BRANCH   1  22
HETATM   22  C3  UNL     1      25.311   6.834  34.877  1.00  0.00     0.074 C 
BRANCH  22  23
HETATM   23  C2  UNL     1      24.371   8.014  34.816  1.00  0.00     0.123 C 
BRANCH  23  24
HETATM   24  N2  UNL     1      24.910   9.123  34.099  1.00  0.00    -0.388 N 
HETATM   25  C1  UNL     1      24.360  10.275  34.134  1.00  0.00     0.185 C 
HETATM   26  N1  UNL     1      23.188  10.489  34.892  1.00  0.00    -0.097 NA
ATOM     27  H2  UNL     1      25.756   8.993  33.545  1.00  0.00     0.159 HD
ENDBRANCH  23  24
ENDBRANCH  22  23
ENDBRANCH   1  22
TORSDOF 9
ENDMDL
