MODEL 1
REMARK VINA RESULT: -7.190050622      0.000      0.000
REMARK  13 active torsions:
REMARK  status: ('A' for Active; 'I' for Inactive)
REMARK    1  A    between atoms: C2_2  and  C3_3 
REMARK    2  A    between atoms: C3_3  and  N1_4 
REMARK    3  A    between atoms: N1_4  and  C4_6 
REMARK    4  A    between atoms: C5_9  and  N3_10 
REMARK    5  A    between atoms: N3_10  and  C6_12 
REMARK    6  A    between atoms: C6_12  and  C7_13 
REMARK    7  A    between atoms: C9_17  and  N5_18 
REMARK    8  A    between atoms: N5_18  and  C10_20 
REMARK    9  A    between atoms: C10_20  and  C11_21 
REMARK   10  A    between atoms: C11_21  and  C12_22 
REMARK   11  A    between atoms: C12_22  and  N6_23 
REMARK   12  A    between atoms: N6_23  and  C13_26 
REMARK   13  A    between atoms: C13_26  and  C14_27 
ROOT
HETATM    1  C4  UNL     1      24.448   5.452  32.011  1.00  0.00     0.707 A 
HETATM    2  N2  UNL     1      23.813   4.754  32.946  1.00  0.00    -0.022 N 
ATOM      3  H2  UNL     1      23.497   3.805  32.750  1.00  0.00     0.203 HD
HETATM    4  C5  UNL     1      23.587   5.306  34.151  1.00  0.00     0.707 A 
HETATM    5  N4  UNL     1      24.002   6.555  34.411  1.00  0.00    -0.022 N 
ATOM      6  H4  UNL     1      23.831   6.973  35.325  1.00  0.00     0.203 HD
HETATM    7  C9  UNL     1      24.655   7.267  33.443  1.00  0.00     0.707 A 
HETATM    8  N8  UNL     1      24.867   6.692  32.250  1.00  0.00    -0.022 N 
ATOM      9  H8  UNL     1      25.353   7.211  31.519  1.00  0.00     0.203 HD
ENDROOT
BRANCH   7  10
HETATM   10  N5  UNL     1      25.057   8.475  33.699  1.00  0.00    -0.225 N 
ATOM     11  H5  UNL     1      25.860   8.872  33.212  1.00  0.00     0.177 HD
BRANCH  10  12
HETATM   12  C10 UNL     1      24.338   9.243  34.688  1.00  0.00     0.139 C 
BRANCH  12  13
HETATM   13  C11 UNL     1      24.076  10.632  34.091  1.00  0.00     0.048 C 
BRANCH  13  14
HETATM   14  C12 UNL     1      25.270  11.486  34.371  1.00  0.00     0.234 C 
BRANCH  14  15
HETATM   15  N6  UNL     1      25.831  11.954  33.129  1.00  0.00    -0.071 N 
ATOM     16  H62 UNL     1      26.058  11.176  32.510  1.00  0.00     0.277 HD
ATOM     17  H61 UNL     1      25.126  12.416  32.555  1.00  0.00     0.277 HD
BRANCH  15  18
HETATM   18  C13 UNL     1      26.967  12.802  33.340  1.00  0.00     0.276 C 
BRANCH  18  19
HETATM   19  C14 UNL     1      26.455  14.183  33.529  1.00  0.00     0.080 C 
HETATM   20  N7  UNL     1      26.612  14.788  34.634  1.00  0.00    -0.410 N 
ATOM     21  H72 UNL     1      27.098  14.306  35.391  1.00  0.00     0.155 HD
ATOM     22  H71 UNL     1      26.261  15.737  34.764  1.00  0.00     0.155 HD
ENDBRANCH  18  19
ENDBRANCH  15  18
ENDBRANCH  14  15
ENDBRANCH  13  14
ENDBRANCH  12  13
ENDBRANCH  10  12
ENDBRANCH   7  10
BRANCH   4  23
HETATM   23  N3  UNL     1      22.974   4.586  35.000  1.00  0.00    -0.222 N 
ATOM     24  H3  UNL     1      22.989   4.847  35.986  1.00  0.00     0.178 HD
BRANCH  23  25
HETATM   25  C6  UNL     1      22.261   3.409  34.593  1.00  0.00     0.164 C 
BRANCH  25  26
HETATM   26  C7  UNL     1      20.838   3.788  34.387  1.00  0.00    -0.017 C 
HETATM   27  C8  UNL     1      20.007   2.967  33.771  1.00  0.00     0.008 C 
ENDBRANCH  25  26
ENDBRANCH  23  25
ENDBRANCH   4  23
BRANCH   1  28
HETATM   28  N1  UNL     1      24.679   4.954  30.845  1.00  0.00    -0.222 N 
ATOM     29  H1  UNL     1      24.931   5.585  30.084  1.00  0.00     0.178 HD
BRANCH  28  30
HETATM   30  C3  UNL     1      24.595   3.535  30.572  1.00  0.00     0.164 C 
BRANCH  30  31
HETATM   31  C2  UNL     1      23.282   3.250  29.960  1.00  0.00    -0.017 C 
HETATM   32  C1  UNL     1      23.216   2.511  28.871  1.00  0.00     0.008 C 
ENDBRANCH  30  31
ENDBRANCH  28  30
ENDBRANCH   1  28
TORSDOF 13
ENDMDL
MODEL 2
REMARK VINA RESULT: -7.119515843      1.615      4.587
REMARK  13 active torsions:
REMARK  status: ('A' for Active; 'I' for Inactive)
REMARK    1  A    between atoms: C2_2  and  C3_3 
REMARK    2  A    between atoms: C3_3  and  N1_4 
REMARK    3  A    between atoms: N1_4  and  C4_6 
REMARK    4  A    between atoms: C5_9  and  N3_10 
REMARK    5  A    between atoms: N3_10  and  C6_12 
REMARK    6  A    between atoms: C6_12  and  C7_13 
REMARK    7  A    between atoms: C9_17  and  N5_18 
REMARK    8  A    between atoms: N5_18  and  C10_20 
REMARK    9  A    between atoms: C10_20  and  C11_21 
REMARK   10  A    between atoms: C11_21  and  C12_22 
REMARK   11  A    between atoms: C12_22  and  N6_23 
REMARK   12  A    between atoms: N6_23  and  C13_26 
REMARK   13  A    between atoms: C13_26  and  C14_27 
ROOT
HETATM    1  C4  UNL     1      21.439   4.777  32.774  1.00  0.00     0.707 A 
HETATM    2  N2  UNL     1      21.258   4.245  31.571  1.00  0.00    -0.022 N 
ATOM      3  H2  UNL     1      20.329   3.939  31.282  1.00  0.00     0.203 HD
HETATM    4  C5  UNL     1      22.304   4.110  30.737  1.00  0.00     0.707 A 
HETATM    5  N4  UNL     1      23.526   4.513  31.117  1.00  0.00    -0.022 N 
ATOM      6  H4  UNL     1      24.319   4.411  30.483  1.00  0.00     0.203 HD
HETATM    7  C9  UNL     1      23.705   5.060  32.357  1.00  0.00     0.707 A 
HETATM    8  N8  UNL     1      22.644   5.182  33.168  1.00  0.00    -0.022 N 
ATOM      9  H8  UNL     1      22.763   5.589  34.096  1.00  0.00     0.203 HD
ENDROOT
BRANCH   7  10
HETATM   10  N5  UNL     1      24.889   5.449  32.720  1.00  0.00    -0.225 N 
ATOM     11  H5  UNL     1      25.623   4.770  32.920  1.00  0.00     0.177 HD
BRANCH  10  12
HETATM   12  C10 UNL     1      25.142   6.866  32.832  1.00  0.00     0.139 C 
BRANCH  12  13
HETATM   13  C11 UNL     1      25.309   7.187  34.324  1.00  0.00     0.048 C 
BRANCH  13  14
HETATM   14  C12 UNL     1      24.486   8.397  34.630  1.00  0.00     0.234 C 
BRANCH  14  15
HETATM   15  N6  UNL     1      24.904   9.490  33.789  1.00  0.00    -0.071 N 
ATOM     16  H62 UNL     1      25.916   9.491  33.658  1.00  0.00     0.277 HD
ATOM     17  H61 UNL     1      24.616   9.343  32.821  1.00  0.00     0.277 HD
BRANCH  15  18
HETATM   18  C13 UNL     1      24.441  10.753  34.283  1.00  0.00     0.276 C 
BRANCH  18  19
HETATM   19  C14 UNL     1      25.552  11.724  34.115  1.00  0.00     0.080 C 
HETATM   20  N7  UNL     1      25.930  12.086  32.959  1.00  0.00    -0.410 N 
ATOM     21  H72 UNL     1      25.454  11.696  32.145  1.00  0.00     0.155 HD
ATOM     22  H71 UNL     1      26.693  12.752  32.844  1.00  0.00     0.155 HD
ENDBRANCH  18  19
ENDBRANCH  15  18
ENDBRANCH  14  15
ENDBRANCH  13  14
ENDBRANCH  12  13
ENDBRANCH  10  12
ENDBRANCH   7  10
BRANCH   4  23
HETATM   23  N3  UNL     1      22.063   3.593  29.601  1.00  0.00    -0.222 N 
ATOM     24  H3  UNL     1      21.236   3.887  29.080  1.00  0.00     0.178 HD
BRANCH  23  25
HETATM   25  C6  UNL     1      22.935   2.602  29.040  1.00  0.00     0.164 C 
BRANCH  25  26
HETATM   26  C7  UNL     1      22.513   2.366  27.635  1.00  0.00    -0.017 C 
HETATM   27  C8  UNL     1      23.307   2.691  26.631  1.00  0.00     0.008 C 
ENDBRANCH  25  26
ENDBRANCH  23  25
ENDBRANCH   4  23
BRANCH   1  28
HETATM   28  N1  UNL     1      20.459   4.919  33.599  1.00  0.00    -0.222 N 
ATOM     29  H1  UNL     1      20.075   5.852  33.748  1.00  0.00     0.178 HD
BRANCH  28  30
HETATM   30  C3  UNL     1      19.881   3.806  34.322  1.00  0.00     0.164 C 
BRANCH  30  31
HETATM   31  C2  UNL     1      18.645   3.387  33.631  1.00  0.00    -0.017 C 
HETATM   32  C1  UNL     1      18.296   2.116  33.633  1.00  0.00     0.008 C 
ENDBRANCH  30  31
ENDBRANCH  28  30
ENDBRANCH   1  28
TORSDOF 13
ENDMDL
MODEL 3
REMARK VINA RESULT: -7.103999371      1.866      3.133
REMARK  13 active torsions:
REMARK  status: ('A' for Active; 'I' for Inactive)
REMARK    1  A    between atoms: C2_2  and  C3_3 
REMARK    2  A    between atoms: C3_3  and  N1_4 
REMARK    3  A    between atoms: N1_4  and  C4_6 
REMARK    4  A    between atoms: C5_9  and  N3_10 
REMARK    5  A    between atoms: N3_10  and  C6_12 
REMARK    6  A    between atoms: C6_12  and  C7_13 
REMARK    7  A    between atoms: C9_17  and  N5_18 
REMARK    8  A    between atoms: N5_18  and  C10_20 
REMARK    9  A    between atoms: C10_20  and  C11_21 
REMARK   10  A    between atoms: C11_21  and  C12_22 
REMARK   11  A    between atoms: C12_22  and  N6_23 
REMARK   12  A    between atoms: N6_23  and  C13_26 
REMARK   13  A    between atoms: C13_26  and  C14_27 
ROOT
HETATM    1  C4  UNL     1      21.821   4.016  30.514  1.00  0.00     0.707 A 
HETATM    2  N2  UNL     1      20.755   3.979  31.305  1.00  0.00    -0.022 N 
ATOM      3  H2  UNL     1      19.889   3.552  30.976  1.00  0.00     0.203 HD
HETATM    4  C5  UNL     1      20.823   4.506  32.540  1.00  0.00     0.707 A 
HETATM    5  N4  UNL     1      21.962   5.068  32.973  1.00  0.00    -0.022 N 
ATOM      6  H4  UNL     1      22.013   5.467  33.910  1.00  0.00     0.203 HD
HETATM    7  C9  UNL     1      23.055   5.103  32.152  1.00  0.00     0.707 A 
HETATM    8  N8  UNL     1      22.959   4.569  30.926  1.00  0.00    -0.022 N 
ATOM      9  H8  UNL     1      23.767   4.588  30.303  1.00  0.00     0.203 HD
ENDROOT
BRANCH   7  10
HETATM   10  N5  UNL     1      24.156   5.646  32.575  1.00  0.00    -0.225 N 
ATOM     11  H5  UNL     1      24.889   5.919  31.921  1.00  0.00     0.177 HD
BRANCH  10  12
HETATM   12  C10 UNL     1      24.317   5.854  33.995  1.00  0.00     0.139 C 
BRANCH  12  13
HETATM   13  C11 UNL     1      25.320   7.001  34.181  1.00  0.00     0.048 C 
BRANCH  13  14
HETATM   14  C12 UNL     1      24.555   8.223  34.575  1.00  0.00     0.234 C 
BRANCH  14  15
HETATM   15  N6  UNL     1      25.025   9.352  33.814  1.00  0.00    -0.071 N 
ATOM     16  H62 UNL     1      26.041   9.432  33.859  1.00  0.00     0.277 HD
ATOM     17  H61 UNL     1      24.920   9.193  32.812  1.00  0.00     0.277 HD
BRANCH  15  18
HETATM   18  C13 UNL     1      24.388  10.572  34.217  1.00  0.00     0.276 C 
BRANCH  18  19
HETATM   19  C14 UNL     1      25.415  11.643  34.160  1.00  0.00     0.080 C 
HETATM   20  N7  UNL     1      25.848  12.070  33.046  1.00  0.00    -0.410 N 
ATOM     21  H72 UNL     1      25.475  11.663  32.188  1.00  0.00     0.155 HD
ATOM     22  H71 UNL     1      26.553  12.806  33.007  1.00  0.00     0.155 HD
ENDBRANCH  18  19
ENDBRANCH  15  18
ENDBRANCH  14  15
ENDBRANCH  13  14
ENDBRANCH  12  13
ENDBRANCH  10  12
ENDBRANCH   7  10
BRANCH   4  23
HETATM   23  N3  UNL     1      19.768   4.438  33.246  1.00  0.00    -0.222 N 
ATOM     24  H3  UNL     1      19.026   5.125  33.109  1.00  0.00     0.178 HD
BRANCH  23  25
HETATM   25  C6  UNL     1      19.604   3.408  34.231  1.00  0.00     0.164 C 
BRANCH  25  26
HETATM   26  C7  UNL     1      18.659   2.400  33.684  1.00  0.00    -0.017 C 
HETATM   27  C8  UNL     1      17.683   2.765  32.872  1.00  0.00     0.008 C 
ENDBRANCH  25  26
ENDBRANCH  23  25
ENDBRANCH   4  23
BRANCH   1  28
HETATM   28  N1  UNL     1      21.790   3.522  29.324  1.00  0.00    -0.222 N 
ATOM     29  H1  UNL     1      21.066   3.840  28.679  1.00  0.00     0.178 HD
BRANCH  28  30
HETATM   30  C3  UNL     1      22.743   2.533  28.865  1.00  0.00     0.164 C 
BRANCH  30  31
HETATM   31  C2  UNL     1      22.549   2.327  27.417  1.00  0.00    -0.017 C 
HETATM   32  C1  UNL     1      23.506   2.665  26.575  1.00  0.00     0.008 C 
ENDBRANCH  30  31
ENDBRANCH  28  30
ENDBRANCH   1  28
TORSDOF 13
ENDMDL
MODEL 4
REMARK VINA RESULT: -7.085659685      0.270      3.217
REMARK  13 active torsions:
REMARK  status: ('A' for Active; 'I' for Inactive)
REMARK    1  A    between atoms: C2_2  and  C3_3 
REMARK    2  A    between atoms: C3_3  and  N1_4 
REMARK    3  A    between atoms: N1_4  and  C4_6 
REMARK    4  A    between atoms: C5_9  and  N3_10 
REMARK    5  A    between atoms: N3_10  and  C6_12 
REMARK    6  A    between atoms: C6_12  and  C7_13 
REMARK    7  A    between atoms: C9_17  and  N5_18 
REMARK    8  A    between atoms: N5_18  and  C10_20 
REMARK    9  A    between atoms: C10_20  and  C11_21 
REMARK   10  A    between atoms: C11_21  and  C12_22 
REMARK   11  A    between atoms: C12_22  and  N6_23 
REMARK   12  A    between atoms: N6_23  and  C13_26 
REMARK   13  A    between atoms: C13_26  and  C14_27 
ROOT
HETATM    1  C4  UNL     1      23.666   5.295  34.061  1.00  0.00     0.707 A 
HETATM    2  N2  UNL     1      23.883   4.788  32.853  1.00  0.00    -0.022 N 
ATOM      3  H2  UNL     1      23.577   3.840  32.634  1.00  0.00     0.203 HD
HETATM    4  C5  UNL     1      24.508   5.529  31.922  1.00  0.00     0.707 A 
HETATM    5  N4  UNL     1      24.911   6.776  32.210  1.00  0.00    -0.022 N 
ATOM      6  H4  UNL     1      25.384   7.338  31.502  1.00  0.00     0.203 HD
HETATM    7  C9  UNL     1      24.684   7.291  33.456  1.00  0.00     0.707 A 
HETATM    8  N8  UNL     1      24.059   6.530  34.365  1.00  0.00    -0.022 N 
ATOM      9  H8  UNL     1      23.882   6.901  35.299  1.00  0.00     0.203 HD
ENDROOT
BRANCH   7  10
HETATM   10  N5  UNL     1      25.074   8.499  33.730  1.00  0.00    -0.225 N 
ATOM     11  H5  UNL     1      25.906   8.891  33.290  1.00  0.00     0.177 HD
BRANCH  10  12
HETATM   12  C10 UNL     1      24.302   9.273  34.672  1.00  0.00     0.139 C 
BRANCH  12  13
HETATM   13  C11 UNL     1      24.104  10.670  34.068  1.00  0.00     0.048 C 
BRANCH  13  14
HETATM   14  C12 UNL     1      25.347  11.461  34.317  1.00  0.00     0.234 C 
BRANCH  14  15
HETATM   15  N6  UNL     1      25.927  11.856  33.059  1.00  0.00    -0.071 N 
ATOM     16  H62 UNL     1      26.528  11.123  32.682  1.00  0.00     0.277 HD
ATOM     17  H61 UNL     1      25.225  11.886  32.320  1.00  0.00     0.277 HD
BRANCH  15  18
HETATM   18  C13 UNL     1      26.628  13.103  33.161  1.00  0.00     0.276 C 
BRANCH  18  19
HETATM   19  C14 UNL     1      26.291  13.689  34.482  1.00  0.00     0.080 C 
HETATM   20  N7  UNL     1      26.578  14.897  34.750  1.00  0.00    -0.410 N 
ATOM     21  H72 UNL     1      27.047  15.457  34.038  1.00  0.00     0.155 HD
ATOM     22  H71 UNL     1      26.346  15.300  35.658  1.00  0.00     0.155 HD
ENDBRANCH  18  19
ENDBRANCH  15  18
ENDBRANCH  14  15
ENDBRANCH  13  14
ENDBRANCH  12  13
ENDBRANCH  10  12
ENDBRANCH   7  10
BRANCH   4  23
HETATM   23  N3  UNL     1      24.685   4.985  30.787  1.00  0.00    -0.222 N 
ATOM     24  H3  UNL     1      24.890   5.569  29.975  1.00  0.00     0.178 HD
BRANCH  23  25
HETATM   25  C6  UNL     1      24.600   3.561  30.629  1.00  0.00     0.164 C 
BRANCH  25  26
HETATM   26  C7  UNL     1      23.316   3.254  29.946  1.00  0.00    -0.017 C 
HETATM   27  C8  UNL     1      23.290   2.462  28.890  1.00  0.00     0.008 C 
ENDBRANCH  25  26
ENDBRANCH  23  25
ENDBRANCH   4  23
BRANCH   1  28
HETATM   28  N1  UNL     1      23.071   4.611  34.978  1.00  0.00    -0.222 N 
ATOM     29  H1  UNL     1      23.158   4.913  35.948  1.00  0.00     0.178 HD
BRANCH  28  30
HETATM   30  C3  UNL     1      22.285   3.432  34.685  1.00  0.00     0.164 C 
BRANCH  30  31
HETATM   31  C2  UNL     1      20.904   3.852  34.373  1.00  0.00    -0.017 C 
HETATM   32  C1  UNL     1      20.090   3.015  33.762  1.00  0.00     0.008 C 
ENDBRANCH  30  31
ENDBRANCH  28  30
ENDBRANCH   1  28
TORSDOF 13
ENDMDL
MODEL 5
REMARK VINA RESULT: -7.066225228      2.627      3.567
REMARK  13 active torsions:
REMARK  status: ('A' for Active; 'I' for Inactive)
REMARK    1  A    between atoms: C2_2  and  C3_3 
REMARK    2  A    between atoms: C3_3  and  N1_4 
REMARK    3  A    between atoms: N1_4  and  C4_6 
REMARK    4  A    between atoms: C5_9  and  N3_10 
REMARK    5  A    between atoms: N3_10  and  C6_12 
REMARK    6  A    between atoms: C6_12  and  C7_13 
REMARK    7  A    between atoms: C9_17  and  N5_18 
REMARK    8  A    between atoms: N5_18  and  C10_20 
REMARK    9  A    between atoms: C10_20  and  C11_21 
REMARK   10  A    between atoms: C11_21  and  C12_22 
REMARK   11  A    between atoms: C12_22  and  N6_23 
REMARK   12  A    between atoms: N6_23  and  C13_26 
REMARK   13  A    between atoms: C13_26  and  C14_27 
ROOT
HETATM    1  C4  UNL     1      21.397   5.328  31.066  1.00  0.00     0.707 A 
HETATM    2  N2  UNL     1      20.846   4.518  31.961  1.00  0.00    -0.022 N 
ATOM      3  H2  UNL     1      19.857   4.276  31.893  1.00  0.00     0.203 HD
HETATM    4  C5  UNL     1      21.597   4.017  32.959  1.00  0.00     0.707 A 
HETATM    5  N4  UNL     1      22.898   4.334  33.049  1.00  0.00    -0.022 N 
ATOM      6  H4  UNL     1      23.466   3.953  33.805  1.00  0.00     0.203 HD
HETATM    7  C9  UNL     1      23.457   5.169  32.123  1.00  0.00     0.707 A 
HETATM    8  N8  UNL     1      22.686   5.654  31.139  1.00  0.00    -0.022 N 
ATOM      9  H8  UNL     1      23.090   6.278  30.441  1.00  0.00     0.203 HD
ENDROOT
BRANCH   7  10
HETATM   10  N5  UNL     1      24.717   5.472  32.213  1.00  0.00    -0.225 N 
ATOM     11  H5  UNL     1      25.435   4.762  32.074  1.00  0.00     0.177 HD
BRANCH  10  12
HETATM   12  C10 UNL     1      25.076   6.837  32.516  1.00  0.00     0.139 C 
BRANCH  12  13
HETATM   13  C11 UNL     1      25.293   6.931  34.032  1.00  0.00     0.048 C 
BRANCH  13  14
HETATM   14  C12 UNL     1      24.585   8.151  34.525  1.00  0.00     0.234 C 
BRANCH  14  15
HETATM   15  N6  UNL     1      25.027   9.301  33.778  1.00  0.00    -0.071 N 
ATOM     16  H62 UNL     1      26.042   9.395  33.810  1.00  0.00     0.277 HD
ATOM     17  H61 UNL     1      24.910   9.158  32.775  1.00  0.00     0.277 HD
BRANCH  15  18
HETATM   18  C13 UNL     1      24.378  10.503  34.211  1.00  0.00     0.276 C 
BRANCH  18  19
HETATM   19  C14 UNL     1      25.389  11.590  34.159  1.00  0.00     0.080 C 
HETATM   20  N7  UNL     1      25.866  11.981  33.050  1.00  0.00    -0.410 N 
ATOM     21  H72 UNL     1      25.541  11.533  32.193  1.00  0.00     0.155 HD
ATOM     22  H71 UNL     1      26.560  12.728  33.014  1.00  0.00     0.155 HD
ENDBRANCH  18  19
ENDBRANCH  15  18
ENDBRANCH  14  15
ENDBRANCH  13  14
ENDBRANCH  12  13
ENDBRANCH  10  12
ENDBRANCH   7  10
BRANCH   4  23
HETATM   23  N3  UNL     1      21.008   3.248  33.782  1.00  0.00    -0.222 N 
ATOM     24  H3  UNL     1      21.486   2.412  34.119  1.00  0.00     0.178 HD
BRANCH  23  25
HETATM   25  C6  UNL     1      19.682   3.539  34.246  1.00  0.00     0.164 C 
BRANCH  25  26
HETATM   26  C7  UNL     1      18.791   2.437  33.797  1.00  0.00    -0.017 C 
HETATM   27  C8  UNL     1      17.857   2.656  32.889  1.00  0.00     0.008 C 
ENDBRANCH  25  26
ENDBRANCH  23  25
ENDBRANCH   4  23
BRANCH   1  28
HETATM   28  N1  UNL     1      20.706   5.827  30.098  1.00  0.00    -0.222 N 
ATOM     29  H1  UNL     1      21.199   6.244  29.309  1.00  0.00     0.178 HD
BRANCH  28  30
HETATM   30  C3  UNL     1      19.259   5.818  30.089  1.00  0.00     0.164 C 
BRANCH  30  31
HETATM   31  C2  UNL     1      18.800   5.147  28.856  1.00  0.00    -0.017 C 
HETATM   32  C1  UNL     1      17.908   5.737  28.086  1.00  0.00     0.008 C 
ENDBRANCH  30  31
ENDBRANCH  28  30
ENDBRANCH   1  28
TORSDOF 13
ENDMDL
