MODEL 1
REMARK VINA RESULT: -8.887239202      0.000      0.000
REMARK  5 active torsions:
REMARK  status: ('A' for Active; 'I' for Inactive)
REMARK    1  A    between atoms: O1_2  and  C2_3 
REMARK    2  A    between atoms: C7_9  and  C8_10 
REMARK    3  A    between atoms: C8_10  and  N1_11 
REMARK    4  A    between atoms: C8_10  and  C17_26 
REMARK       I    between atoms: N1_11  and  C9_13 
REMARK       I    between atoms: C9_13  and  N4_18 
REMARK    5  A    between atoms: N4_18  and  C11_20 
ROOT
HETATM    1  N1  UNL     1       3.520  35.002  24.441  1.00  0.00    -0.217 N 
ATOM      2  H1  UNL     1       3.579  34.633  23.492  1.00  0.00     0.178 HD
HETATM    3  C9  UNL     1       2.960  36.278  24.577  1.00  0.00     0.683 C 
HETATM    4  N2  UNL     1       2.126  36.608  25.514  1.00  0.00    -0.126 N 
ATOM      5  H2  UNL     1       1.858  35.898  26.196  1.00  0.00     0.197 HD
HETATM    6  C10 UNL     1       1.578  37.888  25.634  1.00  0.00     0.196 C 
HETATM    7  N3  UNL     1       1.123  38.946  25.753  1.00  0.00    -0.171 NA
HETATM    8  N4  UNL     1       3.287  37.301  23.645  1.00  0.00    -0.221 N 
ATOM      9  H4  UNL     1       4.152  37.822  23.788  1.00  0.00     0.178 HD
ENDROOT
BRANCH   1  10
HETATM   10  C8  UNL     1       4.029  34.141  25.501  1.00  0.00     0.139 C 
BRANCH  10  11
HETATM   11  C7  UNL     1       3.589  32.767  25.345  1.00  0.00     0.000 A 
HETATM   12  C2  UNL     1       2.246  32.451  25.487  1.00  0.00     0.076 A 
HETATM   13  C3  UNL     1       1.790  31.149  25.360  1.00  0.00     0.039 A 
HETATM   14  C4  UNL     1       2.678  30.129  25.086  1.00  0.00     0.026 A 
HETATM   15  C5  UNL     1       4.002  30.414  24.944  1.00  0.00     0.034 A 
HETATM   16 CL1  UNL     1       5.144  29.128  24.597  1.00  0.00    -0.084 Cl
HETATM   17  C6  UNL     1       4.433  31.738  25.078  1.00  0.00     0.035 A 
BRANCH  12  18
HETATM   18  O1  UNL     1       1.354  33.467  25.763  1.00  0.00    -0.355 OA
HETATM   19  C1  UNL     1       0.182  33.575  24.984  1.00  0.00     0.210 C 
ENDBRANCH  12  18
ENDBRANCH  10  11
BRANCH  10  20
HETATM   20  C17 UNL     1       5.483  34.339  25.731  1.00  0.00     0.013 C 
HETATM   21  C18 UNL     1       6.232  35.027  24.620  1.00  0.00     0.007 C 
HETATM   22  C19 UNL     1       7.697  34.697  24.763  1.00  0.00     0.000 C 
HETATM   23  C20 UNL     1       8.046  34.211  26.119  1.00  0.00     0.000 C 
HETATM   24  C21 UNL     1       7.358  34.922  27.259  1.00  0.00     0.000 C 
HETATM   25  C22 UNL     1       5.852  34.987  27.026  1.00  0.00     0.007 C 
ENDBRANCH  10  20
ENDBRANCH   1  10
BRANCH   8  26
HETATM   26  C11 UNL     1       2.478  37.645  22.521  1.00  0.00     0.099 C 
HETATM   27  C12 UNL     1       2.519  36.603  21.406  1.00  0.00     0.026 C 
HETATM   28  C13 UNL     1       2.165  37.214  20.076  1.00  0.00     0.002 C 
HETATM   29  C14 UNL     1       1.196  38.365  20.221  1.00  0.00     0.000 C 
HETATM   30  C15 UNL     1       1.811  39.460  21.032  1.00  0.00     0.002 C 
HETATM   31  C16 UNL     1       2.941  38.942  21.899  1.00  0.00     0.026 C 
ENDBRANCH   8  26
TORSDOF 5
ENDMDL
MODEL 2
REMARK VINA RESULT: -8.702675428      1.810      2.418
REMARK  5 active torsions:
REMARK  status: ('A' for Active; 'I' for Inactive)
REMARK    1  A    between atoms: O1_2  and  C2_3 
REMARK    2  A    between atoms: C7_9  and  C8_10 
REMARK    3  A    between atoms: C8_10  and  N1_11 
REMARK    4  A    between atoms: C8_10  and  C17_26 
REMARK       I    between atoms: N1_11  and  C9_13 
REMARK       I    between atoms: C9_13  and  N4_18 
REMARK    5  A    between atoms: N4_18  and  C11_20 
ROOT
HETATM    1  N1  UNL     1       3.675  34.433  23.943  1.00  0.00    -0.217 N 
ATOM      2  H1  UNL     1       4.167  34.893  23.178  1.00  0.00     0.178 HD
HETATM    3  C9  UNL     1       2.302  34.689  24.042  1.00  0.00     0.683 C 
HETATM    4  N2  UNL     1       1.413  33.785  24.312  1.00  0.00    -0.126 N 
ATOM      5  H2  UNL     1       1.727  32.826  24.461  1.00  0.00     0.197 HD
HETATM    6  C10 UNL     1       0.046  34.061  24.407  1.00  0.00     0.196 C 
HETATM    7  N3  UNL     1      -1.088  34.275  24.499  1.00  0.00    -0.171 NA
HETATM    8  N4  UNL     1       1.807  36.006  23.828  1.00  0.00    -0.221 N 
ATOM      9  H4  UNL     1       1.842  36.664  24.607  1.00  0.00     0.178 HD
ENDROOT
BRANCH   1  10
HETATM   10  C8  UNL     1       4.481  33.584  24.811  1.00  0.00     0.139 C 
BRANCH  10  11
HETATM   11  C7  UNL     1       4.723  32.279  24.223  1.00  0.00     0.000 A 
HETATM   12  C2  UNL     1       3.909  31.207  24.561  1.00  0.00     0.076 A 
HETATM   13  C3  UNL     1       4.118  29.944  24.032  1.00  0.00     0.039 A 
HETATM   14  C4  UNL     1       5.155  29.726  23.148  1.00  0.00     0.026 A 
HETATM   15  C5  UNL     1       5.969  30.763  22.803  1.00  0.00     0.034 A 
HETATM   16 CL1  UNL     1       7.292  30.503  21.681  1.00  0.00    -0.084 Cl
HETATM   17  C6  UNL     1       5.733  32.027  23.352  1.00  0.00     0.035 A 
BRANCH  12  18
HETATM   18  O1  UNL     1       2.873  31.419  25.446  1.00  0.00    -0.355 OA
HETATM   19  C1  UNL     1       1.802  30.500  25.475  1.00  0.00     0.210 C 
ENDBRANCH  12  18
ENDBRANCH  10  11
BRANCH  10  20
HETATM   20  C17 UNL     1       5.675  34.295  25.337  1.00  0.00     0.013 C 
HETATM   21  C18 UNL     1       6.027  35.582  24.638  1.00  0.00     0.007 C 
HETATM   22  C19 UNL     1       7.477  35.891  24.920  1.00  0.00     0.000 C 
HETATM   23  C20 UNL     1       8.002  35.159  26.097  1.00  0.00     0.000 C 
HETATM   24  C21 UNL     1       7.053  35.048  27.266  1.00  0.00     0.000 C 
HETATM   25  C22 UNL     1       5.691  34.534  26.812  1.00  0.00     0.007 C 
ENDBRANCH  10  20
ENDBRANCH   1  10
BRANCH   8  26
HETATM   26  C11 UNL     1       1.266  36.463  22.589  1.00  0.00     0.099 C 
HETATM   27  C12 UNL     1       2.333  36.795  21.550  1.00  0.00     0.026 C 
HETATM   28  C13 UNL     1       1.815  37.774  20.530  1.00  0.00     0.002 C 
HETATM   29  C14 UNL     1       0.328  37.621  20.303  1.00  0.00     0.000 C 
HETATM   30  C15 UNL     1      -0.420  37.900  21.567  1.00  0.00     0.002 C 
HETATM   31  C16 UNL     1       0.464  37.729  22.785  1.00  0.00     0.026 C 
ENDBRANCH   8  26
TORSDOF 5
ENDMDL
MODEL 3
REMARK VINA RESULT: -8.444598237      2.563      4.796
REMARK  5 active torsions:
REMARK  status: ('A' for Active; 'I' for Inactive)
REMARK    1  A    between atoms: O1_2  and  C2_3 
REMARK    2  A    between atoms: C7_9  and  C8_10 
REMARK    3  A    between atoms: C8_10  and  N1_11 
REMARK    4  A    between atoms: C8_10  and  C17_26 
REMARK       I    between atoms: N1_11  and  C9_13 
REMARK       I    between atoms: C9_13  and  N4_18 
REMARK    5  A    between atoms: N4_18  and  C11_20 
ROOT
HETATM    1  N1  UNL     1       1.141  34.109  24.085  1.00  0.00    -0.217 N 
ATOM      2  H1  UNL     1       1.878  34.786  24.278  1.00  0.00     0.178 HD
HETATM    3  C9  UNL     1       0.062  34.568  23.320  1.00  0.00     0.683 C 
HETATM    4  N2  UNL     1      -0.498  33.883  22.372  1.00  0.00    -0.126 N 
ATOM      5  H2  UNL     1      -0.135  32.952  22.167  1.00  0.00     0.197 HD
HETATM    6  C10 UNL     1      -1.576  34.358  21.619  1.00  0.00     0.196 C 
HETATM    7  N3  UNL     1      -2.475  34.733  20.993  1.00  0.00    -0.171 NA
HETATM    8  N4  UNL     1      -0.475  35.865  23.553  1.00  0.00    -0.221 N 
ATOM      9  H4  UNL     1      -1.149  35.975  24.310  1.00  0.00     0.178 HD
ENDROOT
BRANCH   1  10
HETATM   10  C8  UNL     1       1.328  32.774  24.638  1.00  0.00     0.139 C 
BRANCH  10  11
HETATM   11  C7  UNL     1       2.724  32.493  24.920  1.00  0.00     0.000 A 
HETATM   12  C2  UNL     1       3.534  33.484  25.455  1.00  0.00     0.076 A 
HETATM   13  C3  UNL     1       4.875  33.258  25.724  1.00  0.00     0.039 A 
HETATM   14  C4  UNL     1       5.435  32.025  25.459  1.00  0.00     0.026 A 
HETATM   15  C5  UNL     1       4.660  31.037  24.931  1.00  0.00     0.034 A 
HETATM   16 CL1  UNL     1       5.357  29.464  24.588  1.00  0.00    -0.084 Cl
HETATM   17  C6  UNL     1       3.310  31.294  24.671  1.00  0.00     0.035 A 
BRANCH  12  18
HETATM   18  O1  UNL     1       2.979  34.718  25.720  1.00  0.00    -0.355 OA
HETATM   19  C1  UNL     1       3.818  35.853  25.742  1.00  0.00     0.210 C 
ENDBRANCH  12  18
ENDBRANCH  10  11
BRANCH  10  20
HETATM   20  C17 UNL     1       0.369  32.484  25.735  1.00  0.00     0.013 C 
HETATM   21  C18 UNL     1      -0.944  31.881  25.312  1.00  0.00     0.007 C 
HETATM   22  C19 UNL     1      -1.951  32.124  26.408  1.00  0.00     0.000 C 
HETATM   23  C20 UNL     1      -1.318  32.450  27.708  1.00  0.00     0.000 C 
HETATM   24  C21 UNL     1      -0.077  31.659  28.039  1.00  0.00     0.000 C 
HETATM   25  C22 UNL     1       0.912  31.689  26.878  1.00  0.00     0.007 C 
ENDBRANCH  10  20
ENDBRANCH   1  10
BRANCH   8  26
HETATM   26  C11 UNL     1      -0.127  37.021  22.792  1.00  0.00     0.099 C 
HETATM   27  C12 UNL     1       1.304  36.988  22.265  1.00  0.00     0.026 C 
HETATM   28  C13 UNL     1       1.817  38.378  21.993  1.00  0.00     0.002 C 
HETATM   29  C14 UNL     1       0.708  39.320  21.581  1.00  0.00     0.000 C 
HETATM   30  C15 UNL     1      -0.293  39.452  22.683  1.00  0.00     0.002 C 
HETATM   31  C16 UNL     1      -0.236  38.273  23.631  1.00  0.00     0.026 C 
ENDBRANCH   8  26
TORSDOF 5
ENDMDL
MODEL 4
REMARK VINA RESULT: -8.173893115      2.808      4.266
REMARK  5 active torsions:
REMARK  status: ('A' for Active; 'I' for Inactive)
REMARK    1  A    between atoms: O1_2  and  C2_3 
REMARK    2  A    between atoms: C7_9  and  C8_10 
REMARK    3  A    between atoms: C8_10  and  N1_11 
REMARK    4  A    between atoms: C8_10  and  C17_26 
REMARK       I    between atoms: N1_11  and  C9_13 
REMARK       I    between atoms: C9_13  and  N4_18 
REMARK    5  A    between atoms: N4_18  and  C11_20 
ROOT
HETATM    1  N1  UNL     1       4.415  33.421  24.237  1.00  0.00    -0.217 N 
ATOM      2  H1  UNL     1       4.362  33.819  23.300  1.00  0.00     0.178 HD
HETATM    3  C9  UNL     1       3.204  33.301  24.930  1.00  0.00     0.683 C 
HETATM    4  N2  UNL     1       2.873  32.268  25.639  1.00  0.00    -0.126 N 
ATOM      5  H2  UNL     1       3.531  31.491  25.700  1.00  0.00     0.197 HD
HETATM    6  C10 UNL     1       1.659  32.167  26.325  1.00  0.00     0.196 C 
HETATM    7  N3  UNL     1       0.662  32.073  26.906  1.00  0.00    -0.171 NA
HETATM    8  N4  UNL     1       2.242  34.348  24.867  1.00  0.00    -0.221 N 
ATOM      9  H4  UNL     1       2.359  35.144  25.494  1.00  0.00     0.178 HD
ENDROOT
BRANCH   1  10
HETATM   10  C8  UNL     1       5.742  33.040  24.704  1.00  0.00     0.139 C 
BRANCH  10  11
HETATM   11  C7  UNL     1       6.446  32.220  23.735  1.00  0.00     0.000 A 
HETATM   12  C2  UNL     1       5.772  31.208  23.068  1.00  0.00     0.076 A 
HETATM   13  C3  UNL     1       6.413  30.395  22.146  1.00  0.00     0.039 A 
HETATM   14  C4  UNL     1       7.753  30.581  21.874  1.00  0.00     0.026 A 
HETATM   15  C5  UNL     1       8.437  31.567  22.519  1.00  0.00     0.034 A 
HETATM   16 CL1  UNL     1      10.140  31.816  22.185  1.00  0.00    -0.084 Cl
HETATM   17  C6  UNL     1       7.763  32.372  23.443  1.00  0.00     0.035 A 
BRANCH  12  18
HETATM   18  O1  UNL     1       4.433  31.017  23.337  1.00  0.00    -0.355 OA
HETATM   19  C1  UNL     1       3.900  29.712  23.256  1.00  0.00     0.210 C 
ENDBRANCH  12  18
ENDBRANCH  10  11
BRANCH  10  20
HETATM   20  C17 UNL     1       6.495  34.199  25.249  1.00  0.00     0.013 C 
HETATM   21  C18 UNL     1       5.973  35.557  24.862  1.00  0.00     0.007 C 
HETATM   22  C19 UNL     1       7.085  36.560  25.042  1.00  0.00     0.000 C 
HETATM   23  C20 UNL     1       8.167  36.066  25.927  1.00  0.00     0.000 C 
HETATM   24  C21 UNL     1       7.709  35.281  27.132  1.00  0.00     0.000 C 
HETATM   25  C22 UNL     1       6.733  34.182  26.724  1.00  0.00     0.007 C 
ENDBRANCH  10  20
ENDBRANCH   1  10
BRANCH   8  26
HETATM   26  C11 UNL     1       1.125  34.353  23.979  1.00  0.00     0.099 C 
HETATM   27  C12 UNL     1       1.240  35.396  22.871  1.00  0.00     0.026 C 
HETATM   28  C13 UNL     1      -0.116  35.775  22.336  1.00  0.00     0.002 C 
HETATM   29  C14 UNL     1      -1.099  34.628  22.421  1.00  0.00     0.000 C 
HETATM   30  C15 UNL     1      -1.308  34.231  23.847  1.00  0.00     0.002 C 
HETATM   31  C16 UNL     1      -0.153  34.670  24.722  1.00  0.00     0.026 C 
ENDBRANCH   8  26
TORSDOF 5
ENDMDL
MODEL 5
REMARK VINA RESULT: -8.132340993      2.846      6.017
REMARK  5 active torsions:
REMARK  status: ('A' for Active; 'I' for Inactive)
REMARK    1  A    between atoms: O1_2  and  C2_3 
REMARK    2  A    between atoms: C7_9  and  C8_10 
REMARK    3  A    between atoms: C8_10  and  N1_11 
REMARK    4  A    between atoms: C8_10  and  C17_26 
REMARK       I    between atoms: N1_11  and  C9_13 
REMARK       I    between atoms: C9_13  and  N4_18 
REMARK    5  A    between atoms: N4_18  and  C11_20 
ROOT
HETATM    1  N1  UNL     1       3.470  33.226  24.868  1.00  0.00    -0.217 N 
ATOM      2  H1  UNL     1       3.583  32.872  25.817  1.00  0.00     0.178 HD
HETATM    3  C9  UNL     1       2.155  33.379  24.414  1.00  0.00     0.683 C 
HETATM    4  N2  UNL     1       1.738  34.396  23.727  1.00  0.00    -0.126 N 
ATOM      5  H2  UNL     1       2.404  35.134  23.500  1.00  0.00     0.197 HD
HETATM    6  C10 UNL     1       0.419  34.530  23.281  1.00  0.00     0.196 C 
HETATM    7  N3  UNL     1      -0.666  34.650  22.897  1.00  0.00    -0.171 NA
HETATM    8  N4  UNL     1       1.180  32.387  24.714  1.00  0.00    -0.221 N 
ATOM      9  H4  UNL     1       1.138  31.560  24.119  1.00  0.00     0.178 HD
ENDROOT
BRANCH   1  10
HETATM   10  C8  UNL     1       4.698  33.516  24.137  1.00  0.00     0.139 C 
BRANCH  10  11
HETATM   11  C7  UNL     1       5.408  34.652  24.695  1.00  0.00     0.000 A 
HETATM   12  C2  UNL     1       5.019  35.941  24.363  1.00  0.00     0.076 A 
HETATM   13  C3  UNL     1       5.682  37.050  24.864  1.00  0.00     0.039 A 
HETATM   14  C4  UNL     1       6.757  36.889  25.713  1.00  0.00     0.026 A 
HETATM   15  C5  UNL     1       7.160  35.632  26.051  1.00  0.00     0.034 A 
HETATM   16 CL1  UNL     1       8.526  35.409  27.129  1.00  0.00    -0.084 Cl
HETATM   17  C6  UNL     1       6.471  34.532  25.531  1.00  0.00     0.035 A 
BRANCH  12  18
HETATM   18  O1  UNL     1       3.946  36.109  23.513  1.00  0.00    -0.355 OA
HETATM   19  C1  UNL     1       3.315  37.370  23.450  1.00  0.00     0.210 C 
ENDBRANCH  12  18
ENDBRANCH  10  11
BRANCH  10  20
HETATM   20  C17 UNL     1       5.507  32.293  23.897  1.00  0.00     0.013 C 
HETATM   21  C18 UNL     1       5.237  31.140  24.827  1.00  0.00     0.007 C 
HETATM   22  C19 UNL     1       6.433  30.221  24.798  1.00  0.00     0.000 C 
HETATM   23  C20 UNL     1       7.289  30.428  23.606  1.00  0.00     0.000 C 
HETATM   24  C21 UNL     1       6.549  30.681  22.315  1.00  0.00     0.000 C 
HETATM   25  C22 UNL     1       5.509  31.782  22.492  1.00  0.00     0.007 C 
ENDBRANCH  10  20
ENDBRANCH   1  10
BRANCH   8  26
HETATM   26  C11 UNL     1       0.255  32.479  25.797  1.00  0.00     0.099 C 
HETATM   27  C12 UNL     1       0.712  31.729  27.045  1.00  0.00     0.026 C 
HETATM   28  C13 UNL     1      -0.459  31.356  27.917  1.00  0.00     0.002 C 
HETATM   29  C14 UNL     1      -1.586  32.358  27.808  1.00  0.00     0.000 C 
HETATM   30  C15 UNL     1      -2.106  32.403  26.407  1.00  0.00     0.002 C 
HETATM   31  C16 UNL     1      -1.082  31.886  25.418  1.00  0.00     0.026 C 
ENDBRANCH   8  26
TORSDOF 5
ENDMDL
