MODEL 1
REMARK VINA RESULT: -8.201580756      0.000      0.000
REMARK  7 active torsions:
REMARK  status: ('A' for Active; 'I' for Inactive)
REMARK    1  A    between atoms: C2_2  and  C4_4 
REMARK    2  A    between atoms: C4_4  and  C5_5 
REMARK    3  A    between atoms: C5_5  and  C6_6 
REMARK    4  A    between atoms: C13_14  and  C14_15 
REMARK    5  A    between atoms: C15_16  and  C16_17 
REMARK    6  A    between atoms: C16_17  and  C19_20 
REMARK    7  A    between atoms: C21_25  and  O4_26 
ROOT
HETATM    1  C6  UNL     1       6.442  33.600  25.351  1.00  0.00     0.029 C 
HETATM    2  C7  UNL     1       6.855  33.338  26.764  1.00  0.00     0.025 C 
HETATM    3  C8  UNL     1       7.166  34.811  24.881  1.00  0.00     0.158 C 
HETATM    4  O1  UNL     1       8.419  34.829  24.652  1.00  0.00    -0.292 OA
HETATM    5  C9  UNL     1       6.429  36.062  24.665  1.00  0.00     0.048 C 
HETATM    6  C10 UNL     1       5.189  36.271  25.023  1.00  0.00    -0.012 C 
HETATM    7  C11 UNL     1       4.469  35.165  25.699  1.00  0.00    -0.008 C 
HETATM    8  C12 UNL     1       4.766  35.390  27.165  1.00  0.00     0.021 C 
HETATM    9  C13 UNL     1       2.976  35.322  25.507  1.00  0.00     0.057 C 
HETATM   10  C20 UNL     1       2.264  34.103  25.003  1.00  0.00     0.207 C 
HETATM   11  F1  UNL     1       0.908  34.239  25.365  1.00  0.00    -0.246 F 
HETATM   12  C21 UNL     1       2.755  32.928  25.778  1.00  0.00     0.153 C 
HETATM   13  C22 UNL     1       4.191  32.676  25.476  1.00  0.00     0.046 C 
HETATM   14  C23 UNL     1       4.988  33.904  25.114  1.00  0.00    -0.016 C 
HETATM   15  C24 UNL     1       4.855  34.045  23.604  1.00  0.00     0.018 C 
ENDROOT
BRANCH   9  16
HETATM   16  C14 UNL     1       2.587  36.557  24.775  1.00  0.00    -0.021 C 
HETATM   17  C15 UNL     1       2.015  36.537  23.574  1.00  0.00    -0.011 C 
BRANCH  17  18
HETATM   18  C16 UNL     1       1.613  37.743  22.814  1.00  0.00     0.059 C 
HETATM   19  C17 UNL     1       2.217  37.812  21.443  1.00  0.00     0.031 C 
HETATM   20  C18 UNL     1       2.020  39.002  23.592  1.00  0.00     0.031 C 
BRANCH  18  21
HETATM   21  C19 UNL     1       0.119  37.783  22.749  1.00  0.00     0.185 C 
HETATM   22  O2  UNL     1      -0.567  38.312  23.660  1.00  0.00    -0.647 OA
HETATM   23  O3  UNL     1      -0.558  37.234  21.669  1.00  0.00    -0.647 OA
ENDBRANCH  18  21
ENDBRANCH  17  18
ENDBRANCH   9  16
BRANCH  12  24
HETATM   24  O4  UNL     1       1.979  31.817  25.387  1.00  0.00    -0.393 OA
ATOM     25  H4  UNL     1       1.523  31.508  26.159  1.00  0.00     0.210 HD
ENDBRANCH  12  24
BRANCH   1  26
HETATM   26  C5  UNL     1       6.730  32.354  24.566  1.00  0.00     0.018 C 
BRANCH  26  27
HETATM   27  C4  UNL     1       6.919  31.086  25.282  1.00  0.00     0.005 C 
BRANCH  27  28
HETATM   28  C2  UNL     1       6.522  29.959  24.292  1.00  0.00    -0.023 C 
HETATM   29  C1  UNL     1       6.440  30.586  22.900  1.00  0.00     0.009 C 
HETATM   30  C3  UNL     1       5.170  29.421  24.625  1.00  0.00     0.009 C 
ENDBRANCH  27  28
ENDBRANCH  26  27
ENDBRANCH   1  26
TORSDOF 7
ENDMDL
MODEL 2
REMARK VINA RESULT: -8.082363072      2.289      7.078
REMARK  7 active torsions:
REMARK  status: ('A' for Active; 'I' for Inactive)
REMARK    1  A    between atoms: C2_2  and  C4_4 
REMARK    2  A    between atoms: C4_4  and  C5_5 
REMARK    3  A    between atoms: C5_5  and  C6_6 
REMARK    4  A    between atoms: C13_14  and  C14_15 
REMARK    5  A    between atoms: C15_16  and  C16_17 
REMARK    6  A    between atoms: C16_17  and  C19_20 
REMARK    7  A    between atoms: C21_25  and  O4_26 
ROOT
HETATM    1  C6  UNL     1       3.462  36.518  25.046  1.00  0.00     0.029 C 
HETATM    2  C7  UNL     1       3.268  37.429  26.216  1.00  0.00     0.025 C 
HETATM    3  C8  UNL     1       2.443  35.438  25.134  1.00  0.00     0.158 C 
HETATM    4  O1  UNL     1       1.200  35.635  24.936  1.00  0.00    -0.292 OA
HETATM    5  C9  UNL     1       2.857  34.070  25.467  1.00  0.00     0.048 C 
HETATM    6  C10 UNL     1       4.051  33.730  25.877  1.00  0.00    -0.012 C 
HETATM    7  C11 UNL     1       5.065  34.803  26.020  1.00  0.00    -0.008 C 
HETATM    8  C12 UNL     1       4.881  35.279  27.444  1.00  0.00     0.021 C 
HETATM    9  C13 UNL     1       6.457  34.220  25.910  1.00  0.00     0.057 C 
HETATM   10  C20 UNL     1       7.364  34.910  24.936  1.00  0.00     0.207 C 
HETATM   11  F1  UNL     1       8.688  34.607  25.319  1.00  0.00    -0.246 F 
HETATM   12  C21 UNL     1       7.230  36.381  25.141  1.00  0.00     0.153 C 
HETATM   13  C22 UNL     1       5.861  36.830  24.763  1.00  0.00     0.046 C 
HETATM   14  C23 UNL     1       4.780  35.797  24.957  1.00  0.00    -0.016 C 
HETATM   15  C24 UNL     1       4.718  35.022  23.648  1.00  0.00     0.018 C 
ENDROOT
BRANCH   9  16
HETATM   16  C14 UNL     1       6.484  32.740  25.769  1.00  0.00    -0.021 C 
HETATM   17  C15 UNL     1       6.617  32.127  24.595  1.00  0.00    -0.011 C 
BRANCH  17  18
HETATM   18  C16 UNL     1       6.648  30.657  24.414  1.00  0.00     0.059 C 
HETATM   19  C17 UNL     1       5.354  29.986  24.764  1.00  0.00     0.031 C 
HETATM   20  C18 UNL     1       7.762  30.054  25.281  1.00  0.00     0.031 C 
BRANCH  18  21
HETATM   21  C19 UNL     1       7.044  30.364  23.001  1.00  0.00     0.185 C 
HETATM   22  O2  UNL     1       6.188  30.116  22.114  1.00  0.00    -0.647 OA
HETATM   23  O3  UNL     1       8.380  30.360  22.626  1.00  0.00    -0.647 OA
ENDBRANCH  18  21
ENDBRANCH  17  18
ENDBRANCH   9  16
BRANCH  12  24
HETATM   24  O4  UNL     1       8.186  37.006  24.315  1.00  0.00    -0.393 OA
ATOM     25  H4  UNL     1       8.811  36.339  24.055  1.00  0.00     0.210 HD
ENDBRANCH  12  24
BRANCH   1  26
HETATM   26  C5  UNL     1       3.375  37.361  23.807  1.00  0.00     0.018 C 
BRANCH  26  27
HETATM   27  C4  UNL     1       2.383  38.442  23.747  1.00  0.00     0.005 C 
BRANCH  27  28
HETATM   28  C2  UNL     1       1.634  38.276  22.397  1.00  0.00    -0.023 C 
HETATM   29  C1  UNL     1       0.145  38.151  22.718  1.00  0.00     0.009 C 
HETATM   30  C3  UNL     1       2.057  37.017  21.716  1.00  0.00     0.009 C 
ENDBRANCH  27  28
ENDBRANCH  26  27
ENDBRANCH   1  26
TORSDOF 7
ENDMDL
MODEL 3
REMARK VINA RESULT: -8.054740798      1.161      1.345
REMARK  7 active torsions:
REMARK  status: ('A' for Active; 'I' for Inactive)
REMARK    1  A    between atoms: C2_2  and  C4_4 
REMARK    2  A    between atoms: C4_4  and  C5_5 
REMARK    3  A    between atoms: C5_5  and  C6_6 
REMARK    4  A    between atoms: C13_14  and  C14_15 
REMARK    5  A    between atoms: C15_16  and  C16_17 
REMARK    6  A    between atoms: C16_17  and  C19_20 
REMARK    7  A    between atoms: C21_25  and  O4_26 
ROOT
HETATM    1  C6  UNL     1       6.532  33.418  25.274  1.00  0.00     0.029 C 
HETATM    2  C7  UNL     1       6.871  33.041  26.681  1.00  0.00     0.025 C 
HETATM    3  C8  UNL     1       7.466  34.496  24.854  1.00  0.00     0.158 C 
HETATM    4  O1  UNL     1       8.706  34.299  24.637  1.00  0.00    -0.292 OA
HETATM    5  C9  UNL     1       6.966  35.865  24.674  1.00  0.00     0.048 C 
HETATM    6  C10 UNL     1       5.778  36.278  25.027  1.00  0.00    -0.012 C 
HETATM    7  C11 UNL     1       4.862  35.296  25.657  1.00  0.00    -0.008 C 
HETATM    8  C12 UNL     1       5.171  35.417  27.133  1.00  0.00     0.021 C 
HETATM    9  C13 UNL     1       3.424  35.721  25.456  1.00  0.00     0.057 C 
HETATM   10  C20 UNL     1       2.515  34.665  24.903  1.00  0.00     0.207 C 
HETATM   11  F1  UNL     1       1.199  35.028  25.256  1.00  0.00    -0.246 F 
HETATM   12  C21 UNL     1       2.779  33.397  25.641  1.00  0.00     0.153 C 
HETATM   13  C22 UNL     1       4.152  32.904  25.344  1.00  0.00     0.046 C 
HETATM   14  C23 UNL     1       5.159  33.983  25.034  1.00  0.00    -0.016 C 
HETATM   15  C24 UNL     1       5.077  34.194  23.528  1.00  0.00     0.018 C 
ENDROOT
BRANCH   9  16
HETATM   16  C14 UNL     1       3.271  37.029  24.764  1.00  0.00    -0.021 C 
HETATM   17  C15 UNL     1       2.795  37.142  23.526  1.00  0.00    -0.011 C 
BRANCH  17  18
HETATM   18  C16 UNL     1       2.627  38.424  22.804  1.00  0.00     0.059 C 
HETATM   19  C17 UNL     1       3.800  39.347  22.950  1.00  0.00     0.031 C 
HETATM   20  C18 UNL     1       1.372  39.144  23.315  1.00  0.00     0.031 C 
BRANCH  18  21
HETATM   21  C19 UNL     1       2.353  38.122  21.365  1.00  0.00     0.185 C 
HETATM   22  O2  UNL     1       2.507  36.968  20.891  1.00  0.00    -0.647 OA
HETATM   23  O3  UNL     1       1.914  39.118  20.503  1.00  0.00    -0.647 OA
ENDBRANCH  18  21
ENDBRANCH  17  18
ENDBRANCH   9  16
BRANCH  12  24
HETATM   24  O4  UNL     1       1.825  32.455  25.204  1.00  0.00    -0.393 OA
ATOM     25  H4  UNL     1       2.003  31.642  25.661  1.00  0.00     0.210 HD
ENDBRANCH  12  24
BRANCH   1  26
HETATM   26  C5  UNL     1       6.608  32.167  24.448  1.00  0.00     0.018 C 
BRANCH  26  27
HETATM   27  C4  UNL     1       6.796  30.876  25.123  1.00  0.00     0.005 C 
BRANCH  27  28
HETATM   28  C2  UNL     1       6.181  29.799  24.191  1.00  0.00    -0.023 C 
HETATM   29  C1  UNL     1       6.013  30.436  22.811  1.00  0.00     0.009 C 
HETATM   30  C3  UNL     1       4.825  29.402  24.673  1.00  0.00     0.009 C 
ENDBRANCH  27  28
ENDBRANCH  26  27
ENDBRANCH   1  26
TORSDOF 7
ENDMDL
MODEL 4
REMARK VINA RESULT: -8.045452281      2.718      7.306
REMARK  7 active torsions:
REMARK  status: ('A' for Active; 'I' for Inactive)
REMARK    1  A    between atoms: C2_2  and  C4_4 
REMARK    2  A    between atoms: C4_4  and  C5_5 
REMARK    3  A    between atoms: C5_5  and  C6_6 
REMARK    4  A    between atoms: C13_14  and  C14_15 
REMARK    5  A    between atoms: C15_16  and  C16_17 
REMARK    6  A    between atoms: C16_17  and  C19_20 
REMARK    7  A    between atoms: C21_25  and  O4_26 
ROOT
HETATM    1  C6  UNL     1       4.137  37.295  25.659  1.00  0.00     0.029 C 
HETATM    2  C7  UNL     1       4.078  37.969  26.992  1.00  0.00     0.025 C 
HETATM    3  C8  UNL     1       2.958  36.396  25.549  1.00  0.00     0.158 C 
HETATM    4  O1  UNL     1       1.764  36.824  25.421  1.00  0.00    -0.292 OA
HETATM    5  C9  UNL     1       3.144  34.940  25.589  1.00  0.00     0.048 C 
HETATM    6  C10 UNL     1       4.263  34.338  25.897  1.00  0.00    -0.012 C 
HETATM    7  C11 UNL     1       5.434  35.185  26.232  1.00  0.00    -0.008 C 
HETATM    8  C12 UNL     1       5.313  35.386  27.726  1.00  0.00     0.021 C 
HETATM    9  C13 UNL     1       6.717  34.423  25.977  1.00  0.00     0.057 C 
HETATM   10  C20 UNL     1       7.733  35.143  25.144  1.00  0.00     0.207 C 
HETATM   11  F1  UNL     1       8.986  34.561  25.429  1.00  0.00    -0.246 F 
HETATM   12  C21 UNL     1       7.833  36.543  25.644  1.00  0.00     0.153 C 
HETATM   13  C22 UNL     1       6.559  37.271  25.394  1.00  0.00     0.046 C 
HETATM   14  C23 UNL     1       5.324  36.406  25.398  1.00  0.00    -0.016 C 
HETATM   15  C24 UNL     1       5.154  35.932  23.962  1.00  0.00     0.018 C 
ENDROOT
BRANCH   9  16
HETATM   16  C14 UNL     1       6.508  33.017  25.540  1.00  0.00    -0.021 C 
HETATM   17  C15 UNL     1       6.734  32.605  24.295  1.00  0.00    -0.011 C 
BRANCH  17  18
HETATM   18  C16 UNL     1       6.539  31.215  23.821  1.00  0.00     0.059 C 
HETATM   19  C17 UNL     1       5.961  31.132  22.440  1.00  0.00     0.031 C 
HETATM   20  C18 UNL     1       5.609  30.467  24.786  1.00  0.00     0.031 C 
BRANCH  18  21
HETATM   21  C19 UNL     1       7.851  30.501  23.901  1.00  0.00     0.185 C 
HETATM   22  O2  UNL     1       8.332  30.125  25.001  1.00  0.00    -0.647 OA
HETATM   23  O3  UNL     1       8.581  30.229  22.753  1.00  0.00    -0.647 OA
ENDBRANCH  18  21
ENDBRANCH  17  18
ENDBRANCH   9  16
BRANCH  12  24
HETATM   24  O4  UNL     1       8.887  37.163  24.941  1.00  0.00    -0.393 OA
ATOM     25  H4  UNL     1       9.407  36.472  24.548  1.00  0.00     0.210 HD
ENDBRANCH  12  24
BRANCH   1  26
HETATM   26  C5  UNL     1       4.201  38.374  24.618  1.00  0.00     0.018 C 
BRANCH  26  27
HETATM   27  C4  UNL     1       3.748  39.727  24.964  1.00  0.00     0.005 C 
BRANCH  27  28
HETATM   28  C2  UNL     1       4.836  40.702  24.440  1.00  0.00    -0.023 C 
HETATM   29  C1  UNL     1       5.481  40.048  23.218  1.00  0.00     0.009 C 
HETATM   30  C3  UNL     1       5.904  40.895  25.465  1.00  0.00     0.009 C 
ENDBRANCH  27  28
ENDBRANCH  26  27
ENDBRANCH   1  26
TORSDOF 7
ENDMDL
MODEL 5
REMARK VINA RESULT: -7.982580814      2.544      3.408
REMARK  7 active torsions:
REMARK  status: ('A' for Active; 'I' for Inactive)
REMARK    1  A    between atoms: C2_2  and  C4_4 
REMARK    2  A    between atoms: C4_4  and  C5_5 
REMARK    3  A    between atoms: C5_5  and  C6_6 
REMARK    4  A    between atoms: C13_14  and  C14_15 
REMARK    5  A    between atoms: C15_16  and  C16_17 
REMARK    6  A    between atoms: C16_17  and  C19_20 
REMARK    7  A    between atoms: C21_25  and  O4_26 
ROOT
HETATM    1  C6  UNL     1       6.856  33.212  24.831  1.00  0.00     0.029 C 
HETATM    2  C7  UNL     1       7.353  33.141  26.240  1.00  0.00     0.025 C 
HETATM    3  C8  UNL     1       6.688  34.647  24.479  1.00  0.00     0.158 C 
HETATM    4  O1  UNL     1       7.668  35.443  24.308  1.00  0.00    -0.292 OA
HETATM    5  C9  UNL     1       5.340  35.205  24.317  1.00  0.00     0.048 C 
HETATM    6  C10 UNL     1       4.232  34.586  24.632  1.00  0.00    -0.012 C 
HETATM    7  C11 UNL     1       4.341  33.219  25.198  1.00  0.00    -0.008 C 
HETATM    8  C12 UNL     1       4.449  33.457  26.687  1.00  0.00     0.021 C 
HETATM    9  C13 UNL     1       3.061  32.451  24.950  1.00  0.00     0.057 C 
HETATM   10  C20 UNL     1       3.237  31.097  24.332  1.00  0.00     0.207 C 
HETATM   11  F1  UNL     1       2.081  30.349  24.641  1.00  0.00    -0.246 F 
HETATM   12  C21 UNL     1       4.348  30.404  25.045  1.00  0.00     0.153 C 
HETATM   13  C22 UNL     1       5.637  31.104  24.791  1.00  0.00     0.046 C 
HETATM   14  C23 UNL     1       5.517  32.587  24.551  1.00  0.00    -0.016 C 
HETATM   15  C24 UNL     1       5.316  32.742  23.049  1.00  0.00     0.018 C 
ENDROOT
BRANCH   9  16
HETATM   16  C14 UNL     1       1.994  33.249  24.288  1.00  0.00    -0.021 C 
HETATM   17  C15 UNL     1       0.732  33.261  24.709  1.00  0.00    -0.011 C 
BRANCH  17  18
HETATM   18  C16 UNL     1      -0.357  34.042  24.079  1.00  0.00     0.059 C 
HETATM   19  C17 UNL     1      -0.477  33.811  22.602  1.00  0.00     0.031 C 
HETATM   20  C18 UNL     1      -0.126  35.539  24.322  1.00  0.00     0.031 C 
BRANCH  18  21
HETATM   21  C19 UNL     1      -1.637  33.719  24.782  1.00  0.00     0.185 C 
HETATM   22  O2  UNL     1      -2.750  34.094  24.332  1.00  0.00    -0.647 OA
HETATM   23  O3  UNL     1      -1.633  32.988  25.961  1.00  0.00    -0.647 OA
ENDBRANCH  18  21
ENDBRANCH  17  18
ENDBRANCH   9  16
BRANCH  12  24
HETATM   24  O4  UNL     1       4.408  29.088  24.544  1.00  0.00    -0.393 OA
ATOM     25  H4  UNL     1       4.859  28.561  25.192  1.00  0.00     0.210 HD
ENDBRANCH  12  24
BRANCH   1  26
HETATM   26  C5  UNL     1       7.839  32.468  23.975  1.00  0.00     0.018 C 
BRANCH  26  27
HETATM   27  C4  UNL     1       9.240  32.908  23.951  1.00  0.00     0.005 C 
BRANCH  27  28
HETATM   28  C2  UNL     1       9.986  31.943  22.991  1.00  0.00    -0.023 C 
HETATM   29  C1  UNL     1       9.146  30.671  22.883  1.00  0.00     0.009 C 
HETATM   30  C3  UNL     1      11.313  31.561  23.558  1.00  0.00     0.009 C 
ENDBRANCH  27  28
ENDBRANCH  26  27
ENDBRANCH   1  26
TORSDOF 7
ENDMDL
