MODEL 1
REMARK VINA RESULT: -8.604358363      0.000      0.000
REMARK  8 active torsions:
REMARK  status: ('A' for Active; 'I' for Inactive)
REMARK    1  A    between atoms: C2_2  and  C3_3 
REMARK    2  A    between atoms: C3_3  and  C5_5 
REMARK    3  A    between atoms: C7_9  and  N2_10 
REMARK    4  A    between atoms: N2_10  and  C8_12 
REMARK    5  A    between atoms: C8_12  and  O1_13 
REMARK    6  A    between atoms: C8_12  and  C9_15 
REMARK    7  A    between atoms: C9_15  and  C10_16 
REMARK    8  A    between atoms: C18_25  and  C19_26 
ROOT
HETATM    1  N2  UNL     1      67.650  34.687  25.053  1.00  0.00    -0.322 N 
ATOM      2  H2  UNL     1      67.459  35.271  25.867  1.00  0.00     0.169 HD
ENDROOT
BRANCH   1   3
HETATM    3  C7  UNL     1      68.664  33.656  25.128  1.00  0.00     0.124 A 
HETATM    4  N1  UNL     1      69.805  33.816  24.397  1.00  0.00    -0.351 N 
HETATM    5  C6  UNL     1      70.788  32.906  24.414  1.00  0.00     0.097 A 
ATOM      6  H1  UNL     1      69.912  34.651  23.821  1.00  0.00     0.166 HD
HETATM    7  C5  UNL     1      70.696  31.756  25.177  1.00  0.00    -0.038 A 
HETATM    8  C20 UNL     1      69.566  31.567  25.920  1.00  0.00     0.031 A 
HETATM    9  C18 UNL     1      68.535  32.544  25.888  1.00  0.00     0.085 A 
BRANCH   7  10
HETATM   10  C3  UNL     1      71.789  30.761  25.186  1.00  0.00     0.015 C 
HETATM   11  C4  UNL     1      73.162  31.430  25.223  1.00  0.00     0.015 C 
BRANCH  10  12
HETATM   12  C2  UNL     1      71.701  29.839  24.000  1.00  0.00     0.004 C 
HETATM   13  C1  UNL     1      73.012  29.734  23.293  1.00  0.00     0.006 C 
ENDBRANCH  10  12
ENDBRANCH   7  10
BRANCH   9  14
HETATM   14  C19 UNL     1      67.371  32.282  26.696  1.00  0.00     0.213 C 
HETATM   15  O2  UNL     1      67.291  32.044  27.911  1.00  0.00    -0.644 OA
HETATM   16  O3  UNL     1      66.091  32.283  26.063  1.00  0.00    -0.644 OA
ENDBRANCH   9  14
ENDBRANCH   1   3
BRANCH   1  17
HETATM   17  C8  UNL     1      66.933  34.886  23.874  1.00  0.00     0.141 C 
BRANCH  17  18
HETATM   18  O1  UNL     1      66.337  33.828  23.393  1.00  0.00    -0.346 OA
ATOM     19  H1  UNL     1      65.445  33.692  23.688  1.00  0.00     0.219 HD
ENDBRANCH  17  18
BRANCH  17  20
HETATM   20  C9  UNL     1      66.753  36.063  23.124  1.00  0.00     0.060 C 
BRANCH  20  21
HETATM   21  C10 UNL     1      67.559  37.053  22.863  1.00  0.00    -0.057 C 
HETATM   22  C11 UNL     1      68.658  37.147  21.917  1.00  0.00     0.087 C 
HETATM   23 BR1  UNL     1      68.097  37.636  20.125  1.00  0.00    -0.086 Br
HETATM   24  C12 UNL     1      69.571  38.303  22.380  1.00  0.00     0.021 C 
HETATM   25  C13 UNL     1      68.838  39.596  22.265  1.00  0.00     0.006 C 
HETATM   26  C14 UNL     1      67.514  39.569  22.991  1.00  0.00    -0.011 C 
HETATM   27  C15 UNL     1      66.337  39.896  22.112  1.00  0.00     0.010 C 
HETATM   28  C16 UNL     1      67.264  38.296  23.712  1.00  0.00     0.015 C 
HETATM   29  C17 UNL     1      67.903  38.212  25.055  1.00  0.00     0.015 C 
ENDBRANCH  20  21
ENDBRANCH  17  20
ENDBRANCH   1  17
TORSDOF 8
ENDMDL
MODEL 2
REMARK VINA RESULT: -8.552511881      1.152      2.028
REMARK  8 active torsions:
REMARK  status: ('A' for Active; 'I' for Inactive)
REMARK    1  A    between atoms: C2_2  and  C3_3 
REMARK    2  A    between atoms: C3_3  and  C5_5 
REMARK    3  A    between atoms: C7_9  and  N2_10 
REMARK    4  A    between atoms: N2_10  and  C8_12 
REMARK    5  A    between atoms: C8_12  and  O1_13 
REMARK    6  A    between atoms: C8_12  and  C9_15 
REMARK    7  A    between atoms: C9_15  and  C10_16 
REMARK    8  A    between atoms: C18_25  and  C19_26 
ROOT
HETATM    1  N2  UNL     1      67.994  34.737  24.942  1.00  0.00    -0.322 N 
ATOM      2  H2  UNL     1      67.887  35.411  25.700  1.00  0.00     0.169 HD
ENDROOT
BRANCH   1   3
HETATM    3  C7  UNL     1      68.980  33.682  25.050  1.00  0.00     0.124 A 
HETATM    4  N1  UNL     1      70.142  33.807  24.347  1.00  0.00    -0.351 N 
HETATM    5  C6  UNL     1      71.102  32.874  24.396  1.00  0.00     0.097 A 
ATOM      6  H1  UNL     1      70.284  34.635  23.767  1.00  0.00     0.166 HD
HETATM    7  C5  UNL     1      70.962  31.733  25.166  1.00  0.00    -0.038 A 
HETATM    8  C20 UNL     1      69.810  31.579  25.881  1.00  0.00     0.031 A 
HETATM    9  C18 UNL     1      68.805  32.580  25.816  1.00  0.00     0.085 A 
BRANCH   7  10
HETATM   10  C3  UNL     1      72.030  30.711  25.210  1.00  0.00     0.015 C 
HETATM   11  C4  UNL     1      73.420  31.345  25.173  1.00  0.00     0.015 C 
BRANCH  10  12
HETATM   12  C2  UNL     1      71.888  29.721  24.085  1.00  0.00     0.004 C 
HETATM   13  C1  UNL     1      73.050  29.791  23.149  1.00  0.00     0.006 C 
ENDBRANCH  10  12
ENDBRANCH   7  10
BRANCH   9  14
HETATM   14  C19 UNL     1      67.615  32.354  26.596  1.00  0.00     0.213 C 
HETATM   15  O2  UNL     1      66.435  32.256  26.226  1.00  0.00    -0.644 OA
HETATM   16  O3  UNL     1      67.747  32.211  28.010  1.00  0.00    -0.644 OA
ENDBRANCH   9  14
ENDBRANCH   1   3
BRANCH   1  17
HETATM   17  C8  UNL     1      67.190  34.837  23.808  1.00  0.00     0.141 C 
BRANCH  17  18
HETATM   18  O1  UNL     1      66.200  33.988  23.745  1.00  0.00    -0.346 OA
ATOM     19  H1  UNL     1      65.806  33.881  22.887  1.00  0.00     0.219 HD
ENDBRANCH  17  18
BRANCH  17  20
HETATM   20  C9  UNL     1      67.286  35.720  22.717  1.00  0.00     0.060 C 
BRANCH  20  21
HETATM   21  C10 UNL     1      67.435  37.013  22.663  1.00  0.00    -0.057 C 
HETATM   22  C11 UNL     1      66.921  38.057  23.535  1.00  0.00     0.087 C 
HETATM   23 BR1  UNL     1      68.031  38.381  25.093  1.00  0.00    -0.086 Br
HETATM   24  C12 UNL     1      66.949  39.381  22.741  1.00  0.00     0.021 C 
HETATM   25  C13 UNL     1      68.362  39.763  22.456  1.00  0.00     0.006 C 
HETATM   26  C14 UNL     1      69.128  38.654  21.775  1.00  0.00    -0.011 C 
HETATM   27  C15 UNL     1      70.371  38.237  22.513  1.00  0.00     0.010 C 
HETATM   28  C16 UNL     1      68.297  37.462  21.476  1.00  0.00     0.015 C 
HETATM   29  C17 UNL     1      67.498  37.564  20.222  1.00  0.00     0.015 C 
ENDBRANCH  20  21
ENDBRANCH  17  20
ENDBRANCH   1  17
TORSDOF 8
ENDMDL
MODEL 3
REMARK VINA RESULT: -8.466330522      1.939      6.821
REMARK  8 active torsions:
REMARK  status: ('A' for Active; 'I' for Inactive)
REMARK    1  A    between atoms: C2_2  and  C3_3 
REMARK    2  A    between atoms: C3_3  and  C5_5 
REMARK    3  A    between atoms: C7_9  and  N2_10 
REMARK    4  A    between atoms: N2_10  and  C8_12 
REMARK    5  A    between atoms: C8_12  and  O1_13 
REMARK    6  A    between atoms: C8_12  and  C9_15 
REMARK    7  A    between atoms: C9_15  and  C10_16 
REMARK    8  A    between atoms: C18_25  and  C19_26 
ROOT
HETATM    1  N2  UNL     1      68.240  33.349  26.200  1.00  0.00    -0.322 N 
ATOM      2  H2  UNL     1      67.864  33.349  27.148  1.00  0.00     0.169 HD
ENDROOT
BRANCH   1   3
HETATM    3  C7  UNL     1      68.026  34.495  25.341  1.00  0.00     0.124 A 
HETATM    4  N1  UNL     1      69.037  35.400  25.206  1.00  0.00    -0.351 N 
HETATM    5  C6  UNL     1      68.915  36.485  24.429  1.00  0.00     0.097 A 
ATOM      6  H1  UNL     1      69.910  35.247  25.710  1.00  0.00     0.166 HD
HETATM    7  C5  UNL     1      67.754  36.742  23.722  1.00  0.00    -0.038 A 
HETATM    8  C20 UNL     1      66.723  35.854  23.837  1.00  0.00     0.031 A 
HETATM    9  C18 UNL     1      66.872  34.709  24.666  1.00  0.00     0.085 A 
BRANCH   7  10
HETATM   10  C3  UNL     1      67.634  37.943  22.869  1.00  0.00     0.015 C 
HETATM   11  C4  UNL     1      67.089  39.139  23.651  1.00  0.00     0.015 C 
BRANCH  10  12
HETATM   12  C2  UNL     1      66.766  37.679  21.668  1.00  0.00     0.004 C 
HETATM   13  C1  UNL     1      67.588  37.357  20.464  1.00  0.00     0.006 C 
ENDBRANCH  10  12
ENDBRANCH   7  10
BRANCH   9  14
HETATM   14  C19 UNL     1      65.747  33.814  24.741  1.00  0.00     0.213 C 
HETATM   15  O2  UNL     1      65.503  32.920  25.565  1.00  0.00    -0.644 OA
HETATM   16  O3  UNL     1      64.725  33.923  23.749  1.00  0.00    -0.644 OA
ENDBRANCH   9  14
ENDBRANCH   1   3
BRANCH   1  17
HETATM   17  C8  UNL     1      68.956  32.246  25.739  1.00  0.00     0.141 C 
BRANCH  17  18
HETATM   18  O1  UNL     1      68.256  31.350  25.096  1.00  0.00    -0.346 OA
ATOM     19  H1  UNL     1      68.577  30.458  25.159  1.00  0.00     0.219 HD
ENDBRANCH  17  18
BRANCH  17  20
HETATM   20  C9  UNL     1      70.327  31.954  25.862  1.00  0.00     0.060 C 
BRANCH  20  21
HETATM   21  C10 UNL     1      71.317  32.087  25.026  1.00  0.00    -0.057 C 
HETATM   22  C11 UNL     1      71.524  33.050  23.957  1.00  0.00     0.087 C 
HETATM   23 BR1  UNL     1      72.312  34.717  24.558  1.00  0.00    -0.086 Br
HETATM   24  C12 UNL     1      72.558  32.446  22.982  1.00  0.00     0.021 C 
HETATM   25  C13 UNL     1      73.877  32.325  23.665  1.00  0.00     0.006 C 
HETATM   26  C14 UNL     1      73.780  31.560  24.964  1.00  0.00    -0.011 C 
HETATM   27  C15 UNL     1      74.285  32.328  26.156  1.00  0.00     0.010 C 
HETATM   28  C16 UNL     1      72.418  31.041  25.241  1.00  0.00     0.015 C 
HETATM   29  C17 UNL     1      72.098  29.755  24.560  1.00  0.00     0.015 C 
ENDBRANCH  20  21
ENDBRANCH  17  20
ENDBRANCH   1  17
TORSDOF 8
ENDMDL
MODEL 4
REMARK VINA RESULT: -8.444596647      4.238      5.410
REMARK  8 active torsions:
REMARK  status: ('A' for Active; 'I' for Inactive)
REMARK    1  A    between atoms: C2_2  and  C3_3 
REMARK    2  A    between atoms: C3_3  and  C5_5 
REMARK    3  A    between atoms: C7_9  and  N2_10 
REMARK    4  A    between atoms: N2_10  and  C8_12 
REMARK    5  A    between atoms: C8_12  and  O1_13 
REMARK    6  A    between atoms: C8_12  and  C9_15 
REMARK    7  A    between atoms: C9_15  and  C10_16 
REMARK    8  A    between atoms: C18_25  and  C19_26 
ROOT
HETATM    1  N2  UNL     1      73.216  35.627  27.687  1.00  0.00    -0.322 N 
ATOM      2  H2  UNL     1      74.212  35.813  27.797  1.00  0.00     0.169 HD
ENDROOT
BRANCH   1   3
HETATM    3  C7  UNL     1      72.777  34.481  26.917  1.00  0.00     0.124 A 
HETATM    4  N1  UNL     1      71.442  34.203  26.875  1.00  0.00    -0.351 N 
HETATM    5  C6  UNL     1      70.959  33.161  26.185  1.00  0.00     0.097 A 
ATOM      6  H1  UNL     1      70.794  34.804  27.384  1.00  0.00     0.166 HD
HETATM    7  C5  UNL     1      71.793  32.314  25.477  1.00  0.00    -0.038 A 
HETATM    8  C20 UNL     1      73.134  32.567  25.500  1.00  0.00     0.031 A 
HETATM    9  C18 UNL     1      73.626  33.677  26.237  1.00  0.00     0.085 A 
BRANCH   7  10
HETATM   10  C3  UNL     1      71.245  31.168  24.720  1.00  0.00     0.015 C 
HETATM   11  C4  UNL     1      69.850  30.783  25.209  1.00  0.00     0.015 C 
BRANCH  10  12
HETATM   12  C2  UNL     1      72.161  29.976  24.791  1.00  0.00     0.004 C 
HETATM   13  C1  UNL     1      72.585  29.533  23.430  1.00  0.00     0.006 C 
ENDBRANCH  10  12
ENDBRANCH   7  10
BRANCH   9  14
HETATM   14  C19 UNL     1      75.051  33.886  26.218  1.00  0.00     0.213 C 
HETATM   15  O2  UNL     1      75.720  34.812  26.701  1.00  0.00    -0.644 OA
HETATM   16  O3  UNL     1      75.871  32.918  25.562  1.00  0.00    -0.644 OA
ENDBRANCH   9  14
ENDBRANCH   1   3
BRANCH   1  17
HETATM   17  C8  UNL     1      72.284  36.477  28.280  1.00  0.00     0.141 C 
BRANCH  17  18
HETATM   18  O1  UNL     1      71.956  36.183  29.510  1.00  0.00    -0.346 OA
ATOM     19  H1  UNL     1      71.119  35.749  29.617  1.00  0.00     0.219 HD
ENDBRANCH  17  18
BRANCH  17  20
HETATM   20  C9  UNL     1      71.641  37.610  27.748  1.00  0.00     0.060 C 
BRANCH  20  21
HETATM   21  C10 UNL     1      71.635  38.117  26.548  1.00  0.00    -0.057 C 
HETATM   22  C11 UNL     1      72.607  38.966  25.880  1.00  0.00     0.087 C 
HETATM   23 BR1  UNL     1      74.049  37.978  25.039  1.00  0.00    -0.086 Br
HETATM   24  C12 UNL     1      71.880  39.680  24.719  1.00  0.00     0.021 C 
HETATM   25  C13 UNL     1      71.463  38.676  23.699  1.00  0.00     0.006 C 
HETATM   26  C14 UNL     1      70.649  37.554  24.299  1.00  0.00    -0.011 C 
HETATM   27  C15 UNL     1      71.226  36.188  24.047  1.00  0.00     0.010 C 
HETATM   28  C16 UNL     1      70.384  37.729  25.748  1.00  0.00     0.015 C 
HETATM   29  C17 UNL     1      69.231  38.619  26.063  1.00  0.00     0.015 C 
ENDBRANCH  20  21
ENDBRANCH  17  20
ENDBRANCH   1  17
TORSDOF 8
ENDMDL
MODEL 5
REMARK VINA RESULT: -8.411827610      2.296      3.073
REMARK  8 active torsions:
REMARK  status: ('A' for Active; 'I' for Inactive)
REMARK    1  A    between atoms: C2_2  and  C3_3 
REMARK    2  A    between atoms: C3_3  and  C5_5 
REMARK    3  A    between atoms: C7_9  and  N2_10 
REMARK    4  A    between atoms: N2_10  and  C8_12 
REMARK    5  A    between atoms: C8_12  and  O1_13 
REMARK    6  A    between atoms: C8_12  and  C9_15 
REMARK    7  A    between atoms: C9_15  and  C10_16 
REMARK    8  A    between atoms: C18_25  and  C19_26 
ROOT
HETATM    1  N2  UNL     1      68.535  34.259  25.721  1.00  0.00    -0.322 N 
ATOM      2  H2  UNL     1      68.772  35.048  26.323  1.00  0.00     0.169 HD
ENDROOT
BRANCH   1   3
HETATM    3  C7  UNL     1      69.496  33.194  25.517  1.00  0.00     0.124 A 
HETATM    4  N1  UNL     1      69.027  31.948  25.223  1.00  0.00    -0.351 N 
HETATM    5  C6  UNL     1      69.853  30.912  25.021  1.00  0.00     0.097 A 
ATOM      6  H1  UNL     1      68.020  31.799  25.156  1.00  0.00     0.166 HD
HETATM    7  C5  UNL     1      71.226  31.057  25.099  1.00  0.00    -0.038 A 
HETATM    8  C20 UNL     1      71.726  32.293  25.391  1.00  0.00     0.031 A 
HETATM    9  C18 UNL     1      70.834  33.378  25.602  1.00  0.00     0.085 A 
BRANCH   7  10
HETATM   10  C3  UNL     1      72.125  29.905  24.874  1.00  0.00     0.015 C 
HETATM   11  C4  UNL     1      73.586  30.269  25.135  1.00  0.00     0.015 C 
BRANCH  10  12
HETATM   12  C2  UNL     1      71.975  29.357  23.480  1.00  0.00     0.004 C 
HETATM   13  C1  UNL     1      72.998  29.931  22.556  1.00  0.00     0.006 C 
ENDBRANCH  10  12
ENDBRANCH   7  10
BRANCH   9  14
HETATM   14  C19 UNL     1      71.428  34.654  25.906  1.00  0.00     0.213 C 
HETATM   15  O2  UNL     1      71.139  35.468  26.797  1.00  0.00    -0.644 OA
HETATM   16  O3  UNL     1      72.517  35.106  25.101  1.00  0.00    -0.644 OA
ENDBRANCH   9  14
ENDBRANCH   1   3
BRANCH   1  17
HETATM   17  C8  UNL     1      67.288  34.212  25.100  1.00  0.00     0.141 C 
BRANCH  17  18
HETATM   18  O1  UNL     1      66.537  33.194  25.423  1.00  0.00    -0.346 OA
ATOM     19  H1  UNL     1      66.962  32.520  25.941  1.00  0.00     0.219 HD
ENDBRANCH  17  18
BRANCH  17  20
HETATM   20  C9  UNL     1      66.716  35.103  24.173  1.00  0.00     0.060 C 
BRANCH  20  21
HETATM   21  C10 UNL     1      67.079  36.289  23.778  1.00  0.00    -0.057 C 
HETATM   22  C11 UNL     1      66.951  37.580  24.434  1.00  0.00     0.087 C 
HETATM   23 BR1  UNL     1      68.397  37.970  25.666  1.00  0.00    -0.086 Br
HETATM   24  C12 UNL     1      67.051  38.668  23.342  1.00  0.00     0.021 C 
HETATM   25  C13 UNL     1      68.419  38.658  22.751  1.00  0.00     0.006 C 
HETATM   26  C14 UNL     1      68.818  37.289  22.253  1.00  0.00    -0.011 C 
HETATM   27  C15 UNL     1      70.092  36.772  22.864  1.00  0.00     0.010 C 
HETATM   28  C16 UNL     1      67.744  36.276  22.395  1.00  0.00     0.015 C 
HETATM   29  C17 UNL     1      66.735  36.287  21.298  1.00  0.00     0.015 C 
ENDBRANCH  20  21
ENDBRANCH  17  20
ENDBRANCH   1  17
TORSDOF 8
ENDMDL
