MODEL 1
REMARK VINA RESULT: -7.971068960      0.000      0.000
REMARK  5 active torsions:
REMARK  status: ('A' for Active; 'I' for Inactive)
REMARK    1  A    between atoms: C2_2  and  O1_3 
REMARK    2  A    between atoms: O1_3  and  C3_4 
REMARK    3  A    between atoms: C5_6  and  N1_7 
REMARK    4  A    between atoms: C14_17  and  C15_18 
REMARK       I    between atoms: C15_18  and  N2_20 
REMARK    5  A    between atoms: N2_20  and  C16_22 
ROOT
HETATM    1  C3  UNL     1      70.932  35.772  23.907  1.00  0.00     0.086 A 
HETATM    2  C4  UNL     1      71.594  34.573  24.024  1.00  0.00     0.069 A 
HETATM    3  C5  UNL     1      70.944  33.358  24.339  1.00  0.00     0.054 A 
HETATM    4  C12 UNL     1      69.589  33.397  24.534  1.00  0.00     0.061 A 
HETATM    5 CL1  UNL     1      68.692  31.934  25.002  1.00  0.00    -0.082 Cl
HETATM    6  C13 UNL     1      68.932  34.592  24.414  1.00  0.00     0.046 A 
HETATM    7  C14 UNL     1      69.568  35.791  24.105  1.00  0.00     0.067 A 
ENDROOT
BRANCH   7   8
HETATM    8  C15 UNL     1      68.837  37.029  24.111  1.00  0.00     0.254 C 
HETATM    9  O2  UNL     1      67.821  37.065  24.915  1.00  0.00    -0.268 OA
HETATM   10  N2  UNL     1      69.043  38.174  23.381  1.00  0.00    -0.351 N 
ATOM     11  H2  UNL     1      69.853  38.205  22.761  1.00  0.00     0.163 HD
BRANCH  10  12
HETATM   12  C16 UNL     1      68.180  39.350  23.431  1.00  0.00     0.093 C 
HETATM   13  C17 UNL     1      67.484  39.637  22.138  1.00  0.00     0.013 C 
HETATM   14  C18 UNL     1      66.350  40.581  22.465  1.00  0.00     0.039 C 
HETATM   15  C24 UNL     1      68.355  40.389  21.136  1.00  0.00     0.039 C 
HETATM   16  C19 UNL     1      66.967  41.843  23.074  1.00  0.00     0.187 C 
HETATM   17  C20 UNL     1      67.742  41.522  24.338  1.00  0.00     0.039 C 
HETATM   18  N3  UNL     1      67.792  42.527  22.123  1.00  0.00    -0.067 N 
HETATM   19  C21 UNL     1      68.902  40.591  23.932  1.00  0.00     0.013 C 
HETATM   20  C22 UNL     1      69.709  41.305  22.922  1.00  0.00     0.039 C 
HETATM   21  C23 UNL     1      68.871  41.663  21.713  1.00  0.00     0.187 C 
ATOM     22  H32 UNL     1      67.256  42.877  21.329  1.00  0.00     0.278 HD
ATOM     23  H31 UNL     1      68.128  43.422  22.478  1.00  0.00     0.278 HD
ENDBRANCH  10  12
ENDBRANCH   7   8
BRANCH   1  24
HETATM   24  O1  UNL     1      71.639  36.921  23.588  1.00  0.00    -0.350 OA
BRANCH  24  25
HETATM   25  C2  UNL     1      72.564  37.613  24.344  1.00  0.00     0.171 C 
HETATM   26  C1  UNL     1      72.008  38.231  25.605  1.00  0.00     0.034 C 
ENDBRANCH  24  25
ENDBRANCH   1  24
BRANCH   3  27
HETATM   27  N1  UNL     1      71.703  32.184  24.416  1.00  0.00    -0.379 N 
HETATM   28  C6  UNL     1      72.268  31.785  25.674  1.00  0.00     0.123 C 
HETATM   29  C7  UNL     1      73.657  31.194  25.464  1.00  0.00     0.020 C 
HETATM   30  C8  UNL     1      73.647  29.848  24.819  1.00  0.00     0.002 C 
HETATM   31  C9  UNL     1      72.321  29.238  24.560  1.00  0.00     0.002 C 
HETATM   32  C10 UNL     1      71.379  29.970  23.682  1.00  0.00     0.020 C 
HETATM   33  C11 UNL     1      71.849  31.336  23.214  1.00  0.00     0.123 C 
ENDBRANCH   3  27
TORSDOF 5
ENDMDL
MODEL 2
REMARK VINA RESULT: -7.785713804      0.332      1.153
REMARK  5 active torsions:
REMARK  status: ('A' for Active; 'I' for Inactive)
REMARK    1  A    between atoms: C2_2  and  O1_3 
REMARK    2  A    between atoms: O1_3  and  C3_4 
REMARK    3  A    between atoms: C5_6  and  N1_7 
REMARK    4  A    between atoms: C14_17  and  C15_18 
REMARK       I    between atoms: C15_18  and  N2_20 
REMARK    5  A    between atoms: N2_20  and  C16_22 
ROOT
HETATM    1  C3  UNL     1      70.864  35.795  23.987  1.00  0.00     0.086 A 
HETATM    2  C4  UNL     1      71.446  34.558  24.119  1.00  0.00     0.069 A 
HETATM    3  C5  UNL     1      70.714  33.386  24.413  1.00  0.00     0.054 A 
HETATM    4  C12 UNL     1      69.359  33.509  24.574  1.00  0.00     0.061 A 
HETATM    5 CL1  UNL     1      68.361  32.105  25.016  1.00  0.00    -0.082 Cl
HETATM    6  C13 UNL     1      68.782  34.742  24.439  1.00  0.00     0.046 A 
HETATM    7  C14 UNL     1      69.499  35.900  24.150  1.00  0.00     0.067 A 
ENDROOT
BRANCH   7   8
HETATM    8  C15 UNL     1      68.847  37.181  24.139  1.00  0.00     0.254 C 
HETATM    9  O2  UNL     1      67.673  37.206  24.688  1.00  0.00    -0.268 OA
HETATM   10  N2  UNL     1      69.274  38.380  23.620  1.00  0.00    -0.351 N 
ATOM     11  H2  UNL     1      70.208  38.417  23.211  1.00  0.00     0.163 HD
BRANCH  10  12
HETATM   12  C16 UNL     1      68.480  39.605  23.615  1.00  0.00     0.093 C 
HETATM   13  C17 UNL     1      67.710  39.813  22.349  1.00  0.00     0.013 C 
HETATM   14  C18 UNL     1      66.654  40.849  22.658  1.00  0.00     0.039 C 
HETATM   15  C24 UNL     1      68.547  40.417  21.225  1.00  0.00     0.039 C 
HETATM   16  C19 UNL     1      67.379  42.122  23.103  1.00  0.00     0.187 C 
HETATM   17  C20 UNL     1      68.223  41.872  24.338  1.00  0.00     0.039 C 
HETATM   18  N3  UNL     1      68.169  42.666  22.039  1.00  0.00    -0.067 N 
HETATM   19  C21 UNL     1      69.301  40.841  23.947  1.00  0.00     0.013 C 
HETATM   20  C22 UNL     1      70.071  41.411  22.823  1.00  0.00     0.039 C 
HETATM   21  C23 UNL     1      69.170  41.705  21.644  1.00  0.00     0.187 C 
ATOM     22  H32 UNL     1      67.597  42.973  21.252  1.00  0.00     0.278 HD
ATOM     23  H31 UNL     1      68.577  43.568  22.284  1.00  0.00     0.278 HD
ENDBRANCH  10  12
ENDBRANCH   7   8
BRANCH   1  24
HETATM   24  O1  UNL     1      71.649  36.899  23.689  1.00  0.00    -0.350 OA
BRANCH  24  25
HETATM   25  C2  UNL     1      72.626  37.506  24.454  1.00  0.00     0.171 C 
HETATM   26  C1  UNL     1      72.157  37.975  25.810  1.00  0.00     0.034 C 
ENDBRANCH  24  25
ENDBRANCH   1  24
BRANCH   3  27
HETATM   27  N1  UNL     1      71.395  32.167  24.508  1.00  0.00    -0.379 N 
HETATM   28  C6  UNL     1      71.512  31.326  23.350  1.00  0.00     0.123 C 
HETATM   29  C7  UNL     1      71.376  29.861  23.746  1.00  0.00     0.020 C 
HETATM   30  C8  UNL     1      72.552  29.327  24.493  1.00  0.00     0.002 C 
HETATM   31  C9  UNL     1      73.707  30.240  24.667  1.00  0.00     0.002 C 
HETATM   32  C10 UNL     1      73.483  31.517  25.383  1.00  0.00     0.020 C 
HETATM   33  C11 UNL     1      72.045  31.798  25.784  1.00  0.00     0.123 C 
ENDBRANCH   3  27
TORSDOF 5
ENDMDL
MODEL 3
REMARK VINA RESULT: -7.697136291      1.483      2.480
REMARK  5 active torsions:
REMARK  status: ('A' for Active; 'I' for Inactive)
REMARK    1  A    between atoms: C2_2  and  O1_3 
REMARK    2  A    between atoms: O1_3  and  C3_4 
REMARK    3  A    between atoms: C5_6  and  N1_7 
REMARK    4  A    between atoms: C14_17  and  C15_18 
REMARK       I    between atoms: C15_18  and  N2_20 
REMARK    5  A    between atoms: N2_20  and  C16_22 
ROOT
HETATM    1  C3  UNL     1      69.167  34.971  24.387  1.00  0.00     0.086 A 
HETATM    2  C4  UNL     1      69.858  33.784  24.345  1.00  0.00     0.069 A 
HETATM    3  C5  UNL     1      71.255  33.695  24.540  1.00  0.00     0.054 A 
HETATM    4  C12 UNL     1      71.936  34.859  24.780  1.00  0.00     0.061 A 
HETATM    5 CL1  UNL     1      73.705  34.859  24.969  1.00  0.00    -0.082 Cl
HETATM    6  C13 UNL     1      71.245  36.039  24.825  1.00  0.00     0.046 A 
HETATM    7  C14 UNL     1      69.869  36.132  24.632  1.00  0.00     0.067 A 
ENDROOT
BRANCH   7   8
HETATM    8  C15 UNL     1      69.224  37.416  24.575  1.00  0.00     0.254 C 
HETATM    9  O2  UNL     1      68.565  37.749  25.640  1.00  0.00    -0.268 OA
HETATM   10  N2  UNL     1      69.187  38.335  23.554  1.00  0.00    -0.351 N 
ATOM     11  H2  UNL     1      69.722  38.131  22.709  1.00  0.00     0.163 HD
BRANCH  10  12
HETATM   12  C16 UNL     1      68.433  39.584  23.597  1.00  0.00     0.093 C 
HETATM   13  C17 UNL     1      67.647  39.851  22.352  1.00  0.00     0.013 C 
HETATM   14  C18 UNL     1      66.631  40.911  22.711  1.00  0.00     0.039 C 
HETATM   15  C24 UNL     1      68.481  40.458  21.229  1.00  0.00     0.039 C 
HETATM   16  C19 UNL     1      67.405  42.148  23.174  1.00  0.00     0.187 C 
HETATM   17  C20 UNL     1      68.264  41.838  24.385  1.00  0.00     0.039 C 
HETATM   18  N3  UNL     1      68.192  42.695  22.109  1.00  0.00    -0.067 N 
HETATM   19  C21 UNL     1      69.300  40.784  23.946  1.00  0.00     0.013 C 
HETATM   20  C22 UNL     1      70.067  41.359  22.822  1.00  0.00     0.039 C 
HETATM   21  C23 UNL     1      69.153  41.715  21.669  1.00  0.00     0.187 C 
ATOM     22  H32 UNL     1      67.616  43.042  21.343  1.00  0.00     0.278 HD
ATOM     23  H31 UNL     1      68.633  43.577  22.371  1.00  0.00     0.278 HD
ENDBRANCH  10  12
ENDBRANCH   7   8
BRANCH   1  24
HETATM   24  O1  UNL     1      67.794  34.977  24.193  1.00  0.00    -0.350 OA
BRANCH  24  25
HETATM   25  C2  UNL     1      66.930  33.910  24.044  1.00  0.00     0.171 C 
HETATM   26  C1  UNL     1      65.765  33.909  25.005  1.00  0.00     0.034 C 
ENDBRANCH  24  25
ENDBRANCH   1  24
BRANCH   3  27
HETATM   27  N1  UNL     1      71.866  32.436  24.498  1.00  0.00    -0.379 N 
HETATM   28  C6  UNL     1      72.410  31.870  25.700  1.00  0.00     0.123 C 
HETATM   29  C7  UNL     1      73.711  31.137  25.395  1.00  0.00     0.020 C 
HETATM   30  C8  UNL     1      73.521  29.859  24.647  1.00  0.00     0.002 C 
HETATM   31  C9  UNL     1      72.125  29.436  24.386  1.00  0.00     0.002 C 
HETATM   32  C10 UNL     1      71.257  30.345  23.603  1.00  0.00     0.020 C 
HETATM   33  C11 UNL     1      71.878  31.680  23.228  1.00  0.00     0.123 C 
ENDBRANCH   3  27
TORSDOF 5
ENDMDL
MODEL 4
REMARK VINA RESULT: -7.272824871      1.970      8.937
REMARK  5 active torsions:
REMARK  status: ('A' for Active; 'I' for Inactive)
REMARK    1  A    between atoms: C2_2  and  O1_3 
REMARK    2  A    between atoms: O1_3  and  C3_4 
REMARK    3  A    between atoms: C5_6  and  N1_7 
REMARK    4  A    between atoms: C14_17  and  C15_18 
REMARK       I    between atoms: C15_18  and  N2_20 
REMARK    5  A    between atoms: N2_20  and  C16_22 
ROOT
HETATM    1  C3  UNL     1      71.293  37.424  24.213  1.00  0.00     0.086 A 
HETATM    2  C4  UNL     1      70.817  38.631  23.762  1.00  0.00     0.069 A 
HETATM    3  C5  UNL     1      69.440  38.916  23.621  1.00  0.00     0.054 A 
HETATM    4  C12 UNL     1      68.552  37.928  23.954  1.00  0.00     0.061 A 
HETATM    5 CL1  UNL     1      66.801  38.166  23.744  1.00  0.00    -0.082 Cl
HETATM    6  C13 UNL     1      69.028  36.727  24.405  1.00  0.00     0.046 A 
HETATM    7  C14 UNL     1      70.384  36.442  24.545  1.00  0.00     0.067 A 
ENDROOT
BRANCH   7   8
HETATM    8  C15 UNL     1      70.819  35.121  24.912  1.00  0.00     0.254 C 
HETATM    9  O2  UNL     1      70.467  34.735  26.098  1.00  0.00    -0.268 OA
HETATM   10  N2  UNL     1      71.566  34.214  24.200  1.00  0.00    -0.351 N 
ATOM     11  H2  UNL     1      71.835  34.460  23.247  1.00  0.00     0.163 HD
BRANCH  10  12
HETATM   12  C16 UNL     1      72.001  32.920  24.718  1.00  0.00     0.093 C 
HETATM   13  C17 UNL     1      73.473  32.688  24.585  1.00  0.00     0.013 C 
HETATM   14  C18 UNL     1      73.809  31.545  25.516  1.00  0.00     0.039 C 
HETATM   15  C24 UNL     1      73.888  32.210  23.197  1.00  0.00     0.039 C 
HETATM   16  C19 UNL     1      72.996  30.331  25.060  1.00  0.00     0.187 C 
HETATM   17  C20 UNL     1      71.507  30.612  25.117  1.00  0.00     0.039 C 
HETATM   18  N3  UNL     1      73.390  29.906  23.750  1.00  0.00    -0.067 N 
HETATM   19  C21 UNL     1      71.224  31.755  24.122  1.00  0.00     0.013 C 
HETATM   20  C22 UNL     1      71.679  31.305  22.791  1.00  0.00     0.039 C 
HETATM   21  C23 UNL     1      73.155  30.972  22.808  1.00  0.00     0.187 C 
ATOM     22  H32 UNL     1      74.355  29.576  23.726  1.00  0.00     0.278 HD
ATOM     23  H31 UNL     1      72.932  29.037  23.472  1.00  0.00     0.278 HD
ENDBRANCH  10  12
ENDBRANCH   7   8
BRANCH   1  24
HETATM   24  O1  UNL     1      72.660  37.222  24.331  1.00  0.00    -0.350 OA
BRANCH  24  25
HETATM   25  C2  UNL     1      73.476  37.403  25.430  1.00  0.00     0.171 C 
HETATM   26  C1  UNL     1      74.303  36.196  25.802  1.00  0.00     0.034 C 
ENDBRANCH  24  25
ENDBRANCH   1  24
BRANCH   3  27
HETATM   27  N1  UNL     1      69.053  40.184  23.172  1.00  0.00    -0.379 N 
HETATM   28  C6  UNL     1      68.884  40.419  21.765  1.00  0.00     0.123 C 
HETATM   29  C7  UNL     1      69.389  41.809  21.399  1.00  0.00     0.020 C 
HETATM   30  C8  UNL     1      68.516  42.916  21.887  1.00  0.00     0.002 C 
HETATM   31  C9  UNL     1      67.257  42.527  22.566  1.00  0.00     0.002 C 
HETATM   32  C10 UNL     1      67.354  41.694  23.787  1.00  0.00     0.020 C 
HETATM   33  C11 UNL     1      68.755  41.242  24.161  1.00  0.00     0.123 C 
ENDBRANCH   3  27
TORSDOF 5
ENDMDL
MODEL 5
REMARK VINA RESULT: -7.238823351      2.051      8.911
REMARK  5 active torsions:
REMARK  status: ('A' for Active; 'I' for Inactive)
REMARK    1  A    between atoms: C2_2  and  O1_3 
REMARK    2  A    between atoms: O1_3  and  C3_4 
REMARK    3  A    between atoms: C5_6  and  N1_7 
REMARK    4  A    between atoms: C14_17  and  C15_18 
REMARK       I    between atoms: C15_18  and  N2_20 
REMARK    5  A    between atoms: N2_20  and  C16_22 
ROOT
HETATM    1  C3  UNL     1      70.713  37.396  23.961  1.00  0.00     0.086 A 
HETATM    2  C4  UNL     1      70.342  38.688  23.674  1.00  0.00     0.069 A 
HETATM    3  C5  UNL     1      69.101  39.024  23.089  1.00  0.00     0.054 A 
HETATM    4  C12 UNL     1      68.239  38.000  22.799  1.00  0.00     0.061 A 
HETATM    5 CL1  UNL     1      66.683  38.316  21.997  1.00  0.00    -0.082 Cl
HETATM    6  C13 UNL     1      68.609  36.715  23.088  1.00  0.00     0.046 A 
HETATM    7  C14 UNL     1      69.832  36.378  23.664  1.00  0.00     0.067 A 
ENDROOT
BRANCH   7   8
HETATM    8  C15 UNL     1      70.206  35.000  23.832  1.00  0.00     0.254 C 
HETATM    9  O2  UNL     1      69.279  34.232  24.310  1.00  0.00    -0.268 OA
HETATM   10  N2  UNL     1      71.405  34.378  23.576  1.00  0.00    -0.351 N 
ATOM     11  H2  UNL     1      72.153  34.936  23.165  1.00  0.00     0.163 HD
BRANCH  10  12
HETATM   12  C16 UNL     1      71.679  32.972  23.856  1.00  0.00     0.093 C 
HETATM   13  C17 UNL     1      71.652  32.636  25.314  1.00  0.00     0.013 C 
HETATM   14  C18 UNL     1      71.530  31.133  25.402  1.00  0.00     0.039 C 
HETATM   15  C24 UNL     1      72.951  32.976  26.037  1.00  0.00     0.039 C 
HETATM   16  C19 UNL     1      72.751  30.533  24.700  1.00  0.00     0.187 C 
HETATM   17  C20 UNL     1      72.811  30.954  23.244  1.00  0.00     0.039 C 
HETATM   18  N3  UNL     1      73.962  30.875  25.386  1.00  0.00    -0.067 N 
HETATM   19  C21 UNL     1      72.974  32.487  23.224  1.00  0.00     0.013 C 
HETATM   20  C22 UNL     1      74.205  32.811  23.973  1.00  0.00     0.039 C 
HETATM   21  C23 UNL     1      74.120  32.308  25.398  1.00  0.00     0.187 C 
ATOM     22  H32 UNL     1      73.999  30.475  26.324  1.00  0.00     0.278 HD
ATOM     23  H31 UNL     1      74.774  30.400  24.993  1.00  0.00     0.278 HD
ENDBRANCH  10  12
ENDBRANCH   7   8
BRANCH   1  24
HETATM   24  O1  UNL     1      71.946  37.146  24.543  1.00  0.00    -0.350 OA
BRANCH  24  25
HETATM   25  C2  UNL     1      72.389  37.454  25.813  1.00  0.00     0.171 C 
HETATM   26  C1  UNL     1      71.588  36.822  26.927  1.00  0.00     0.034 C 
ENDBRANCH  24  25
ENDBRANCH   1  24
BRANCH   3  27
HETATM   27  N1  UNL     1      68.805  40.372  22.854  1.00  0.00    -0.379 N 
HETATM   28  C6  UNL     1      68.956  40.912  21.531  1.00  0.00     0.123 C 
HETATM   29  C7  UNL     1      69.510  42.330  21.601  1.00  0.00     0.020 C 
HETATM   30  C8  UNL     1      68.532  43.335  22.111  1.00  0.00     0.002 C 
HETATM   31  C9  UNL     1      67.158  42.853  22.389  1.00  0.00     0.002 C 
HETATM   32  C10 UNL     1      66.989  41.772  23.387  1.00  0.00     0.020 C 
HETATM   33  C11 UNL     1      68.276  41.201  23.957  1.00  0.00     0.123 C 
ENDBRANCH   3  27
TORSDOF 5
ENDMDL
