MODEL 1
REMARK VINA RESULT: -8.440454175      0.000      0.000
REMARK  6 active torsions:
REMARK  status: ('A' for Active; 'I' for Inactive)
REMARK    1  A    between atoms: C2_2  and  C3_3 
REMARK    2  A    between atoms: C8_8  and  C9_9 
REMARK    3  A    between atoms: N1_14  and  C12_15 
REMARK    4  A    between atoms: C12_15  and  C13_16 
REMARK    5  A    between atoms: C13_16  and  C15_18 
REMARK    6  A    between atoms: C25_29  and  O3_30 
ROOT
HETATM    1  C3  UNL     1      68.266  38.139  21.817  1.00  0.00     0.025 C 
HETATM    2  C4  UNL     1      67.636  39.448  22.255  1.00  0.00    -0.012 C 
HETATM    3  C5  UNL     1      66.709  39.993  21.203  1.00  0.00     0.010 C 
HETATM    4  C6  UNL     1      66.990  39.200  23.585  1.00  0.00     0.006 C 
HETATM    5  C7  UNL     1      66.753  37.790  23.952  1.00  0.00     0.024 C 
HETATM    6  C8  UNL     1      67.980  36.867  23.845  1.00  0.00     0.081 C 
HETATM    7  C10 UNL     1      68.430  36.423  25.192  1.00  0.00     0.043 C 
HETATM    8  C11 UNL     1      69.756  36.771  25.704  1.00  0.00     0.123 C 
HETATM    9  N1  UNL     1      70.894  36.271  25.025  1.00  0.00    -0.393 N 
HETATM   10  C23 UNL     1      71.225  36.699  23.763  1.00  0.00     0.061 C 
HETATM   11  C24 UNL     1      70.121  36.682  22.722  1.00  0.00     0.083 C 
HETATM   12  C25 UNL     1      68.981  37.568  22.994  1.00  0.00     0.084 C 
ENDROOT
BRANCH   9  13
HETATM   13  C12 UNL     1      71.974  36.189  25.950  1.00  0.00     0.131 C 
BRANCH  13  14
HETATM   14  C13 UNL     1      71.816  35.041  26.886  1.00  0.00     0.033 C 
HETATM   15  C14 UNL     1      72.774  35.304  28.069  1.00  0.00     0.017 C 
BRANCH  14  16
HETATM   16  C15 UNL     1      72.182  33.711  26.274  1.00  0.00    -0.044 A 
HETATM   17  C16 UNL     1      73.491  33.347  26.039  1.00  0.00     0.051 A 
HETATM   18  C17 UNL     1      73.822  32.096  25.499  1.00  0.00     0.122 A 
HETATM   19  F1  UNL     1      75.122  31.777  25.283  1.00  0.00    -0.206 F 
HETATM   20  C18 UNL     1      72.853  31.173  25.180  1.00  0.00    -0.023 A 
HETATM   21  C19 UNL     1      73.167  29.834  24.598  1.00  0.00     0.051 C 
HETATM   22  C20 UNL     1      71.552  31.541  25.418  1.00  0.00     0.017 A 
HETATM   23  C21 UNL     1      71.212  32.789  25.954  1.00  0.00    -0.055 A 
HETATM   24  C22 UNL     1      69.771  33.123  26.141  1.00  0.00     0.049 C 
ENDBRANCH  14  16
ENDBRANCH  13  14
ENDBRANCH   9  13
BRANCH   6  25
HETATM   25  C9  UNL     1      67.401  35.635  23.212  1.00  0.00     0.185 C 
HETATM   26  O1  UNL     1      66.754  35.517  22.184  1.00  0.00    -0.647 OA
HETATM   27  O2  UNL     1      67.632  34.417  23.902  1.00  0.00    -0.647 OA
ENDBRANCH   6  25
BRANCH  12  28
HETATM   28  O3  UNL     1      69.516  38.667  23.677  1.00  0.00    -0.388 OA
ATOM     29  H3  UNL     1      69.119  38.648  24.540  1.00  0.00     0.210 HD
ENDBRANCH  12  28
BRANCH   1  30
HETATM   30  C2  UNL     1      68.959  38.208  20.518  1.00  0.00     0.003 C 
HETATM   31  C1  UNL     1      68.450  37.389  19.396  1.00  0.00     0.005 C 
ENDBRANCH   1  30
TORSDOF 6
ENDMDL
MODEL 2
REMARK VINA RESULT: -8.241931770      1.570      1.990
REMARK  6 active torsions:
REMARK  status: ('A' for Active; 'I' for Inactive)
REMARK    1  A    between atoms: C2_2  and  C3_3 
REMARK    2  A    between atoms: C8_8  and  C9_9 
REMARK    3  A    between atoms: N1_14  and  C12_15 
REMARK    4  A    between atoms: C12_15  and  C13_16 
REMARK    5  A    between atoms: C13_16  and  C15_18 
REMARK    6  A    between atoms: C25_29  and  O3_30 
ROOT
HETATM    1  C3  UNL     1      68.179  37.719  21.516  1.00  0.00     0.025 C 
HETATM    2  C4  UNL     1      68.786  38.732  20.564  1.00  0.00    -0.012 C 
HETATM    3  C5  UNL     1      67.784  39.207  19.548  1.00  0.00     0.010 C 
HETATM    4  C6  UNL     1      69.382  39.821  21.405  1.00  0.00     0.006 C 
HETATM    5  C7  UNL     1      68.929  39.895  22.808  1.00  0.00     0.024 C 
HETATM    6  C8  UNL     1      69.027  38.581  23.602  1.00  0.00     0.081 C 
HETATM    7  C10 UNL     1      70.072  38.673  24.657  1.00  0.00     0.043 C 
HETATM    8  C11 UNL     1      71.246  37.801  24.643  1.00  0.00     0.123 C 
HETATM    9  N1  UNL     1      71.053  36.405  24.787  1.00  0.00    -0.393 N 
HETATM   10  C23 UNL     1      70.438  35.660  23.811  1.00  0.00     0.061 C 
HETATM   11  C24 UNL     1      69.112  36.178  23.287  1.00  0.00     0.083 C 
HETATM   12  C25 UNL     1      69.165  37.480  22.608  1.00  0.00     0.084 C 
ENDROOT
BRANCH   9  13
HETATM   13  C12 UNL     1      72.235  35.838  25.342  1.00  0.00     0.131 C 
BRANCH  13  14
HETATM   14  C13 UNL     1      71.928  34.836  26.400  1.00  0.00     0.033 C 
HETATM   15  C14 UNL     1      72.968  35.047  27.521  1.00  0.00     0.017 C 
BRANCH  14  16
HETATM   16  C15 UNL     1      72.033  33.408  25.925  1.00  0.00    -0.044 A 
HETATM   17  C16 UNL     1      73.249  32.808  25.669  1.00  0.00     0.051 A 
HETATM   18  C17 UNL     1      73.337  31.470  25.259  1.00  0.00     0.122 A 
HETATM   19  F1  UNL     1      74.552  30.918  25.019  1.00  0.00    -0.206 F 
HETATM   20  C18 UNL     1      72.213  30.695  25.093  1.00  0.00    -0.023 A 
HETATM   21  C19 UNL     1      72.269  29.269  24.651  1.00  0.00     0.051 C 
HETATM   22  C20 UNL     1      71.007  31.297  25.349  1.00  0.00     0.017 A 
HETATM   23  C21 UNL     1      70.909  32.633  25.757  1.00  0.00    -0.055 A 
HETATM   24  C22 UNL     1      69.556  33.221  25.974  1.00  0.00     0.049 C 
ENDBRANCH  14  16
ENDBRANCH  13  14
ENDBRANCH   9  13
BRANCH   6  25
HETATM   25  C9  UNL     1      67.727  38.561  24.353  1.00  0.00     0.185 C 
HETATM   26  O1  UNL     1      66.591  38.756  23.952  1.00  0.00    -0.647 OA
HETATM   27  O2  UNL     1      67.818  38.276  25.740  1.00  0.00    -0.647 OA
ENDBRANCH   6  25
BRANCH  12  28
HETATM   28  O3  UNL     1      70.422  37.532  21.996  1.00  0.00    -0.388 OA
ATOM     29  H3  UNL     1      70.887  38.239  22.428  1.00  0.00     0.210 HD
ENDBRANCH  12  28
BRANCH   1  30
HETATM   30  C2  UNL     1      67.551  36.565  20.847  1.00  0.00     0.003 C 
HETATM   31  C1  UNL     1      66.189  36.159  21.260  1.00  0.00     0.005 C 
ENDBRANCH   1  30
TORSDOF 6
ENDMDL
MODEL 3
REMARK VINA RESULT: -8.216161821      1.132      1.660
REMARK  6 active torsions:
REMARK  status: ('A' for Active; 'I' for Inactive)
REMARK    1  A    between atoms: C2_2  and  C3_3 
REMARK    2  A    between atoms: C8_8  and  C9_9 
REMARK    3  A    between atoms: N1_14  and  C12_15 
REMARK    4  A    between atoms: C12_15  and  C13_16 
REMARK    5  A    between atoms: C13_16  and  C15_18 
REMARK    6  A    between atoms: C25_29  and  O3_30 
ROOT
HETATM    1  C3  UNL     1      68.105  38.083  22.236  1.00  0.00     0.025 C 
HETATM    2  C4  UNL     1      67.497  39.300  22.906  1.00  0.00    -0.012 C 
HETATM    3  C5  UNL     1      66.430  39.927  22.050  1.00  0.00     0.010 C 
HETATM    4  C6  UNL     1      67.029  38.866  24.264  1.00  0.00     0.006 C 
HETATM    5  C7  UNL     1      66.881  37.413  24.477  1.00  0.00     0.024 C 
HETATM    6  C8  UNL     1      68.111  36.565  24.109  1.00  0.00     0.081 C 
HETATM    7  C10 UNL     1      68.739  35.983  25.326  1.00  0.00     0.043 C 
HETATM    8  C11 UNL     1      70.108  36.325  25.713  1.00  0.00     0.123 C 
HETATM    9  N1  UNL     1      71.166  35.960  24.846  1.00  0.00    -0.393 N 
HETATM   10  C23 UNL     1      71.324  36.552  23.616  1.00  0.00     0.061 C 
HETATM   11  C24 UNL     1      70.100  36.611  22.722  1.00  0.00     0.083 C 
HETATM   12  C25 UNL     1      68.977  37.407  23.238  1.00  0.00     0.084 C 
ENDROOT
BRANCH   9  13
HETATM   13  C12 UNL     1      72.354  35.815  25.616  1.00  0.00     0.131 C 
BRANCH  13  14
HETATM   14  C13 UNL     1      72.218  34.754  26.653  1.00  0.00     0.033 C 
HETATM   15  C14 UNL     1      73.416  34.921  27.613  1.00  0.00     0.017 C 
BRANCH  14  16
HETATM   16  C15 UNL     1      72.259  33.355  26.090  1.00  0.00    -0.044 A 
HETATM   17  C16 UNL     1      71.112  32.621  25.865  1.00  0.00     0.051 A 
HETATM   18  C17 UNL     1      71.159  31.334  25.311  1.00  0.00     0.122 A 
HETATM   19  F1  UNL     1      70.009  30.646  25.106  1.00  0.00    -0.206 F 
HETATM   20  C18 UNL     1      72.352  30.744  24.966  1.00  0.00    -0.023 A 
HETATM   21  C19 UNL     1      72.441  29.373  24.381  1.00  0.00     0.051 C 
HETATM   22  C20 UNL     1      73.490  31.479  25.192  1.00  0.00     0.017 A 
HETATM   23  C21 UNL     1      73.453  32.764  25.746  1.00  0.00    -0.055 A 
HETATM   24  C22 UNL     1      74.738  33.477  25.996  1.00  0.00     0.049 C 
ENDBRANCH  14  16
ENDBRANCH  13  14
ENDBRANCH   9  13
BRANCH   6  25
HETATM   25  C9  UNL     1      67.493  35.393  23.401  1.00  0.00     0.185 C 
HETATM   26  O1  UNL     1      66.712  35.372  22.464  1.00  0.00    -0.647 OA
HETATM   27  O2  UNL     1      67.863  34.113  23.886  1.00  0.00    -0.647 OA
ENDBRANCH   6  25
BRANCH  12  28
HETATM   28  O3  UNL     1      69.561  38.438  23.983  1.00  0.00    -0.388 OA
ATOM     29  H3  UNL     1      70.196  38.843  23.403  1.00  0.00     0.210 HD
ENDBRANCH  12  28
BRANCH   1  30
HETATM   30  C2  UNL     1      68.628  38.338  20.882  1.00  0.00     0.003 C 
HETATM   31  C1  UNL     1      68.063  37.576  19.746  1.00  0.00     0.005 C 
ENDBRANCH   1  30
TORSDOF 6
ENDMDL
MODEL 4
REMARK VINA RESULT: -8.153442501      1.845      2.495
REMARK  6 active torsions:
REMARK  status: ('A' for Active; 'I' for Inactive)
REMARK    1  A    between atoms: C2_2  and  C3_3 
REMARK    2  A    between atoms: C8_8  and  C9_9 
REMARK    3  A    between atoms: N1_14  and  C12_15 
REMARK    4  A    between atoms: C12_15  and  C13_16 
REMARK    5  A    between atoms: C13_16  and  C15_18 
REMARK    6  A    between atoms: C25_29  and  O3_30 
ROOT
HETATM    1  C3  UNL     1      68.171  37.631  21.737  1.00  0.00     0.025 C 
HETATM    2  C4  UNL     1      68.693  38.705  20.801  1.00  0.00    -0.012 C 
HETATM    3  C5  UNL     1      67.623  39.184  19.858  1.00  0.00     0.010 C 
HETATM    4  C6  UNL     1      69.292  39.781  21.659  1.00  0.00     0.006 C 
HETATM    5  C7  UNL     1      68.909  39.778  23.084  1.00  0.00     0.024 C 
HETATM    6  C8  UNL     1      69.094  38.436  23.813  1.00  0.00     0.081 C 
HETATM    7  C10 UNL     1      70.188  38.524  24.818  1.00  0.00     0.043 C 
HETATM    8  C11 UNL     1      71.391  37.698  24.707  1.00  0.00     0.123 C 
HETATM    9  N1  UNL     1      71.255  36.291  24.800  1.00  0.00    -0.393 N 
HETATM   10  C23 UNL     1      70.617  35.565  23.824  1.00  0.00     0.061 C 
HETATM   11  C24 UNL     1      69.249  36.054  23.390  1.00  0.00     0.083 C 
HETATM   12  C25 UNL     1      69.220  37.384  22.767  1.00  0.00     0.084 C 
ENDROOT
BRANCH   9  13
HETATM   13  C12 UNL     1      72.484  35.747  25.270  1.00  0.00     0.131 C 
BRANCH  13  14
HETATM   14  C13 UNL     1      72.272  34.770  26.374  1.00  0.00     0.033 C 
HETATM   15  C14 UNL     1      73.429  34.981  27.375  1.00  0.00     0.017 C 
BRANCH  14  16
HETATM   16  C15 UNL     1      72.302  33.332  25.919  1.00  0.00    -0.044 A 
HETATM   17  C16 UNL     1      71.149  32.595  25.741  1.00  0.00     0.051 A 
HETATM   18  C17 UNL     1      71.185  31.269  25.287  1.00  0.00     0.122 A 
HETATM   19  F1  UNL     1      70.029  30.580  25.126  1.00  0.00    -0.206 F 
HETATM   20  C18 UNL     1      72.375  30.643  24.996  1.00  0.00    -0.023 A 
HETATM   21  C19 UNL     1      72.453  29.231  24.517  1.00  0.00     0.051 C 
HETATM   22  C20 UNL     1      73.518  31.382  25.174  1.00  0.00     0.017 A 
HETATM   23  C21 UNL     1      73.492  32.705  25.629  1.00  0.00    -0.055 A 
HETATM   24  C22 UNL     1      74.783  33.421  25.834  1.00  0.00     0.049 C 
ENDBRANCH  14  16
ENDBRANCH  13  14
ENDBRANCH   9  13
BRANCH   6  25
HETATM   25  C9  UNL     1      67.836  38.336  24.628  1.00  0.00     0.185 C 
HETATM   26  O1  UNL     1      66.671  38.430  24.277  1.00  0.00    -0.647 OA
HETATM   27  O2  UNL     1      68.014  38.099  26.014  1.00  0.00    -0.647 OA
ENDBRANCH   6  25
BRANCH  12  28
HETATM   28  O3  UNL     1      70.442  37.509  22.096  1.00  0.00    -0.388 OA
ATOM     29  H3  UNL     1      70.528  38.434  21.894  1.00  0.00     0.210 HD
ENDBRANCH  12  28
BRANCH   1  30
HETATM   30  C2  UNL     1      67.551  36.484  21.051  1.00  0.00     0.003 C 
HETATM   31  C1  UNL     1      66.163  36.109  21.403  1.00  0.00     0.005 C 
ENDBRANCH   1  30
TORSDOF 6
ENDMDL
MODEL 5
REMARK VINA RESULT: -8.153049783      1.843      3.328
REMARK  6 active torsions:
REMARK  status: ('A' for Active; 'I' for Inactive)
REMARK    1  A    between atoms: C2_2  and  C3_3 
REMARK    2  A    between atoms: C8_8  and  C9_9 
REMARK    3  A    between atoms: N1_14  and  C12_15 
REMARK    4  A    between atoms: C12_15  and  C13_16 
REMARK    5  A    between atoms: C13_16  and  C15_18 
REMARK    6  A    between atoms: C25_29  and  O3_30 
ROOT
HETATM    1  C3  UNL     1      68.201  39.539  23.569  1.00  0.00     0.025 C 
HETATM    2  C4  UNL     1      66.802  39.930  23.134  1.00  0.00    -0.012 C 
HETATM    3  C5  UNL     1      66.751  41.353  22.649  1.00  0.00     0.010 C 
HETATM    4  C6  UNL     1      66.356  38.914  22.124  1.00  0.00     0.006 C 
HETATM    5  C7  UNL     1      67.412  38.086  21.511  1.00  0.00     0.024 C 
HETATM    6  C8  UNL     1      68.356  37.383  22.501  1.00  0.00     0.081 C 
HETATM    7  C10 UNL     1      68.148  35.909  22.480  1.00  0.00     0.043 C 
HETATM    8  C11 UNL     1      67.689  35.189  23.668  1.00  0.00     0.123 C 
HETATM    9  N1  UNL     1      68.522  35.176  24.813  1.00  0.00    -0.393 N 
HETATM   10  C23 UNL     1      68.756  36.315  25.545  1.00  0.00     0.061 C 
HETATM   11  C24 UNL     1      69.185  37.549  24.774  1.00  0.00     0.083 C 
HETATM   12  C25 UNL     1      68.201  38.069  23.814  1.00  0.00     0.084 C 
ENDROOT
BRANCH   9  13
HETATM   13  C12 UNL     1      68.233  34.005  25.571  1.00  0.00     0.131 C 
BRANCH  13  14
HETATM   14  C13 UNL     1      68.967  32.816  25.056  1.00  0.00     0.033 C 
HETATM   15  C14 UNL     1      68.367  31.585  25.771  1.00  0.00     0.017 C 
BRANCH  14  16
HETATM   16  C15 UNL     1      70.448  32.851  25.345  1.00  0.00    -0.044 A 
HETATM   17  C16 UNL     1      71.022  33.847  26.107  1.00  0.00     0.051 A 
HETATM   18  C17 UNL     1      72.394  33.853  26.397  1.00  0.00     0.122 A 
HETATM   19  F1  UNL     1      72.920  34.850  27.150  1.00  0.00    -0.206 F 
HETATM   20  C18 UNL     1      73.230  32.863  25.933  1.00  0.00    -0.023 A 
HETATM   21  C19 UNL     1      74.696  32.841  26.215  1.00  0.00     0.051 C 
HETATM   22  C20 UNL     1      72.652  31.875  25.175  1.00  0.00     0.017 A 
HETATM   23  C21 UNL     1      71.284  31.862  24.880  1.00  0.00    -0.055 A 
HETATM   24  C22 UNL     1      70.745  30.773  24.015  1.00  0.00     0.049 C 
ENDBRANCH  14  16
ENDBRANCH  13  14
ENDBRANCH   9  13
BRANCH   6  25
HETATM   25  C9  UNL     1      69.701  37.586  21.864  1.00  0.00     0.185 C 
HETATM   26  O1  UNL     1      70.770  37.877  22.377  1.00  0.00    -0.647 OA
HETATM   27  O2  UNL     1      69.750  37.422  20.457  1.00  0.00    -0.647 OA
ENDBRANCH   6  25
BRANCH  12  28
HETATM   28  O3  UNL     1      66.949  37.781  24.369  1.00  0.00    -0.388 OA
ATOM     29  H3  UNL     1      66.322  37.924  23.669  1.00  0.00     0.210 HD
ENDBRANCH  12  28
BRANCH   1  30
HETATM   30  C2  UNL     1      68.792  40.437  24.576  1.00  0.00     0.003 C 
HETATM   31  C1  UNL     1      70.091  41.082  24.280  1.00  0.00     0.005 C 
ENDBRANCH   1  30
TORSDOF 6
ENDMDL
