MODEL 1
REMARK VINA RESULT: -8.260315094      0.000      0.000
REMARK  7 active torsions:
REMARK  status: ('A' for Active; 'I' for Inactive)
REMARK    1  A    between atoms: C2_2  and  C3_3 
REMARK    2  A    between atoms: C3_3  and  C4_4 
REMARK    3  A    between atoms: C4_4  and  C5_5 
REMARK    4  A    between atoms: C5_5  and  C6_6 
REMARK    5  A    between atoms: C11_12  and  O1_13 
REMARK    6  A    between atoms: C19_23  and  C21_25 
REMARK    7  A    between atoms: C21_25  and  O3_26 
ROOT
HETATM    1  C6  UNL     1      70.010  34.123  25.372  1.00  0.00     0.111 C 
HETATM    2  F1  UNL     1      70.264  33.719  26.705  1.00  0.00    -0.242 F 
HETATM    3  C7  UNL     1      68.529  33.855  25.197  1.00  0.00     0.045 C 
HETATM    4  C8  UNL     1      68.010  35.149  24.617  1.00  0.00     0.009 C 
HETATM    5  C9  UNL     1      68.879  36.161  25.349  1.00  0.00     0.004 C 
HETATM    6  C10 UNL     1      68.679  37.534  24.845  1.00  0.00     0.024 C 
HETATM    7  C11 UNL     1      69.199  38.613  25.731  1.00  0.00     0.123 C 
HETATM    8  C12 UNL     1      68.752  39.928  25.164  1.00  0.00     0.042 C 
HETATM    9  C13 UNL     1      69.184  40.166  23.739  1.00  0.00    -0.021 C 
HETATM   10  C14 UNL     1      70.698  40.431  23.805  1.00  0.00     0.017 C 
HETATM   11  C15 UNL     1      68.891  39.024  22.816  1.00  0.00    -0.000 C 
HETATM   12  C16 UNL     1      67.586  39.115  22.082  1.00  0.00     0.013 C 
HETATM   13  C17 UNL     1      66.568  40.011  22.697  1.00  0.00     0.079 C 
HETATM   14  C18 UNL     1      67.157  41.336  22.871  1.00  0.00     0.138 C 
HETATM   15  O2  UNL     1      66.497  42.329  22.648  1.00  0.00    -0.297 OA
HETATM   16  C19 UNL     1      68.567  41.465  23.324  1.00  0.00     0.046 C 
HETATM   17  C20 UNL     1      68.482  42.392  24.552  1.00  0.00     0.026 C 
HETATM   18  C22 UNL     1      69.079  37.651  23.414  1.00  0.00    -0.003 C 
HETATM   19  C23 UNL     1      70.401  37.046  23.075  1.00  0.00     0.006 C 
HETATM   20  C24 UNL     1      70.952  36.006  23.947  1.00  0.00     0.013 C 
HETATM   21  C25 UNL     1      70.269  35.573  25.163  1.00  0.00    -0.004 C 
HETATM   22  C26 UNL     1      71.063  36.034  26.388  1.00  0.00     0.019 C 
ENDROOT
BRANCH   1  23
HETATM   23  C5  UNL     1      70.775  33.142  24.555  1.00  0.00     0.044 C 
BRANCH  23  24
HETATM   24  C4  UNL     1      71.253  31.938  25.331  1.00  0.00     0.007 C 
BRANCH  24  25
HETATM   25  C3  UNL     1      70.855  30.637  24.710  1.00  0.00     0.026 C 
BRANCH  25  26
HETATM   26  C2  UNL     1      72.012  29.730  24.661  1.00  0.00    -0.037 C 
HETATM   27  C1  UNL     1      72.875  29.788  23.662  1.00  0.00     0.007 C 
ENDBRANCH  25  26
ENDBRANCH  24  25
ENDBRANCH  23  24
ENDBRANCH   1  23
BRANCH   7  28
HETATM   28  O1  UNL     1      68.581  38.482  26.979  1.00  0.00    -0.395 OA
ATOM     29  H1  UNL     1      68.339  37.571  27.092  1.00  0.00     0.210 HD
ENDBRANCH   7  28
BRANCH  16  30
HETATM   30  C21 UNL     1      69.331  42.234  22.291  1.00  0.00     0.181 C 
BRANCH  30  31
HETATM   31  O3  UNL     1      68.874  42.107  21.006  1.00  0.00    -0.400 OA
ATOM     32  H3  UNL     1      69.444  42.461  20.333  1.00  0.00     0.209 HD
ENDBRANCH  30  31
ENDBRANCH  16  30
TORSDOF 7
ENDMDL
MODEL 2
REMARK VINA RESULT: -7.938592359      1.326      1.638
REMARK  7 active torsions:
REMARK  status: ('A' for Active; 'I' for Inactive)
REMARK    1  A    between atoms: C2_2  and  C3_3 
REMARK    2  A    between atoms: C3_3  and  C4_4 
REMARK    3  A    between atoms: C4_4  and  C5_5 
REMARK    4  A    between atoms: C5_5  and  C6_6 
REMARK    5  A    between atoms: C11_12  and  O1_13 
REMARK    6  A    between atoms: C19_23  and  C21_25 
REMARK    7  A    between atoms: C21_25  and  O3_26 
ROOT
HETATM    1  C6  UNL     1      71.611  34.081  26.265  1.00  0.00     0.111 C 
HETATM    2  F1  UNL     1      71.924  34.111  27.645  1.00  0.00    -0.242 F 
HETATM    3  C7  UNL     1      70.280  33.358  26.219  1.00  0.00     0.045 C 
HETATM    4  C8  UNL     1      69.426  34.260  25.360  1.00  0.00     0.009 C 
HETATM    5  C9  UNL     1      69.934  35.628  25.787  1.00  0.00     0.004 C 
HETATM    6  C10 UNL     1      69.359  36.715  24.969  1.00  0.00     0.024 C 
HETATM    7  C11 UNL     1      69.509  38.082  25.541  1.00  0.00     0.123 C 
HETATM    8  C12 UNL     1      68.716  39.027  24.688  1.00  0.00     0.042 C 
HETATM    9  C13 UNL     1      69.110  39.023  23.232  1.00  0.00    -0.021 C 
HETATM   10  C14 UNL     1      70.476  39.727  23.171  1.00  0.00     0.017 C 
HETATM   11  C15 UNL     1      69.197  37.655  22.629  1.00  0.00    -0.000 C 
HETATM   12  C16 UNL     1      67.949  37.176  21.947  1.00  0.00     0.013 C 
HETATM   13  C17 UNL     1      66.692  37.859  22.363  1.00  0.00     0.079 C 
HETATM   14  C18 UNL     1      66.861  39.298  22.184  1.00  0.00     0.138 C 
HETATM   15  O2  UNL     1      65.947  39.967  21.750  1.00  0.00    -0.297 OA
HETATM   16  C19 UNL     1      68.155  39.940  22.536  1.00  0.00     0.046 C 
HETATM   17  C20 UNL     1      67.758  41.075  23.501  1.00  0.00     0.026 C 
HETATM   18  C22 UNL     1      69.757  36.588  23.538  1.00  0.00    -0.003 C 
HETATM   19  C23 UNL     1      71.209  36.332  23.307  1.00  0.00     0.006 C 
HETATM   20  C24 UNL     1      72.010  35.746  24.384  1.00  0.00     0.013 C 
HETATM   21  C25 UNL     1      71.440  35.446  25.696  1.00  0.00    -0.004 C 
HETATM   22  C26 UNL     1      72.021  36.405  26.738  1.00  0.00     0.019 C 
ENDROOT
BRANCH   1  23
HETATM   23  C5  UNL     1      72.658  33.198  25.684  1.00  0.00     0.044 C 
BRANCH  23  24
HETATM   24  C4  UNL     1      72.205  31.775  25.461  1.00  0.00     0.007 C 
BRANCH  24  25
HETATM   25  C3  UNL     1      73.318  30.850  25.083  1.00  0.00     0.026 C 
BRANCH  25  26
HETATM   26  C2  UNL     1      72.772  29.550  24.668  1.00  0.00    -0.037 C 
HETATM   27  C1  UNL     1      71.969  29.457  23.622  1.00  0.00     0.007 C 
ENDBRANCH  25  26
ENDBRANCH  24  25
ENDBRANCH  23  24
ENDBRANCH   1  23
BRANCH   7  28
HETATM   28  O1  UNL     1      68.912  38.088  26.807  1.00  0.00    -0.395 OA
ATOM     29  H1  UNL     1      68.939  37.202  27.148  1.00  0.00     0.210 HD
ENDBRANCH   7  28
BRANCH  16  30
HETATM   30  C21 UNL     1      68.696  40.620  21.316  1.00  0.00     0.181 C 
BRANCH  30  31
HETATM   31  O3  UNL     1      68.507  39.950  20.136  1.00  0.00    -0.400 OA
ATOM     32  H3  UNL     1      67.625  39.979  19.787  1.00  0.00     0.209 HD
ENDBRANCH  30  31
ENDBRANCH  16  30
TORSDOF 7
ENDMDL
MODEL 3
REMARK VINA RESULT: -7.886629042      1.126      1.313
REMARK  7 active torsions:
REMARK  status: ('A' for Active; 'I' for Inactive)
REMARK    1  A    between atoms: C2_2  and  C3_3 
REMARK    2  A    between atoms: C3_3  and  C4_4 
REMARK    3  A    between atoms: C4_4  and  C5_5 
REMARK    4  A    between atoms: C5_5  and  C6_6 
REMARK    5  A    between atoms: C11_12  and  O1_13 
REMARK    6  A    between atoms: C19_23  and  C21_25 
REMARK    7  A    between atoms: C21_25  and  O3_26 
ROOT
HETATM    1  C6  UNL     1      70.089  33.521  25.529  1.00  0.00     0.111 C 
HETATM    2  F1  UNL     1      70.493  33.212  26.850  1.00  0.00    -0.242 F 
HETATM    3  C7  UNL     1      68.584  33.351  25.569  1.00  0.00     0.045 C 
HETATM    4  C8  UNL     1      68.075  34.627  24.944  1.00  0.00     0.009 C 
HETATM    5  C9  UNL     1      69.094  35.629  25.464  1.00  0.00     0.004 C 
HETATM    6  C10 UNL     1      68.916  36.966  24.866  1.00  0.00     0.024 C 
HETATM    7  C11 UNL     1      69.615  38.073  25.576  1.00  0.00     0.123 C 
HETATM    8  C12 UNL     1      69.179  39.367  24.953  1.00  0.00     0.042 C 
HETATM    9  C13 UNL     1      69.432  39.454  23.469  1.00  0.00    -0.021 C 
HETATM   10  C14 UNL     1      70.954  39.612  23.317  1.00  0.00     0.017 C 
HETATM   11  C15 UNL     1      68.947  38.265  22.699  1.00  0.00    -0.000 C 
HETATM   12  C16 UNL     1      67.565  38.391  22.132  1.00  0.00     0.013 C 
HETATM   13  C17 UNL     1      66.696  39.408  22.787  1.00  0.00     0.079 C 
HETATM   14  C18 UNL     1      67.384  40.695  22.763  1.00  0.00     0.138 C 
HETATM   15  O2  UNL     1      66.763  41.712  22.536  1.00  0.00    -0.297 OA
HETATM   16  C19 UNL     1      68.847  40.756  23.020  1.00  0.00     0.046 C 
HETATM   17  C20 UNL     1      68.985  41.786  24.158  1.00  0.00     0.026 C 
HETATM   18  C22 UNL     1      69.128  36.936  23.391  1.00  0.00    -0.003 C 
HETATM   19  C23 UNL     1      70.352  36.209  22.943  1.00  0.00     0.006 C 
HETATM   20  C24 UNL     1      70.948  35.206  23.829  1.00  0.00     0.013 C 
HETATM   21  C25 UNL     1      70.408  34.927  25.157  1.00  0.00    -0.004 C 
HETATM   22  C26 UNL     1      71.385  35.427  26.224  1.00  0.00     0.019 C 
ENDROOT
BRANCH   1  23
HETATM   23  C5  UNL     1      70.676  32.423  24.714  1.00  0.00     0.044 C 
BRANCH  23  24
HETATM   24  C4  UNL     1      71.664  31.564  25.465  1.00  0.00     0.007 C 
BRANCH  24  25
HETATM   25  C3  UNL     1      73.022  31.535  24.837  1.00  0.00     0.026 C 
BRANCH  25  26
HETATM   26  C2  UNL     1      73.748  32.774  25.154  1.00  0.00    -0.037 C 
HETATM   27  C1  UNL     1      74.546  32.841  26.206  1.00  0.00     0.007 C 
ENDBRANCH  25  26
ENDBRANCH  24  25
ENDBRANCH  23  24
ENDBRANCH   1  23
BRANCH   7  28
HETATM   28  O1  UNL     1      69.162  38.092  26.899  1.00  0.00    -0.395 OA
ATOM     29  H1  UNL     1      68.859  37.219  27.118  1.00  0.00     0.210 HD
ENDBRANCH   7  28
BRANCH  16  30
HETATM   30  C21 UNL     1      69.513  41.379  21.832  1.00  0.00     0.181 C 
BRANCH  30  31
HETATM   31  O3  UNL     1      68.946  41.087  20.619  1.00  0.00    -0.400 OA
ATOM     32  H3  UNL     1      68.055  40.760  20.653  1.00  0.00     0.209 HD
ENDBRANCH  30  31
ENDBRANCH  16  30
TORSDOF 7
ENDMDL
MODEL 4
REMARK VINA RESULT: -7.790469187      3.511      7.749
REMARK  7 active torsions:
REMARK  status: ('A' for Active; 'I' for Inactive)
REMARK    1  A    between atoms: C2_2  and  C3_3 
REMARK    2  A    between atoms: C3_3  and  C4_4 
REMARK    3  A    between atoms: C4_4  and  C5_5 
REMARK    4  A    between atoms: C5_5  and  C6_6 
REMARK    5  A    between atoms: C11_12  and  O1_13 
REMARK    6  A    between atoms: C19_23  and  C21_25 
REMARK    7  A    between atoms: C21_25  and  O3_26 
ROOT
HETATM    1  C6  UNL     1      69.193  40.038  24.420  1.00  0.00     0.111 C 
HETATM    2  F1  UNL     1      68.172  40.571  25.243  1.00  0.00    -0.242 F 
HETATM    3  C7  UNL     1      70.297  41.071  24.511  1.00  0.00     0.045 C 
HETATM    4  C8  UNL     1      71.520  40.244  24.830  1.00  0.00     0.009 C 
HETATM    5  C9  UNL     1      70.918  39.178  25.733  1.00  0.00     0.004 C 
HETATM    6  C10 UNL     1      71.892  38.123  26.075  1.00  0.00     0.024 C 
HETATM    7  C11 UNL     1      71.508  37.259  27.225  1.00  0.00     0.123 C 
HETATM    8  C12 UNL     1      72.678  36.377  27.549  1.00  0.00     0.042 C 
HETATM    9  C13 UNL     1      73.153  35.532  26.394  1.00  0.00    -0.021 C 
HETATM   10  C14 UNL     1      72.077  34.449  26.204  1.00  0.00     0.017 C 
HETATM   11  C15 UNL     1      73.357  36.298  25.123  1.00  0.00    -0.000 C 
HETATM   12  C16 UNL     1      74.752  36.798  24.895  1.00  0.00     0.013 C 
HETATM   13  C17 UNL     1      75.598  36.910  26.116  1.00  0.00     0.079 C 
HETATM   14  C18 UNL     1      75.616  35.616  26.792  1.00  0.00     0.138 C 
HETATM   15  O2  UNL     1      76.644  35.201  27.284  1.00  0.00    -0.297 OA
HETATM   16  C19 UNL     1      74.370  34.808  26.875  1.00  0.00     0.046 C 
HETATM   17  C20 UNL     1      74.215  34.516  28.381  1.00  0.00     0.026 C 
HETATM   18  C22 UNL     1      72.344  37.386  24.861  1.00  0.00    -0.003 C 
HETATM   19  C23 UNL     1      71.252  36.954  23.940  1.00  0.00     0.006 C 
HETATM   20  C24 UNL     1      69.966  37.655  23.982  1.00  0.00     0.013 C 
HETATM   21  C25 UNL     1      69.705  38.736  24.929  1.00  0.00    -0.004 C 
HETATM   22  C26 UNL     1      68.686  38.269  25.972  1.00  0.00     0.019 C 
ENDROOT
BRANCH   1  23
HETATM   23  C5  UNL     1      68.605  40.081  23.054  1.00  0.00     0.044 C 
BRANCH  23  24
HETATM   24  C4  UNL     1      67.108  40.278  23.038  1.00  0.00     0.007 C 
BRANCH  24  25
HETATM   25  C3  UNL     1      66.414  39.460  21.995  1.00  0.00     0.026 C 
BRANCH  25  26
HETATM   26  C2  UNL     1      67.273  38.341  21.581  1.00  0.00    -0.037 C 
HETATM   27  C1  UNL     1      66.794  37.111  21.510  1.00  0.00     0.007 C 
ENDBRANCH  25  26
ENDBRANCH  24  25
ENDBRANCH  23  24
ENDBRANCH   1  23
BRANCH   7  28
HETATM   28  O1  UNL     1      71.307  38.083  28.337  1.00  0.00    -0.395 OA
ATOM     29  H1  UNL     1      72.147  38.214  28.761  1.00  0.00     0.210 HD
ENDBRANCH   7  28
BRANCH  16  30
HETATM   30  C21 UNL     1      74.620  33.479  26.232  1.00  0.00     0.181 C 
BRANCH  30  31
HETATM   31  O3  UNL     1      75.764  33.394  25.482  1.00  0.00    -0.400 OA
ATOM     32  H3  UNL     1      75.636  33.194  24.563  1.00  0.00     0.209 HD
ENDBRANCH  30  31
ENDBRANCH  16  30
TORSDOF 7
ENDMDL
MODEL 5
REMARK VINA RESULT: -7.730798052      3.280      7.635
REMARK  7 active torsions:
REMARK  status: ('A' for Active; 'I' for Inactive)
REMARK    1  A    between atoms: C2_2  and  C3_3 
REMARK    2  A    between atoms: C3_3  and  C4_4 
REMARK    3  A    between atoms: C4_4  and  C5_5 
REMARK    4  A    between atoms: C5_5  and  C6_6 
REMARK    5  A    between atoms: C11_12  and  O1_13 
REMARK    6  A    between atoms: C19_23  and  C21_25 
REMARK    7  A    between atoms: C21_25  and  O3_26 
ROOT
HETATM    1  C6  UNL     1      67.693  38.333  24.307  1.00  0.00     0.111 C 
HETATM    2  F1  UNL     1      66.318  37.998  24.314  1.00  0.00    -0.242 F 
HETATM    3  C7  UNL     1      67.948  38.813  25.721  1.00  0.00     0.045 C 
HETATM    4  C8  UNL     1      69.177  38.037  26.134  1.00  0.00     0.009 C 
HETATM    5  C9  UNL     1      68.923  36.708  25.439  1.00  0.00     0.004 C 
HETATM    6  C10 UNL     1      70.075  35.792  25.555  1.00  0.00     0.024 C 
HETATM    7  C11 UNL     1      69.782  34.367  25.233  1.00  0.00     0.123 C 
HETATM    8  C12 UNL     1      70.998  33.559  25.578  1.00  0.00     0.042 C 
HETATM    9  C13 UNL     1      72.257  34.006  24.878  1.00  0.00    -0.021 C 
HETATM   10  C14 UNL     1      72.088  33.578  23.411  1.00  0.00     0.017 C 
HETATM   11  C15 UNL     1      72.513  35.479  24.970  1.00  0.00    -0.000 C 
HETATM   12  C16 UNL     1      73.394  35.905  26.106  1.00  0.00     0.013 C 
HETATM   13  C17 UNL     1      73.489  34.940  27.237  1.00  0.00     0.079 C 
HETATM   14  C18 UNL     1      73.912  33.645  26.712  1.00  0.00     0.138 C 
HETATM   15  O2  UNL     1      74.709  32.970  27.329  1.00  0.00    -0.297 OA
HETATM   16  C19 UNL     1      73.363  33.156  25.420  1.00  0.00     0.046 C 
HETATM   17  C20 UNL     1      72.802  31.761  25.756  1.00  0.00     0.026 C 
HETATM   18  C22 UNL     1      71.284  36.350  24.884  1.00  0.00    -0.003 C 
HETATM   19  C23 UNL     1      71.051  36.893  23.513  1.00  0.00     0.006 C 
HETATM   20  C24 UNL     1      69.698  37.303  23.129  1.00  0.00     0.013 C 
HETATM   21  C25 UNL     1      68.559  37.154  24.032  1.00  0.00    -0.004 C 
HETATM   22  C26 UNL     1      67.623  36.067  23.500  1.00  0.00     0.019 C 
ENDROOT
BRANCH   1  23
HETATM   23  C5  UNL     1      67.769  39.497  23.383  1.00  0.00     0.044 C 
BRANCH  23  24
HETATM   24  C4  UNL     1      66.796  39.428  22.231  1.00  0.00     0.007 C 
BRANCH  24  25
HETATM   25  C3  UNL     1      67.464  39.401  20.892  1.00  0.00     0.026 C 
BRANCH  25  26
HETATM   26  C2  UNL     1      67.429  38.039  20.341  1.00  0.00    -0.037 C 
HETATM   27  C1  UNL     1      68.413  37.591  19.580  1.00  0.00     0.007 C 
ENDBRANCH  25  26
ENDBRANCH  24  25
ENDBRANCH  23  24
ENDBRANCH   1  23
BRANCH   7  28
HETATM   28  O1  UNL     1      68.758  33.935  26.082  1.00  0.00    -0.395 OA
ATOM     29  H1  UNL     1      68.793  32.986  26.124  1.00  0.00     0.210 HD
ENDBRANCH   7  28
BRANCH  16  30
HETATM   30  C21 UNL     1      74.503  32.915  24.479  1.00  0.00     0.181 C 
BRANCH  30  31
HETATM   31  O3  UNL     1      75.752  33.135  24.998  1.00  0.00    -0.400 OA
ATOM     32  H3  UNL     1      75.847  33.932  25.507  1.00  0.00     0.209 HD
ENDBRANCH  30  31
ENDBRANCH  16  30
TORSDOF 7
ENDMDL
