MODEL 1
REMARK VINA RESULT: -7.031459860      0.000      0.000
REMARK  7 active torsions:
REMARK  status: ('A' for Active; 'I' for Inactive)
REMARK    1  A    between atoms: C2_2  and  O2_4 
REMARK    2  A    between atoms: O2_4  and  C3_5 
REMARK    3  A    between atoms: C3_5  and  C5_7 
REMARK    4  A    between atoms: C5_7  and  O3_8 
REMARK    5  A    between atoms: N1_19  and  C15_21 
REMARK    6  A    between atoms: C15_21  and  C16_22 
REMARK    7  A    between atoms: C16_22  and  O4_23 
ROOT
HETATM    1  C5  UNL     1      66.948  35.210  24.279  1.00  0.00     0.091 C 
HETATM    2  C6  UNL     1      66.088  36.479  24.381  1.00  0.00     0.042 C 
HETATM    3  C7  UNL     1      67.043  37.611  24.763  1.00  0.00     0.009 C 
HETATM    4  C8  UNL     1      68.171  36.882  25.370  1.00  0.00     0.001 C 
HETATM    5  C9  UNL     1      69.410  37.582  25.671  1.00  0.00    -0.005 C 
HETATM    6  C10 UNL     1      69.428  39.070  25.311  1.00  0.00     0.006 C 
HETATM    7  C11 UNL     1      70.849  39.589  25.323  1.00  0.00     0.006 C 
HETATM    8  C12 UNL     1      71.695  38.823  26.320  1.00  0.00    -0.001 C 
HETATM    9  C13 UNL     1      72.970  39.569  26.625  1.00  0.00     0.057 C 
HETATM   10  C14 UNL     1      74.016  39.375  25.605  1.00  0.00    -0.018 C 
HETATM   11  N1  UNL     1      75.045  40.103  25.601  1.00  0.00    -0.394 N 
ATOM     12  H1  UNL     1      75.752  39.946  24.883  1.00  0.00     0.159 HD
HETATM   13  C17 UNL     1      73.820  38.309  24.594  1.00  0.00     0.053 C 
HETATM   14  C18 UNL     1      73.103  37.108  25.132  1.00  0.00     0.015 C 
HETATM   15  C19 UNL     1      71.891  37.402  25.941  1.00  0.00    -0.036 C 
HETATM   16  C20 UNL     1      71.913  36.589  27.242  1.00  0.00     0.016 C 
HETATM   17  C21 UNL     1      70.674  36.984  25.091  1.00  0.00    -0.002 C 
HETATM   18  C22 UNL     1      70.682  35.507  24.997  1.00  0.00     0.007 C 
HETATM   19  C23 UNL     1      69.355  34.826  24.961  1.00  0.00     0.013 C 
HETATM   20  C24 UNL     1      68.302  35.694  24.411  1.00  0.00    -0.006 C 
HETATM   21  C25 UNL     1      68.780  36.195  23.041  1.00  0.00     0.019 C 
ENDROOT
BRANCH   1  22
HETATM   22  C3  UNL     1      66.376  34.206  25.181  1.00  0.00     0.163 C 
HETATM   23  C4  UNL     1      64.842  34.204  25.246  1.00  0.00     0.043 C 
BRANCH  22  24
HETATM   24  O2  UNL     1      66.770  32.891  25.088  1.00  0.00    -0.314 OA
BRANCH  24  25
HETATM   25  C2  UNL     1      67.427  32.143  26.055  1.00  0.00     0.255 C 
HETATM   26  C1  UNL     1      68.392  31.062  25.708  1.00  0.00     0.126 C 
HETATM   27  O1  UNL     1      67.176  32.416  27.257  1.00  0.00    -0.266 OA
ENDBRANCH  24  25
ENDBRANCH  22  24
ENDBRANCH   1  22
BRANCH   1  28
HETATM   28  O3  UNL     1      66.671  34.707  22.978  1.00  0.00    -0.386 OA
ATOM     29  H3  UNL     1      67.463  34.884  22.487  1.00  0.00     0.210 HD
ENDBRANCH   1  28
BRANCH  11  30
HETATM   30  C15 UNL     1      75.262  41.137  26.557  1.00  0.00     0.145 C 
BRANCH  30  31
HETATM   31  C16 UNL     1      76.618  40.948  27.195  1.00  0.00     0.183 C 
BRANCH  31  32
HETATM   32  O4  UNL     1      76.521  39.947  28.168  1.00  0.00    -0.399 OA
ATOM     33  H4  UNL     1      77.392  39.615  28.352  1.00  0.00     0.209 HD
ENDBRANCH  31  32
ENDBRANCH  30  31
ENDBRANCH  11  30
TORSDOF 7
ENDMDL
MODEL 2
REMARK VINA RESULT: -7.020729883      1.130      1.239
REMARK  7 active torsions:
REMARK  status: ('A' for Active; 'I' for Inactive)
REMARK    1  A    between atoms: C2_2  and  O2_4 
REMARK    2  A    between atoms: O2_4  and  C3_5 
REMARK    3  A    between atoms: C3_5  and  C5_7 
REMARK    4  A    between atoms: C5_7  and  O3_8 
REMARK    5  A    between atoms: N1_19  and  C15_21 
REMARK    6  A    between atoms: C15_21  and  C16_22 
REMARK    7  A    between atoms: C16_22  and  O4_23 
ROOT
HETATM    1  C5  UNL     1      67.067  35.398  24.344  1.00  0.00     0.091 C 
HETATM    2  C6  UNL     1      66.055  36.537  24.142  1.00  0.00     0.042 C 
HETATM    3  C7  UNL     1      66.761  37.817  24.596  1.00  0.00     0.009 C 
HETATM    4  C8  UNL     1      67.813  37.299  25.488  1.00  0.00     0.001 C 
HETATM    5  C9  UNL     1      68.864  38.185  25.963  1.00  0.00    -0.005 C 
HETATM    6  C10 UNL     1      68.776  39.632  25.469  1.00  0.00     0.006 C 
HETATM    7  C11 UNL     1      70.087  40.344  25.717  1.00  0.00     0.006 C 
HETATM    8  C12 UNL     1      70.787  39.778  26.936  1.00  0.00    -0.001 C 
HETATM    9  C13 UNL     1      71.866  40.716  27.417  1.00  0.00     0.057 C 
HETATM   10  C14 UNL     1      73.122  40.599  26.655  1.00  0.00    -0.018 C 
HETATM   11  N1  UNL     1      74.030  41.462  26.787  1.00  0.00    -0.394 N 
ATOM     12  H1  UNL     1      74.889  41.355  26.247  1.00  0.00     0.159 HD
HETATM   13  C17 UNL     1      73.279  39.446  25.736  1.00  0.00     0.053 C 
HETATM   14  C18 UNL     1      72.616  38.198  26.234  1.00  0.00     0.015 C 
HETATM   15  C19 UNL     1      71.232  38.375  26.747  1.00  0.00    -0.036 C 
HETATM   16  C20 UNL     1      71.074  37.668  28.099  1.00  0.00     0.016 C 
HETATM   17  C21 UNL     1      70.286  37.731  25.714  1.00  0.00    -0.002 C 
HETATM   18  C22 UNL     1      70.494  36.267  25.771  1.00  0.00     0.007 C 
HETATM   19  C23 UNL     1      69.300  35.405  25.534  1.00  0.00     0.013 C 
HETATM   20  C24 UNL     1      68.291  36.075  24.699  1.00  0.00    -0.006 C 
HETATM   21  C25 UNL     1      68.986  36.540  23.411  1.00  0.00     0.019 C 
ENDROOT
BRANCH   1  22
HETATM   22  C3  UNL     1      66.441  34.390  25.206  1.00  0.00     0.163 C 
HETATM   23  C4  UNL     1      64.907  34.370  25.159  1.00  0.00     0.043 C 
BRANCH  22  24
HETATM   24  O2  UNL     1      66.856  33.079  25.147  1.00  0.00    -0.314 OA
BRANCH  24  25
HETATM   25  C2  UNL     1      67.586  32.388  26.104  1.00  0.00     0.255 C 
HETATM   26  C1  UNL     1      68.379  31.170  25.776  1.00  0.00     0.126 C 
HETATM   27  O1  UNL     1      67.554  32.836  27.279  1.00  0.00    -0.266 OA
ENDBRANCH  24  25
ENDBRANCH  22  24
ENDBRANCH   1  22
BRANCH   1  28
HETATM   28  O3  UNL     1      67.138  34.769  23.070  1.00  0.00    -0.386 OA
ATOM     29  H3  UNL     1      66.230  34.618  22.834  1.00  0.00     0.210 HD
ENDBRANCH   1  28
BRANCH  11  30
HETATM   30  C15 UNL     1      73.910  42.582  27.660  1.00  0.00     0.145 C 
BRANCH  30  31
HETATM   31  C16 UNL     1      75.253  42.873  28.284  1.00  0.00     0.183 C 
BRANCH  31  32
HETATM   32  O4  UNL     1      76.047  41.723  28.199  1.00  0.00    -0.399 OA
ATOM     33  H4  UNL     1      75.758  41.207  27.456  1.00  0.00     0.209 HD
ENDBRANCH  31  32
ENDBRANCH  30  31
ENDBRANCH  11  30
TORSDOF 7
ENDMDL
MODEL 3
REMARK VINA RESULT: -6.817008998      1.923      2.165
REMARK  7 active torsions:
REMARK  status: ('A' for Active; 'I' for Inactive)
REMARK    1  A    between atoms: C2_2  and  O2_4 
REMARK    2  A    between atoms: O2_4  and  C3_5 
REMARK    3  A    between atoms: C3_5  and  C5_7 
REMARK    4  A    between atoms: C5_7  and  O3_8 
REMARK    5  A    between atoms: N1_19  and  C15_21 
REMARK    6  A    between atoms: C15_21  and  C16_22 
REMARK    7  A    between atoms: C16_22  and  O4_23 
ROOT
HETATM    1  C5  UNL     1      67.256  35.730  24.344  1.00  0.00     0.091 C 
HETATM    2  C6  UNL     1      66.124  36.752  24.154  1.00  0.00     0.042 C 
HETATM    3  C7  UNL     1      66.650  38.077  24.711  1.00  0.00     0.009 C 
HETATM    4  C8  UNL     1      67.716  37.634  25.626  1.00  0.00     0.001 C 
HETATM    5  C9  UNL     1      68.631  38.608  26.201  1.00  0.00    -0.005 C 
HETATM    6  C10 UNL     1      68.391  40.061  25.782  1.00  0.00     0.006 C 
HETATM    7  C11 UNL     1      69.594  40.907  26.134  1.00  0.00     0.006 C 
HETATM    8  C12 UNL     1      70.303  40.356  27.354  1.00  0.00    -0.001 C 
HETATM    9  C13 UNL     1      71.240  41.384  27.939  1.00  0.00     0.057 C 
HETATM   10  C14 UNL     1      72.533  41.461  27.236  1.00  0.00    -0.018 C 
HETATM   11  N1  UNL     1      73.324  42.416  27.461  1.00  0.00    -0.394 N 
ATOM     12  H1  UNL     1      74.211  42.444  26.959  1.00  0.00     0.159 HD
HETATM   13  C17 UNL     1      72.867  40.392  26.265  1.00  0.00     0.053 C 
HETATM   14  C18 UNL     1      72.339  39.047  26.661  1.00  0.00     0.015 C 
HETATM   15  C19 UNL     1      70.923  39.029  27.113  1.00  0.00    -0.036 C 
HETATM   16  C20 UNL     1      70.792  38.229  28.415  1.00  0.00     0.016 C 
HETATM   17  C21 UNL     1      70.107  38.340  26.000  1.00  0.00    -0.002 C 
HETATM   18  C22 UNL     1      70.488  36.911  25.987  1.00  0.00     0.007 C 
HETATM   19  C23 UNL     1      69.417  35.930  25.644  1.00  0.00     0.013 C 
HETATM   20  C24 UNL     1      68.373  36.524  24.797  1.00  0.00    -0.006 C 
HETATM   21  C25 UNL     1      69.062  37.144  23.573  1.00  0.00     0.019 C 
ENDROOT
BRANCH   1  22
HETATM   22  C3  UNL     1      66.719  34.606  25.118  1.00  0.00     0.163 C 
HETATM   23  C4  UNL     1      65.192  34.466  25.069  1.00  0.00     0.043 C 
BRANCH  22  24
HETATM   24  O2  UNL     1      67.238  33.343  24.948  1.00  0.00    -0.314 OA
BRANCH  24  25
HETATM   25  C2  UNL     1      67.843  32.549  25.913  1.00  0.00     0.255 C 
HETATM   26  C1  UNL     1      68.368  31.187  25.612  1.00  0.00     0.126 C 
HETATM   27  O1  UNL     1      67.935  33.030  27.072  1.00  0.00    -0.266 OA
ENDBRANCH  24  25
ENDBRANCH  22  24
ENDBRANCH   1  22
BRANCH   1  28
HETATM   28  O3  UNL     1      67.458  35.191  23.043  1.00  0.00    -0.386 OA
ATOM     29  H3  UNL     1      68.366  34.915  23.045  1.00  0.00     0.210 HD
ENDBRANCH   1  28
BRANCH  11  30
HETATM   30  C15 UNL     1      73.031  43.460  28.386  1.00  0.00     0.145 C 
BRANCH  30  31
HETATM   31  C16 UNL     1      74.265  43.762  29.202  1.00  0.00     0.183 C 
BRANCH  31  32
HETATM   32  O4  UNL     1      73.914  43.779  30.557  1.00  0.00    -0.399 OA
ATOM     33  H4  UNL     1      73.819  42.883  30.860  1.00  0.00     0.209 HD
ENDBRANCH  31  32
ENDBRANCH  30  31
ENDBRANCH  11  30
TORSDOF 7
ENDMDL
MODEL 4
REMARK VINA RESULT: -6.634072723      4.732      6.662
REMARK  7 active torsions:
REMARK  status: ('A' for Active; 'I' for Inactive)
REMARK    1  A    between atoms: C2_2  and  O2_4 
REMARK    2  A    between atoms: O2_4  and  C3_5 
REMARK    3  A    between atoms: C3_5  and  C5_7 
REMARK    4  A    between atoms: C5_7  and  O3_8 
REMARK    5  A    between atoms: N1_19  and  C15_21 
REMARK    6  A    between atoms: C15_21  and  C16_22 
REMARK    7  A    between atoms: C16_22  and  O4_23 
ROOT
HETATM    1  C5  UNL     1      66.461  33.250  26.091  1.00  0.00     0.091 C 
HETATM    2  C6  UNL     1      65.934  31.832  25.822  1.00  0.00     0.042 C 
HETATM    3  C7  UNL     1      67.153  30.992  25.434  1.00  0.00     0.009 C 
HETATM    4  C8  UNL     1      68.110  32.016  24.978  1.00  0.00     0.001 C 
HETATM    5  C9  UNL     1      69.496  31.654  24.726  1.00  0.00    -0.005 C 
HETATM    6  C10 UNL     1      69.845  30.183  24.971  1.00  0.00     0.006 C 
HETATM    7  C11 UNL     1      71.346  30.011  25.034  1.00  0.00     0.006 C 
HETATM    8  C12 UNL     1      72.045  31.041  24.171  1.00  0.00    -0.001 C 
HETATM    9  C13 UNL     1      73.477  30.643  23.914  1.00  0.00     0.057 C 
HETATM   10  C14 UNL     1      74.383  30.977  25.028  1.00  0.00    -0.018 C 
HETATM   11  N1  UNL     1      75.553  30.510  25.059  1.00  0.00    -0.394 N 
ATOM     12  H1  UNL     1      76.158  30.758  25.842  1.00  0.00     0.159 HD
HETATM   13  C17 UNL     1      73.878  31.870  26.098  1.00  0.00     0.053 C 
HETATM   14  C18 UNL     1      72.931  32.916  25.597  1.00  0.00     0.015 C 
HETATM   15  C19 UNL     1      71.875  32.428  24.672  1.00  0.00    -0.036 C 
HETATM   16  C20 UNL     1      71.782  33.341  23.444  1.00  0.00     0.016 C 
HETATM   17  C21 UNL     1      70.544  32.471  25.450  1.00  0.00    -0.002 C 
HETATM   18  C22 UNL     1      70.195  33.894  25.657  1.00  0.00     0.007 C 
HETATM   19  C23 UNL     1      68.744  34.243  25.638  1.00  0.00     0.013 C 
HETATM   20  C24 UNL     1      67.897  33.108  26.032  1.00  0.00    -0.006 C 
HETATM   21  C25 UNL     1      68.396  32.604  27.395  1.00  0.00     0.019 C 
ENDROOT
BRANCH   1  22
HETATM   22  C3  UNL     1      65.722  34.175  25.225  1.00  0.00     0.163 C 
HETATM   23  C4  UNL     1      64.195  34.082  25.346  1.00  0.00     0.043 C 
BRANCH  22  24
HETATM   24  O2  UNL     1      66.038  35.514  25.217  1.00  0.00    -0.314 OA
BRANCH  24  25
HETATM   25  C2  UNL     1      66.359  36.292  24.114  1.00  0.00     0.255 C 
HETATM   26  C1  UNL     1      66.682  35.698  22.786  1.00  0.00     0.126 C 
HETATM   27  O1  UNL     1      66.368  37.539  24.277  1.00  0.00    -0.266 OA
ENDBRANCH  24  25
ENDBRANCH  22  24
ENDBRANCH   1  22
BRANCH   1  28
HETATM   28  O3  UNL     1      65.993  33.552  27.400  1.00  0.00    -0.386 OA
ATOM     29  H3  UNL     1      65.047  33.530  27.319  1.00  0.00     0.210 HD
ENDBRANCH   1  28
BRANCH  11  30
HETATM   30  C15 UNL     1      76.068  29.648  24.047  1.00  0.00     0.145 C 
BRANCH  30  31
HETATM   31  C16 UNL     1      76.612  30.483  22.913  1.00  0.00     0.183 C 
BRANCH  31  32
HETATM   32  O4  UNL     1      76.177  29.933  21.701  1.00  0.00    -0.399 OA
ATOM     33  H4  UNL     1      75.294  29.602  21.816  1.00  0.00     0.209 HD
ENDBRANCH  31  32
ENDBRANCH  30  31
ENDBRANCH  11  30
TORSDOF 7
ENDMDL
MODEL 5
REMARK VINA RESULT: -6.443710708      1.589      2.391
REMARK  7 active torsions:
REMARK  status: ('A' for Active; 'I' for Inactive)
REMARK    1  A    between atoms: C2_2  and  O2_4 
REMARK    2  A    between atoms: O2_4  and  C3_5 
REMARK    3  A    between atoms: C3_5  and  C5_7 
REMARK    4  A    between atoms: C5_7  and  O3_8 
REMARK    5  A    between atoms: N1_19  and  C15_21 
REMARK    6  A    between atoms: C15_21  and  C16_22 
REMARK    7  A    between atoms: C16_22  and  O4_23 
ROOT
HETATM    1  C5  UNL     1      68.096  32.944  25.082  1.00  0.00     0.091 C 
HETATM    2  C6  UNL     1      67.363  33.820  24.055  1.00  0.00     0.042 C 
HETATM    3  C7  UNL     1      68.180  35.108  23.933  1.00  0.00     0.009 C 
HETATM    4  C8  UNL     1      68.926  35.130  25.203  1.00  0.00     0.001 C 
HETATM    5  C9  UNL     1      70.003  36.089  25.397  1.00  0.00    -0.005 C 
HETATM    6  C10 UNL     1      70.272  37.022  24.213  1.00  0.00     0.006 C 
HETATM    7  C11 UNL     1      71.613  37.700  24.382  1.00  0.00     0.006 C 
HETATM    8  C12 UNL     1      71.947  37.877  25.850  1.00  0.00    -0.001 C 
HETATM    9  C13 UNL     1      73.058  38.881  26.029  1.00  0.00     0.057 C 
HETATM   10  C14 UNL     1      74.399  38.312  25.803  1.00  0.00    -0.018 C 
HETATM   11  N1  UNL     1      75.401  39.068  25.695  1.00  0.00    -0.394 N 
ATOM     12  H1  UNL     1      76.317  38.646  25.539  1.00  0.00     0.159 HD
HETATM   13  C17 UNL     1      74.527  36.838  25.708  1.00  0.00     0.053 C 
HETATM   14  C18 UNL     1      73.569  36.102  26.593  1.00  0.00     0.015 C 
HETATM   15  C19 UNL     1      72.165  36.588  26.553  1.00  0.00    -0.036 C 
HETATM   16  C20 UNL     1      71.621  36.755  27.977  1.00  0.00     0.016 C 
HETATM   17  C21 UNL     1      71.343  35.517  25.807  1.00  0.00    -0.002 C 
HETATM   18  C22 UNL     1      71.273  34.323  26.678  1.00  0.00     0.007 C 
HETATM   19  C23 UNL     1      70.016  33.522  26.626  1.00  0.00     0.013 C 
HETATM   20  C24 UNL     1      69.327  33.656  25.334  1.00  0.00    -0.006 C 
HETATM   21  C25 UNL     1      70.334  33.302  24.230  1.00  0.00     0.019 C 
ENDROOT
BRANCH   1  22
HETATM   22  C3  UNL     1      67.145  32.608  26.145  1.00  0.00     0.163 C 
HETATM   23  C4  UNL     1      67.776  31.978  27.394  1.00  0.00     0.043 C 
BRANCH  22  24
HETATM   24  O2  UNL     1      66.245  33.550  26.589  1.00  0.00    -0.314 OA
BRANCH  24  25
HETATM   25  C2  UNL     1      64.870  33.549  26.400  1.00  0.00     0.255 C 
HETATM   26  C1  UNL     1      64.231  34.124  25.183  1.00  0.00     0.126 C 
HETATM   27  O1  UNL     1      64.169  33.035  27.310  1.00  0.00    -0.266 OA
ENDBRANCH  24  25
ENDBRANCH  22  24
ENDBRANCH   1  22
BRANCH   1  28
HETATM   28  O3  UNL     1      68.305  31.713  24.401  1.00  0.00    -0.386 OA
ATOM     29  H3  UNL     1      67.807  31.805  23.597  1.00  0.00     0.210 HD
ENDBRANCH   1  28
BRANCH  11  30
HETATM   30  C15 UNL     1      75.311  40.488  25.780  1.00  0.00     0.145 C 
BRANCH  30  31
HETATM   31  C16 UNL     1      76.351  40.995  26.750  1.00  0.00     0.183 C 
BRANCH  31  32
HETATM   32  O4  UNL     1      76.219  40.297  27.956  1.00  0.00    -0.399 OA
ATOM     33  H4  UNL     1      76.520  40.853  28.665  1.00  0.00     0.209 HD
ENDBRANCH  31  32
ENDBRANCH  30  31
ENDBRANCH  11  30
TORSDOF 7
ENDMDL
