MODEL 1
REMARK VINA RESULT: -7.122901447      0.000      0.000
REMARK  6 active torsions:
REMARK  status: ('A' for Active; 'I' for Inactive)
REMARK    1  A    between atoms: C2_2  and  C4_4 
REMARK    2  A    between atoms: C4_4  and  C5_5 
REMARK    3  A    between atoms: C4_4  and  C7_10 
REMARK    4  A    between atoms: C5_5  and  C6_7 
REMARK    5  A    between atoms: C6_7  and  O2_8 
REMARK    6  A    between atoms: C15_20  and  O4_21 
ROOT
HETATM    1  C7  UNL     1      71.531  38.780  26.286  1.00  0.00     0.109 C 
HETATM    2  C8  UNL     1      71.969  38.930  24.913  1.00  0.00     0.195 C 
HETATM    3  O3  UNL     1      71.789  39.734  24.081  1.00  0.00    -0.285 OA
HETATM    4  S1  UNL     1      72.998  37.457  24.637  1.00  0.00    -0.086 SA
HETATM    5  C9  UNL     1      72.577  36.638  26.241  1.00  0.00     0.069 C 
HETATM    6  C10 UNL     1      72.553  35.182  26.040  1.00  0.00     0.009 C 
HETATM    7  C11 UNL     1      73.192  34.353  27.130  1.00  0.00     0.033 C 
HETATM    8  C12 UNL     1      73.444  33.022  26.516  1.00  0.00    -0.023 C 
HETATM    9  C13 UNL     1      72.638  32.523  25.614  1.00  0.00    -0.072 C 
HETATM   10  C14 UNL     1      72.954  31.187  25.046  1.00  0.00     0.066 C 
HETATM   11  C15 UNL     1      71.746  30.295  25.222  1.00  0.00     0.122 C 
HETATM   12  C16 UNL     1      70.456  30.959  24.863  1.00  0.00     0.033 C 
HETATM   13  C17 UNL     1      70.256  32.305  25.498  1.00  0.00     0.016 C 
HETATM   14  C18 UNL     1      71.436  33.223  25.137  1.00  0.00    -0.017 C 
HETATM   15  C19 UNL     1      71.409  33.312  23.623  1.00  0.00     0.020 C 
HETATM   16  C20 UNL     1      71.214  34.572  25.750  1.00  0.00     0.003 C 
HETATM   17  C21 UNL     1      70.491  35.519  24.823  1.00  0.00     0.007 C 
HETATM   18  C22 UNL     1      70.184  36.792  25.551  1.00  0.00     0.012 C 
HETATM   19  C23 UNL     1      71.222  37.290  26.482  1.00  0.00    -0.016 C 
HETATM   20  C24 UNL     1      70.895  37.098  27.942  1.00  0.00     0.018 C 
ENDROOT
BRANCH   1  21
HETATM   21  C4  UNL     1      70.566  39.712  26.886  1.00  0.00    -0.012 C 
BRANCH  21  22
HETATM   22  C2  UNL     1      69.648  40.512  26.075  1.00  0.00     0.011 C 
HETATM   23  C1  UNL     1      68.278  39.849  25.899  1.00  0.00     0.014 C 
HETATM   24  C3  UNL     1      69.297  41.893  26.656  1.00  0.00     0.014 C 
ENDBRANCH  21  22
BRANCH  21  25
HETATM   25  C5  UNL     1      71.160  40.525  27.988  1.00  0.00     0.197 C 
HETATM   26  O1  UNL     1      72.209  41.111  27.680  1.00  0.00    -0.286 OA
BRANCH  25  27
HETATM   27  C6  UNL     1      70.636  40.688  29.326  1.00  0.00     0.186 C 
BRANCH  27  28
HETATM   28  O2  UNL     1      69.538  39.909  29.645  1.00  0.00    -0.369 OA
ATOM     29  H2  UNL     1      68.722  40.376  29.781  1.00  0.00     0.216 HD
ENDBRANCH  27  28
ENDBRANCH  25  27
ENDBRANCH  21  25
ENDBRANCH   1  21
BRANCH  11  30
HETATM   30  O4  UNL     1      71.928  29.203  24.367  1.00  0.00    -0.395 OA
ATOM     31  H4  UNL     1      71.454  28.476  24.752  1.00  0.00     0.210 HD
ENDBRANCH  11  30
TORSDOF 6
ENDMDL
MODEL 2
REMARK VINA RESULT: -7.074544036      0.650      1.179
REMARK  6 active torsions:
REMARK  status: ('A' for Active; 'I' for Inactive)
REMARK    1  A    between atoms: C2_2  and  C4_4 
REMARK    2  A    between atoms: C4_4  and  C5_5 
REMARK    3  A    between atoms: C4_4  and  C7_10 
REMARK    4  A    between atoms: C5_5  and  C6_7 
REMARK    5  A    between atoms: C6_7  and  O2_8 
REMARK    6  A    between atoms: C15_20  and  O4_21 
ROOT
HETATM    1  C7  UNL     1      71.714  38.726  26.399  1.00  0.00     0.109 C 
HETATM    2  C8  UNL     1      72.103  38.886  25.013  1.00  0.00     0.195 C 
HETATM    3  O3  UNL     1      71.910  39.706  24.199  1.00  0.00    -0.285 OA
HETATM    4  S1  UNL     1      73.089  37.396  24.678  1.00  0.00    -0.086 SA
HETATM    5  C9  UNL     1      72.711  36.563  26.287  1.00  0.00     0.069 C 
HETATM    6  C10 UNL     1      72.647  35.111  26.067  1.00  0.00     0.009 C 
HETATM    7  C11 UNL     1      73.308  34.253  27.121  1.00  0.00     0.033 C 
HETATM    8  C12 UNL     1      73.508  32.926  26.480  1.00  0.00    -0.023 C 
HETATM    9  C13 UNL     1      72.657  32.457  25.603  1.00  0.00    -0.072 C 
HETATM   10  C14 UNL     1      72.922  31.122  25.005  1.00  0.00     0.066 C 
HETATM   11  C15 UNL     1      71.703  30.254  25.216  1.00  0.00     0.122 C 
HETATM   12  C16 UNL     1      70.415  30.950  24.915  1.00  0.00     0.033 C 
HETATM   13  C17 UNL     1      70.268  32.292  25.575  1.00  0.00     0.016 C 
HETATM   14  C18 UNL     1      71.453  33.190  25.182  1.00  0.00    -0.017 C 
HETATM   15  C19 UNL     1      71.372  33.300  23.670  1.00  0.00     0.020 C 
HETATM   16  C20 UNL     1      71.285  34.534  25.820  1.00  0.00     0.003 C 
HETATM   17  C21 UNL     1      70.548  35.509  24.934  1.00  0.00     0.007 C 
HETATM   18  C22 UNL     1      70.297  36.779  25.690  1.00  0.00     0.012 C 
HETATM   19  C23 UNL     1      71.381  37.241  26.588  1.00  0.00    -0.016 C 
HETATM   20  C24 UNL     1      71.105  37.035  28.056  1.00  0.00     0.018 C 
ENDROOT
BRANCH   1  21
HETATM   21  C4  UNL     1      70.793  39.670  27.048  1.00  0.00    -0.012 C 
BRANCH  21  22
HETATM   22  C2  UNL     1      69.591  40.168  26.381  1.00  0.00     0.011 C 
HETATM   23  C1  UNL     1      68.330  39.390  26.772  1.00  0.00     0.014 C 
HETATM   24  C3  UNL     1      69.218  41.625  26.706  1.00  0.00     0.014 C 
ENDBRANCH  21  22
BRANCH  21  25
HETATM   25  C5  UNL     1      71.507  40.769  27.764  1.00  0.00     0.197 C 
HETATM   26  O1  UNL     1      71.039  41.039  28.880  1.00  0.00    -0.286 OA
BRANCH  25  27
HETATM   27  C6  UNL     1      72.654  41.511  27.290  1.00  0.00     0.186 C 
BRANCH  27  28
HETATM   28  O2  UNL     1      72.508  42.134  26.063  1.00  0.00    -0.369 OA
ATOM     29  H2  UNL     1      71.860  42.827  26.023  1.00  0.00     0.216 HD
ENDBRANCH  27  28
ENDBRANCH  25  27
ENDBRANCH  21  25
ENDBRANCH   1  21
BRANCH  11  30
HETATM   30  O4  UNL     1      71.828  29.170  24.339  1.00  0.00    -0.395 OA
ATOM     31  H4  UNL     1      71.788  28.386  24.872  1.00  0.00     0.210 HD
ENDBRANCH  11  30
TORSDOF 6
ENDMDL
MODEL 3
REMARK VINA RESULT: -6.345944362      3.061      7.533
REMARK  6 active torsions:
REMARK  status: ('A' for Active; 'I' for Inactive)
REMARK    1  A    between atoms: C2_2  and  C4_4 
REMARK    2  A    between atoms: C4_4  and  C5_5 
REMARK    3  A    between atoms: C4_4  and  C7_10 
REMARK    4  A    between atoms: C5_5  and  C6_7 
REMARK    5  A    between atoms: C6_7  and  O2_8 
REMARK    6  A    between atoms: C15_20  and  O4_21 
ROOT
HETATM    1  C7  UNL     1      70.242  35.844  25.490  1.00  0.00     0.109 C 
HETATM    2  C8  UNL     1      70.043  36.273  24.120  1.00  0.00     0.195 C 
HETATM    3  O3  UNL     1      69.784  35.721  23.120  1.00  0.00    -0.285 OA
HETATM    4  S1  UNL     1      70.296  38.071  24.203  1.00  0.00    -0.086 SA
HETATM    5  C9  UNL     1      70.882  38.093  25.958  1.00  0.00     0.069 C 
HETATM    6  C10 UNL     1      71.887  39.154  26.111  1.00  0.00     0.009 C 
HETATM    7  C11 UNL     1      71.782  39.988  27.366  1.00  0.00     0.033 C 
HETATM    8  C12 UNL     1      72.569  41.219  27.088  1.00  0.00    -0.023 C 
HETATM    9  C13 UNL     1      73.637  41.190  26.333  1.00  0.00    -0.072 C 
HETATM   10  C14 UNL     1      74.373  42.461  26.100  1.00  0.00     0.066 C 
HETATM   11  C15 UNL     1      75.819  42.252  26.487  1.00  0.00     0.122 C 
HETATM   12  C16 UNL     1      76.394  40.968  25.981  1.00  0.00     0.033 C 
HETATM   13  C17 UNL     1      75.555  39.757  26.276  1.00  0.00     0.016 C 
HETATM   14  C18 UNL     1      74.142  39.960  25.704  1.00  0.00    -0.017 C 
HETATM   15  C19 UNL     1      74.350  40.144  24.212  1.00  0.00     0.020 C 
HETATM   16  C20 UNL     1      73.321  38.737  25.977  1.00  0.00     0.003 C 
HETATM   17  C21 UNL     1      73.385  37.733  24.851  1.00  0.00     0.007 C 
HETATM   18  C22 UNL     1      72.657  36.486  25.254  1.00  0.00     0.012 C 
HETATM   19  C23 UNL     1      71.414  36.668  26.038  1.00  0.00    -0.016 C 
HETATM   20  C24 UNL     1      71.543  36.328  27.501  1.00  0.00     0.018 C 
ENDROOT
BRANCH   1  21
HETATM   21  C4  UNL     1      70.245  34.419  25.851  1.00  0.00    -0.012 C 
BRANCH  21  22
HETATM   22  C2  UNL     1      71.015  33.427  25.101  1.00  0.00     0.011 C 
HETATM   23  C1  UNL     1      72.255  32.943  25.859  1.00  0.00     0.014 C 
HETATM   24  C3  UNL     1      70.266  32.121  24.783  1.00  0.00     0.014 C 
ENDBRANCH  21  22
BRANCH  21  25
HETATM   25  C5  UNL     1      68.881  33.906  26.179  1.00  0.00     0.197 C 
HETATM   26  O1  UNL     1      68.856  33.083  27.105  1.00  0.00    -0.286 OA
BRANCH  25  27
HETATM   27  C6  UNL     1      67.638  34.279  25.541  1.00  0.00     0.186 C 
BRANCH  27  28
HETATM   28  O2  UNL     1      67.519  33.943  24.204  1.00  0.00    -0.369 OA
ATOM     29  H2  UNL     1      67.882  34.565  23.585  1.00  0.00     0.216 HD
ENDBRANCH  27  28
ENDBRANCH  25  27
ENDBRANCH  21  25
ENDBRANCH   1  21
BRANCH  11  30
HETATM   30  O4  UNL     1      76.541  43.308  25.917  1.00  0.00    -0.395 OA
ATOM     31  H4  UNL     1      77.099  43.654  26.602  1.00  0.00     0.210 HD
ENDBRANCH  11  30
TORSDOF 6
ENDMDL
MODEL 4
REMARK VINA RESULT: -6.236976290      3.996      7.209
REMARK  6 active torsions:
REMARK  status: ('A' for Active; 'I' for Inactive)
REMARK    1  A    between atoms: C2_2  and  C4_4 
REMARK    2  A    between atoms: C4_4  and  C5_5 
REMARK    3  A    between atoms: C4_4  and  C7_10 
REMARK    4  A    between atoms: C5_5  and  C6_7 
REMARK    5  A    between atoms: C6_7  and  O2_8 
REMARK    6  A    between atoms: C15_20  and  O4_21 
ROOT
HETATM    1  C7  UNL     1      67.584  36.928  24.247  1.00  0.00     0.109 C 
HETATM    2  C8  UNL     1      67.009  38.231  24.514  1.00  0.00     0.195 C 
HETATM    3  O3  UNL     1      66.017  38.767  24.198  1.00  0.00    -0.285 OA
HETATM    4  S1  UNL     1      68.250  39.028  25.577  1.00  0.00    -0.086 SA
HETATM    5  C9  UNL     1      69.528  37.704  25.388  1.00  0.00     0.069 C 
HETATM    6  C10 UNL     1      70.862  38.323  25.414  1.00  0.00     0.009 C 
HETATM    7  C11 UNL     1      71.913  37.594  26.217  1.00  0.00     0.033 C 
HETATM    8  C12 UNL     1      72.986  38.595  26.463  1.00  0.00    -0.023 C 
HETATM    9  C13 UNL     1      73.268  39.522  25.584  1.00  0.00    -0.072 C 
HETATM   10  C14 UNL     1      74.354  40.487  25.899  1.00  0.00     0.066 C 
HETATM   11  C15 UNL     1      75.355  40.466  24.766  1.00  0.00     0.122 C 
HETATM   12  C16 UNL     1      74.724  40.487  23.411  1.00  0.00     0.033 C 
HETATM   13  C17 UNL     1      73.639  39.467  23.219  1.00  0.00     0.016 C 
HETATM   14  C18 UNL     1      72.562  39.652  24.300  1.00  0.00    -0.017 C 
HETATM   15  C19 UNL     1      72.043  41.063  24.093  1.00  0.00     0.020 C 
HETATM   16  C20 UNL     1      71.470  38.650  24.084  1.00  0.00     0.003 C 
HETATM   17  C21 UNL     1      70.359  39.182  23.210  1.00  0.00     0.007 C 
HETATM   18  C22 UNL     1      69.379  38.084  22.926  1.00  0.00     0.012 C 
HETATM   19  C23 UNL     1      69.087  37.152  24.039  1.00  0.00    -0.016 C 
HETATM   20  C24 UNL     1      69.718  35.790  23.894  1.00  0.00     0.018 C 
ENDROOT
BRANCH   1  21
HETATM   21  C4  UNL     1      66.947  35.990  23.313  1.00  0.00    -0.012 C 
BRANCH  21  22
HETATM   22  C2  UNL     1      66.125  36.444  22.191  1.00  0.00     0.011 C 
HETATM   23  C1  UNL     1      66.955  37.043  21.051  1.00  0.00     0.014 C 
HETATM   24  C3  UNL     1      65.310  35.344  21.490  1.00  0.00     0.014 C 
ENDBRANCH  21  22
BRANCH  21  25
HETATM   25  C5  UNL     1      66.318  34.826  24.005  1.00  0.00     0.197 C 
HETATM   26  O1  UNL     1      66.839  33.733  23.741  1.00  0.00    -0.286 OA
BRANCH  25  27
HETATM   27  C6  UNL     1      65.203  34.865  24.926  1.00  0.00     0.186 C 
BRANCH  27  28
HETATM   28  O2  UNL     1      64.084  34.143  24.552  1.00  0.00    -0.369 OA
ATOM     29  H2  UNL     1      63.488  33.907  25.253  1.00  0.00     0.216 HD
ENDBRANCH  27  28
ENDBRANCH  25  27
ENDBRANCH  21  25
ENDBRANCH   1  21
BRANCH  11  30
HETATM   30  O4  UNL     1      76.135  41.620  24.903  1.00  0.00    -0.395 OA
ATOM     31  H4  UNL     1      76.379  41.887  24.025  1.00  0.00     0.210 HD
ENDBRANCH  11  30
TORSDOF 6
ENDMDL
MODEL 5
REMARK VINA RESULT: -6.177557867      2.021      3.236
REMARK  6 active torsions:
REMARK  status: ('A' for Active; 'I' for Inactive)
REMARK    1  A    between atoms: C2_2  and  C4_4 
REMARK    2  A    between atoms: C4_4  and  C5_5 
REMARK    3  A    between atoms: C4_4  and  C7_10 
REMARK    4  A    between atoms: C5_5  and  C6_7 
REMARK    5  A    between atoms: C6_7  and  O2_8 
REMARK    6  A    between atoms: C15_20  and  O4_21 
ROOT
HETATM    1  C7  UNL     1      70.498  39.701  25.670  1.00  0.00     0.109 C 
HETATM    2  C8  UNL     1      71.252  39.515  26.893  1.00  0.00     0.195 C 
HETATM    3  O3  UNL     1      72.068  40.141  27.453  1.00  0.00    -0.285 OA
HETATM    4  S1  UNL     1      70.647  37.920  27.522  1.00  0.00    -0.086 SA
HETATM    5  C9  UNL     1      69.646  37.502  26.024  1.00  0.00     0.069 C 
HETATM    6  C10 UNL     1      69.677  36.046  25.821  1.00  0.00     0.009 C 
HETATM    7  C11 UNL     1      68.365  35.404  25.437  1.00  0.00     0.033 C 
HETATM    8  C12 UNL     1      68.536  33.955  25.727  1.00  0.00    -0.023 C 
HETATM    9  C13 UNL     1      69.694  33.363  25.586  1.00  0.00    -0.072 C 
HETATM   10  C14 UNL     1      69.788  31.912  25.895  1.00  0.00     0.066 C 
HETATM   11  C15 UNL     1      70.366  31.204  24.690  1.00  0.00     0.122 C 
HETATM   12  C16 UNL     1      71.543  31.905  24.093  1.00  0.00     0.033 C 
HETATM   13  C17 UNL     1      71.324  33.368  23.831  1.00  0.00     0.016 C 
HETATM   14  C18 UNL     1      70.905  34.066  25.136  1.00  0.00    -0.017 C 
HETATM   15  C19 UNL     1      72.065  33.838  26.088  1.00  0.00     0.020 C 
HETATM   16  C20 UNL     1      70.717  35.528  24.873  1.00  0.00     0.003 C 
HETATM   17  C21 UNL     1      71.974  36.328  25.117  1.00  0.00     0.007 C 
HETATM   18  C22 UNL     1      71.748  37.751  24.701  1.00  0.00     0.012 C 
HETATM   19  C23 UNL     1      70.415  38.324  24.998  1.00  0.00    -0.016 C 
HETATM   20  C24 UNL     1      69.519  38.477  23.795  1.00  0.00     0.018 C 
ENDROOT
BRANCH   1  21
HETATM   21  C4  UNL     1      70.769  40.830  24.770  1.00  0.00    -0.012 C 
BRANCH  21  22
HETATM   22  C2  UNL     1      72.129  41.239  24.421  1.00  0.00     0.011 C 
HETATM   23  C1  UNL     1      72.385  41.219  22.910  1.00  0.00     0.014 C 
HETATM   24  C3  UNL     1      72.502  42.678  24.820  1.00  0.00     0.014 C 
ENDBRANCH  21  22
BRANCH  21  25
HETATM   25  C5  UNL     1      69.907  42.016  25.060  1.00  0.00     0.197 C 
HETATM   26  O1  UNL     1      69.399  42.533  24.055  1.00  0.00    -0.286 OA
BRANCH  25  27
HETATM   27  C6  UNL     1      69.622  42.583  26.359  1.00  0.00     0.186 C 
BRANCH  27  28
HETATM   28  O2  UNL     1      68.283  42.707  26.684  1.00  0.00    -0.369 OA
ATOM     29  H2  UNL     1      67.776  43.300  26.142  1.00  0.00     0.216 HD
ENDBRANCH  27  28
ENDBRANCH  25  27
ENDBRANCH  21  25
ENDBRANCH   1  21
BRANCH  11  30
HETATM   30  O4  UNL     1      70.786  29.944  25.131  1.00  0.00    -0.395 OA
ATOM     31  H4  UNL     1      71.601  29.758  24.681  1.00  0.00     0.210 HD
ENDBRANCH  11  30
TORSDOF 6
ENDMDL
