MODEL 1
REMARK VINA RESULT: -6.122198707      0.000      0.000
REMARK  6 active torsions:
REMARK  status: ('A' for Active; 'I' for Inactive)
REMARK    1  A    between atoms: O1_2  and  C2_3 
REMARK    2  A    between atoms: C2_3  and  C3_4 
REMARK    3  A    between atoms: C6_7  and  O2_8 
REMARK    4  A    between atoms: C15_18  and  O3_19 
REMARK    5  A    between atoms: C18_23  and  C20_25 
REMARK    6  A    between atoms: C21_26  and  N1_27 
ROOT
HETATM    1  C3  UNL     1      70.214  38.377  26.637  1.00  0.00    -0.012 C 
HETATM    2  C4  UNL     1      71.185  37.394  27.309  1.00  0.00     0.018 C 
HETATM    3  C5  UNL     1      71.192  39.535  26.290  1.00  0.00     0.044 C 
HETATM    4  C6  UNL     1      72.321  39.131  25.423  1.00  0.00     0.122 C 
HETATM    5  C7  UNL     1      71.888  38.328  24.197  1.00  0.00     0.066 C 
HETATM    6  C8  UNL     1      70.864  37.342  24.631  1.00  0.00    -0.072 C 
HETATM    7  C9  UNL     1      71.076  36.093  24.358  1.00  0.00    -0.000 C 
HETATM    8  C10 UNL     1      70.446  34.796  24.538  1.00  0.00    -0.016 C 
HETATM    9  C11 UNL     1      69.233  34.618  25.306  1.00  0.00    -0.016 C 
HETATM   10  C12 UNL     1      69.600  33.933  26.627  1.00  0.00     0.020 C 
HETATM   11  C13 UNL     1      68.365  33.567  24.603  1.00  0.00     0.022 C 
HETATM   12  C14 UNL     1      68.801  32.156  24.831  1.00  0.00     0.014 C 
HETATM   13  C15 UNL     1      67.037  33.782  25.276  1.00  0.00     0.123 C 
HETATM   14  C16 UNL     1      66.943  35.296  25.380  1.00  0.00     0.039 C 
HETATM   15  C17 UNL     1      68.379  35.760  25.678  1.00  0.00     0.013 C 
HETATM   16  C18 UNL     1      68.544  37.087  25.071  1.00  0.00    -0.012 C 
HETATM   17  C19 UNL     1      67.238  37.869  25.358  1.00  0.00     0.021 C 
HETATM   18  C25 UNL     1      69.679  37.936  25.377  1.00  0.00     0.037 C 
ENDROOT
BRANCH  16  19
HETATM   19  C20 UNL     1      68.506  36.975  23.584  1.00  0.00     0.001 C 
HETATM   20  C21 UNL     1      67.728  37.754  22.873  1.00  0.00     0.094 C 
BRANCH  20  21
HETATM   21  N1  UNL     1      67.671  37.670  21.452  1.00  0.00    -0.328 N 
HETATM   22  C22 UNL     1      68.592  37.997  20.532  1.00  0.00     0.114 A 
HETATM   23  C23 UNL     1      68.109  37.750  19.270  1.00  0.00     0.106 A 
HETATM   24  N2  UNL     1      66.875  37.265  19.420  1.00  0.00    -0.360 N 
HETATM   25  C24 UNL     1      66.620  37.220  20.765  1.00  0.00     0.187 A 
ATOM     26  H2  UNL     1      66.241  36.981  18.674  1.00  0.00     0.166 HD
ENDBRANCH  20  21
ENDBRANCH  16  19
BRANCH   1  27
HETATM   27  C2  UNL     1      69.393  38.964  27.718  1.00  0.00     0.176 C 
BRANCH  27  28
HETATM   28  O1  UNL     1      69.859  40.156  28.246  1.00  0.00    -0.395 OA
HETATM   29  C1  UNL     1      69.885  40.178  29.615  1.00  0.00     0.201 C 
ENDBRANCH  27  28
ENDBRANCH   1  27
BRANCH  13  30
HETATM   30  O3  UNL     1      66.933  33.170  26.515  1.00  0.00    -0.395 OA
ATOM     31  H3  UNL     1      66.044  33.125  26.847  1.00  0.00     0.210 HD
ENDBRANCH  13  30
BRANCH   4  32
HETATM   32  O2  UNL     1      72.901  40.298  24.923  1.00  0.00    -0.395 OA
ATOM     33  H2  UNL     1      73.655  40.042  24.404  1.00  0.00     0.210 HD
ENDBRANCH   4  32
TORSDOF 6
ENDMDL
MODEL 2
REMARK VINA RESULT: -5.884651412      1.061      1.237
REMARK  6 active torsions:
REMARK  status: ('A' for Active; 'I' for Inactive)
REMARK    1  A    between atoms: O1_2  and  C2_3 
REMARK    2  A    between atoms: C2_3  and  C3_4 
REMARK    3  A    between atoms: C6_7  and  O2_8 
REMARK    4  A    between atoms: C15_18  and  O3_19 
REMARK    5  A    between atoms: C18_23  and  C20_25 
REMARK    6  A    between atoms: C21_26  and  N1_27 
ROOT
HETATM    1  C3  UNL     1      70.120  39.335  26.698  1.00  0.00    -0.012 C 
HETATM    2  C4  UNL     1      71.420  38.765  27.286  1.00  0.00     0.018 C 
HETATM    3  C5  UNL     1      70.601  40.758  26.296  1.00  0.00     0.044 C 
HETATM    4  C6  UNL     1      71.734  40.764  25.344  1.00  0.00     0.122 C 
HETATM    5  C7  UNL     1      71.524  39.844  24.143  1.00  0.00     0.066 C 
HETATM    6  C8  UNL     1      70.945  38.567  24.637  1.00  0.00    -0.072 C 
HETATM    7  C9  UNL     1      71.562  37.468  24.334  1.00  0.00    -0.000 C 
HETATM    8  C10 UNL     1      71.442  36.035  24.543  1.00  0.00    -0.016 C 
HETATM    9  C11 UNL     1      70.428  35.453  25.394  1.00  0.00    -0.016 C 
HETATM   10  C12 UNL     1      71.105  34.959  26.677  1.00  0.00     0.020 C 
HETATM   11  C13 UNL     1      69.936  34.155  24.742  1.00  0.00     0.022 C 
HETATM   12  C14 UNL     1      70.854  32.990  24.921  1.00  0.00     0.014 C 
HETATM   13  C15 UNL     1      68.669  33.899  25.513  1.00  0.00     0.123 C 
HETATM   14  C16 UNL     1      68.057  35.284  25.642  1.00  0.00     0.039 C 
HETATM   15  C17 UNL     1      69.257  36.227  25.841  1.00  0.00     0.013 C 
HETATM   16  C18 UNL     1      68.901  37.520  25.240  1.00  0.00    -0.012 C 
HETATM   17  C19 UNL     1      67.427  37.797  25.631  1.00  0.00     0.021 C 
HETATM   18  C25 UNL     1      69.684  38.717  25.475  1.00  0.00     0.037 C 
ENDROOT
BRANCH  16  19
HETATM   19  C20 UNL     1      68.797  37.381  23.759  1.00  0.00     0.001 C 
HETATM   20  C21 UNL     1      67.712  37.752  23.125  1.00  0.00     0.094 C 
BRANCH  20  21
HETATM   21  N1  UNL     1      67.585  37.632  21.712  1.00  0.00    -0.328 N 
HETATM   22  C22 UNL     1      68.435  37.991  20.736  1.00  0.00     0.114 A 
HETATM   23  C23 UNL     1      67.902  37.687  19.508  1.00  0.00     0.106 A 
HETATM   24  N2  UNL     1      66.708  37.134  19.735  1.00  0.00    -0.360 N 
HETATM   25  C24 UNL     1      66.528  37.106  21.092  1.00  0.00     0.187 A 
ATOM     26  H2  UNL     1      66.054  36.795  19.029  1.00  0.00     0.166 HD
ENDBRANCH  20  21
ENDBRANCH  16  19
BRANCH   1  27
HETATM   27  C2  UNL     1      69.224  39.611  27.843  1.00  0.00     0.176 C 
BRANCH  27  28
HETATM   28  O1  UNL     1      69.558  40.711  28.614  1.00  0.00    -0.395 OA
HETATM   29  C1  UNL     1      69.548  40.462  29.961  1.00  0.00     0.201 C 
ENDBRANCH  27  28
ENDBRANCH   1  27
BRANCH  13  30
HETATM   30  O3  UNL     1      68.876  33.307  26.748  1.00  0.00    -0.395 OA
ATOM     31  H3  UNL     1      69.350  32.484  26.704  1.00  0.00     0.210 HD
ENDBRANCH  13  30
BRANCH   4  32
HETATM   32  O2  UNL     1      71.830  42.054  24.818  1.00  0.00    -0.395 OA
ATOM     33  H2  UNL     1      72.752  42.239  24.685  1.00  0.00     0.210 HD
ENDBRANCH   4  32
TORSDOF 6
ENDMDL
MODEL 3
REMARK VINA RESULT: -5.876937351      3.139      5.294
REMARK  6 active torsions:
REMARK  status: ('A' for Active; 'I' for Inactive)
REMARK    1  A    between atoms: O1_2  and  C2_3 
REMARK    2  A    between atoms: C2_3  and  C3_4 
REMARK    3  A    between atoms: C6_7  and  O2_8 
REMARK    4  A    between atoms: C15_18  and  O3_19 
REMARK    5  A    between atoms: C18_23  and  C20_25 
REMARK    6  A    between atoms: C21_26  and  N1_27 
ROOT
HETATM    1  C3  UNL     1      69.889  41.250  25.335  1.00  0.00    -0.012 C 
HETATM    2  C4  UNL     1      68.424  41.547  25.689  1.00  0.00     0.018 C 
HETATM    3  C5  UNL     1      70.608  41.988  26.500  1.00  0.00     0.044 C 
HETATM    4  C6  UNL     1      70.217  41.516  27.846  1.00  0.00     0.122 C 
HETATM    5  C7  UNL     1      70.253  39.996  27.991  1.00  0.00     0.066 C 
HETATM    6  C8  UNL     1      69.655  39.402  26.766  1.00  0.00    -0.072 C 
HETATM    7  C9  UNL     1      68.670  38.573  26.918  1.00  0.00    -0.000 C 
HETATM    8  C10 UNL     1      67.775  37.756  26.115  1.00  0.00    -0.016 C 
HETATM    9  C11 UNL     1      67.767  37.798  24.670  1.00  0.00    -0.016 C 
HETATM   10  C12 UNL     1      66.499  38.532  24.220  1.00  0.00     0.020 C 
HETATM   11  C13 UNL     1      67.544  36.374  24.146  1.00  0.00     0.022 C 
HETATM   12  C14 UNL     1      66.126  35.909  24.211  1.00  0.00     0.014 C 
HETATM   13  C15 UNL     1      67.941  36.524  22.703  1.00  0.00     0.123 C 
HETATM   14  C16 UNL     1      69.170  37.417  22.773  1.00  0.00     0.039 C 
HETATM   15  C17 UNL     1      68.868  38.412  23.908  1.00  0.00     0.013 C 
HETATM   16  C18 UNL     1      70.150  38.761  24.534  1.00  0.00    -0.012 C 
HETATM   17  C19 UNL     1      71.168  38.948  23.381  1.00  0.00     0.021 C 
HETATM   18  C25 UNL     1      70.276  39.870  25.459  1.00  0.00     0.037 C 
ENDROOT
BRANCH  16  19
HETATM   19  C20 UNL     1      70.712  37.573  25.240  1.00  0.00     0.001 C 
HETATM   20  C21 UNL     1      71.968  37.233  25.084  1.00  0.00     0.094 C 
BRANCH  20  21
HETATM   21  N1  UNL     1      72.532  36.104  25.746  1.00  0.00    -0.328 N 
HETATM   22  C22 UNL     1      73.515  36.043  26.659  1.00  0.00     0.114 A 
HETATM   23  C23 UNL     1      73.737  34.739  27.028  1.00  0.00     0.106 A 
HETATM   24  N2  UNL     1      72.878  33.992  26.331  1.00  0.00    -0.360 N 
HETATM   25  C24 UNL     1      72.144  34.844  25.550  1.00  0.00     0.187 A 
ATOM     26  H2  UNL     1      72.786  32.977  26.373  1.00  0.00     0.166 HD
ENDBRANCH  20  21
ENDBRANCH  16  19
BRANCH   1  27
HETATM   27  C2  UNL     1      70.221  42.094  24.167  1.00  0.00     0.176 C 
BRANCH  27  28
HETATM   28  O1  UNL     1      69.287  43.063  23.843  1.00  0.00    -0.395 OA
HETATM   29  C1  UNL     1      69.782  44.057  23.041  1.00  0.00     0.201 C 
ENDBRANCH  27  28
ENDBRANCH   1  27
BRANCH  13  30
HETATM   30  O3  UNL     1      66.949  37.070  21.904  1.00  0.00    -0.395 OA
ATOM     31  H3  UNL     1      67.208  37.188  20.997  1.00  0.00     0.210 HD
ENDBRANCH  13  30
BRANCH   4  32
HETATM   32  O2  UNL     1      71.162  42.004  28.750  1.00  0.00    -0.395 OA
ATOM     33  H2  UNL     1      71.328  41.317  29.386  1.00  0.00     0.210 HD
ENDBRANCH   4  32
TORSDOF 6
ENDMDL
MODEL 4
REMARK VINA RESULT: -5.856623654      3.045      5.776
REMARK  6 active torsions:
REMARK  status: ('A' for Active; 'I' for Inactive)
REMARK    1  A    between atoms: O1_2  and  C2_3 
REMARK    2  A    between atoms: C2_3  and  C3_4 
REMARK    3  A    between atoms: C6_7  and  O2_8 
REMARK    4  A    between atoms: C15_18  and  O3_19 
REMARK    5  A    between atoms: C18_23  and  C20_25 
REMARK    6  A    between atoms: C21_26  and  N1_27 
ROOT
HETATM    1  C3  UNL     1      69.210  39.013  26.733  1.00  0.00    -0.012 C 
HETATM    2  C4  UNL     1      69.454  40.313  25.952  1.00  0.00     0.018 C 
HETATM    3  C5  UNL     1      67.692  38.812  26.467  1.00  0.00     0.044 C 
HETATM    4  C6  UNL     1      67.338  38.717  25.034  1.00  0.00     0.122 C 
HETATM    5  C7  UNL     1      68.214  37.737  24.256  1.00  0.00     0.066 C 
HETATM    6  C8  UNL     1      69.623  37.937  24.686  1.00  0.00    -0.072 C 
HETATM    7  C9  UNL     1      70.504  38.182  23.768  1.00  0.00    -0.000 C 
HETATM    8  C10 UNL     1      71.928  38.442  23.639  1.00  0.00    -0.016 C 
HETATM    9  C11 UNL     1      72.800  38.592  24.783  1.00  0.00    -0.016 C 
HETATM   10  C12 UNL     1      73.171  40.074  24.912  1.00  0.00     0.020 C 
HETATM   11  C13 UNL     1      74.144  37.928  24.457  1.00  0.00     0.022 C 
HETATM   12  C14 UNL     1      75.037  38.744  23.581  1.00  0.00     0.014 C 
HETATM   13  C15 UNL     1      74.763  37.828  25.825  1.00  0.00     0.123 C 
HETATM   14  C16 UNL     1      73.594  37.413  26.704  1.00  0.00     0.039 C 
HETATM   15  C17 UNL     1      72.384  38.172  26.133  1.00  0.00     0.013 C 
HETATM   16  C18 UNL     1      71.198  37.335  26.358  1.00  0.00    -0.012 C 
HETATM   17  C19 UNL     1      71.337  36.748  27.785  1.00  0.00     0.021 C 
HETATM   18  C25 UNL     1      69.853  37.848  26.187  1.00  0.00     0.037 C 
ENDROOT
BRANCH  16  19
HETATM   19  C20 UNL     1      71.277  36.103  25.518  1.00  0.00     0.001 C 
HETATM   20  C21 UNL     1      71.446  34.927  26.070  1.00  0.00     0.094 C 
BRANCH  20  21
HETATM   21  N1  UNL     1      71.525  33.735  25.294  1.00  0.00    -0.328 N 
HETATM   22  C22 UNL     1      70.897  33.405  24.154  1.00  0.00     0.114 A 
HETATM   23  C23 UNL     1      71.273  32.147  23.753  1.00  0.00     0.106 A 
HETATM   24  N2  UNL     1      72.145  31.700  24.659  1.00  0.00    -0.360 N 
HETATM   25  C24 UNL     1      72.290  32.686  25.599  1.00  0.00     0.187 A 
ATOM     26  H2  UNL     1      72.614  30.795  24.654  1.00  0.00     0.166 HD
ENDBRANCH  20  21
ENDBRANCH  16  19
BRANCH   1  27
HETATM   27  C2  UNL     1      69.241  39.370  28.168  1.00  0.00     0.176 C 
BRANCH  27  28
HETATM   28  O1  UNL     1      70.371  40.046  28.594  1.00  0.00    -0.395 OA
HETATM   29  C1  UNL     1      70.227  40.641  29.819  1.00  0.00     0.201 C 
ENDBRANCH  27  28
ENDBRANCH   1  27
BRANCH  13  30
HETATM   30  O3  UNL     1      75.348  39.006  26.261  1.00  0.00    -0.395 OA
ATOM     31  H3  UNL     1      75.035  39.298  27.109  1.00  0.00     0.210 HD
ENDBRANCH  13  30
BRANCH   4  32
HETATM   32  O2  UNL     1      66.041  38.206  24.958  1.00  0.00    -0.395 OA
ATOM     33  H2  UNL     1      66.109  37.258  24.951  1.00  0.00     0.210 HD
ENDBRANCH   4  32
TORSDOF 6
ENDMDL
MODEL 5
REMARK VINA RESULT: -5.634345595      3.595      6.163
REMARK  6 active torsions:
REMARK  status: ('A' for Active; 'I' for Inactive)
REMARK    1  A    between atoms: O1_2  and  C2_3 
REMARK    2  A    between atoms: C2_3  and  C3_4 
REMARK    3  A    between atoms: C6_7  and  O2_8 
REMARK    4  A    between atoms: C15_18  and  O3_19 
REMARK    5  A    between atoms: C18_23  and  C20_25 
REMARK    6  A    between atoms: C21_26  and  N1_27 
ROOT
HETATM    1  C3  UNL     1      73.233  38.536  25.326  1.00  0.00    -0.012 C 
HETATM    2  C4  UNL     1      72.914  39.060  23.917  1.00  0.00     0.018 C 
HETATM    3  C5  UNL     1      74.382  39.504  25.726  1.00  0.00     0.044 C 
HETATM    4  C6  UNL     1      74.003  40.933  25.698  1.00  0.00     0.122 C 
HETATM    5  C7  UNL     1      72.693  41.229  26.427  1.00  0.00     0.066 C 
HETATM    6  C8  UNL     1      71.716  40.170  26.065  1.00  0.00    -0.072 C 
HETATM    7  C9  UNL     1      70.576  40.544  25.575  1.00  0.00    -0.000 C 
HETATM    8  C10 UNL     1      69.337  39.965  25.083  1.00  0.00    -0.016 C 
HETATM    9  C11 UNL     1      69.144  38.538  24.941  1.00  0.00    -0.016 C 
HETATM   10  C12 UNL     1      69.174  38.198  23.446  1.00  0.00     0.020 C 
HETATM   11  C13 UNL     1      67.703  38.202  25.343  1.00  0.00     0.022 C 
HETATM   12  C14 UNL     1      66.684  38.515  24.296  1.00  0.00     0.014 C 
HETATM   13  C15 UNL     1      67.785  36.709  25.512  1.00  0.00     0.123 C 
HETATM   14  C16 UNL     1      69.122  36.513  26.208  1.00  0.00     0.039 C 
HETATM   15  C17 UNL     1      70.050  37.569  25.582  1.00  0.00     0.013 C 
HETATM   16  C18 UNL     1      71.015  37.968  26.615  1.00  0.00    -0.012 C 
HETATM   17  C19 UNL     1      71.444  36.670  27.343  1.00  0.00     0.021 C 
HETATM   18  C25 UNL     1      72.197  38.746  26.301  1.00  0.00     0.037 C 
ENDROOT
BRANCH  16  19
HETATM   19  C20 UNL     1      70.316  38.707  27.707  1.00  0.00     0.001 C 
HETATM   20  C21 UNL     1      70.859  38.819  28.894  1.00  0.00     0.094 C 
BRANCH  20  21
HETATM   21  N1  UNL     1      70.215  39.518  29.955  1.00  0.00    -0.328 N 
HETATM   22  C22 UNL     1      69.314  40.513  29.910  1.00  0.00     0.114 A 
HETATM   23  C23 UNL     1      68.961  40.891  31.182  1.00  0.00     0.106 A 
HETATM   24  N2  UNL     1      69.655  40.115  32.018  1.00  0.00    -0.360 N 
HETATM   25  C24 UNL     1      70.419  39.277  31.250  1.00  0.00     0.187 A 
ATOM     26  H2  UNL     1      69.621  40.142  33.037  1.00  0.00     0.166 HD
ENDBRANCH  20  21
ENDBRANCH  16  19
BRANCH   1  27
HETATM   27  C2  UNL     1      73.944  37.251  25.147  1.00  0.00     0.176 C 
BRANCH  27  28
HETATM   28  O1  UNL     1      74.930  36.976  26.079  1.00  0.00    -0.395 OA
HETATM   29  C1  UNL     1      74.711  35.824  26.787  1.00  0.00     0.201 C 
ENDBRANCH  27  28
ENDBRANCH   1  27
BRANCH  13  30
HETATM   30  O3  UNL     1      67.712  36.006  24.320  1.00  0.00    -0.395 OA
ATOM     31  H3  UNL     1      68.427  35.393  24.192  1.00  0.00     0.210 HD
ENDBRANCH  13  30
BRANCH   4  32
HETATM   32  O2  UNL     1      74.988  41.640  26.392  1.00  0.00    -0.395 OA
ATOM     33  H2  UNL     1      74.950  42.543  26.098  1.00  0.00     0.210 HD
ENDBRANCH   4  32
TORSDOF 6
ENDMDL
