MODEL 1
REMARK VINA RESULT: -6.802624656      0.000      0.000
REMARK  9 active torsions:
REMARK  status: ('A' for Active; 'I' for Inactive)
REMARK    1  A    between atoms: C3_5  and  O1_6 
REMARK    2  A    between atoms: C4_8  and  N2_9 
REMARK    3  A    between atoms: N3_11  and  C5_13 
REMARK    4  A    between atoms: C5_13  and  N4_15 
REMARK    5  A    between atoms: N4_15  and  C6_16 
REMARK    6  A    between atoms: N4_15  and  C10_20 
REMARK    7  A    between atoms: C10_20  and  C13_23 
REMARK    8  A    between atoms: C16_26  and  C17_27 
REMARK    9  A    between atoms: C17_27  and  O2_29 
ROOT
HETATM    1  N2  UNL     1      73.972  32.835  26.498  1.00  0.00    -0.294 N 
ATOM      2  H2  UNL     1      74.501  32.550  27.322  1.00  0.00     0.187 HD
HETATM    3  N3  UNL     1      73.460  31.922  25.860  1.00  0.00    -0.276 N 
ATOM      4  H3  UNL     1      73.617  30.981  26.222  1.00  0.00     0.189 HD
ENDROOT
BRANCH   1   5
HETATM    5  C4  UNL     1      73.936  34.236  26.256  1.00  0.00     0.100 A 
HETATM    6  C3  UNL     1      74.849  34.857  25.551  1.00  0.00     0.169 A 
HETATM    7  N1  UNL     1      74.794  36.241  25.325  1.00  0.00    -0.335 N 
HETATM    8  C2  UNL     1      73.707  37.044  25.873  1.00  0.00     0.037 A 
ATOM      9  H1  UNL     1      75.524  36.689  24.770  1.00  0.00     0.168 HD
HETATM   10  C1  UNL     1      73.719  38.322  25.623  1.00  0.00     0.044 C 
HETATM   11  C16 UNL     1      72.713  36.330  26.650  1.00  0.00     0.021 A 
HETATM   12  C15 UNL     1      72.848  34.991  26.814  1.00  0.00     0.051 A 
BRANCH   6  13
HETATM   13  O1  UNL     1      75.911  34.147  25.002  1.00  0.00    -0.344 OA
ATOM     14  H1  UNL     1      76.544  33.762  25.595  1.00  0.00     0.219 HD
ENDBRANCH   6  13
BRANCH  11  15
HETATM   15  C17 UNL     1      71.583  36.943  27.261  1.00  0.00     0.052 C 
HETATM   16  C18 UNL     1      70.529  37.740  26.642  1.00  0.00     0.077 C 
BRANCH  15  17
HETATM   17  O2  UNL     1      71.489  36.761  28.550  1.00  0.00    -0.364 OA
ATOM     18  H2  UNL     1      70.865  37.326  28.990  1.00  0.00     0.217 HD
ENDBRANCH  15  17
ENDBRANCH  11  15
ENDBRANCH   1   5
BRANCH   3  19
HETATM   19  C5  UNL     1      72.675  32.014  24.679  1.00  0.00     0.190 C 
HETATM   20  S1  UNL     1      73.411  32.451  23.275  1.00  0.00    -0.039 SA
BRANCH  19  21
HETATM   21  N4  UNL     1      71.256  31.720  24.652  1.00  0.00    -0.340 N 
BRANCH  21  22
HETATM   22  C6  UNL     1      70.916  30.368  24.387  1.00  0.00     0.025 C 
HETATM   23  C7  UNL     1      72.124  29.500  24.796  1.00  0.00     0.037 C 
HETATM   24  C8  UNL     1      70.664  29.964  22.960  1.00  0.00     0.037 C 
HETATM   25  C9  UNL     1      69.745  29.940  25.249  1.00  0.00     0.037 C 
ENDBRANCH  21  22
BRANCH  21  26
HETATM   26  C10 UNL     1      70.413  32.854  24.899  1.00  0.00     0.028 C 
HETATM   27  C11 UNL     1      70.342  33.130  26.410  1.00  0.00     0.038 C 
HETATM   28  C12 UNL     1      68.952  32.703  24.514  1.00  0.00     0.038 C 
BRANCH  26  29
HETATM   29  C13 UNL     1      70.940  34.062  24.207  1.00  0.00     0.026 C 
HETATM   30  C14 UNL     1      69.925  35.194  24.165  1.00  0.00     0.007 C 
ENDBRANCH  26  29
ENDBRANCH  21  26
ENDBRANCH  19  21
ENDBRANCH   3  19
TORSDOF 9
ENDMDL
MODEL 2
REMARK VINA RESULT: -6.493355073      1.471      2.513
REMARK  9 active torsions:
REMARK  status: ('A' for Active; 'I' for Inactive)
REMARK    1  A    between atoms: C3_5  and  O1_6 
REMARK    2  A    between atoms: C4_8  and  N2_9 
REMARK    3  A    between atoms: N3_11  and  C5_13 
REMARK    4  A    between atoms: C5_13  and  N4_15 
REMARK    5  A    between atoms: N4_15  and  C6_16 
REMARK    6  A    between atoms: N4_15  and  C10_20 
REMARK    7  A    between atoms: C10_20  and  C13_23 
REMARK    8  A    between atoms: C16_26  and  C17_27 
REMARK    9  A    between atoms: C17_27  and  O2_29 
ROOT
HETATM    1  N2  UNL     1      73.683  33.756  26.871  1.00  0.00    -0.294 N 
ATOM      2  H2  UNL     1      74.117  33.624  27.784  1.00  0.00     0.187 HD
HETATM    3  N3  UNL     1      73.232  32.740  26.352  1.00  0.00    -0.276 N 
ATOM      4  H3  UNL     1      73.338  31.879  26.889  1.00  0.00     0.189 HD
ENDROOT
BRANCH   1   5
HETATM    5  C4  UNL     1      73.689  35.091  26.383  1.00  0.00     0.100 A 
HETATM    6  C3  UNL     1      74.632  35.557  25.602  1.00  0.00     0.169 A 
HETATM    7  N1  UNL     1      74.619  36.879  25.132  1.00  0.00    -0.335 N 
HETATM    8  C2  UNL     1      73.543  37.792  25.504  1.00  0.00     0.037 A 
ATOM      9  H1  UNL     1      75.370  37.205  24.525  1.00  0.00     0.168 HD
HETATM   10  C1  UNL     1      73.594  39.004  25.032  1.00  0.00     0.044 C 
HETATM   11  C16 UNL     1      72.515  37.250  26.371  1.00  0.00     0.021 A 
HETATM   12  C15 UNL     1      72.611  35.959  26.773  1.00  0.00     0.051 A 
BRANCH   6  13
HETATM   13  O1  UNL     1      75.685  34.736  25.212  1.00  0.00    -0.344 OA
ATOM     14  H1  UNL     1      76.292  34.442  25.880  1.00  0.00     0.219 HD
ENDBRANCH   6  13
BRANCH  11  15
HETATM   15  C17 UNL     1      71.391  37.988  26.837  1.00  0.00     0.052 C 
HETATM   16  C18 UNL     1      70.057  38.088  26.253  1.00  0.00     0.077 C 
BRANCH  15  17
HETATM   17  O2  UNL     1      71.593  38.662  27.936  1.00  0.00    -0.364 OA
ATOM     18  H2  UNL     1      72.491  38.941  28.075  1.00  0.00     0.217 HD
ENDBRANCH  15  17
ENDBRANCH  11  15
ENDBRANCH   1   5
BRANCH   3  19
HETATM   19  C5  UNL     1      72.578  32.617  25.096  1.00  0.00     0.190 C 
HETATM   20  S1  UNL     1      71.731  33.903  24.519  1.00  0.00    -0.039 SA
BRANCH  19  21
HETATM   21  N4  UNL     1      72.641  31.415  24.291  1.00  0.00    -0.340 N 
BRANCH  21  22
HETATM   22  C6  UNL     1      73.821  31.256  23.518  1.00  0.00     0.025 C 
HETATM   23  C7  UNL     1      74.794  30.382  24.336  1.00  0.00     0.037 C 
HETATM   24  C8  UNL     1      74.636  32.482  23.203  1.00  0.00     0.037 C 
HETATM   25  C9  UNL     1      73.517  30.508  22.236  1.00  0.00     0.037 C 
ENDBRANCH  21  22
BRANCH  21  26
HETATM   26  C10 UNL     1      71.490  30.567  24.402  1.00  0.00     0.028 C 
HETATM   27  C11 UNL     1      71.926  29.150  24.810  1.00  0.00     0.038 C 
HETATM   28  C12 UNL     1      70.705  30.326  23.126  1.00  0.00     0.038 C 
BRANCH  26  29
HETATM   29  C13 UNL     1      70.543  31.098  25.422  1.00  0.00     0.026 C 
HETATM   30  C14 UNL     1      69.117  30.621  25.190  1.00  0.00     0.007 C 
ENDBRANCH  26  29
ENDBRANCH  21  26
ENDBRANCH  19  21
ENDBRANCH   3  19
TORSDOF 9
ENDMDL
MODEL 3
REMARK VINA RESULT: -6.484007232      1.473      2.234
REMARK  9 active torsions:
REMARK  status: ('A' for Active; 'I' for Inactive)
REMARK    1  A    between atoms: C3_5  and  O1_6 
REMARK    2  A    between atoms: C4_8  and  N2_9 
REMARK    3  A    between atoms: N3_11  and  C5_13 
REMARK    4  A    between atoms: C5_13  and  N4_15 
REMARK    5  A    between atoms: N4_15  and  C6_16 
REMARK    6  A    between atoms: N4_15  and  C10_20 
REMARK    7  A    between atoms: C10_20  and  C13_23 
REMARK    8  A    between atoms: C16_26  and  C17_27 
REMARK    9  A    between atoms: C17_27  and  O2_29 
ROOT
HETATM    1  N2  UNL     1      73.486  34.122  26.937  1.00  0.00    -0.294 N 
ATOM      2  H2  UNL     1      73.757  34.172  27.919  1.00  0.00     0.187 HD
HETATM    3  N3  UNL     1      73.548  33.007  26.431  1.00  0.00    -0.276 N 
ATOM      4  H3  UNL     1      73.860  32.254  27.045  1.00  0.00     0.189 HD
ENDROOT
BRANCH   1   5
HETATM    5  C4  UNL     1      73.092  35.357  26.353  1.00  0.00     0.100 A 
HETATM    6  C3  UNL     1      73.940  36.167  25.768  1.00  0.00     0.169 A 
HETATM    7  N1  UNL     1      73.530  37.382  25.198  1.00  0.00    -0.335 N 
HETATM    8  C2  UNL     1      72.130  37.790  25.238  1.00  0.00     0.037 A 
ATOM      9  H1  UNL     1      74.219  37.986  24.750  1.00  0.00     0.168 HD
HETATM   10  C1  UNL     1      71.820  38.929  24.690  1.00  0.00     0.044 C 
HETATM   11  C16 UNL     1      71.215  36.874  25.893  1.00  0.00     0.021 A 
HETATM   12  C15 UNL     1      71.703  35.722  26.414  1.00  0.00     0.051 A 
BRANCH   6  13
HETATM   13  O1  UNL     1      75.288  35.834  25.697  1.00  0.00    -0.344 OA
ATOM     14  H1  UNL     1      75.639  35.249  26.357  1.00  0.00     0.219 HD
ENDBRANCH   6  13
BRANCH  11  15
HETATM   15  C17 UNL     1      69.817  37.101  26.029  1.00  0.00     0.052 C 
HETATM   16  C18 UNL     1      68.713  36.455  25.325  1.00  0.00     0.077 C 
BRANCH  15  17
HETATM   17  O2  UNL     1      69.491  38.013  26.905  1.00  0.00    -0.364 OA
ATOM     18  H2  UNL     1      69.760  38.896  26.682  1.00  0.00     0.217 HD
ENDBRANCH  15  17
ENDBRANCH  11  15
ENDBRANCH   1   5
BRANCH   3  19
HETATM   19  C5  UNL     1      73.237  32.634  25.095  1.00  0.00     0.190 C 
HETATM   20  S1  UNL     1      74.082  33.328  23.867  1.00  0.00    -0.039 SA
BRANCH  19  21
HETATM   21  N4  UNL     1      72.220  31.656  24.767  1.00  0.00    -0.340 N 
BRANCH  21  22
HETATM   22  C6  UNL     1      72.699  30.360  24.444  1.00  0.00     0.025 C 
HETATM   23  C7  UNL     1      72.825  30.284  22.909  1.00  0.00     0.037 C 
HETATM   24  C8  UNL     1      71.832  29.176  24.781  1.00  0.00     0.037 C 
HETATM   25  C9  UNL     1      74.086  30.151  25.018  1.00  0.00     0.037 C 
ENDBRANCH  21  22
BRANCH  21  26
HETATM   26  C10 UNL     1      70.878  32.158  24.819  1.00  0.00     0.028 C 
HETATM   27  C11 UNL     1      70.773  33.450  23.993  1.00  0.00     0.038 C 
HETATM   28  C12 UNL     1      70.372  32.587  26.185  1.00  0.00     0.038 C 
BRANCH  26  29
HETATM   29  C13 UNL     1      69.921  31.154  24.278  1.00  0.00     0.026 C 
HETATM   30  C14 UNL     1      68.701  30.978  25.171  1.00  0.00     0.007 C 
ENDBRANCH  26  29
ENDBRANCH  21  26
ENDBRANCH  19  21
ENDBRANCH   3  19
TORSDOF 9
ENDMDL
MODEL 4
REMARK VINA RESULT: -6.476530753      1.593      2.753
REMARK  9 active torsions:
REMARK  status: ('A' for Active; 'I' for Inactive)
REMARK    1  A    between atoms: C3_5  and  O1_6 
REMARK    2  A    between atoms: C4_8  and  N2_9 
REMARK    3  A    between atoms: N3_11  and  C5_13 
REMARK    4  A    between atoms: C5_13  and  N4_15 
REMARK    5  A    between atoms: N4_15  and  C6_16 
REMARK    6  A    between atoms: N4_15  and  C10_20 
REMARK    7  A    between atoms: C10_20  and  C13_23 
REMARK    8  A    between atoms: C16_26  and  C17_27 
REMARK    9  A    between atoms: C17_27  and  O2_29 
ROOT
HETATM    1  N2  UNL     1      73.627  33.608  26.887  1.00  0.00    -0.294 N 
ATOM      2  H2  UNL     1      74.026  33.459  27.814  1.00  0.00     0.187 HD
HETATM    3  N3  UNL     1      73.118  32.619  26.371  1.00  0.00    -0.276 N 
ATOM      4  H3  UNL     1      73.146  31.761  26.922  1.00  0.00     0.189 HD
ENDROOT
BRANCH   1   5
HETATM    5  C4  UNL     1      73.744  34.930  26.380  1.00  0.00     0.100 A 
HETATM    6  C3  UNL     1      74.764  35.327  25.661  1.00  0.00     0.169 A 
HETATM    7  N1  UNL     1      74.860  36.638  25.171  1.00  0.00    -0.335 N 
HETATM    8  C2  UNL     1      73.814  37.617  25.450  1.00  0.00     0.037 A 
ATOM      9  H1  UNL     1      75.670  36.910  24.614  1.00  0.00     0.168 HD
HETATM   10  C1  UNL     1      73.968  38.815  24.964  1.00  0.00     0.044 C 
HETATM   11  C16 UNL     1      72.698  37.150  26.249  1.00  0.00     0.021 A 
HETATM   12  C15 UNL     1      72.692  35.864  26.677  1.00  0.00     0.051 A 
BRANCH   6  13
HETATM   13  O1  UNL     1      75.794  34.442  25.361  1.00  0.00    -0.344 OA
ATOM     14  H1  UNL     1      76.640  34.588  25.767  1.00  0.00     0.219 HD
ENDBRANCH   6  13
BRANCH  11  15
HETATM   15  C17 UNL     1      71.588  37.958  26.621  1.00  0.00     0.052 C 
HETATM   16  C18 UNL     1      70.295  38.097  25.958  1.00  0.00     0.077 C 
BRANCH  15  17
HETATM   17  O2  UNL     1      71.762  38.667  27.704  1.00  0.00    -0.364 OA
ATOM     18  H2  UNL     1      71.384  39.538  27.677  1.00  0.00     0.217 HD
ENDBRANCH  15  17
ENDBRANCH  11  15
ENDBRANCH   1   5
BRANCH   3  19
HETATM   19  C5  UNL     1      72.492  32.522  25.098  1.00  0.00     0.190 C 
HETATM   20  S1  UNL     1      71.667  33.824  24.524  1.00  0.00    -0.039 SA
BRANCH  19  21
HETATM   21  N4  UNL     1      72.564  31.333  24.274  1.00  0.00    -0.340 N 
BRANCH  21  22
HETATM   22  C6  UNL     1      71.420  30.493  24.309  1.00  0.00     0.025 C 
HETATM   23  C7  UNL     1      71.881  29.108  24.810  1.00  0.00     0.037 C 
HETATM   24  C8  UNL     1      70.727  30.180  23.011  1.00  0.00     0.037 C 
HETATM   25  C9  UNL     1      70.410  31.017  25.310  1.00  0.00     0.037 C 
ENDBRANCH  21  22
BRANCH  21  26
HETATM   26  C10 UNL     1      73.792  31.190  23.547  1.00  0.00     0.028 C 
HETATM   27  C11 UNL     1      74.335  32.578  23.167  1.00  0.00     0.038 C 
HETATM   28  C12 UNL     1      73.703  30.483  22.207  1.00  0.00     0.038 C 
BRANCH  26  29
HETATM   29  C13 UNL     1      74.809  30.477  24.368  1.00  0.00     0.026 C 
HETATM   30  C14 UNL     1      76.133  30.315  23.635  1.00  0.00     0.007 C 
ENDBRANCH  26  29
ENDBRANCH  21  26
ENDBRANCH  19  21
ENDBRANCH   3  19
TORSDOF 9
ENDMDL
MODEL 5
REMARK VINA RESULT: -6.463775969      0.384      2.499
REMARK  9 active torsions:
REMARK  status: ('A' for Active; 'I' for Inactive)
REMARK    1  A    between atoms: C3_5  and  O1_6 
REMARK    2  A    between atoms: C4_8  and  N2_9 
REMARK    3  A    between atoms: N3_11  and  C5_13 
REMARK    4  A    between atoms: C5_13  and  N4_15 
REMARK    5  A    between atoms: N4_15  and  C6_16 
REMARK    6  A    between atoms: N4_15  and  C10_20 
REMARK    7  A    between atoms: C10_20  and  C13_23 
REMARK    8  A    between atoms: C16_26  and  C17_27 
REMARK    9  A    between atoms: C17_27  and  O2_29 
ROOT
HETATM    1  N2  UNL     1      73.870  32.966  26.560  1.00  0.00    -0.294 N 
ATOM      2  H2  UNL     1      74.389  32.686  27.392  1.00  0.00     0.187 HD
HETATM    3  N3  UNL     1      73.333  32.052  25.944  1.00  0.00    -0.276 N 
ATOM      4  H3  UNL     1      73.462  31.116  26.329  1.00  0.00     0.189 HD
ENDROOT
BRANCH   1   5
HETATM    5  C4  UNL     1      73.873  34.361  26.283  1.00  0.00     0.100 A 
HETATM    6  C3  UNL     1      74.829  34.946  25.606  1.00  0.00     0.169 A 
HETATM    7  N1  UNL     1      74.814  36.325  25.344  1.00  0.00    -0.335 N 
HETATM    8  C2  UNL     1      73.720  37.163  25.824  1.00  0.00     0.037 A 
ATOM      9  H1  UNL     1      75.576  36.745  24.813  1.00  0.00     0.168 HD
HETATM   10  C1  UNL     1      73.770  38.433  25.545  1.00  0.00     0.044 C 
HETATM   11  C16 UNL     1      72.677  36.488  26.571  1.00  0.00     0.021 A 
HETATM   12  C15 UNL     1      72.778  35.151  26.774  1.00  0.00     0.051 A 
BRANCH   6  13
HETATM   13  O1  UNL     1      75.900  34.202  25.122  1.00  0.00    -0.344 OA
ATOM     14  H1  UNL     1      75.716  33.505  24.504  1.00  0.00     0.219 HD
ENDBRANCH   6  13
BRANCH  11  15
HETATM   15  C17 UNL     1      71.535  37.138  27.117  1.00  0.00     0.052 C 
HETATM   16  C18 UNL     1      70.343  37.623  26.427  1.00  0.00     0.077 C 
BRANCH  15  17
HETATM   17  O2  UNL     1      71.570  37.320  28.409  1.00  0.00    -0.364 OA
ATOM     18  H2  UNL     1      71.273  38.173  28.701  1.00  0.00     0.217 HD
ENDBRANCH  15  17
ENDBRANCH  11  15
ENDBRANCH   1   5
BRANCH   3  19
HETATM   19  C5  UNL     1      72.552  32.137  24.760  1.00  0.00     0.190 C 
HETATM   20  S1  UNL     1      73.307  32.486  23.341  1.00  0.00    -0.039 SA
BRANCH  19  21
HETATM   21  N4  UNL     1      71.121  31.910  24.742  1.00  0.00    -0.340 N 
BRANCH  21  22
HETATM   22  C6  UNL     1      70.316  33.068  24.899  1.00  0.00     0.025 C 
HETATM   23  C7  UNL     1      70.257  33.387  26.407  1.00  0.00     0.037 C 
HETATM   24  C8  UNL     1      68.866  32.986  24.503  1.00  0.00     0.037 C 
HETATM   25  C9  UNL     1      70.960  34.258  24.216  1.00  0.00     0.037 C 
ENDBRANCH  21  22
BRANCH  21  26
HETATM   26  C10 UNL     1      70.742  30.538  24.568  1.00  0.00     0.028 C 
HETATM   27  C11 UNL     1      69.499  30.231  25.420  1.00  0.00     0.038 C 
HETATM   28  C12 UNL     1      71.741  29.498  25.040  1.00  0.00     0.038 C 
BRANCH  26  29
HETATM   29  C13 UNL     1      70.435  30.255  23.139  1.00  0.00     0.026 C 
HETATM   30  C14 UNL     1      71.384  29.230  22.537  1.00  0.00     0.007 C 
ENDBRANCH  26  29
ENDBRANCH  21  26
ENDBRANCH  19  21
ENDBRANCH   3  19
TORSDOF 9
ENDMDL
