MODEL 1
REMARK VINA RESULT: -10.221553393      0.000      0.000
REMARK  9 active torsions:
REMARK  status: ('A' for Active; 'I' for Inactive)
REMARK    1  A    between atoms: C2_7  and  C3_8 
REMARK    2  A    between atoms: C3_8  and  N4_9 
REMARK    3  A    between atoms: C3_8  and  C7_21 
REMARK       I    between atoms: N4_9  and  C4_11 
REMARK       I    between atoms: C4_11  and  N6_15 
REMARK    4  A    between atoms: N6_15  and  C5_17 
REMARK    5  A    between atoms: C5_17  and  C6_18 
REMARK    6  A    between atoms: C6_18  and  O1_19 
REMARK    7  A    between atoms: C8_24  and  C9_25 
REMARK       I    between atoms: C9_25  and  N8_27 
REMARK    8  A    between atoms: N8_27  and  C10_29 
REMARK    9  A    between atoms: C11_35  and  N11_36 
ROOT
HETATM    1  C3  UNL     1     -17.202  -5.435 -36.238  1.00  0.00     0.245 C 
ENDROOT
BRANCH   1   2
HETATM    2  C2  UNL     1     -18.085  -6.263 -37.121  1.00  0.00     0.145 A 
HETATM    3  N3  UNL     1     -17.920  -6.576 -38.418  1.00  0.00    -0.270 N 
HETATM    4  N2  UNL     1     -18.952  -7.333 -38.775  1.00  0.00    -0.225 N 
ATOM      5  H3  UNL     1     -17.147  -6.286 -39.017  1.00  0.00     0.190 HD
HETATM    6  N1  UNL     1     -19.757  -7.508 -37.750  1.00  0.00    -0.223 N 
ATOM      7  H2  UNL     1     -19.097  -7.721 -39.707  1.00  0.00     0.210 HD
HETATM    8  C1  UNL     1     -21.002  -8.270 -37.699  1.00  0.00     0.202 C 
HETATM    9  N13 UNL     1     -19.221  -6.848 -36.736  1.00  0.00    -0.268 N 
ATOM     10  H13 UNL     1     -19.619  -6.793 -35.798  1.00  0.00     0.190 HD
ENDBRANCH   1   2
BRANCH   1  11
HETATM   11  N4  UNL     1     -16.398  -4.565 -37.046  1.00  0.00    -0.208 N 
HETATM   12  C4  UNL     1     -16.525  -3.161 -36.979  1.00  0.00     0.668 C 
HETATM   13  N5  UNL     1     -16.973  -2.571 -35.937  1.00  0.00    -0.235 N 
HETATM   14  N6  UNL     1     -16.137  -2.383 -38.106  1.00  0.00    -0.225 N 
ATOM     15  H52 UNL     1     -17.251  -3.128 -35.129  1.00  0.00     0.174 HD
ATOM     16  H51 UNL     1     -17.065  -1.557 -35.889  1.00  0.00     0.174 HD
ATOM     17  H6  UNL     1     -15.334  -2.700 -38.650  1.00  0.00     0.177 HD
ATOM     18  H4  UNL     1     -15.717  -4.972 -37.686  1.00  0.00     0.179 HD
BRANCH  14  19
HETATM   19  C5  UNL     1     -16.797  -1.190 -38.526  1.00  0.00     0.164 C 
BRANCH  19  20
HETATM   20  C6  UNL     1     -18.276  -1.458 -38.753  1.00  0.00     0.184 C 
BRANCH  20  21
HETATM   21  O1  UNL     1     -18.983  -0.446 -38.120  1.00  0.00    -0.399 OA
ATOM     22  H1  UNL     1     -19.772  -0.291 -38.626  1.00  0.00     0.209 HD
ENDBRANCH  20  21
ENDBRANCH  19  20
ENDBRANCH  14  19
ENDBRANCH   1  11
BRANCH   1  23
HETATM   23  C7  UNL     1     -16.270  -6.372 -35.517  1.00  0.00     0.157 A 
HETATM   24  N7  UNL     1     -15.585  -6.085 -34.371  1.00  0.00    -0.330 N 
HETATM   25  C8  UNL     1     -14.874  -7.204 -34.084  1.00  0.00     0.151 A 
ATOM     26  H7  UNL     1     -15.605  -5.214 -33.841  1.00  0.00     0.168 HD
HETATM   27  C12 UNL     1     -15.148  -8.114 -35.049  1.00  0.00     0.191 A 
HETATM   28  N12 UNL     1     -14.599  -9.443 -35.123  1.00  0.00    -0.072 NA
HETATM   29  O4  UNL     1     -15.988  -7.584 -35.895  1.00  0.00    -0.278 OA
BRANCH  25  30
HETATM   30  C9  UNL     1     -13.950  -7.331 -32.928  1.00  0.00     0.278 C 
HETATM   31  O2  UNL     1     -14.332  -6.677 -31.898  1.00  0.00    -0.265 OA
HETATM   32  N8  UNL     1     -12.835  -8.060 -32.959  1.00  0.00    -0.303 N 
ATOM     33  H8  UNL     1     -13.070  -9.010 -33.246  1.00  0.00     0.171 HD
BRANCH  32  34
HETATM   34  C10 UNL     1     -11.597  -7.993 -32.760  1.00  0.00     0.176 A 
HETATM   35  N9  UNL     1     -10.662  -7.964 -33.792  1.00  0.00    -0.222 N 
HETATM   36  O3  UNL     1      -9.510  -7.889 -33.281  1.00  0.00    -0.153 OA
ATOM     37  H9  UNL     1     -10.872  -7.997 -34.790  1.00  0.00     0.198 HD
HETATM   38  N10 UNL     1      -9.525  -7.862 -32.000  1.00  0.00    -0.222 N 
HETATM   39  C11 UNL     1     -10.840  -7.924 -31.614  1.00  0.00     0.167 A 
ATOM     40  H10 UNL     1      -8.713  -7.804 -31.384  1.00  0.00     0.198 HD
BRANCH  39  41
HETATM   41  N11 UNL     1     -11.206  -7.895 -30.392  1.00  0.00    -0.381 N 
ATOM     42 2H11 UNL     1     -12.174  -7.743 -30.106  1.00  0.00     0.157 HD
ATOM     43 1H11 UNL     1     -10.658  -8.026 -29.541  1.00  0.00     0.157 HD
ENDBRANCH  39  41
ENDBRANCH  32  34
ENDBRANCH  25  30
ENDBRANCH   1  23
TORSDOF 9
ENDMDL
MODEL 2
REMARK VINA RESULT: -10.040512005      1.148      1.538
REMARK  9 active torsions:
REMARK  status: ('A' for Active; 'I' for Inactive)
REMARK    1  A    between atoms: C2_7  and  C3_8 
REMARK    2  A    between atoms: C3_8  and  N4_9 
REMARK    3  A    between atoms: C3_8  and  C7_21 
REMARK       I    between atoms: N4_9  and  C4_11 
REMARK       I    between atoms: C4_11  and  N6_15 
REMARK    4  A    between atoms: N6_15  and  C5_17 
REMARK    5  A    between atoms: C5_17  and  C6_18 
REMARK    6  A    between atoms: C6_18  and  O1_19 
REMARK    7  A    between atoms: C8_24  and  C9_25 
REMARK       I    between atoms: C9_25  and  N8_27 
REMARK    8  A    between atoms: N8_27  and  C10_29 
REMARK    9  A    between atoms: C11_35  and  N11_36 
ROOT
HETATM    1  C3  UNL     1     -16.977  -5.545 -36.226  1.00  0.00     0.245 C 
ENDROOT
BRANCH   1   2
HETATM    2  C2  UNL     1     -17.997  -6.214 -37.095  1.00  0.00     0.145 A 
HETATM    3  N3  UNL     1     -17.923  -6.510 -38.405  1.00  0.00    -0.270 N 
HETATM    4  N2  UNL     1     -19.062  -7.103 -38.741  1.00  0.00    -0.225 N 
ATOM      5  H3  UNL     1     -17.137  -6.314 -39.025  1.00  0.00     0.190 HD
HETATM    6  N1  UNL     1     -19.850  -7.194 -37.691  1.00  0.00    -0.223 N 
ATOM      7  H2  UNL     1     -19.293  -7.440 -39.676  1.00  0.00     0.210 HD
HETATM    8  C1  UNL     1     -21.187  -7.774 -37.611  1.00  0.00     0.202 C 
HETATM    9  N13 UNL     1     -19.192  -6.644 -36.682  1.00  0.00    -0.268 N 
ATOM     10  H13 UNL     1     -19.545  -6.562 -35.728  1.00  0.00     0.190 HD
ENDBRANCH   1   2
BRANCH   1  11
HETATM   11  N4  UNL     1     -16.229  -4.603 -37.007  1.00  0.00    -0.208 N 
HETATM   12  C4  UNL     1     -16.451  -3.212 -36.908  1.00  0.00     0.668 C 
HETATM   13  N5  UNL     1     -16.946  -2.680 -35.856  1.00  0.00    -0.235 N 
HETATM   14  N6  UNL     1     -16.109  -2.384 -38.013  1.00  0.00    -0.225 N 
ATOM     15  H52 UNL     1     -17.191  -3.274 -35.064  1.00  0.00     0.174 HD
ATOM     16  H51 UNL     1     -17.106  -1.675 -35.785  1.00  0.00     0.174 HD
ATOM     17  H6  UNL     1     -15.283  -2.632 -38.558  1.00  0.00     0.177 HD
ATOM     18  H4  UNL     1     -15.517  -4.948 -37.651  1.00  0.00     0.179 HD
BRANCH  14  19
HETATM   19  C5  UNL     1     -16.846  -1.228 -38.411  1.00  0.00     0.164 C 
BRANCH  19  20
HETATM   20  C6  UNL     1     -18.316  -1.573 -38.579  1.00  0.00     0.184 C 
BRANCH  20  21
HETATM   21  O1  UNL     1     -19.051  -0.476 -38.152  1.00  0.00    -0.399 OA
ATOM     22  H1  UNL     1     -18.693   0.291 -38.583  1.00  0.00     0.209 HD
ENDBRANCH  20  21
ENDBRANCH  19  20
ENDBRANCH  14  19
ENDBRANCH   1  11
BRANCH   1  23
HETATM   23  C7  UNL     1     -16.018  -6.602 -35.752  1.00  0.00     0.157 A 
HETATM   24  N7  UNL     1     -14.781  -6.372 -35.219  1.00  0.00    -0.330 N 
HETATM   25  C8  UNL     1     -14.273  -7.598 -34.939  1.00  0.00     0.151 A 
ATOM     26  H7  UNL     1     -14.334  -5.468 -35.064  1.00  0.00     0.168 HD
HETATM   27  C12 UNL     1     -15.202  -8.513 -35.305  1.00  0.00     0.191 A 
HETATM   28  N12 UNL     1     -15.064  -9.940 -35.177  1.00  0.00    -0.072 NA
HETATM   29  O4  UNL     1     -16.237  -7.883 -35.790  1.00  0.00    -0.278 OA
BRANCH  25  30
HETATM   30  C9  UNL     1     -12.920  -7.830 -34.371  1.00  0.00     0.278 C 
HETATM   31  O2  UNL     1     -12.092  -8.318 -35.213  1.00  0.00    -0.265 OA
HETATM   32  N8  UNL     1     -12.599  -7.550 -33.108  1.00  0.00    -0.303 N 
ATOM     33  H8  UNL     1     -12.829  -6.575 -32.918  1.00  0.00     0.171 HD
BRANCH  32  34
HETATM   34  C10 UNL     1     -12.114  -8.061 -32.068  1.00  0.00     0.176 A 
HETATM   35  N9  UNL     1     -12.885  -8.722 -31.116  1.00  0.00    -0.222 N 
HETATM   36  O3  UNL     1     -12.120  -9.127 -30.197  1.00  0.00    -0.153 OA
ATOM     37  H9  UNL     1     -13.896  -8.857 -31.154  1.00  0.00     0.198 HD
HETATM   38  N10 UNL     1     -10.890  -8.825 -30.394  1.00  0.00    -0.222 N 
HETATM   39  C11 UNL     1     -10.830  -8.141 -31.582  1.00  0.00     0.167 A 
ATOM     40  H10 UNL     1     -10.104  -9.051 -29.783  1.00  0.00     0.198 HD
BRANCH  39  41
HETATM   41  N11 UNL     1      -9.737  -7.714 -32.082  1.00  0.00    -0.381 N 
ATOM     42 2H11 UNL     1      -9.403  -7.993 -33.005  1.00  0.00     0.157 HD
ATOM     43 1H11 UNL     1      -9.057  -7.056 -31.702  1.00  0.00     0.157 HD
ENDBRANCH  39  41
ENDBRANCH  32  34
ENDBRANCH  25  30
ENDBRANCH   1  23
TORSDOF 9
ENDMDL
MODEL 3
REMARK VINA RESULT: -9.957568262      3.390      5.450
REMARK  9 active torsions:
REMARK  status: ('A' for Active; 'I' for Inactive)
REMARK    1  A    between atoms: C2_7  and  C3_8 
REMARK    2  A    between atoms: C3_8  and  N4_9 
REMARK    3  A    between atoms: C3_8  and  C7_21 
REMARK       I    between atoms: N4_9  and  C4_11 
REMARK       I    between atoms: C4_11  and  N6_15 
REMARK    4  A    between atoms: N6_15  and  C5_17 
REMARK    5  A    between atoms: C5_17  and  C6_18 
REMARK    6  A    between atoms: C6_18  and  O1_19 
REMARK    7  A    between atoms: C8_24  and  C9_25 
REMARK       I    between atoms: C9_25  and  N8_27 
REMARK    8  A    between atoms: N8_27  and  C10_29 
REMARK    9  A    between atoms: C11_35  and  N11_36 
ROOT
HETATM    1  C3  UNL     1     -14.754  -4.737 -33.580  1.00  0.00     0.245 C 
ENDROOT
BRANCH   1   2
HETATM    2  C2  UNL     1     -15.251  -3.844 -32.485  1.00  0.00     0.145 A 
HETATM    3  N3  UNL     1     -14.545  -3.032 -31.677  1.00  0.00    -0.270 N 
HETATM    4  N2  UNL     1     -15.410  -2.436 -30.864  1.00  0.00    -0.225 N 
ATOM      5  H3  UNL     1     -13.534  -2.900 -31.687  1.00  0.00     0.190 HD
HETATM    6  N1  UNL     1     -16.633  -2.841 -31.132  1.00  0.00    -0.223 N 
ATOM      7  H2  UNL     1     -15.162  -1.763 -30.139  1.00  0.00     0.210 HD
HETATM    8  C1  UNL     1     -17.879  -2.442 -30.485  1.00  0.00     0.202 C 
HETATM    9  N13 UNL     1     -16.530  -3.708 -32.127  1.00  0.00    -0.268 N 
ATOM     10  H13 UNL     1     -17.313  -4.200 -32.558  1.00  0.00     0.190 HD
ENDBRANCH   1   2
BRANCH   1  11
HETATM   11  N4  UNL     1     -15.867  -5.387 -34.208  1.00  0.00    -0.208 N 
HETATM   12  C4  UNL     1     -16.197  -5.155 -35.561  1.00  0.00     0.668 C 
HETATM   13  N5  UNL     1     -15.327  -4.762 -36.412  1.00  0.00    -0.235 N 
HETATM   14  N6  UNL     1     -17.538  -5.369 -35.986  1.00  0.00    -0.225 N 
ATOM     15  H52 UNL     1     -14.365  -4.609 -36.107  1.00  0.00     0.174 HD
ATOM     16  H51 UNL     1     -15.565  -4.595 -37.389  1.00  0.00     0.174 HD
ATOM     17  H6  UNL     1     -18.055  -6.139 -35.562  1.00  0.00     0.177 HD
ATOM     18  H4  UNL     1     -16.436  -6.034 -33.663  1.00  0.00     0.179 HD
BRANCH  14  19
HETATM   19  C5  UNL     1     -18.207  -4.578 -36.967  1.00  0.00     0.164 C 
BRANCH  19  20
HETATM   20  C6  UNL     1     -18.944  -5.470 -37.951  1.00  0.00     0.184 C 
BRANCH  20  21
HETATM   21  O1  UNL     1     -18.032  -6.397 -38.434  1.00  0.00    -0.399 OA
ATOM     22  H1  UNL     1     -17.907  -6.218 -39.359  1.00  0.00     0.209 HD
ENDBRANCH  20  21
ENDBRANCH  19  20
ENDBRANCH  14  19
ENDBRANCH   1  11
BRANCH   1  23
HETATM   23  C7  UNL     1     -13.905  -5.806 -32.948  1.00  0.00     0.157 A 
HETATM   24  N7  UNL     1     -14.142  -7.150 -33.009  1.00  0.00    -0.330 N 
HETATM   25  C8  UNL     1     -13.137  -7.728 -32.304  1.00  0.00     0.151 A 
ATOM     26  H7  UNL     1     -14.912  -7.620 -33.485  1.00  0.00     0.168 HD
HETATM   27  C12 UNL     1     -12.340  -6.732 -31.848  1.00  0.00     0.191 A 
HETATM   28  N12 UNL     1     -11.154  -6.911 -31.052  1.00  0.00    -0.072 NA
HETATM   29  O4  UNL     1     -12.828  -5.591 -32.250  1.00  0.00    -0.278 OA
BRANCH  25  30
HETATM   30  C9  UNL     1     -13.013  -9.191 -32.077  1.00  0.00     0.278 C 
HETATM   31  O2  UNL     1     -13.112  -9.881 -33.148  1.00  0.00    -0.265 OA
HETATM   32  N8  UNL     1     -12.812  -9.730 -30.875  1.00  0.00    -0.303 N 
ATOM     33  H8  UNL     1     -11.987  -9.301 -30.455  1.00  0.00     0.171 HD
BRANCH  32  34
HETATM   34  C10 UNL     1     -13.278 -10.579 -30.075  1.00  0.00     0.176 A 
HETATM   35  N9  UNL     1     -14.383 -11.372 -30.370  1.00  0.00    -0.222 N 
HETATM   36  O3  UNL     1     -14.607 -12.124 -29.380  1.00  0.00    -0.153 OA
ATOM     37  H9  UNL     1     -14.921 -11.350 -31.237  1.00  0.00     0.198 HD
HETATM   38  N10 UNL     1     -13.780 -11.951 -28.417  1.00  0.00    -0.222 N 
HETATM   39  C11 UNL     1     -12.905 -10.971 -28.811  1.00  0.00     0.167 A 
ATOM     40  H10 UNL     1     -13.774 -12.448 -27.526  1.00  0.00     0.198 HD
BRANCH  39  41
HETATM   41  N11 UNL     1     -11.935 -10.573 -28.083  1.00  0.00    -0.381 N 
ATOM     42 2H11 UNL     1     -11.773  -9.590 -27.866  1.00  0.00     0.157 HD
ATOM     43 1H11 UNL     1     -11.213 -11.111 -27.605  1.00  0.00     0.157 HD
ENDBRANCH  39  41
ENDBRANCH  32  34
ENDBRANCH  25  30
ENDBRANCH   1  23
TORSDOF 9
ENDMDL
MODEL 4
REMARK VINA RESULT: -9.932973430      3.126      4.543
REMARK  9 active torsions:
REMARK  status: ('A' for Active; 'I' for Inactive)
REMARK    1  A    between atoms: C2_7  and  C3_8 
REMARK    2  A    between atoms: C3_8  and  N4_9 
REMARK    3  A    between atoms: C3_8  and  C7_21 
REMARK       I    between atoms: N4_9  and  C4_11 
REMARK       I    between atoms: C4_11  and  N6_15 
REMARK    4  A    between atoms: N6_15  and  C5_17 
REMARK    5  A    between atoms: C5_17  and  C6_18 
REMARK    6  A    between atoms: C6_18  and  O1_19 
REMARK    7  A    between atoms: C8_24  and  C9_25 
REMARK       I    between atoms: C9_25  and  N8_27 
REMARK    8  A    between atoms: N8_27  and  C10_29 
REMARK    9  A    between atoms: C11_35  and  N11_36 
ROOT
HETATM    1  C3  UNL     1     -15.800  -4.520 -33.840  1.00  0.00     0.245 C 
ENDROOT
BRANCH   1   2
HETATM    2  C2  UNL     1     -15.608  -4.051 -35.250  1.00  0.00     0.145 A 
HETATM    3  N3  UNL     1     -14.927  -4.644 -36.248  1.00  0.00    -0.270 N 
HETATM    4  N2  UNL     1     -15.037  -3.863 -37.317  1.00  0.00    -0.225 N 
ATOM      5  H3  UNL     1     -14.422  -5.527 -36.193  1.00  0.00     0.190 HD
HETATM    6  N1  UNL     1     -15.762  -2.804 -37.029  1.00  0.00    -0.223 N 
ATOM      7  H2  UNL     1     -14.620  -4.058 -38.228  1.00  0.00     0.210 HD
HETATM    8  C1  UNL     1     -16.132  -1.697 -37.906  1.00  0.00     0.202 C 
HETATM    9  N13 UNL     1     -16.109  -2.923 -35.758  1.00  0.00    -0.268 N 
ATOM     10  H13 UNL     1     -16.676  -2.251 -35.240  1.00  0.00     0.190 HD
ENDBRANCH   1   2
BRANCH   1  11
HETATM   11  N4  UNL     1     -15.336  -3.511 -32.934  1.00  0.00    -0.208 N 
HETATM   12  C4  UNL     1     -16.092  -3.120 -31.807  1.00  0.00     0.668 C 
HETATM   13  N5  UNL     1     -16.947  -3.899 -31.263  1.00  0.00    -0.235 N 
HETATM   14  N6  UNL     1     -15.889  -1.821 -31.263  1.00  0.00    -0.225 N 
ATOM     15  H52 UNL     1     -17.093  -4.831 -31.653  1.00  0.00     0.174 HD
ATOM     16  H51 UNL     1     -17.492  -3.617 -30.449  1.00  0.00     0.174 HD
ATOM     17  H6  UNL     1     -14.942  -1.441 -31.277  1.00  0.00     0.177 HD
ATOM     18  H4  UNL     1     -14.437  -3.063 -33.108  1.00  0.00     0.179 HD
BRANCH  14  19
HETATM   19  C5  UNL     1     -16.922  -1.015 -30.699  1.00  0.00     0.164 C 
BRANCH  19  20
HETATM   20  C6  UNL     1     -17.855  -0.515 -31.789  1.00  0.00     0.184 C 
BRANCH  20  21
HETATM   21  O1  UNL     1     -18.949  -1.369 -31.822  1.00  0.00    -0.399 OA
ATOM     22  H1  UNL     1     -19.724  -0.833 -31.940  1.00  0.00     0.209 HD
ENDBRANCH  20  21
ENDBRANCH  19  20
ENDBRANCH  14  19
ENDBRANCH   1  11
BRANCH   1  23
HETATM   23  C7  UNL     1     -14.936  -5.736 -33.643  1.00  0.00     0.157 A 
HETATM   24  N7  UNL     1     -13.756  -5.770 -32.955  1.00  0.00    -0.330 N 
HETATM   25  C8  UNL     1     -13.326  -7.054 -33.036  1.00  0.00     0.151 A 
ATOM     26  H7  UNL     1     -13.295  -4.993 -32.481  1.00  0.00     0.168 HD
HETATM   27  C12 UNL     1     -14.244  -7.742 -33.756  1.00  0.00     0.191 A 
HETATM   28  N12 UNL     1     -14.173  -9.144 -34.078  1.00  0.00    -0.072 NA
HETATM   29  O4  UNL     1     -15.197  -6.923 -34.107  1.00  0.00    -0.278 OA
BRANCH  25  30
HETATM   30  C9  UNL     1     -12.051  -7.545 -32.452  1.00  0.00     0.278 C 
HETATM   31  O2  UNL     1     -11.211  -7.945 -33.328  1.00  0.00    -0.265 OA
HETATM   32  N8  UNL     1     -11.805  -7.560 -31.142  1.00  0.00    -0.303 N 
ATOM     33  H8  UNL     1     -11.953  -6.623 -30.768  1.00  0.00     0.171 HD
BRANCH  32  34
HETATM   34  C10 UNL     1     -11.456  -8.320 -30.205  1.00  0.00     0.176 A 
HETATM   35  N9  UNL     1     -10.332  -8.086 -29.417  1.00  0.00    -0.222 N 
HETATM   36  O3  UNL     1     -10.247  -9.013 -28.564  1.00  0.00    -0.153 OA
ATOM     37  H9  UNL     1      -9.688  -7.300 -29.512  1.00  0.00     0.198 HD
HETATM   38  N10 UNL     1     -11.187  -9.878 -28.660  1.00  0.00    -0.222 N 
HETATM   39  C11 UNL     1     -11.992  -9.480 -29.698  1.00  0.00     0.167 A 
ATOM     40  H10 UNL     1     -11.313 -10.705 -28.077  1.00  0.00     0.198 HD
BRANCH  39  41
HETATM   41  N11 UNL     1     -13.041 -10.118 -30.046  1.00  0.00    -0.381 N 
ATOM     42 2H11 UNL     1     -13.009 -11.006 -30.547  1.00  0.00     0.157 HD
ATOM     43 1H11 UNL     1     -14.024  -9.896 -29.888  1.00  0.00     0.157 HD
ENDBRANCH  39  41
ENDBRANCH  32  34
ENDBRANCH  25  30
ENDBRANCH   1  23
TORSDOF 9
ENDMDL
MODEL 5
REMARK VINA RESULT: -9.846315419      2.999      4.616
REMARK  9 active torsions:
REMARK  status: ('A' for Active; 'I' for Inactive)
REMARK    1  A    between atoms: C2_7  and  C3_8 
REMARK    2  A    between atoms: C3_8  and  N4_9 
REMARK    3  A    between atoms: C3_8  and  C7_21 
REMARK       I    between atoms: N4_9  and  C4_11 
REMARK       I    between atoms: C4_11  and  N6_15 
REMARK    4  A    between atoms: N6_15  and  C5_17 
REMARK    5  A    between atoms: C5_17  and  C6_18 
REMARK    6  A    between atoms: C6_18  and  O1_19 
REMARK    7  A    between atoms: C8_24  and  C9_25 
REMARK       I    between atoms: C9_25  and  N8_27 
REMARK    8  A    between atoms: N8_27  and  C10_29 
REMARK    9  A    between atoms: C11_35  and  N11_36 
ROOT
HETATM    1  C3  UNL     1     -15.105  -3.899 -33.511  1.00  0.00     0.245 C 
ENDROOT
BRANCH   1   2
HETATM    2  C2  UNL     1     -15.767  -3.555 -32.213  1.00  0.00     0.145 A 
HETATM    3  N3  UNL     1     -15.459  -3.978 -30.974  1.00  0.00    -0.270 N 
HETATM    4  N2  UNL     1     -16.317  -3.405 -30.137  1.00  0.00    -0.225 N 
ATOM      5  H3  UNL     1     -14.707  -4.620 -30.723  1.00  0.00     0.190 HD
HETATM    6  N1  UNL     1     -17.151  -2.637 -30.803  1.00  0.00    -0.223 N 
ATOM      7  H2  UNL     1     -16.327  -3.542 -29.126  1.00  0.00     0.210 HD
HETATM    8  C1  UNL     1     -18.246  -1.825 -30.280  1.00  0.00     0.202 C 
HETATM    9  N13 UNL     1     -16.811  -2.733 -32.079  1.00  0.00    -0.268 N 
ATOM     10  H13 UNL     1     -17.277  -2.250 -32.847  1.00  0.00     0.190 HD
ENDBRANCH   1   2
BRANCH   1  11
HETATM   11  N4  UNL     1     -16.095  -3.980 -34.546  1.00  0.00    -0.208 N 
HETATM   12  C4  UNL     1     -15.868  -3.451 -35.835  1.00  0.00     0.668 C 
HETATM   13  N5  UNL     1     -14.689  -3.304 -36.307  1.00  0.00    -0.235 N 
HETATM   14  N6  UNL     1     -16.987  -3.075 -36.628  1.00  0.00    -0.225 N 
ATOM     15  H52 UNL     1     -13.886  -3.573 -35.739  1.00  0.00     0.174 HD
ATOM     16  H51 UNL     1     -14.525  -2.921 -37.238  1.00  0.00     0.174 HD
ATOM     17  H6  UNL     1     -17.833  -3.642 -36.558  1.00  0.00     0.177 HD
ATOM     18  H4  UNL     1     -16.986  -4.433 -34.345  1.00  0.00     0.179 HD
BRANCH  14  19
HETATM   19  C5  UNL     1     -17.006  -1.958 -37.516  1.00  0.00     0.164 C 
BRANCH  19  20
HETATM   20  C6  UNL     1     -18.349  -1.868 -38.221  1.00  0.00     0.184 C 
BRANCH  20  21
HETATM   21  O1  UNL     1     -18.766  -0.546 -38.151  1.00  0.00    -0.399 OA
ATOM     22  H1  UNL     1     -19.512  -0.515 -37.564  1.00  0.00     0.209 HD
ENDBRANCH  20  21
ENDBRANCH  19  20
ENDBRANCH  14  19
ENDBRANCH   1  11
BRANCH   1  23
HETATM   23  C7  UNL     1     -14.494  -5.266 -33.363  1.00  0.00     0.157 A 
HETATM   24  N7  UNL     1     -13.338  -5.552 -32.693  1.00  0.00    -0.330 N 
HETATM   25  C8  UNL     1     -13.167  -6.892 -32.819  1.00  0.00     0.151 A 
ATOM     26  H7  UNL     1     -12.731  -4.895 -32.202  1.00  0.00     0.168 HD
HETATM   27  C12 UNL     1     -14.207  -7.364 -33.546  1.00  0.00     0.191 A 
HETATM   28  N12 UNL     1     -14.413  -8.742 -33.911  1.00  0.00    -0.072 NA
HETATM   29  O4  UNL     1     -14.985  -6.364 -33.858  1.00  0.00    -0.278 OA
BRANCH  25  30
HETATM   30  C9  UNL     1     -12.008  -7.640 -32.267  1.00  0.00     0.278 C 
HETATM   31  O2  UNL     1     -11.248  -8.136 -33.168  1.00  0.00    -0.265 OA
HETATM   32  N8  UNL     1     -11.779  -7.775 -30.961  1.00  0.00    -0.303 N 
ATOM     33  H8  UNL     1     -11.756  -6.850 -30.533  1.00  0.00     0.171 HD
BRANCH  32  34
HETATM   34  C10 UNL     1     -11.582  -8.638 -30.071  1.00  0.00     0.176 A 
HETATM   35  N9  UNL     1     -10.482  -8.611 -29.217  1.00  0.00    -0.222 N 
HETATM   36  O3  UNL     1     -10.563  -9.599 -28.435  1.00  0.00    -0.153 OA
ATOM     37  H9  UNL     1      -9.738  -7.913 -29.223  1.00  0.00     0.198 HD
HETATM   38  N10 UNL     1     -11.600 -10.324 -28.640  1.00  0.00    -0.222 N 
HETATM   39  C11 UNL     1     -12.290  -9.751 -29.679  1.00  0.00     0.167 A 
ATOM     40  H10 UNL     1     -11.863 -11.166 -28.128  1.00  0.00     0.198 HD
BRANCH  39  41
HETATM   41  N11 UNL     1     -13.391 -10.218 -30.121  1.00  0.00    -0.381 N 
ATOM     42 2H11 UNL     1     -13.533 -10.470 -31.100  1.00  0.00     0.157 HD
ATOM     43 1H11 UNL     1     -14.258 -10.431 -29.627  1.00  0.00     0.157 HD
ENDBRANCH  39  41
ENDBRANCH  32  34
ENDBRANCH  25  30
ENDBRANCH   1  23
TORSDOF 9
ENDMDL
