MODEL 1
REMARK VINA RESULT: -8.826353599      0.000      0.000
REMARK  9 active torsions:
REMARK  status: ('A' for Active; 'I' for Inactive)
REMARK    1  A    between atoms: C1_2  and  C2_3 
REMARK    2  A    between atoms: C1_2  and  N2_6 
REMARK    3  A    between atoms: C2_3  and  O1_4 
REMARK       I    between atoms: N2_6  and  C3_8 
REMARK    4  A    between atoms: C3_8  and  C4_10 
REMARK    5  A    between atoms: C4_10  and  N3_11 
REMARK       I    between atoms: N3_11  and  C5_13 
REMARK       I    between atoms: C5_13  and  N4_15 
REMARK    6  A    between atoms: N4_15  and  C6_17 
REMARK    7  A    between atoms: C7_21  and  C8_22 
REMARK    8  A    between atoms: C7_21  and  N6_25 
REMARK    9  A    between atoms: C8_22  and  O4_23 
ROOT
HETATM    1  C6  UNL     1     -14.394  -6.879 -33.809  1.00  0.00     0.359 C 
HETATM    2  N5  UNL     1     -12.946  -6.882 -33.690  1.00  0.00    -0.006 N 
ATOM      3  H51 UNL     1     -12.551  -6.348 -32.916  1.00  0.00     0.284 HD
ATOM      4  H52 UNL     1     -12.429  -6.364 -34.400  1.00  0.00     0.284 HD
HETATM    5  C7  UNL     1     -12.748  -8.297 -33.658  1.00  0.00     0.283 C 
HETATM    6  S1  UNL     1     -14.372  -8.617 -34.398  1.00  0.00    -0.052 SA
ENDROOT
BRANCH   1   7
HETATM    7  N4  UNL     1     -14.902  -6.040 -34.870  1.00  0.00    -0.306 N 
HETATM    8  C5  UNL     1     -14.976  -4.626 -34.612  1.00  0.00     0.318 C 
HETATM    9  N3  UNL     1     -15.458  -3.721 -35.581  1.00  0.00    -0.334 N 
HETATM   10  O3  UNL     1     -14.609  -4.161 -33.503  1.00  0.00    -0.247 OA
ATOM     11  H3  UNL     1     -15.764  -4.063 -36.492  1.00  0.00     0.164 HD
ATOM     12  H4  UNL     1     -15.195  -6.433 -35.764  1.00  0.00     0.167 HD
BRANCH   9  13
HETATM   13  C4  UNL     1     -15.516  -2.320 -35.285  1.00  0.00     0.227 C 
BRANCH  13  14
HETATM   14  C3  UNL     1     -16.615  -2.064 -34.333  1.00  0.00     0.240 C 
HETATM   15  N2  UNL     1     -16.362  -1.728 -32.983  1.00  0.00    -0.312 N 
ATOM     16  H2  UNL     1     -15.398  -1.660 -32.658  1.00  0.00     0.170 HD
HETATM   17  O2  UNL     1     -17.796  -2.147 -34.725  1.00  0.00    -0.271 OA
BRANCH  15  18
HETATM   18  C1  UNL     1     -17.426  -1.481 -32.068  1.00  0.00     0.140 C 
HETATM   19  N1  UNL     1     -17.828  -2.559 -31.241  1.00  0.00    -0.081 NA
BRANCH  18  20
HETATM   20  C2  UNL     1     -18.011  -0.304 -31.992  1.00  0.00     0.176 C 
BRANCH  20  21
HETATM   21  O1  UNL     1     -18.897   0.086 -32.989  1.00  0.00    -0.369 OA
ATOM     22  H1  UNL     1     -18.571   0.258 -33.864  1.00  0.00     0.216 HD
ENDBRANCH  20  21
ENDBRANCH  18  20
ENDBRANCH  15  18
ENDBRANCH  13  14
ENDBRANCH   9  13
ENDBRANCH   1   7
BRANCH   5  23
HETATM   23  C8  UNL     1     -11.579  -8.719 -34.520  1.00  0.00     0.238 C 
BRANCH  23  24
HETATM   24  O4  UNL     1     -10.397  -8.196 -34.006  1.00  0.00    -0.396 OA
ATOM     25  H4  UNL     1      -9.777  -8.044 -34.709  1.00  0.00     0.209 HD
ENDBRANCH  23  24
ENDBRANCH   5  23
BRANCH   5  26
HETATM   26  N6  UNL     1     -12.669  -8.914 -32.359  1.00  0.00    -0.282 N 
HETATM   27  C9  UNL     1     -13.476  -9.914 -31.965  1.00  0.00     0.188 A 
HETATM   28  N7  UNL     1     -13.161 -10.276 -30.711  1.00  0.00    -0.346 N 
HETATM   29  C10 UNL     1     -12.146  -9.505 -30.292  1.00  0.00     0.119 A 
ATOM     30  H7  UNL     1     -13.615 -11.011 -30.170  1.00  0.00     0.167 HD
HETATM   31  C11 UNL     1     -11.434  -9.443 -29.107  1.00  0.00     0.148 A 
HETATM   32  C13 UNL     1     -11.845  -8.658 -31.328  1.00  0.00     0.142 A 
HETATM   33  N8  UNL     1     -11.755 -10.323 -28.049  1.00  0.00    -0.080 NA
HETATM   34  N9  UNL     1     -10.458  -8.521 -29.042  1.00  0.00    -0.339 N 
HETATM   35  C12 UNL     1     -10.170  -7.690 -30.074  1.00  0.00     0.183 A 
ATOM     36  H9  UNL     1      -9.913  -8.444 -28.184  1.00  0.00     0.167 HD
HETATM   37  N10 UNL     1     -10.867  -7.755 -31.225  1.00  0.00    -0.336 N 
ATOM     38  H10 UNL     1     -10.652  -7.129 -32.001  1.00  0.00     0.168 HD
ENDBRANCH   5  26
TORSDOF 9
ENDMDL
MODEL 2
REMARK VINA RESULT: -8.736046194      3.370      9.278
REMARK  9 active torsions:
REMARK  status: ('A' for Active; 'I' for Inactive)
REMARK    1  A    between atoms: C1_2  and  C2_3 
REMARK    2  A    between atoms: C1_2  and  N2_6 
REMARK    3  A    between atoms: C2_3  and  O1_4 
REMARK       I    between atoms: N2_6  and  C3_8 
REMARK    4  A    between atoms: C3_8  and  C4_10 
REMARK    5  A    between atoms: C4_10  and  N3_11 
REMARK       I    between atoms: N3_11  and  C5_13 
REMARK       I    between atoms: C5_13  and  N4_15 
REMARK    6  A    between atoms: N4_15  and  C6_17 
REMARK    7  A    between atoms: C7_21  and  C8_22 
REMARK    8  A    between atoms: C7_21  and  N6_25 
REMARK    9  A    between atoms: C8_22  and  O4_23 
ROOT
HETATM    1  C6  UNL     1     -15.627  -4.889 -34.328  1.00  0.00     0.359 C 
HETATM    2  N5  UNL     1     -15.459  -5.112 -35.753  1.00  0.00    -0.006 N 
ATOM      3  H51 UNL     1     -15.999  -5.875 -36.162  1.00  0.00     0.284 HD
ATOM      4  H52 UNL     1     -14.563  -5.495 -36.053  1.00  0.00     0.284 HD
HETATM    5  C7  UNL     1     -15.775  -3.793 -36.203  1.00  0.00     0.283 C 
HETATM    6  S1  UNL     1     -15.458  -3.077 -34.568  1.00  0.00    -0.052 SA
ENDROOT
BRANCH   1   7
HETATM    7  N4  UNL     1     -14.521  -5.350 -33.519  1.00  0.00    -0.306 N 
HETATM    8  C5  UNL     1     -14.281  -6.768 -33.482  1.00  0.00     0.318 C 
HETATM    9  N3  UNL     1     -13.228  -7.321 -32.724  1.00  0.00    -0.334 N 
HETATM   10  O3  UNL     1     -15.014  -7.556 -34.134  1.00  0.00    -0.247 OA
ATOM     11  H3  UNL     1     -12.613  -6.712 -32.183  1.00  0.00     0.164 HD
ATOM     12  H4  UNL     1     -13.936  -4.698 -32.998  1.00  0.00     0.167 HD
BRANCH   9  13
HETATM   13  C4  UNL     1     -13.021  -8.740 -32.713  1.00  0.00     0.227 C 
BRANCH  13  14
HETATM   14  C3  UNL     1     -12.048  -9.087 -31.659  1.00  0.00     0.240 C 
HETATM   15  N2  UNL     1     -12.376  -8.993 -30.287  1.00  0.00    -0.312 N 
ATOM     16  H2  UNL     1     -13.309  -8.677 -30.017  1.00  0.00     0.170 HD
HETATM   17  O2  UNL     1     -10.907  -9.472 -31.983  1.00  0.00    -0.271 OA
BRANCH  15  18
HETATM   18  C1  UNL     1     -11.434  -9.329 -29.274  1.00  0.00     0.140 C 
HETATM   19  N1  UNL     1     -11.596 -10.582 -28.631  1.00  0.00    -0.081 NA
BRANCH  18  20
HETATM   20  C2  UNL     1     -10.453  -8.514 -28.946  1.00  0.00     0.176 C 
BRANCH  20  21
HETATM   21  O1  UNL     1     -10.090  -7.494 -29.817  1.00  0.00    -0.369 OA
ATOM     22  H1  UNL     1      -9.172  -7.361 -30.025  1.00  0.00     0.216 HD
ENDBRANCH  20  21
ENDBRANCH  18  20
ENDBRANCH  15  18
ENDBRANCH  13  14
ENDBRANCH   9  13
ENDBRANCH   1   7
BRANCH   5  23
HETATM   23  C8  UNL     1     -14.821  -3.325 -37.281  1.00  0.00     0.238 C 
BRANCH  23  24
HETATM   24  O4  UNL     1     -14.010  -4.380 -37.687  1.00  0.00    -0.396 OA
ATOM     25  H4  UNL     1     -13.582  -4.162 -38.507  1.00  0.00     0.209 HD
ENDBRANCH  23  24
ENDBRANCH   5  23
BRANCH   5  26
HETATM   26  N6  UNL     1     -17.140  -3.548 -36.592  1.00  0.00    -0.282 N 
HETATM   27  C9  UNL     1     -17.780  -2.391 -36.352  1.00  0.00     0.188 A 
HETATM   28  N7  UNL     1     -19.032  -2.464 -36.831  1.00  0.00    -0.346 N 
HETATM   29  C10 UNL     1     -19.202  -3.675 -37.382  1.00  0.00     0.119 A 
ATOM     30  H7  UNL     1     -19.734  -1.726 -36.783  1.00  0.00     0.167 HD
HETATM   31  C11 UNL     1     -20.273  -4.284 -38.013  1.00  0.00     0.148 A 
HETATM   32  C13 UNL     1     -18.015  -4.345 -37.229  1.00  0.00     0.142 A 
HETATM   33  N8  UNL     1     -21.490  -3.581 -38.164  1.00  0.00    -0.080 NA
HETATM   34  N9  UNL     1     -20.076  -5.539 -38.451  1.00  0.00    -0.339 N 
HETATM   35  C12 UNL     1     -18.897  -6.189 -38.294  1.00  0.00     0.183 A 
ATOM     36  H9  UNL     1     -20.842  -6.020 -38.920  1.00  0.00     0.167 HD
HETATM   37  N10 UNL     1     -17.858  -5.591 -37.679  1.00  0.00    -0.336 N 
ATOM     38  H10 UNL     1     -16.971  -6.080 -37.559  1.00  0.00     0.168 HD
ENDBRANCH   5  26
TORSDOF 9
ENDMDL
MODEL 3
REMARK VINA RESULT: -8.713710706      2.186      3.027
REMARK  9 active torsions:
REMARK  status: ('A' for Active; 'I' for Inactive)
REMARK    1  A    between atoms: C1_2  and  C2_3 
REMARK    2  A    between atoms: C1_2  and  N2_6 
REMARK    3  A    between atoms: C2_3  and  O1_4 
REMARK       I    between atoms: N2_6  and  C3_8 
REMARK    4  A    between atoms: C3_8  and  C4_10 
REMARK    5  A    between atoms: C4_10  and  N3_11 
REMARK       I    between atoms: N3_11  and  C5_13 
REMARK       I    between atoms: C5_13  and  N4_15 
REMARK    6  A    between atoms: N4_15  and  C6_17 
REMARK    7  A    between atoms: C7_21  and  C8_22 
REMARK    8  A    between atoms: C7_21  and  N6_25 
REMARK    9  A    between atoms: C8_22  and  O4_23 
ROOT
HETATM    1  C6  UNL     1     -13.680  -5.947 -32.455  1.00  0.00     0.359 C 
HETATM    2  N5  UNL     1     -12.336  -6.348 -32.081  1.00  0.00    -0.006 N 
ATOM      3  H51 UNL     1     -12.091  -6.262 -31.095  1.00  0.00     0.284 HD
ATOM      4  H52 UNL     1     -11.576  -5.743 -32.392  1.00  0.00     0.284 HD
HETATM    5  C7  UNL     1     -12.361  -7.672 -32.621  1.00  0.00     0.283 C 
HETATM    6  S1  UNL     1     -13.753  -7.280 -33.715  1.00  0.00    -0.052 SA
ENDROOT
BRANCH   1   7
HETATM    7  N4  UNL     1     -13.755  -4.672 -33.131  1.00  0.00    -0.306 N 
HETATM    8  C5  UNL     1     -15.067  -4.167 -33.439  1.00  0.00     0.318 C 
HETATM    9  N3  UNL     1     -15.249  -2.932 -34.097  1.00  0.00    -0.334 N 
HETATM   10  O3  UNL     1     -16.092  -4.823 -33.123  1.00  0.00    -0.247 OA
ATOM     11  H3  UNL     1     -14.440  -2.373 -34.367  1.00  0.00     0.164 HD
ATOM     12  H4  UNL     1     -12.913  -4.152 -33.380  1.00  0.00     0.167 HD
BRANCH   9  13
HETATM   13  C4  UNL     1     -16.573  -2.464 -34.386  1.00  0.00     0.227 C 
BRANCH  13  14
HETATM   14  C3  UNL     1     -16.839  -2.605 -35.831  1.00  0.00     0.240 C 
HETATM   15  N2  UNL     1     -17.946  -1.973 -36.444  1.00  0.00    -0.312 N 
ATOM     16  H2  UNL     1     -18.576  -1.407 -35.876  1.00  0.00     0.170 HD
HETATM   17  O2  UNL     1     -16.074  -3.296 -36.530  1.00  0.00    -0.271 OA
BRANCH  15  18
HETATM   18  C1  UNL     1     -18.200  -2.111 -37.839  1.00  0.00     0.140 C 
HETATM   19  N1  UNL     1     -19.121  -3.113 -38.232  1.00  0.00    -0.081 NA
BRANCH  18  20
HETATM   20  C2  UNL     1     -17.606  -1.342 -38.727  1.00  0.00     0.176 C 
BRANCH  20  21
HETATM   21  O1  UNL     1     -16.306  -1.632 -39.125  1.00  0.00    -0.369 OA
ATOM     22  H1  UNL     1     -15.849  -1.033 -39.704  1.00  0.00     0.216 HD
ENDBRANCH  20  21
ENDBRANCH  18  20
ENDBRANCH  15  18
ENDBRANCH  13  14
ENDBRANCH   9  13
ENDBRANCH   1   7
BRANCH   5  23
HETATM   23  C8  UNL     1     -11.077  -8.007 -33.346  1.00  0.00     0.238 C 
BRANCH  23  24
HETATM   24  O4  UNL     1      -9.988  -7.500 -32.643  1.00  0.00    -0.396 OA
ATOM     25  H4  UNL     1      -9.831  -8.025 -31.867  1.00  0.00     0.209 HD
ENDBRANCH  23  24
ENDBRANCH   5  23
BRANCH   5  26
HETATM   26  N6  UNL     1     -12.727  -8.734 -31.719  1.00  0.00    -0.282 N 
HETATM   27  C9  UNL     1     -13.727  -9.598 -31.962  1.00  0.00     0.188 A 
HETATM   28  N7  UNL     1     -13.825 -10.468 -30.945  1.00  0.00    -0.346 N 
HETATM   29  C10 UNL     1     -12.883 -10.164 -30.039  1.00  0.00     0.119 A 
ATOM     30  H7  UNL     1     -14.500 -11.229 -30.873  1.00  0.00     0.167 HD
HETATM   31  C11 UNL     1     -12.532 -10.717 -28.820  1.00  0.00     0.148 A 
HETATM   32  C13 UNL     1     -12.202  -9.080 -30.531  1.00  0.00     0.142 A 
HETATM   33  N8  UNL     1     -13.243 -11.834 -28.325  1.00  0.00    -0.080 NA
HETATM   34  N9  UNL     1     -11.509 -10.135 -28.170  1.00  0.00    -0.339 N 
HETATM   35  C12 UNL     1     -10.844  -9.064 -28.669  1.00  0.00     0.183 A 
ATOM     36  H9  UNL     1     -11.223 -10.514 -27.268  1.00  0.00     0.167 HD
HETATM   37  N10 UNL     1     -11.190  -8.531 -29.856  1.00  0.00    -0.336 N 
ATOM     38  H10 UNL     1     -10.691  -7.724 -30.231  1.00  0.00     0.168 HD
ENDBRANCH   5  26
TORSDOF 9
ENDMDL
MODEL 4
REMARK VINA RESULT: -8.578558267      3.566      8.894
REMARK  9 active torsions:
REMARK  status: ('A' for Active; 'I' for Inactive)
REMARK    1  A    between atoms: C1_2  and  C2_3 
REMARK    2  A    between atoms: C1_2  and  N2_6 
REMARK    3  A    between atoms: C2_3  and  O1_4 
REMARK       I    between atoms: N2_6  and  C3_8 
REMARK    4  A    between atoms: C3_8  and  C4_10 
REMARK    5  A    between atoms: C4_10  and  N3_11 
REMARK       I    between atoms: N3_11  and  C5_13 
REMARK       I    between atoms: C5_13  and  N4_15 
REMARK    6  A    between atoms: N4_15  and  C6_17 
REMARK    7  A    between atoms: C7_21  and  C8_22 
REMARK    8  A    between atoms: C7_21  and  N6_25 
REMARK    9  A    between atoms: C8_22  and  O4_23 
ROOT
HETATM    1  C6  UNL     1     -15.519  -3.948 -34.186  1.00  0.00     0.359 C 
HETATM    2  N5  UNL     1     -15.274  -4.581 -35.470  1.00  0.00    -0.006 N 
ATOM      3  H51 UNL     1     -15.841  -5.400 -35.691  1.00  0.00     0.284 HD
ATOM      4  H52 UNL     1     -14.391  -5.081 -35.571  1.00  0.00     0.284 HD
HETATM    5  C7  UNL     1     -15.459  -3.432 -36.300  1.00  0.00     0.283 C 
HETATM    6  S1  UNL     1     -15.200  -2.294 -34.914  1.00  0.00    -0.052 SA
ENDROOT
BRANCH   1   7
HETATM    7  N4  UNL     1     -14.508  -4.214 -33.189  1.00  0.00    -0.306 N 
HETATM    8  C5  UNL     1     -14.306  -5.587 -32.808  1.00  0.00     0.318 C 
HETATM    9  N3  UNL     1     -13.343  -5.954 -31.843  1.00  0.00    -0.334 N 
HETATM   10  O3  UNL     1     -14.990  -6.501 -33.334  1.00  0.00    -0.247 OA
ATOM     11  H3  UNL     1     -12.770  -5.238 -31.396  1.00  0.00     0.164 HD
ATOM     12  H4  UNL     1     -13.961  -3.461 -32.772  1.00  0.00     0.167 HD
BRANCH   9  13
HETATM   13  C4  UNL     1     -13.172  -7.333 -31.492  1.00  0.00     0.227 C 
BRANCH  13  14
HETATM   14  C3  UNL     1     -12.959  -8.129 -32.716  1.00  0.00     0.240 C 
HETATM   15  N2  UNL     1     -12.201  -7.631 -33.801  1.00  0.00    -0.312 N 
ATOM     16  H2  UNL     1     -11.792  -6.699 -33.738  1.00  0.00     0.170 HD
HETATM   17  O2  UNL     1     -13.459  -9.268 -32.800  1.00  0.00    -0.271 OA
BRANCH  15  18
HETATM   18  C1  UNL     1     -11.998  -8.403 -34.981  1.00  0.00     0.140 C 
HETATM   19  N1  UNL     1     -10.818  -9.184 -35.046  1.00  0.00    -0.081 NA
BRANCH  18  20
HETATM   20  C2  UNL     1     -12.868  -8.394 -35.969  1.00  0.00     0.176 C 
BRANCH  20  21
HETATM   21  O1  UNL     1     -13.636  -7.259 -36.196  1.00  0.00    -0.369 OA
ATOM     22  H1  UNL     1     -13.997  -7.103 -37.061  1.00  0.00     0.216 HD
ENDBRANCH  20  21
ENDBRANCH  18  20
ENDBRANCH  15  18
ENDBRANCH  13  14
ENDBRANCH   9  13
ENDBRANCH   1   7
BRANCH   5  23
HETATM   23  C8  UNL     1     -14.404  -3.346 -37.381  1.00  0.00     0.238 C 
BRANCH  23  24
HETATM   24  O4  UNL     1     -13.955  -4.621 -37.710  1.00  0.00    -0.396 OA
ATOM     25  H4  UNL     1     -13.931  -5.166 -36.932  1.00  0.00     0.209 HD
ENDBRANCH  23  24
ENDBRANCH   5  23
BRANCH   5  26
HETATM   26  N6  UNL     1     -16.774  -3.239 -36.858  1.00  0.00    -0.282 N 
HETATM   27  C9  UNL     1     -17.338  -2.029 -37.015  1.00  0.00     0.188 A 
HETATM   28  N7  UNL     1     -18.558  -2.172 -37.557  1.00  0.00    -0.346 N 
HETATM   29  C10 UNL     1     -18.783  -3.480 -37.751  1.00  0.00     0.119 A 
ATOM     30  H7  UNL     1     -19.203  -1.415 -37.783  1.00  0.00     0.167 HD
HETATM   31  C11 UNL     1     -19.853  -4.188 -38.270  1.00  0.00     0.148 A 
HETATM   32  C13 UNL     1     -17.663  -4.138 -37.312  1.00  0.00     0.142 A 
HETATM   33  N8  UNL     1     -21.001  -3.496 -38.719  1.00  0.00    -0.080 NA
HETATM   34  N9  UNL     1     -19.723  -5.525 -38.312  1.00  0.00    -0.339 N 
HETATM   35  C12 UNL     1     -18.610  -6.164 -37.875  1.00  0.00     0.183 A 
ATOM     36  H9  UNL     1     -20.491  -6.080 -38.687  1.00  0.00     0.167 HD
HETATM   37  N10 UNL     1     -17.571  -5.469 -37.371  1.00  0.00    -0.336 N 
ATOM     38  H10 UNL     1     -16.734  -5.948 -37.041  1.00  0.00     0.168 HD
ENDBRANCH   5  26
TORSDOF 9
ENDMDL
MODEL 5
REMARK VINA RESULT: -8.554031586      3.704      4.628
REMARK  9 active torsions:
REMARK  status: ('A' for Active; 'I' for Inactive)
REMARK    1  A    between atoms: C1_2  and  C2_3 
REMARK    2  A    between atoms: C1_2  and  N2_6 
REMARK    3  A    between atoms: C2_3  and  O1_4 
REMARK       I    between atoms: N2_6  and  C3_8 
REMARK    4  A    between atoms: C3_8  and  C4_10 
REMARK    5  A    between atoms: C4_10  and  N3_11 
REMARK       I    between atoms: N3_11  and  C5_13 
REMARK       I    between atoms: C5_13  and  N4_15 
REMARK    6  A    between atoms: N4_15  and  C6_17 
REMARK    7  A    between atoms: C7_21  and  C8_22 
REMARK    8  A    between atoms: C7_21  and  N6_25 
REMARK    9  A    between atoms: C8_22  and  O4_23 
ROOT
HETATM    1  C6  UNL     1     -14.482  -6.872 -34.100  1.00  0.00     0.359 C 
HETATM    2  N5  UNL     1     -13.033  -6.878 -34.001  1.00  0.00    -0.006 N 
ATOM      3  H51 UNL     1     -12.624  -6.315 -33.256  1.00  0.00     0.284 HD
ATOM      4  H52 UNL     1     -12.523  -6.393 -34.740  1.00  0.00     0.284 HD
HETATM    5  C7  UNL     1     -12.842  -8.292 -33.913  1.00  0.00     0.283 C 
HETATM    6  S1  UNL     1     -14.478  -8.633 -34.616  1.00  0.00    -0.052 SA
ENDROOT
BRANCH   1   7
HETATM    7  N4  UNL     1     -15.001  -6.075 -35.188  1.00  0.00    -0.306 N 
HETATM    8  C5  UNL     1     -16.432  -6.001 -35.323  1.00  0.00     0.318 C 
HETATM    9  N3  UNL     1     -17.040  -5.250 -36.352  1.00  0.00    -0.334 N 
HETATM   10  O3  UNL     1     -17.181  -6.610 -34.518  1.00  0.00    -0.247 OA
ATOM     11  H3  UNL     1     -16.463  -4.743 -37.023  1.00  0.00     0.164 HD
ATOM     12  H4  UNL     1     -14.380  -5.587 -35.832  1.00  0.00     0.167 HD
BRANCH   9  13
HETATM   13  C4  UNL     1     -18.469  -5.201 -36.453  1.00  0.00     0.227 C 
BRANCH  13  14
HETATM   14  C3  UNL     1     -18.915  -6.087 -37.547  1.00  0.00     0.240 C 
HETATM   15  N2  UNL     1     -20.271  -6.462 -37.690  1.00  0.00    -0.312 N 
ATOM     16  H2  UNL     1     -20.958  -6.113 -37.022  1.00  0.00     0.170 HD
HETATM   17  O2  UNL     1     -18.079  -6.518 -38.365  1.00  0.00    -0.271 OA
BRANCH  15  18
HETATM   18  C1  UNL     1     -20.697  -7.316 -38.747  1.00  0.00     0.140 C 
HETATM   19  N1  UNL     1     -21.329  -6.704 -39.857  1.00  0.00    -0.081 NA
BRANCH  18  20
HETATM   20  C2  UNL     1     -20.512  -8.619 -38.697  1.00  0.00     0.176 C 
BRANCH  20  21
HETATM   21  O1  UNL     1     -19.224  -9.132 -38.799  1.00  0.00    -0.369 OA
ATOM     22  H1  UNL     1     -18.994  -9.918 -38.316  1.00  0.00     0.216 HD
ENDBRANCH  20  21
ENDBRANCH  18  20
ENDBRANCH  15  18
ENDBRANCH  13  14
ENDBRANCH   9  13
ENDBRANCH   1   7
BRANCH   5  23
HETATM   23  C8  UNL     1     -11.688  -8.756 -34.773  1.00  0.00     0.238 C 
BRANCH  23  24
HETATM   24  O4  UNL     1     -10.484  -8.319 -34.230  1.00  0.00    -0.396 OA
ATOM     25  H4  UNL     1     -10.264  -8.841 -33.467  1.00  0.00     0.209 HD
ENDBRANCH  23  24
ENDBRANCH   5  23
BRANCH   5  26
HETATM   26  N6  UNL     1     -12.747  -8.854 -32.590  1.00  0.00    -0.282 N 
HETATM   27  C9  UNL     1     -13.566  -9.819 -32.137  1.00  0.00     0.188 A 
HETATM   28  N7  UNL     1     -13.231 -10.134 -30.876  1.00  0.00    -0.346 N 
HETATM   29  C10 UNL     1     -12.191  -9.369 -30.512  1.00  0.00     0.119 A 
ATOM     30  H7  UNL     1     -13.689 -10.835 -30.294  1.00  0.00     0.167 HD
HETATM   31  C11 UNL     1     -11.452  -9.271 -29.346  1.00  0.00     0.148 A 
HETATM   32  C13 UNL     1     -11.895  -8.573 -31.589  1.00  0.00     0.142 A 
HETATM   33  N8  UNL     1     -11.768 -10.098 -28.244  1.00  0.00    -0.080 NA
HETATM   34  N9  UNL     1     -10.456  -8.369 -29.341  1.00  0.00    -0.339 N 
HETATM   35  C12 UNL     1     -10.174  -7.588 -30.413  1.00  0.00     0.183 A 
ATOM     36  H9  UNL     1      -9.890  -8.267 -28.499  1.00  0.00     0.167 HD
HETATM   37  N10 UNL     1     -10.897  -7.688 -31.546  1.00  0.00    -0.336 N 
ATOM     38  H10 UNL     1     -10.686  -7.101 -32.352  1.00  0.00     0.168 HD
ENDBRANCH   5  26
TORSDOF 9
ENDMDL
