MODEL 1
REMARK VINA RESULT: -7.176802306      0.000      0.000
REMARK  16 active torsions:
REMARK  status: ('A' for Active; 'I' for Inactive)
REMARK    1  A    between atoms: O1_2  and  C2_3 
REMARK    2  A    between atoms: C2_3  and  C3_4 
REMARK    3  A    between atoms: C3_4  and  C4_5 
REMARK    4  A    between atoms: C4_5  and  C5_6 
REMARK    5  A    between atoms: C5_6  and  C6_7 
REMARK    6  A    between atoms: N1_8  and  O2_10 
REMARK    7  A    between atoms: O2_10  and  C7_11 
REMARK    8  A    between atoms: C7_11  and  C8_12 
REMARK    9  A    between atoms: C8_12  and  C9_13 
REMARK   10  A    between atoms: C8_12  and  C15_21 
REMARK   11  A    between atoms: C10_14  and  C11_15 
REMARK   12  A    between atoms: C11_15  and  C12_16 
REMARK   13  A    between atoms: C15_21  and  C16_22 
REMARK   14  A    between atoms: C16_22  and  O3_23 
REMARK   15  A    between atoms: C16_22  and  N2_25 
REMARK   16  A    between atoms: N2_25  and  O4_26 
ROOT
HETATM    1  C8  UNL     1     -25.645  12.312  25.304  1.00  0.00     0.038 C 
ENDROOT
BRANCH   1   2
HETATM    2  C7  UNL     1     -24.998  13.552  25.991  1.00  0.00     0.209 C 
BRANCH   2   3
HETATM    3  O2  UNL     1     -24.548  12.928  27.123  1.00  0.00    -0.280 OA
BRANCH   3   4
HETATM    4  N1  UNL     1     -24.040  12.399  28.197  1.00  0.00    -0.282 N 
HETATM    5  C6  UNL     1     -23.415  13.154  29.036  1.00  0.00     0.087 C 
ATOM      6  H1  UNL     1     -24.134  11.399  28.374  1.00  0.00     0.193 HD
BRANCH   5   7
HETATM    7  C5  UNL     1     -23.137  14.523  29.049  1.00  0.00     0.046 C 
BRANCH   7   8
HETATM    8  C4  UNL     1     -23.585  15.144  30.382  1.00  0.00     0.007 C 
BRANCH   8   9
HETATM    9  C3  UNL     1     -25.124  15.130  30.490  1.00  0.00     0.027 C 
BRANCH   9  10
HETATM   10  C2  UNL     1     -25.484  15.844  31.742  1.00  0.00     0.167 C 
BRANCH  10  11
HETATM   11  O1  UNL     1     -26.539  15.364  32.445  1.00  0.00    -0.396 OA
HETATM   12  C1  UNL     1     -27.228  14.408  31.711  1.00  0.00     0.201 C 
ENDBRANCH  10  11
ENDBRANCH   9  10
ENDBRANCH   8   9
ENDBRANCH   7   8
ENDBRANCH   5   7
ENDBRANCH   3   4
ENDBRANCH   2   3
ENDBRANCH   1   2
BRANCH   1  13
HETATM   13  C9  UNL     1     -26.514  12.830  24.098  1.00  0.00    -0.024 C 
HETATM   14  C10 UNL     1     -26.279  12.548  22.713  1.00  0.00    -0.029 C 
BRANCH  14  15
HETATM   15  C11 UNL     1     -25.105  13.049  21.954  1.00  0.00     0.042 C 
BRANCH  15  16
HETATM   16  C12 UNL     1     -24.816  12.234  20.707  1.00  0.00     0.062 C 
HETATM   17  C13 UNL     1     -23.855  13.098  19.870  1.00  0.00     0.027 C 
HETATM   18  C14 UNL     1     -23.705  12.373  18.530  1.00  0.00     0.087 C 
HETATM   19  S1  UNL     1     -22.718  10.920  19.095  1.00  0.00    -0.097 SA
HETATM   20  S2  UNL     1     -23.671  10.826  21.046  1.00  0.00    -0.092 SA
ENDBRANCH  15  16
ENDBRANCH  14  15
ENDBRANCH   1  13
BRANCH   1  21
HETATM   21  C15 UNL     1     -24.396  11.486  24.698  1.00  0.00     0.062 C 
BRANCH  21  22
HETATM   22  C16 UNL     1     -24.441  10.146  25.034  1.00  0.00     0.238 C 
BRANCH  22  23
HETATM   23  O3  UNL     1     -25.062   9.910  26.487  1.00  0.00    -0.378 OA
ATOM     24  H3  UNL     1     -24.665   9.169  26.929  1.00  0.00     0.211 HD
ENDBRANCH  22  23
BRANCH  22  25
HETATM   25  N2  UNL     1     -24.232   8.804  24.759  1.00  0.00    -0.071 NA
BRANCH  25  26
HETATM   26  O4  UNL     1     -22.791   8.785  25.543  1.00  0.00    -0.294 OA
ATOM     27  H4  UNL     1     -22.754   7.836  25.549  1.00  0.00     0.238 HD
ENDBRANCH  25  26
ENDBRANCH  22  25
ENDBRANCH  21  22
ENDBRANCH   1  21
TORSDOF 16
ENDMDL
MODEL 2
REMARK VINA RESULT: -7.092638230      2.364      3.394
REMARK  16 active torsions:
REMARK  status: ('A' for Active; 'I' for Inactive)
REMARK    1  A    between atoms: O1_2  and  C2_3 
REMARK    2  A    between atoms: C2_3  and  C3_4 
REMARK    3  A    between atoms: C3_4  and  C4_5 
REMARK    4  A    between atoms: C4_5  and  C5_6 
REMARK    5  A    between atoms: C5_6  and  C6_7 
REMARK    6  A    between atoms: N1_8  and  O2_10 
REMARK    7  A    between atoms: O2_10  and  C7_11 
REMARK    8  A    between atoms: C7_11  and  C8_12 
REMARK    9  A    between atoms: C8_12  and  C9_13 
REMARK   10  A    between atoms: C8_12  and  C15_21 
REMARK   11  A    between atoms: C10_14  and  C11_15 
REMARK   12  A    between atoms: C11_15  and  C12_16 
REMARK   13  A    between atoms: C15_21  and  C16_22 
REMARK   14  A    between atoms: C16_22  and  O3_23 
REMARK   15  A    between atoms: C16_22  and  N2_25 
REMARK   16  A    between atoms: N2_25  and  O4_26 
ROOT
HETATM    1  C8  UNL     1     -23.572  11.490  26.758  1.00  0.00     0.038 C 
ENDROOT
BRANCH   1   2
HETATM    2  C7  UNL     1     -24.051  11.476  28.241  1.00  0.00     0.209 C 
BRANCH   2   3
HETATM    3  O2  UNL     1     -23.550  12.693  28.614  1.00  0.00    -0.280 OA
BRANCH   3   4
HETATM    4  N1  UNL     1     -23.122  13.891  28.888  1.00  0.00    -0.282 N 
HETATM    5  C6  UNL     1     -23.915  14.725  29.471  1.00  0.00     0.087 C 
ATOM      6  H1  UNL     1     -22.171  14.168  28.646  1.00  0.00     0.193 HD
BRANCH   5   7
HETATM    7  C5  UNL     1     -25.240  14.622  29.906  1.00  0.00     0.046 C 
BRANCH   7   8
HETATM    8  C4  UNL     1     -25.446  15.455  31.182  1.00  0.00     0.007 C 
BRANCH   8   9
HETATM    9  C3  UNL     1     -26.742  15.022  31.901  1.00  0.00     0.027 C 
BRANCH   9  10
HETATM   10  C2  UNL     1     -27.337  13.916  31.105  1.00  0.00     0.167 C 
BRANCH  10  11
HETATM   11  O1  UNL     1     -28.417  13.290  31.632  1.00  0.00    -0.396 OA
HETATM   12  C1  UNL     1     -29.171  12.683  30.637  1.00  0.00     0.201 C 
ENDBRANCH  10  11
ENDBRANCH   9  10
ENDBRANCH   8   9
ENDBRANCH   7   8
ENDBRANCH   5   7
ENDBRANCH   3   4
ENDBRANCH   2   3
ENDBRANCH   1   2
BRANCH   1  13
HETATM   13  C9  UNL     1     -22.968  10.074  26.434  1.00  0.00    -0.024 C 
HETATM   14  C10 UNL     1     -22.809   9.509  25.128  1.00  0.00    -0.029 C 
BRANCH  14  15
HETATM   15  C11 UNL     1     -23.941   9.117  24.251  1.00  0.00     0.042 C 
BRANCH  15  16
HETATM   16  C12 UNL     1     -23.602   9.193  22.775  1.00  0.00     0.062 C 
HETATM   17  C13 UNL     1     -24.275  10.481  22.267  1.00  0.00     0.027 C 
HETATM   18  C14 UNL     1     -24.099  10.470  20.747  1.00  0.00     0.087 C 
HETATM   19  S1  UNL     1     -22.282  10.781  20.663  1.00  0.00    -0.097 SA
HETATM   20  S2  UNL     1     -21.846   9.686  22.488  1.00  0.00    -0.092 SA
ENDBRANCH  15  16
ENDBRANCH  14  15
ENDBRANCH   1  13
BRANCH   1  21
HETATM   21  C15 UNL     1     -24.928  11.661  25.897  1.00  0.00     0.062 C 
BRANCH  21  22
HETATM   22  C16 UNL     1     -24.951  12.846  25.184  1.00  0.00     0.238 C 
BRANCH  22  23
HETATM   23  O3  UNL     1     -24.868  14.124  26.139  1.00  0.00    -0.378 OA
ATOM     24  H3  UNL     1     -23.971  14.360  26.344  1.00  0.00     0.211 HD
ENDBRANCH  22  23
BRANCH  22  25
HETATM   25  N2  UNL     1     -24.998  13.566  24.002  1.00  0.00    -0.071 NA
BRANCH  25  26
HETATM   26  O4  UNL     1     -26.636  13.504  23.936  1.00  0.00    -0.294 OA
ATOM     27  H4  UNL     1     -26.671  12.686  24.417  1.00  0.00     0.238 HD
ENDBRANCH  25  26
ENDBRANCH  22  25
ENDBRANCH  21  22
ENDBRANCH   1  21
TORSDOF 16
ENDMDL
MODEL 3
REMARK VINA RESULT: -7.090721314      1.033      1.119
REMARK  16 active torsions:
REMARK  status: ('A' for Active; 'I' for Inactive)
REMARK    1  A    between atoms: O1_2  and  C2_3 
REMARK    2  A    between atoms: C2_3  and  C3_4 
REMARK    3  A    between atoms: C3_4  and  C4_5 
REMARK    4  A    between atoms: C4_5  and  C5_6 
REMARK    5  A    between atoms: C5_6  and  C6_7 
REMARK    6  A    between atoms: N1_8  and  O2_10 
REMARK    7  A    between atoms: O2_10  and  C7_11 
REMARK    8  A    between atoms: C7_11  and  C8_12 
REMARK    9  A    between atoms: C8_12  and  C9_13 
REMARK   10  A    between atoms: C8_12  and  C15_21 
REMARK   11  A    between atoms: C10_14  and  C11_15 
REMARK   12  A    between atoms: C11_15  and  C12_16 
REMARK   13  A    between atoms: C15_21  and  C16_22 
REMARK   14  A    between atoms: C16_22  and  O3_23 
REMARK   15  A    between atoms: C16_22  and  N2_25 
REMARK   16  A    between atoms: N2_25  and  O4_26 
ROOT
HETATM    1  C8  UNL     1     -25.358  11.816  25.328  1.00  0.00     0.038 C 
ENDROOT
BRANCH   1   2
HETATM    2  C7  UNL     1     -24.886  13.171  25.937  1.00  0.00     0.209 C 
BRANCH   2   3
HETATM    3  O2  UNL     1     -24.482  12.701  27.156  1.00  0.00    -0.280 OA
BRANCH   3   4
HETATM    4  N1  UNL     1     -24.002  12.256  28.280  1.00  0.00    -0.282 N 
HETATM    5  C6  UNL     1     -23.412  13.076  29.082  1.00  0.00     0.087 C 
ATOM      6  H1  UNL     1     -24.091  11.270  28.525  1.00  0.00     0.193 HD
BRANCH   5   7
HETATM    7  C5  UNL     1     -23.149  14.447  29.005  1.00  0.00     0.046 C 
BRANCH   7   8
HETATM    8  C4  UNL     1     -23.569  15.142  30.311  1.00  0.00     0.007 C 
BRANCH   8   9
HETATM    9  C3  UNL     1     -25.102  15.086  30.478  1.00  0.00     0.027 C 
BRANCH   9  10
HETATM   10  C2  UNL     1     -25.434  15.819  31.728  1.00  0.00     0.167 C 
BRANCH  10  11
HETATM   11  O1  UNL     1     -26.512  15.387  32.428  1.00  0.00    -0.396 OA
HETATM   12  C1  UNL     1     -27.216  14.430  31.711  1.00  0.00     0.201 C 
ENDBRANCH  10  11
ENDBRANCH   9  10
ENDBRANCH   8   9
ENDBRANCH   7   8
ENDBRANCH   5   7
ENDBRANCH   3   4
ENDBRANCH   2   3
ENDBRANCH   1   2
BRANCH   1  13
HETATM   13  C9  UNL     1     -26.395  12.136  24.189  1.00  0.00    -0.024 C 
HETATM   14  C10 UNL     1     -26.112  12.181  22.785  1.00  0.00    -0.029 C 
BRANCH  14  15
HETATM   15  C11 UNL     1     -25.245  13.203  22.147  1.00  0.00     0.042 C 
BRANCH  15  16
HETATM   16  C12 UNL     1     -24.163  12.599  21.272  1.00  0.00     0.062 C 
HETATM   17  C13 UNL     1     -24.775  11.309  20.698  1.00  0.00     0.027 C 
HETATM   18  C14 UNL     1     -23.634  10.596  19.968  1.00  0.00     0.087 C 
HETATM   19  S1  UNL     1     -23.442  11.745  18.537  1.00  0.00    -0.097 SA
HETATM   20  S2  UNL     1     -23.957  13.518  19.684  1.00  0.00    -0.092 SA
ENDBRANCH  15  16
ENDBRANCH  14  15
ENDBRANCH   1  13
BRANCH   1  21
HETATM   21  C15 UNL     1     -24.034  11.200  24.636  1.00  0.00     0.062 C 
BRANCH  21  22
HETATM   22  C16 UNL     1     -23.672   9.985  25.189  1.00  0.00     0.238 C 
BRANCH  22  23
HETATM   23  O3  UNL     1     -24.374   9.732  26.601  1.00  0.00    -0.378 OA
ATOM     24  H3  UNL     1     -25.277   9.453  26.507  1.00  0.00     0.211 HD
ENDBRANCH  22  23
BRANCH  22  25
HETATM   25  N2  UNL     1     -22.986   8.781  25.163  1.00  0.00    -0.071 NA
BRANCH  25  26
HETATM   26  O4  UNL     1     -24.113   8.067  24.210  1.00  0.00    -0.294 OA
ATOM     27  H4  UNL     1     -23.562   8.118  23.439  1.00  0.00     0.238 HD
ENDBRANCH  25  26
ENDBRANCH  22  25
ENDBRANCH  21  22
ENDBRANCH   1  21
TORSDOF 16
ENDMDL
MODEL 4
REMARK VINA RESULT: -7.039454306      3.385      4.350
REMARK  16 active torsions:
REMARK  status: ('A' for Active; 'I' for Inactive)
REMARK    1  A    between atoms: O1_2  and  C2_3 
REMARK    2  A    between atoms: C2_3  and  C3_4 
REMARK    3  A    between atoms: C3_4  and  C4_5 
REMARK    4  A    between atoms: C4_5  and  C5_6 
REMARK    5  A    between atoms: C5_6  and  C6_7 
REMARK    6  A    between atoms: N1_8  and  O2_10 
REMARK    7  A    between atoms: O2_10  and  C7_11 
REMARK    8  A    between atoms: C7_11  and  C8_12 
REMARK    9  A    between atoms: C8_12  and  C9_13 
REMARK   10  A    between atoms: C8_12  and  C15_21 
REMARK   11  A    between atoms: C10_14  and  C11_15 
REMARK   12  A    between atoms: C11_15  and  C12_16 
REMARK   13  A    between atoms: C15_21  and  C16_22 
REMARK   14  A    between atoms: C16_22  and  O3_23 
REMARK   15  A    between atoms: C16_22  and  N2_25 
REMARK   16  A    between atoms: N2_25  and  O4_26 
ROOT
HETATM    1  C8  UNL     1     -25.574  11.735  25.067  1.00  0.00     0.038 C 
ENDROOT
BRANCH   1   2
HETATM    2  C7  UNL     1     -25.139  13.093  25.697  1.00  0.00     0.209 C 
BRANCH   2   3
HETATM    3  O2  UNL     1     -24.513  12.596  26.807  1.00  0.00    -0.280 OA
BRANCH   3   4
HETATM    4  N1  UNL     1     -24.008  12.128  27.911  1.00  0.00    -0.282 N 
HETATM    5  C6  UNL     1     -23.499  12.947  28.768  1.00  0.00     0.087 C 
ATOM      6  H1  UNL     1     -24.016  11.125  28.098  1.00  0.00     0.193 HD
BRANCH   5   7
HETATM    7  C5  UNL     1     -23.354  14.337  28.773  1.00  0.00     0.046 C 
BRANCH   7   8
HETATM    8  C4  UNL     1     -23.656  14.897  30.173  1.00  0.00     0.007 C 
BRANCH   8   9
HETATM    9  C3  UNL     1     -25.179  15.060  30.368  1.00  0.00     0.027 C 
BRANCH   9  10
HETATM   10  C2  UNL     1     -25.381  15.833  31.620  1.00  0.00     0.167 C 
BRANCH  10  11
HETATM   11  O1  UNL     1     -26.365  15.412  32.453  1.00  0.00    -0.396 OA
HETATM   12  C1  UNL     1     -27.208  14.517  31.810  1.00  0.00     0.201 C 
ENDBRANCH  10  11
ENDBRANCH   9  10
ENDBRANCH   8   9
ENDBRANCH   7   8
ENDBRANCH   5   7
ENDBRANCH   3   4
ENDBRANCH   2   3
ENDBRANCH   1   2
BRANCH   1  13
HETATM   13  C9  UNL     1     -26.591  12.047  23.908  1.00  0.00    -0.024 C 
HETATM   14  C10 UNL     1     -27.991  12.304  24.067  1.00  0.00    -0.029 C 
BRANCH  14  15
HETATM   15  C11 UNL     1     -28.974  11.288  24.523  1.00  0.00     0.042 C 
BRANCH  15  16
HETATM   16  C12 UNL     1     -30.201  11.211  23.635  1.00  0.00     0.062 C 
HETATM   17  C13 UNL     1     -30.944   9.937  24.077  1.00  0.00     0.027 C 
HETATM   18  C14 UNL     1     -32.079   9.747  23.066  1.00  0.00     0.087 C 
HETATM   19  S1  UNL     1     -33.154  11.160  23.569  1.00  0.00    -0.097 SA
HETATM   20  S2  UNL     1     -31.489  12.443  24.118  1.00  0.00    -0.092 SA
ENDBRANCH  15  16
ENDBRANCH  14  15
ENDBRANCH   1  13
BRANCH   1  21
HETATM   21  C15 UNL     1     -24.225  11.147  24.400  1.00  0.00     0.062 C 
BRANCH  21  22
HETATM   22  C16 UNL     1     -23.953   9.857  24.818  1.00  0.00     0.238 C 
BRANCH  22  23
HETATM   23  O3  UNL     1     -25.282   9.043  25.167  1.00  0.00    -0.378 OA
ATOM     24  H3  UNL     1     -26.011   9.295  24.612  1.00  0.00     0.211 HD
ENDBRANCH  22  23
BRANCH  22  25
HETATM   25  N2  UNL     1     -23.082   8.819  25.105  1.00  0.00    -0.071 NA
BRANCH  25  26
HETATM   26  O4  UNL     1     -23.017   9.205  26.697  1.00  0.00    -0.294 OA
ATOM     27  H4  UNL     1     -22.102   9.454  26.648  1.00  0.00     0.238 HD
ENDBRANCH  25  26
ENDBRANCH  22  25
ENDBRANCH  21  22
ENDBRANCH   1  21
TORSDOF 16
ENDMDL
MODEL 5
REMARK VINA RESULT: -7.008128725      2.425      3.286
REMARK  16 active torsions:
REMARK  status: ('A' for Active; 'I' for Inactive)
REMARK    1  A    between atoms: O1_2  and  C2_3 
REMARK    2  A    between atoms: C2_3  and  C3_4 
REMARK    3  A    between atoms: C3_4  and  C4_5 
REMARK    4  A    between atoms: C4_5  and  C5_6 
REMARK    5  A    between atoms: C5_6  and  C6_7 
REMARK    6  A    between atoms: N1_8  and  O2_10 
REMARK    7  A    between atoms: O2_10  and  C7_11 
REMARK    8  A    between atoms: C7_11  and  C8_12 
REMARK    9  A    between atoms: C8_12  and  C9_13 
REMARK   10  A    between atoms: C8_12  and  C15_21 
REMARK   11  A    between atoms: C10_14  and  C11_15 
REMARK   12  A    between atoms: C11_15  and  C12_16 
REMARK   13  A    between atoms: C15_21  and  C16_22 
REMARK   14  A    between atoms: C16_22  and  O3_23 
REMARK   15  A    between atoms: C16_22  and  N2_25 
REMARK   16  A    between atoms: N2_25  and  O4_26 
ROOT
HETATM    1  C8  UNL     1     -23.933  11.450  27.452  1.00  0.00     0.038 C 
ENDROOT
BRANCH   1   2
HETATM    2  C7  UNL     1     -22.839  11.798  28.505  1.00  0.00     0.209 C 
BRANCH   2   3
HETATM    3  O2  UNL     1     -23.163  13.114  28.688  1.00  0.00    -0.280 OA
BRANCH   3   4
HETATM    4  N1  UNL     1     -23.405  14.367  28.941  1.00  0.00    -0.282 N 
HETATM    5  C6  UNL     1     -24.548  14.699  29.439  1.00  0.00     0.087 C 
ATOM      6  H1  UNL     1     -22.700  15.079  28.749  1.00  0.00     0.193 HD
BRANCH   5   7
HETATM    7  C5  UNL     1     -25.676  13.954  29.792  1.00  0.00     0.046 C 
BRANCH   7   8
HETATM    8  C4  UNL     1     -26.391  14.606  30.988  1.00  0.00     0.007 C 
BRANCH   8   9
HETATM    9  C3  UNL     1     -27.692  13.843  31.315  1.00  0.00     0.027 C 
BRANCH   9  10
HETATM   10  C2  UNL     1     -27.944  12.903  30.193  1.00  0.00     0.167 C 
BRANCH  10  11
HETATM   11  O1  UNL     1     -28.636  11.773  30.479  1.00  0.00    -0.396 OA
HETATM   12  C1  UNL     1     -29.568  12.003  31.481  1.00  0.00     0.201 C 
ENDBRANCH  10  11
ENDBRANCH   9  10
ENDBRANCH   8   9
ENDBRANCH   7   8
ENDBRANCH   5   7
ENDBRANCH   3   4
ENDBRANCH   2   3
ENDBRANCH   1   2
BRANCH   1  13
HETATM   13  C9  UNL     1     -23.340  10.361  26.483  1.00  0.00    -0.024 C 
HETATM   14  C10 UNL     1     -23.139  10.513  25.073  1.00  0.00    -0.029 C 
BRANCH  14  15
HETATM   15  C11 UNL     1     -24.244  10.645  24.089  1.00  0.00     0.042 C 
BRANCH  15  16
HETATM   16  C12 UNL     1     -23.797  11.257  22.775  1.00  0.00     0.062 C 
HETATM   17  C13 UNL     1     -23.313  10.073  21.917  1.00  0.00     0.027 C 
HETATM   18  C14 UNL     1     -22.686  10.695  20.667  1.00  0.00     0.087 C 
HETATM   19  S1  UNL     1     -24.221  11.317  19.852  1.00  0.00    -0.097 SA
HETATM   20  S2  UNL     1     -25.225  11.772  21.724  1.00  0.00    -0.092 SA
ENDBRANCH  15  16
ENDBRANCH  14  15
ENDBRANCH   1  13
BRANCH   1  21
HETATM   21  C15 UNL     1     -25.117  10.761  28.309  1.00  0.00     0.062 C 
BRANCH  21  22
HETATM   22  C16 UNL     1     -26.258  10.556  27.556  1.00  0.00     0.238 C 
BRANCH  22  23
HETATM   23  O3  UNL     1     -27.442   9.917  28.417  1.00  0.00    -0.378 OA
ATOM     24  H3  UNL     1     -28.297  10.126  28.061  1.00  0.00     0.211 HD
ENDBRANCH  22  23
BRANCH  22  25
HETATM   25  N2  UNL     1     -26.977  10.625  26.373  1.00  0.00    -0.071 NA
BRANCH  25  26
HETATM   26  O4  UNL     1     -26.632   9.072  25.978  1.00  0.00    -0.294 OA
ATOM     27  H4  UNL     1     -27.239   8.724  26.620  1.00  0.00     0.238 HD
ENDBRANCH  25  26
ENDBRANCH  22  25
ENDBRANCH  21  22
ENDBRANCH   1  21
TORSDOF 16
ENDMDL
