MODEL 1
REMARK VINA RESULT: -6.511557007      0.000      0.000
REMARK  17 active torsions:
REMARK  status: ('A' for Active; 'I' for Inactive)
REMARK    1  A    between atoms: C2_2  and  C3_3 
REMARK    2  A    between atoms: C2_2  and  C8_11 
REMARK    3  A    between atoms: C3_3  and  C4_4 
REMARK    4  A    between atoms: C4_4  and  C5_5 
REMARK    5  A    between atoms: C8_11  and  O1_12 
REMARK    6  A    between atoms: O1_12  and  C9_13 
REMARK    7  A    between atoms: C9_13  and  O2_14 
REMARK    8  A    between atoms: C9_13  and  C10_16 
REMARK    9  A    between atoms: C10_16  and  N2_17 
REMARK   10  A    between atoms: N2_17  and  C11_19 
REMARK   11  A    between atoms: C11_19  and  C12_20 
REMARK   12  A    between atoms: C12_20  and  S2_21 
REMARK   13  A    between atoms: S2_21  and  S3_22 
REMARK   14  A    between atoms: S3_22  and  C13_23 
REMARK   15  A    between atoms: C13_23  and  C14_24 
REMARK   16  A    between atoms: C14_24  and  N3_25 
REMARK   17  A    between atoms: N3_25  and  N4_27 
ROOT
HETATM    1  C10 UNL     1     -27.223  10.965  27.578  1.00  0.00     0.120 C 
ENDROOT
BRANCH   1   2
HETATM    2  C9  UNL     1     -26.319  10.561  28.735  1.00  0.00     0.296 C 
BRANCH   2   3
HETATM    3  O1  UNL     1     -25.071  11.156  28.686  1.00  0.00    -0.356 OA
BRANCH   3   4
HETATM    4  C8  UNL     1     -25.049  12.277  27.907  1.00  0.00     0.175 C 
BRANCH   4   5
HETATM    5  C2  UNL     1     -23.841  13.140  27.995  1.00  0.00     0.005 C 
HETATM    6  C1  UNL     1     -22.898  12.647  29.090  1.00  0.00     0.012 C 
BRANCH   5   7
HETATM    7  C3  UNL     1     -24.257  14.559  28.331  1.00  0.00     0.009 C 
BRANCH   7   8
HETATM    8  C4  UNL     1     -24.311  14.647  29.838  1.00  0.00     0.036 C 
BRANCH   8   9
HETATM    9  C5  UNL     1     -25.616  15.155  30.349  1.00  0.00     0.143 C 
HETATM   10  N1  UNL     1     -26.556  14.223  30.772  1.00  0.00    -0.388 N 
HETATM   11  C6  UNL     1     -27.220  14.378  31.789  1.00  0.00     0.067 C 
ATOM     12  H1  UNL     1     -26.700  13.381  30.215  1.00  0.00     0.159 HD
HETATM   13  C7  UNL     1     -27.008  15.603  32.595  1.00  0.00     0.120 C 
HETATM   14  S1  UNL     1     -25.360  16.088  31.917  1.00  0.00    -0.139 SA
ENDBRANCH   8   9
ENDBRANCH   7   8
ENDBRANCH   5   7
ENDBRANCH   4   5
ENDBRANCH   3   4
ENDBRANCH   2   3
BRANCH   2  15
HETATM   15  O2  UNL     1     -26.200   9.154  28.685  1.00  0.00    -0.367 OA
ATOM     16  H2  UNL     1     -27.011   8.761  28.387  1.00  0.00     0.213 HD
ENDBRANCH   2  15
ENDBRANCH   1   2
BRANCH   1  17
HETATM   17  N2  UNL     1     -27.457   9.856  26.743  1.00  0.00    -0.377 N 
ATOM     18  H2  UNL     1     -27.355   8.912  27.117  1.00  0.00     0.164 HD
BRANCH  17  19
HETATM   19  C11 UNL     1     -27.831  10.037  25.402  1.00  0.00     0.071 C 
BRANCH  19  20
HETATM   20  C12 UNL     1     -28.273  11.382  24.957  1.00  0.00     0.130 C 
BRANCH  20  21
HETATM   21  S2  UNL     1     -29.718  11.472  23.926  1.00  0.00    -0.092 SA
BRANCH  21  22
HETATM   22  S3  UNL     1     -30.874   9.709  23.920  1.00  0.00    -0.096 SA
BRANCH  22  23
HETATM   23  C13 UNL     1     -32.511  10.077  23.241  1.00  0.00     0.107 C 
BRANCH  23  24
HETATM   24  C14 UNL     1     -33.181  11.187  23.997  1.00  0.00     0.152 C 
BRANCH  24  25
HETATM   25  N3  UNL     1     -33.097  12.452  23.292  1.00  0.00    -0.322 N 
ATOM     26  H3  UNL     1     -33.293  12.522  22.293  1.00  0.00     0.181 HD
BRANCH  25  27
HETATM   27  N4  UNL     1     -32.773  13.452  23.967  1.00  0.00    -0.254 N 
HETATM   28  N5  UNL     1     -32.786  14.683  24.169  1.00  0.00    -0.331 N 
ATOM     29  H52 UNL     1     -33.341  15.026  23.385  1.00  0.00     0.178 HD
ATOM     30  H51 UNL     1     -32.522  15.499  24.721  1.00  0.00     0.178 HD
ATOM     31  H4  UNL     1     -32.224  13.072  24.738  1.00  0.00     0.207 HD
ENDBRANCH  25  27
ENDBRANCH  24  25
ENDBRANCH  23  24
ENDBRANCH  22  23
ENDBRANCH  21  22
ENDBRANCH  20  21
ENDBRANCH  19  20
ENDBRANCH  17  19
ENDBRANCH   1  17
TORSDOF 17
ENDMDL
MODEL 2
REMARK VINA RESULT: -6.480295118      4.379      4.981
REMARK  17 active torsions:
REMARK  status: ('A' for Active; 'I' for Inactive)
REMARK    1  A    between atoms: C2_2  and  C3_3 
REMARK    2  A    between atoms: C2_2  and  C8_11 
REMARK    3  A    between atoms: C3_3  and  C4_4 
REMARK    4  A    between atoms: C4_4  and  C5_5 
REMARK    5  A    between atoms: C8_11  and  O1_12 
REMARK    6  A    between atoms: O1_12  and  C9_13 
REMARK    7  A    between atoms: C9_13  and  O2_14 
REMARK    8  A    between atoms: C9_13  and  C10_16 
REMARK    9  A    between atoms: C10_16  and  N2_17 
REMARK   10  A    between atoms: N2_17  and  C11_19 
REMARK   11  A    between atoms: C11_19  and  C12_20 
REMARK   12  A    between atoms: C12_20  and  S2_21 
REMARK   13  A    between atoms: S2_21  and  S3_22 
REMARK   14  A    between atoms: S3_22  and  C13_23 
REMARK   15  A    between atoms: C13_23  and  C14_24 
REMARK   16  A    between atoms: C14_24  and  N3_25 
REMARK   17  A    between atoms: N3_25  and  N4_27 
ROOT
HETATM    1  C10 UNL     1     -24.507  11.332  24.871  1.00  0.00     0.120 C 
ENDROOT
BRANCH   1   2
HETATM    2  C9  UNL     1     -24.776  12.584  25.696  1.00  0.00     0.296 C 
BRANCH   2   3
HETATM    3  O1  UNL     1     -25.732  12.394  26.677  1.00  0.00    -0.356 OA
BRANCH   3   4
HETATM    4  C8  UNL     1     -25.261  12.649  27.934  1.00  0.00     0.175 C 
BRANCH   4   5
HETATM    5  C2  UNL     1     -23.917  13.273  28.040  1.00  0.00     0.005 C 
HETATM    6  C1  UNL     1     -23.026  12.489  29.002  1.00  0.00     0.012 C 
BRANCH   5   7
HETATM    7  C3  UNL     1     -24.056  14.687  28.571  1.00  0.00     0.009 C 
BRANCH   7   8
HETATM    8  C4  UNL     1     -24.305  14.568  30.056  1.00  0.00     0.036 C 
BRANCH   8   9
HETATM    9  C5  UNL     1     -25.619  15.131  30.476  1.00  0.00     0.143 C 
HETATM   10  N1  UNL     1     -26.585  14.249  30.946  1.00  0.00    -0.388 N 
HETATM   11  C6  UNL     1     -27.279  14.497  31.923  1.00  0.00     0.067 C 
ATOM     12  H1  UNL     1     -26.720  13.363  30.460  1.00  0.00     0.159 HD
HETATM   13  C7  UNL     1     -27.078  15.786  32.627  1.00  0.00     0.120 C 
HETATM   14  S1  UNL     1     -25.403  16.194  31.966  1.00  0.00    -0.139 SA
ENDBRANCH   8   9
ENDBRANCH   7   8
ENDBRANCH   5   7
ENDBRANCH   4   5
ENDBRANCH   3   4
ENDBRANCH   2   3
BRANCH   2  15
HETATM   15  O2  UNL     1     -25.186  13.587  24.791  1.00  0.00    -0.367 OA
ATOM     16  H2  UNL     1     -25.638  13.202  24.049  1.00  0.00     0.213 HD
ENDBRANCH   2  15
ENDBRANCH   1   2
BRANCH   1  17
HETATM   17  N2  UNL     1     -23.467  10.586  25.459  1.00  0.00    -0.377 N 
ATOM     18  H2  UNL     1     -23.058  10.896  26.339  1.00  0.00     0.164 HD
BRANCH  17  19
HETATM   19  C11 UNL     1     -22.989   9.418  24.842  1.00  0.00     0.071 C 
BRANCH  19  20
HETATM   20  C12 UNL     1     -23.297   9.189  23.408  1.00  0.00     0.130 C 
BRANCH  20  21
HETATM   21  S2  UNL     1     -22.080   9.695  22.215  1.00  0.00    -0.092 SA
BRANCH  21  22
HETATM   22  S3  UNL     1     -22.871  10.799  20.603  1.00  0.00    -0.096 SA
BRANCH  22  23
HETATM   23  C13 UNL     1     -24.415  11.585  21.125  1.00  0.00     0.107 C 
BRANCH  23  24
HETATM   24  C14 UNL     1     -24.334  13.080  21.013  1.00  0.00     0.152 C 
BRANCH  24  25
HETATM   25  N3  UNL     1     -25.348  13.740  21.814  1.00  0.00    -0.322 N 
ATOM     26  H3  UNL     1     -25.267  14.723  22.076  1.00  0.00     0.181 HD
BRANCH  25  27
HETATM   27  N4  UNL     1     -26.325  13.048  22.167  1.00  0.00    -0.254 N 
HETATM   28  N5  UNL     1     -27.242  12.785  22.971  1.00  0.00    -0.331 N 
ATOM     29  H52 UNL     1     -27.115  13.500  23.687  1.00  0.00     0.178 HD
ATOM     30  H51 UNL     1     -28.041  12.219  23.260  1.00  0.00     0.178 HD
ATOM     31  H4  UNL     1     -26.421  12.348  21.432  1.00  0.00     0.207 HD
ENDBRANCH  25  27
ENDBRANCH  24  25
ENDBRANCH  23  24
ENDBRANCH  22  23
ENDBRANCH  21  22
ENDBRANCH  20  21
ENDBRANCH  19  20
ENDBRANCH  17  19
ENDBRANCH   1  17
TORSDOF 17
ENDMDL
MODEL 3
REMARK VINA RESULT: -6.437004030      3.947      5.451
REMARK  17 active torsions:
REMARK  status: ('A' for Active; 'I' for Inactive)
REMARK    1  A    between atoms: C2_2  and  C3_3 
REMARK    2  A    between atoms: C2_2  and  C8_11 
REMARK    3  A    between atoms: C3_3  and  C4_4 
REMARK    4  A    between atoms: C4_4  and  C5_5 
REMARK    5  A    between atoms: C8_11  and  O1_12 
REMARK    6  A    between atoms: O1_12  and  C9_13 
REMARK    7  A    between atoms: C9_13  and  O2_14 
REMARK    8  A    between atoms: C9_13  and  C10_16 
REMARK    9  A    between atoms: C10_16  and  N2_17 
REMARK   10  A    between atoms: N2_17  and  C11_19 
REMARK   11  A    between atoms: C11_19  and  C12_20 
REMARK   12  A    between atoms: C12_20  and  S2_21 
REMARK   13  A    between atoms: S2_21  and  S3_22 
REMARK   14  A    between atoms: S3_22  and  C13_23 
REMARK   15  A    between atoms: C13_23  and  C14_24 
REMARK   16  A    between atoms: C14_24  and  N3_25 
REMARK   17  A    between atoms: N3_25  and  N4_27 
ROOT
HETATM    1  C10 UNL     1     -26.625  11.479  25.593  1.00  0.00     0.120 C 
ENDROOT
BRANCH   1   2
HETATM    2  C9  UNL     1     -26.252  10.312  26.498  1.00  0.00     0.296 C 
BRANCH   2   3
HETATM    3  O1  UNL     1     -25.102  10.540  27.233  1.00  0.00    -0.356 OA
BRANCH   3   4
HETATM    4  C8  UNL     1     -25.167  11.680  27.980  1.00  0.00     0.175 C 
BRANCH   4   5
HETATM    5  C2  UNL     1     -24.020  12.620  27.885  1.00  0.00     0.005 C 
HETATM    6  C1  UNL     1     -22.981  12.324  28.966  1.00  0.00     0.012 C 
BRANCH   5   7
HETATM    7  C3  UNL     1     -24.512  14.041  28.078  1.00  0.00     0.009 C 
BRANCH   7   8
HETATM    8  C4  UNL     1     -24.410  14.336  29.556  1.00  0.00     0.036 C 
BRANCH   8   9
HETATM    9  C5  UNL     1     -25.657  14.922  30.123  1.00  0.00     0.143 C 
HETATM   10  N1  UNL     1     -26.619  14.050  30.618  1.00  0.00    -0.388 N 
HETATM   11  C6  UNL     1     -27.217  14.259  31.665  1.00  0.00     0.067 C 
ATOM     12  H1  UNL     1     -26.835  13.205  30.089  1.00  0.00     0.159 HD
HETATM   13  C7  UNL     1     -26.899  15.489  32.430  1.00  0.00     0.120 C 
HETATM   14  S1  UNL     1     -25.269  15.872  31.654  1.00  0.00    -0.139 SA
ENDBRANCH   8   9
ENDBRANCH   7   8
ENDBRANCH   5   7
ENDBRANCH   4   5
ENDBRANCH   3   4
ENDBRANCH   2   3
BRANCH   2  15
HETATM   15  O2  UNL     1     -26.091   9.185  25.662  1.00  0.00    -0.367 OA
ATOM     16  H2  UNL     1     -26.338   9.394  24.769  1.00  0.00     0.213 HD
ENDBRANCH   2  15
ENDBRANCH   1   2
BRANCH   1  17
HETATM   17  N2  UNL     1     -25.907  11.396  24.384  1.00  0.00    -0.377 N 
ATOM     18  H2  UNL     1     -25.157  10.712  24.288  1.00  0.00     0.164 HD
BRANCH  17  19
HETATM   19  C11 UNL     1     -26.216  12.246  23.310  1.00  0.00     0.071 C 
BRANCH  19  20
HETATM   20  C12 UNL     1     -25.124  13.030  22.680  1.00  0.00     0.130 C 
BRANCH  20  21
HETATM   21  S2  UNL     1     -24.408  12.387  21.186  1.00  0.00    -0.092 SA
BRANCH  21  22
HETATM   22  S3  UNL     1     -24.097  10.302  21.216  1.00  0.00    -0.096 SA
BRANCH  22  23
HETATM   23  C13 UNL     1     -22.566   9.944  22.110  1.00  0.00     0.107 C 
BRANCH  23  24
HETATM   24  C14 UNL     1     -22.675   8.671  22.897  1.00  0.00     0.152 C 
BRANCH  24  25
HETATM   25  N3  UNL     1     -23.592   8.800  24.015  1.00  0.00    -0.322 N 
ATOM     26  H3  UNL     1     -24.569   8.517  23.941  1.00  0.00     0.181 HD
BRANCH  25  27
HETATM   27  N4  UNL     1     -23.127   9.276  25.072  1.00  0.00    -0.254 N 
HETATM   28  N5  UNL     1     -22.614  10.215  25.713  1.00  0.00    -0.331 N 
ATOM     29  H52 UNL     1     -22.553  10.950  25.008  1.00  0.00     0.178 HD
ATOM     30  H51 UNL     1     -22.234  10.604  26.576  1.00  0.00     0.178 HD
ATOM     31  H4  UNL     1     -23.204   8.517  25.748  1.00  0.00     0.207 HD
ENDBRANCH  25  27
ENDBRANCH  24  25
ENDBRANCH  23  24
ENDBRANCH  22  23
ENDBRANCH  21  22
ENDBRANCH  20  21
ENDBRANCH  19  20
ENDBRANCH  17  19
ENDBRANCH   1  17
TORSDOF 17
ENDMDL
MODEL 4
REMARK VINA RESULT: -6.423119224      3.863      5.553
REMARK  17 active torsions:
REMARK  status: ('A' for Active; 'I' for Inactive)
REMARK    1  A    between atoms: C2_2  and  C3_3 
REMARK    2  A    between atoms: C2_2  and  C8_11 
REMARK    3  A    between atoms: C3_3  and  C4_4 
REMARK    4  A    between atoms: C4_4  and  C5_5 
REMARK    5  A    between atoms: C8_11  and  O1_12 
REMARK    6  A    between atoms: O1_12  and  C9_13 
REMARK    7  A    between atoms: C9_13  and  O2_14 
REMARK    8  A    between atoms: C9_13  and  C10_16 
REMARK    9  A    between atoms: C10_16  and  N2_17 
REMARK   10  A    between atoms: N2_17  and  C11_19 
REMARK   11  A    between atoms: C11_19  and  C12_20 
REMARK   12  A    between atoms: C12_20  and  S2_21 
REMARK   13  A    between atoms: S2_21  and  S3_22 
REMARK   14  A    between atoms: S3_22  and  C13_23 
REMARK   15  A    between atoms: C13_23  and  C14_24 
REMARK   16  A    between atoms: C14_24  and  N3_25 
REMARK   17  A    between atoms: N3_25  and  N4_27 
ROOT
HETATM    1  C10 UNL     1     -26.503  11.524  25.762  1.00  0.00     0.120 C 
ENDROOT
BRANCH   1   2
HETATM    2  C9  UNL     1     -26.479  10.166  26.451  1.00  0.00     0.296 C 
BRANCH   2   3
HETATM    3  O1  UNL     1     -25.498  10.066  27.421  1.00  0.00    -0.356 OA
BRANCH   3   4
HETATM    4  C8  UNL     1     -24.485  10.965  27.247  1.00  0.00     0.175 C 
BRANCH   4   5
HETATM    5  C2  UNL     1     -23.117  10.416  27.059  1.00  0.00     0.005 C 
HETATM    6  C1  UNL     1     -22.102  11.180  27.908  1.00  0.00     0.012 C 
BRANCH   5   7
HETATM    7  C3  UNL     1     -22.713  10.551  25.604  1.00  0.00     0.009 C 
BRANCH   7   8
HETATM    8  C4  UNL     1     -22.812   9.169  24.999  1.00  0.00     0.036 C 
BRANCH   8   9
HETATM    9  C5  UNL     1     -23.282   9.181  23.586  1.00  0.00     0.143 C 
HETATM   10  N1  UNL     1     -24.181  10.171  23.207  1.00  0.00    -0.388 N 
HETATM   11  C6  UNL     1     -24.084  10.773  22.145  1.00  0.00     0.067 C 
ATOM     12  H1  UNL     1     -24.948  10.406  23.836  1.00  0.00     0.159 HD
HETATM   13  C7  UNL     1     -22.966  10.428  21.235  1.00  0.00     0.120 C 
HETATM   14  S1  UNL     1     -21.879   9.572  22.456  1.00  0.00    -0.139 SA
ENDBRANCH   8   9
ENDBRANCH   7   8
ENDBRANCH   5   7
ENDBRANCH   4   5
ENDBRANCH   3   4
ENDBRANCH   2   3
BRANCH   2  15
HETATM   15  O2  UNL     1     -26.278   9.201  25.440  1.00  0.00    -0.367 OA
ATOM     16  H2  UNL     1     -25.604   8.583  25.699  1.00  0.00     0.213 HD
ENDBRANCH   2  15
ENDBRANCH   1   2
BRANCH   1  17
HETATM   17  N2  UNL     1     -27.029  11.392  24.462  1.00  0.00    -0.377 N 
ATOM     18  H2  UNL     1     -26.837  10.548  23.923  1.00  0.00     0.164 HD
BRANCH  17  19
HETATM   19  C11 UNL     1     -27.816  12.412  23.902  1.00  0.00     0.071 C 
BRANCH  19  20
HETATM   20  C12 UNL     1     -29.207  12.098  23.490  1.00  0.00     0.130 C 
BRANCH  20  21
HETATM   21  S2  UNL     1     -30.000  10.709  24.266  1.00  0.00    -0.092 SA
BRANCH  21  22
HETATM   22  S3  UNL     1     -31.304   9.649  22.993  1.00  0.00    -0.096 SA
BRANCH  22  23
HETATM   23  C13 UNL     1     -33.002   9.851  23.584  1.00  0.00     0.107 C 
BRANCH  23  24
HETATM   24  C14 UNL     1     -33.228  11.226  24.143  1.00  0.00     0.152 C 
BRANCH  24  25
HETATM   25  N3  UNL     1     -33.130  12.251  23.121  1.00  0.00    -0.322 N 
ATOM     26  H3  UNL     1     -33.383  12.065  22.150  1.00  0.00     0.181 HD
BRANCH  25  27
HETATM   27  N4  UNL     1     -32.722  13.373  23.487  1.00  0.00    -0.254 N 
HETATM   28  N5  UNL     1     -32.704  14.314  24.306  1.00  0.00    -0.331 N 
ATOM     29  H52 UNL     1     -33.346  13.986  25.028  1.00  0.00     0.178 HD
ATOM     30  H51 UNL     1     -32.370  15.230  24.606  1.00  0.00     0.178 HD
ATOM     31  H4  UNL     1     -32.086  13.667  22.746  1.00  0.00     0.207 HD
ENDBRANCH  25  27
ENDBRANCH  24  25
ENDBRANCH  23  24
ENDBRANCH  22  23
ENDBRANCH  21  22
ENDBRANCH  20  21
ENDBRANCH  19  20
ENDBRANCH  17  19
ENDBRANCH   1  17
TORSDOF 17
ENDMDL
MODEL 5
REMARK VINA RESULT: -6.186022576      4.370      5.754
REMARK  17 active torsions:
REMARK  status: ('A' for Active; 'I' for Inactive)
REMARK    1  A    between atoms: C2_2  and  C3_3 
REMARK    2  A    between atoms: C2_2  and  C8_11 
REMARK    3  A    between atoms: C3_3  and  C4_4 
REMARK    4  A    between atoms: C4_4  and  C5_5 
REMARK    5  A    between atoms: C8_11  and  O1_12 
REMARK    6  A    between atoms: O1_12  and  C9_13 
REMARK    7  A    between atoms: C9_13  and  O2_14 
REMARK    8  A    between atoms: C9_13  and  C10_16 
REMARK    9  A    between atoms: C10_16  and  N2_17 
REMARK   10  A    between atoms: N2_17  and  C11_19 
REMARK   11  A    between atoms: C11_19  and  C12_20 
REMARK   12  A    between atoms: C12_20  and  S2_21 
REMARK   13  A    between atoms: S2_21  and  S3_22 
REMARK   14  A    between atoms: S3_22  and  C13_23 
REMARK   15  A    between atoms: C13_23  and  C14_24 
REMARK   16  A    between atoms: C14_24  and  N3_25 
REMARK   17  A    between atoms: N3_25  and  N4_27 
ROOT
HETATM    1  C10 UNL     1     -24.123  11.344  25.105  1.00  0.00     0.120 C 
ENDROOT
BRANCH   1   2
HETATM    2  C9  UNL     1     -24.188  10.237  26.150  1.00  0.00     0.296 C 
BRANCH   2   3
HETATM    3  O1  UNL     1     -23.790  10.651  27.408  1.00  0.00    -0.356 OA
BRANCH   3   4
HETATM    4  C8  UNL     1     -23.789  12.009  27.544  1.00  0.00     0.175 C 
BRANCH   4   5
HETATM    5  C2  UNL     1     -24.623  12.582  28.632  1.00  0.00     0.005 C 
HETATM    6  C1  UNL     1     -26.068  12.098  28.525  1.00  0.00     0.012 C 
BRANCH   5   7
HETATM    7  C3  UNL     1     -24.622  14.095  28.528  1.00  0.00     0.009 C 
BRANCH   7   8
HETATM    8  C4  UNL     1     -24.462  14.625  29.934  1.00  0.00     0.036 C 
BRANCH   8   9
HETATM    9  C5  UNL     1     -25.718  15.207  30.486  1.00  0.00     0.143 C 
HETATM   10  N1  UNL     1     -26.664  14.334  31.009  1.00  0.00    -0.388 N 
HETATM   11  C6  UNL     1     -27.264  14.565  32.051  1.00  0.00     0.067 C 
ATOM     12  H1  UNL     1     -26.867  13.470  30.507  1.00  0.00     0.159 HD
HETATM   13  C7  UNL     1     -26.965  15.822  32.778  1.00  0.00     0.120 C 
HETATM   14  S1  UNL     1     -25.342  16.209  31.987  1.00  0.00    -0.139 SA
ENDBRANCH   8   9
ENDBRANCH   7   8
ENDBRANCH   5   7
ENDBRANCH   4   5
ENDBRANCH   3   4
ENDBRANCH   2   3
BRANCH   2  15
HETATM   15  O2  UNL     1     -23.359   9.191  25.686  1.00  0.00    -0.367 OA
ATOM     16  H2  UNL     1     -22.723   9.522  25.062  1.00  0.00     0.213 HD
ENDBRANCH   2  15
ENDBRANCH   1   2
BRANCH   1  17
HETATM   17  N2  UNL     1     -25.299  11.342  24.332  1.00  0.00    -0.377 N 
ATOM     18  H2  UNL     1     -25.820  10.475  24.205  1.00  0.00     0.164 HD
BRANCH  17  19
HETATM   19  C11 UNL     1     -25.762  12.525  23.732  1.00  0.00     0.071 C 
BRANCH  19  20
HETATM   20  C12 UNL     1     -25.819  12.603  22.251  1.00  0.00     0.130 C 
BRANCH  20  21
HETATM   21  S2  UNL     1     -24.432  13.334  21.413  1.00  0.00    -0.092 SA
BRANCH  21  22
HETATM   22  S3  UNL     1     -23.975  12.426  19.566  1.00  0.00    -0.096 SA
BRANCH  22  23
HETATM   23  C13 UNL     1     -23.260  10.792  19.871  1.00  0.00     0.107 C 
BRANCH  23  24
HETATM   24  C14 UNL     1     -22.915  10.606  21.320  1.00  0.00     0.152 C 
BRANCH  24  25
HETATM   25  N3  UNL     1     -23.676   9.529  21.926  1.00  0.00    -0.322 N 
ATOM     26  H3  UNL     1     -24.656   9.368  21.691  1.00  0.00     0.181 HD
BRANCH  25  27
HETATM   27  N4  UNL     1     -23.074   8.809  22.749  1.00  0.00    -0.254 N 
HETATM   28  N5  UNL     1     -22.616   7.704  23.102  1.00  0.00    -0.331 N 
ATOM     29  H52 UNL     1     -22.865   7.104  22.315  1.00  0.00     0.178 HD
ATOM     30  H51 UNL     1     -22.123   7.115  23.774  1.00  0.00     0.178 HD
ATOM     31  H4  UNL     1     -22.842   9.439  23.517  1.00  0.00     0.207 HD
ENDBRANCH  25  27
ENDBRANCH  24  25
ENDBRANCH  23  24
ENDBRANCH  22  23
ENDBRANCH  21  22
ENDBRANCH  20  21
ENDBRANCH  19  20
ENDBRANCH  17  19
ENDBRANCH   1  17
TORSDOF 17
ENDMDL
