MODEL 1
REMARK VINA RESULT: -7.034268898      0.000      0.000
REMARK  15 active torsions:
REMARK  status: ('A' for Active; 'I' for Inactive)
REMARK    1  A    between atoms: C2_2  and  C3_3 
REMARK    2  A    between atoms: C3_3  and  C4_4 
REMARK    3  A    between atoms: C4_4  and  C5_5 
REMARK    4  A    between atoms: C5_5  and  O1_6 
REMARK    5  A    between atoms: O1_6  and  C6_7 
REMARK    6  A    between atoms: C7_8  and  C8_9 
REMARK    7  A    between atoms: C8_9  and  C9_10 
REMARK    8  A    between atoms: C9_10  and  O2_11 
REMARK    9  A    between atoms: O2_11  and  C10_12 
REMARK   10  A    between atoms: C10_12  and  C11_13 
REMARK   11  A    between atoms: C11_13  and  S1_14 
REMARK   12  A    between atoms: S1_14  and  C12_15 
REMARK   13  A    between atoms: N1_19  and  C16_20 
REMARK   14  A    between atoms: C16_20  and  C17_21 
REMARK   15  A    between atoms: C19_24  and  O3_25 
ROOT
HETATM    1  C17 UNL     1     -22.682   9.156  22.516  1.00  0.00     0.144 C 
HETATM    2  C18 UNL     1     -21.317   9.654  22.351  1.00  0.00     0.060 C 
HETATM    3  N2  UNL     1     -20.254  10.061  22.225  1.00  0.00    -0.197 NA
ENDROOT
BRANCH   1   4
HETATM    4  C16 UNL     1     -22.812   8.476  23.869  1.00  0.00     0.144 C 
BRANCH   4   5
HETATM    5  N1  UNL     1     -23.248   9.509  24.808  1.00  0.00    -0.334 N 
HETATM    6  C15 UNL     1     -23.962  10.589  24.447  1.00  0.00     0.103 A 
HETATM    7  C7  UNL     1     -24.209  11.369  25.584  1.00  0.00    -0.003 A 
HETATM    8  C6  UNL     1     -23.635  10.749  26.641  1.00  0.00     0.127 A 
HETATM    9  C19 UNL     1     -23.045   9.594  26.126  1.00  0.00     0.177 A 
BRANCH   7  10
HETATM   10  C8  UNL     1     -24.979  12.616  25.528  1.00  0.00     0.069 C 
BRANCH  10  11
HETATM   11  C9  UNL     1     -26.268  12.418  24.723  1.00  0.00     0.172 C 
BRANCH  11  12
HETATM   12  O2  UNL     1     -26.417  13.416  23.788  1.00  0.00    -0.390 OA
BRANCH  12  13
HETATM   13  C10 UNL     1     -26.487  12.898  22.517  1.00  0.00     0.177 C 
BRANCH  13  14
HETATM   14  C11 UNL     1     -25.139  12.952  21.857  1.00  0.00     0.100 C 
BRANCH  14  15
HETATM   15  S1  UNL     1     -24.826  11.495  20.867  1.00  0.00    -0.163 SA
BRANCH  15  16
HETATM   16  C12 UNL     1     -23.550  11.764  19.658  1.00  0.00     0.039 C 
HETATM   17  C13 UNL     1     -23.594  13.092  18.981  1.00  0.00     0.021 C 
HETATM   18  C14 UNL     1     -23.620  10.617  18.649  1.00  0.00     0.021 C 
ENDBRANCH  15  16
ENDBRANCH  14  15
ENDBRANCH  13  14
ENDBRANCH  12  13
ENDBRANCH  11  12
ENDBRANCH  10  11
ENDBRANCH   7  10
BRANCH   8  19
HETATM   19  O1  UNL     1     -23.606  11.121  27.944  1.00  0.00    -0.346 OA
BRANCH  19  20
HETATM   20  C5  UNL     1     -23.022  12.178  28.599  1.00  0.00     0.176 C 
BRANCH  20  21
HETATM   21  C4  UNL     1     -23.969  13.338  28.890  1.00  0.00     0.027 C 
BRANCH  21  22
HETATM   22  C3  UNL     1     -23.210  14.560  29.320  1.00  0.00     0.002 C 
BRANCH  22  23
HETATM   23  C2  UNL     1     -23.743  15.200  30.563  1.00  0.00    -0.004 C 
HETATM   24  C1  UNL     1     -25.228  15.232  30.655  1.00  0.00     0.005 C 
ENDBRANCH  22  23
ENDBRANCH  21  22
ENDBRANCH  20  21
ENDBRANCH  19  20
ENDBRANCH   8  19
BRANCH   9  25
HETATM   25  O3  UNL     1     -22.339   8.651  26.866  1.00  0.00    -0.344 OA
ATOM     26  H3  UNL     1     -21.580   8.169  26.561  1.00  0.00     0.219 HD
ENDBRANCH   9  25
ENDBRANCH   4   5
ENDBRANCH   1   4
TORSDOF 15
ENDMDL
MODEL 2
REMARK VINA RESULT: -6.950249879      3.670      8.288
REMARK  15 active torsions:
REMARK  status: ('A' for Active; 'I' for Inactive)
REMARK    1  A    between atoms: C2_2  and  C3_3 
REMARK    2  A    between atoms: C3_3  and  C4_4 
REMARK    3  A    between atoms: C4_4  and  C5_5 
REMARK    4  A    between atoms: C5_5  and  O1_6 
REMARK    5  A    between atoms: O1_6  and  C6_7 
REMARK    6  A    between atoms: C7_8  and  C8_9 
REMARK    7  A    between atoms: C8_9  and  C9_10 
REMARK    8  A    between atoms: C9_10  and  O2_11 
REMARK    9  A    between atoms: O2_11  and  C10_12 
REMARK   10  A    between atoms: C10_12  and  C11_13 
REMARK   11  A    between atoms: C11_13  and  S1_14 
REMARK   12  A    between atoms: S1_14  and  C12_15 
REMARK   13  A    between atoms: N1_19  and  C16_20 
REMARK   14  A    between atoms: C16_20  and  C17_21 
REMARK   15  A    between atoms: C19_24  and  O3_25 
ROOT
HETATM    1  C17 UNL     1     -31.041  12.425  24.159  1.00  0.00     0.144 C 
HETATM    2  C18 UNL     1     -32.393  12.008  23.790  1.00  0.00     0.060 C 
HETATM    3  N2  UNL     1     -33.449  11.689  23.484  1.00  0.00    -0.197 NA
ENDROOT
BRANCH   1   4
HETATM    4  C16 UNL     1     -30.106  11.229  24.089  1.00  0.00     0.144 C 
BRANCH   4   5
HETATM    5  N1  UNL     1     -28.775  11.764  23.801  1.00  0.00    -0.334 N 
HETATM    6  C15 UNL     1     -27.825  11.940  24.735  1.00  0.00     0.103 A 
HETATM    7  C7  UNL     1     -26.680  12.465  24.122  1.00  0.00    -0.003 A 
HETATM    8  C6  UNL     1     -26.947  12.607  22.803  1.00  0.00     0.127 A 
HETATM    9  C19 UNL     1     -28.259  12.162  22.634  1.00  0.00     0.177 A 
BRANCH   7  10
HETATM   10  C8  UNL     1     -25.455  12.761  24.872  1.00  0.00     0.069 C 
BRANCH  10  11
HETATM   11  C9  UNL     1     -24.548  11.527  24.931  1.00  0.00     0.172 C 
BRANCH  11  12
HETATM   12  O2  UNL     1     -23.919  11.441  26.152  1.00  0.00    -0.390 OA
BRANCH  12  13
HETATM   13  C10 UNL     1     -24.740  10.868  27.093  1.00  0.00     0.177 C 
BRANCH  13  14
HETATM   14  C11 UNL     1     -24.822  11.738  28.314  1.00  0.00     0.100 C 
BRANCH  14  15
HETATM   15  S1  UNL     1     -23.227  12.423  28.748  1.00  0.00    -0.163 SA
BRANCH  15  16
HETATM   16  C12 UNL     1     -23.239  14.201  28.757  1.00  0.00     0.039 C 
HETATM   17  C13 UNL     1     -23.349  14.824  30.107  1.00  0.00     0.021 C 
HETATM   18  C14 UNL     1     -24.368  14.661  27.834  1.00  0.00     0.021 C 
ENDBRANCH  15  16
ENDBRANCH  14  15
ENDBRANCH  13  14
ENDBRANCH  12  13
ENDBRANCH  11  12
ENDBRANCH  10  11
ENDBRANCH   7  10
BRANCH   8  19
HETATM   19  O1  UNL     1     -26.152  13.076  21.811  1.00  0.00    -0.346 OA
BRANCH  19  20
HETATM   20  C5  UNL     1     -24.940  12.661  21.314  1.00  0.00     0.176 C 
BRANCH  20  21
HETATM   21  C4  UNL     1     -24.892  11.188  20.920  1.00  0.00     0.027 C 
BRANCH  21  22
HETATM   22  C3  UNL     1     -23.485  10.666  20.951  1.00  0.00     0.002 C 
BRANCH  22  23
HETATM   23  C2  UNL     1     -22.666  11.058  19.762  1.00  0.00    -0.004 C 
HETATM   24  C1  UNL     1     -23.295  10.750  18.449  1.00  0.00     0.005 C 
ENDBRANCH  22  23
ENDBRANCH  21  22
ENDBRANCH  20  21
ENDBRANCH  19  20
ENDBRANCH   8  19
BRANCH   9  25
HETATM   25  O3  UNL     1     -28.949  12.130  21.427  1.00  0.00    -0.344 OA
ATOM     26  H3  UNL     1     -29.797  11.725  21.289  1.00  0.00     0.219 HD
ENDBRANCH   9  25
ENDBRANCH   4   5
ENDBRANCH   1   4
TORSDOF 15
ENDMDL
MODEL 3
REMARK VINA RESULT: -6.881871044      2.419      4.138
REMARK  15 active torsions:
REMARK  status: ('A' for Active; 'I' for Inactive)
REMARK    1  A    between atoms: C2_2  and  C3_3 
REMARK    2  A    between atoms: C3_3  and  C4_4 
REMARK    3  A    between atoms: C4_4  and  C5_5 
REMARK    4  A    between atoms: C5_5  and  O1_6 
REMARK    5  A    between atoms: O1_6  and  C6_7 
REMARK    6  A    between atoms: C7_8  and  C8_9 
REMARK    7  A    between atoms: C8_9  and  C9_10 
REMARK    8  A    between atoms: C9_10  and  O2_11 
REMARK    9  A    between atoms: O2_11  and  C10_12 
REMARK   10  A    between atoms: C10_12  and  C11_13 
REMARK   11  A    between atoms: C11_13  and  S1_14 
REMARK   12  A    between atoms: S1_14  and  C12_15 
REMARK   13  A    between atoms: N1_19  and  C16_20 
REMARK   14  A    between atoms: C16_20  and  C17_21 
REMARK   15  A    between atoms: C19_24  and  O3_25 
ROOT
HETATM    1  C17 UNL     1     -27.697  11.732  24.496  1.00  0.00     0.144 C 
HETATM    2  C18 UNL     1     -29.059  12.107  24.119  1.00  0.00     0.060 C 
HETATM    3  N2  UNL     1     -30.126  12.386  23.811  1.00  0.00    -0.197 NA
ENDROOT
BRANCH   1   4
HETATM    4  C16 UNL     1     -27.726  10.992  25.823  1.00  0.00     0.144 C 
BRANCH   4   5
HETATM    5  N1  UNL     1     -26.357  11.021  26.339  1.00  0.00    -0.334 N 
HETATM    6  C15 UNL     1     -25.294  10.566  25.654  1.00  0.00     0.103 A 
HETATM    7  C7  UNL     1     -24.144  10.743  26.434  1.00  0.00    -0.003 A 
HETATM    8  C6  UNL     1     -24.522  11.312  27.602  1.00  0.00     0.127 A 
HETATM    9  C19 UNL     1     -25.906  11.472  27.513  1.00  0.00     0.177 A 
BRANCH   7  10
HETATM   10  C8  UNL     1     -22.810  10.357  25.963  1.00  0.00     0.069 C 
BRANCH  10  11
HETATM   11  C9  UNL     1     -22.909   9.235  24.923  1.00  0.00     0.172 C 
BRANCH  11  12
HETATM   12  O2  UNL     1     -22.457   9.665  23.697  1.00  0.00    -0.390 OA
BRANCH  12  13
HETATM   13  C10 UNL     1     -23.252   9.191  22.682  1.00  0.00     0.177 C 
BRANCH  13  14
HETATM   14  C11 UNL     1     -23.887  10.331  21.940  1.00  0.00     0.100 C 
BRANCH  14  15
HETATM   15  S1  UNL     1     -22.855  10.905  20.595  1.00  0.00    -0.163 SA
BRANCH  15  16
HETATM   16  C12 UNL     1     -23.784  11.792  19.366  1.00  0.00     0.039 C 
HETATM   17  C13 UNL     1     -23.210  11.751  17.991  1.00  0.00     0.021 C 
HETATM   18  C14 UNL     1     -23.951  13.230  19.861  1.00  0.00     0.021 C 
ENDBRANCH  15  16
ENDBRANCH  14  15
ENDBRANCH  13  14
ENDBRANCH  12  13
ENDBRANCH  11  12
ENDBRANCH  10  11
ENDBRANCH   7  10
BRANCH   8  19
HETATM   19  O1  UNL     1     -23.766  11.671  28.667  1.00  0.00    -0.346 OA
BRANCH  19  20
HETATM   20  C5  UNL     1     -22.897  12.713  28.885  1.00  0.00     0.176 C 
BRANCH  20  21
HETATM   21  C4  UNL     1     -23.488  14.092  28.612  1.00  0.00     0.027 C 
BRANCH  21  22
HETATM   22  C3  UNL     1     -23.817  14.802  29.893  1.00  0.00     0.002 C 
BRANCH  22  23
HETATM   23  C2  UNL     1     -25.271  14.782  30.243  1.00  0.00    -0.004 C 
HETATM   24  C1  UNL     1     -25.642  15.641  31.400  1.00  0.00     0.005 C 
ENDBRANCH  22  23
ENDBRANCH  21  22
ENDBRANCH  20  21
ENDBRANCH  19  20
ENDBRANCH   8  19
BRANCH   9  25
HETATM   25  O3  UNL     1     -26.717  12.023  28.498  1.00  0.00    -0.344 OA
ATOM     26  H3  UNL     1     -27.181  11.533  29.166  1.00  0.00     0.219 HD
ENDBRANCH   9  25
ENDBRANCH   4   5
ENDBRANCH   1   4
TORSDOF 15
ENDMDL
MODEL 4
REMARK VINA RESULT: -6.841875730      1.146      1.623
REMARK  15 active torsions:
REMARK  status: ('A' for Active; 'I' for Inactive)
REMARK    1  A    between atoms: C2_2  and  C3_3 
REMARK    2  A    between atoms: C3_3  and  C4_4 
REMARK    3  A    between atoms: C4_4  and  C5_5 
REMARK    4  A    between atoms: C5_5  and  O1_6 
REMARK    5  A    between atoms: O1_6  and  C6_7 
REMARK    6  A    between atoms: C7_8  and  C8_9 
REMARK    7  A    between atoms: C8_9  and  C9_10 
REMARK    8  A    between atoms: C9_10  and  O2_11 
REMARK    9  A    between atoms: O2_11  and  C10_12 
REMARK   10  A    between atoms: C10_12  and  C11_13 
REMARK   11  A    between atoms: C11_13  and  S1_14 
REMARK   12  A    between atoms: S1_14  and  C12_15 
REMARK   13  A    between atoms: N1_19  and  C16_20 
REMARK   14  A    between atoms: C16_20  and  C17_21 
REMARK   15  A    between atoms: C19_24  and  O3_25 
ROOT
HETATM    1  C17 UNL     1     -23.352   8.904  23.931  1.00  0.00     0.144 C 
HETATM    2  C18 UNL     1     -22.167   8.711  23.096  1.00  0.00     0.060 C 
HETATM    3  N2  UNL     1     -21.243   8.576  22.434  1.00  0.00    -0.197 NA
ENDROOT
BRANCH   1   4
HETATM    4  C16 UNL     1     -22.925   9.350  25.319  1.00  0.00     0.144 C 
BRANCH   4   5
HETATM    5  N1  UNL     1     -23.737  10.523  25.642  1.00  0.00    -0.334 N 
HETATM    6  C15 UNL     1     -24.660  11.040  24.813  1.00  0.00     0.103 A 
HETATM    7  C7  UNL     1     -25.250  12.151  25.430  1.00  0.00    -0.003 A 
HETATM    8  C6  UNL     1     -24.673  12.303  26.644  1.00  0.00     0.127 A 
HETATM    9  C19 UNL     1     -23.735  11.274  26.747  1.00  0.00     0.177 A 
BRANCH   7  10
HETATM   10  C8  UNL     1     -26.310  12.934  24.786  1.00  0.00     0.069 C 
BRANCH  10  11
HETATM   11  C9  UNL     1     -26.257  12.765  23.264  1.00  0.00     0.172 C 
BRANCH  11  12
HETATM   12  O2  UNL     1     -25.487  13.750  22.689  1.00  0.00    -0.390 OA
BRANCH  12  13
HETATM   13  C10 UNL     1     -24.703  13.242  21.682  1.00  0.00     0.177 C 
BRANCH  13  14
HETATM   14  C11 UNL     1     -25.160  11.862  21.309  1.00  0.00     0.100 C 
BRANCH  14  15
HETATM   15  S1  UNL     1     -23.830  10.886  20.616  1.00  0.00    -0.163 SA
BRANCH  15  16
HETATM   16  C12 UNL     1     -23.128  11.639  19.166  1.00  0.00     0.039 C 
HETATM   17  C13 UNL     1     -24.086  12.430  18.341  1.00  0.00     0.021 C 
HETATM   18  C14 UNL     1     -22.462  10.533  18.346  1.00  0.00     0.021 C 
ENDBRANCH  15  16
ENDBRANCH  14  15
ENDBRANCH  13  14
ENDBRANCH  12  13
ENDBRANCH  11  12
ENDBRANCH  10  11
ENDBRANCH   7  10
BRANCH   8  19
HETATM   19  O1  UNL     1     -24.913  13.234  27.598  1.00  0.00    -0.346 OA
BRANCH  19  20
HETATM   20  C5  UNL     1     -24.230  14.358  27.996  1.00  0.00     0.176 C 
BRANCH  20  21
HETATM   21  C4  UNL     1     -23.337  14.153  29.217  1.00  0.00     0.027 C 
BRANCH  21  22
HETATM   22  C3  UNL     1     -23.739  15.066  30.339  1.00  0.00     0.002 C 
BRANCH  22  23
HETATM   23  C2  UNL     1     -25.218  15.219  30.498  1.00  0.00    -0.004 C 
HETATM   24  C1  UNL     1     -25.641  15.866  31.769  1.00  0.00     0.005 C 
ENDBRANCH  22  23
ENDBRANCH  21  22
ENDBRANCH  20  21
ENDBRANCH  19  20
ENDBRANCH   8  19
BRANCH   9  25
HETATM   25  O3  UNL     1     -22.907  11.047  27.840  1.00  0.00    -0.344 OA
ATOM     26  H3  UNL     1     -22.011  10.735  27.796  1.00  0.00     0.219 HD
ENDBRANCH   9  25
ENDBRANCH   4   5
ENDBRANCH   1   4
TORSDOF 15
ENDMDL
MODEL 5
REMARK VINA RESULT: -6.774302248      2.435      4.007
REMARK  15 active torsions:
REMARK  status: ('A' for Active; 'I' for Inactive)
REMARK    1  A    between atoms: C2_2  and  C3_3 
REMARK    2  A    between atoms: C3_3  and  C4_4 
REMARK    3  A    between atoms: C4_4  and  C5_5 
REMARK    4  A    between atoms: C5_5  and  O1_6 
REMARK    5  A    between atoms: O1_6  and  C6_7 
REMARK    6  A    between atoms: C7_8  and  C8_9 
REMARK    7  A    between atoms: C8_9  and  C9_10 
REMARK    8  A    between atoms: C9_10  and  O2_11 
REMARK    9  A    between atoms: O2_11  and  C10_12 
REMARK   10  A    between atoms: C10_12  and  C11_13 
REMARK   11  A    between atoms: C11_13  and  S1_14 
REMARK   12  A    between atoms: S1_14  and  C12_15 
REMARK   13  A    between atoms: N1_19  and  C16_20 
REMARK   14  A    between atoms: C16_20  and  C17_21 
REMARK   15  A    between atoms: C19_24  and  O3_25 
ROOT
HETATM    1  C17 UNL     1     -27.871   9.524  25.691  1.00  0.00     0.144 C 
HETATM    2  C18 UNL     1     -27.870   8.747  26.929  1.00  0.00     0.060 C 
HETATM    3  N2  UNL     1     -27.853   8.132  27.895  1.00  0.00    -0.197 NA
ENDROOT
BRANCH   1   4
HETATM    4  C16 UNL     1     -27.580  10.982  26.009  1.00  0.00     0.144 C 
BRANCH   4   5
HETATM    5  N1  UNL     1     -26.201  11.029  26.495  1.00  0.00    -0.334 N 
HETATM    6  C15 UNL     1     -25.153  10.546  25.807  1.00  0.00     0.103 A 
HETATM    7  C7  UNL     1     -23.987  10.753  26.555  1.00  0.00    -0.003 A 
HETATM    8  C6  UNL     1     -24.341  11.368  27.708  1.00  0.00     0.127 A 
HETATM    9  C19 UNL     1     -25.726  11.527  27.640  1.00  0.00     0.177 A 
BRANCH   7  10
HETATM   10  C8  UNL     1     -22.663  10.347  26.073  1.00  0.00     0.069 C 
BRANCH  10  11
HETATM   11  C9  UNL     1     -22.621  10.353  24.541  1.00  0.00     0.172 C 
BRANCH  11  12
HETATM   12  O2  UNL     1     -22.626   9.069  24.047  1.00  0.00    -0.390 OA
BRANCH  12  13
HETATM   13  C10 UNL     1     -23.032   9.044  22.734  1.00  0.00     0.177 C 
BRANCH  13  14
HETATM   14  C11 UNL     1     -23.703  10.337  22.371  1.00  0.00     0.100 C 
BRANCH  14  15
HETATM   15  S1  UNL     1     -24.215  10.360  20.656  1.00  0.00    -0.163 SA
BRANCH  15  16
HETATM   16  C12 UNL     1     -23.322  11.567  19.704  1.00  0.00     0.039 C 
HETATM   17  C13 UNL     1     -23.917  12.934  19.702  1.00  0.00     0.021 C 
HETATM   18  C14 UNL     1     -23.173  11.019  18.284  1.00  0.00     0.021 C 
ENDBRANCH  15  16
ENDBRANCH  14  15
ENDBRANCH  13  14
ENDBRANCH  12  13
ENDBRANCH  11  12
ENDBRANCH  10  11
ENDBRANCH   7  10
BRANCH   8  19
HETATM   19  O1  UNL     1     -23.562  11.768  28.742  1.00  0.00    -0.346 OA
BRANCH  19  20
HETATM   20  C5  UNL     1     -22.861  12.924  28.988  1.00  0.00     0.176 C 
BRANCH  20  21
HETATM   21  C4  UNL     1     -23.721  14.183  29.038  1.00  0.00     0.027 C 
BRANCH  21  22
HETATM   22  C3  UNL     1     -23.389  15.016  30.242  1.00  0.00     0.002 C 
BRANCH  22  23
HETATM   23  C2  UNL     1     -24.586  15.472  31.013  1.00  0.00    -0.004 C 
HETATM   24  C1  UNL     1     -25.849  14.761  30.675  1.00  0.00     0.005 C 
ENDBRANCH  22  23
ENDBRANCH  21  22
ENDBRANCH  20  21
ENDBRANCH  19  20
ENDBRANCH   8  19
BRANCH   9  25
HETATM   25  O3  UNL     1     -26.516  12.117  28.619  1.00  0.00    -0.344 OA
ATOM     26  H3  UNL     1     -27.465  12.077  28.659  1.00  0.00     0.219 HD
ENDBRANCH   9  25
ENDBRANCH   4   5
ENDBRANCH   1   4
TORSDOF 15
ENDMDL
