MODEL 1
REMARK VINA RESULT: -7.477749558      0.000      0.000
REMARK  15 active torsions:
REMARK  status: ('A' for Active; 'I' for Inactive)
REMARK    1  A    between atoms: C2_2  and  C3_3 
REMARK    2  A    between atoms: C3_3  and  N1_4 
REMARK    3  A    between atoms: N1_4  and  C4_6 
REMARK    4  A    between atoms: C4_6  and  C5_7 
REMARK    5  A    between atoms: C4_6  and  C13_18 
REMARK    6  A    between atoms: C5_7  and  C6_8 
REMARK    7  A    between atoms: C6_8  and  C7_9 
REMARK    8  A    between atoms: C9_11  and  C10_12 
REMARK    9  A    between atoms: C10_12  and  C11_13 
REMARK   10  A    between atoms: C13_18  and  C14_19 
REMARK   11  A    between atoms: C14_19  and  S1_20 
REMARK   12  A    between atoms: S1_20  and  S2_21 
REMARK   13  A    between atoms: S2_21  and  C15_22 
REMARK   14  A    between atoms: C15_22  and  C16_23 
REMARK   15  A    between atoms: N3_26  and  O2_28 
ROOT
HETATM    1  C4  UNL     1     -25.018  10.687  25.077  1.00  0.00     0.125 C 
ENDROOT
BRANCH   1   2
HETATM    2  N1  UNL     1     -24.402   9.545  24.542  1.00  0.00    -0.412 N 
ATOM      3  H1  UNL     1     -24.943   8.684  24.464  1.00  0.00     0.153 HD
BRANCH   2   4
HETATM    4  C3  UNL     1     -23.071   9.547  24.112  1.00  0.00     0.114 C 
BRANCH   4   5
HETATM    5  C2  UNL     1     -23.073   9.124  22.618  1.00  0.00     0.015 C 
HETATM    6  C1  UNL     1     -21.927   9.833  21.936  1.00  0.00     0.006 C 
ENDBRANCH   4   5
ENDBRANCH   2   4
ENDBRANCH   1   2
BRANCH   1   7
HETATM    7  C5  UNL     1     -24.513  11.994  24.545  1.00  0.00     0.037 C 
BRANCH   7   8
HETATM    8  C6  UNL     1     -25.545  12.762  23.778  1.00  0.00     0.069 C 
BRANCH   8   9
HETATM    9  C7  UNL     1     -25.004  13.184  22.432  1.00  0.00     0.078 A 
HETATM   10  C8  UNL     1     -24.634  12.361  21.374  1.00  0.00     0.061 A 
HETATM   11  C9  UNL     1     -24.192  13.153  20.334  1.00  0.00     0.035 A 
HETATM   12  N2  UNL     1     -24.313  14.409  20.800  1.00  0.00    -0.265 N 
HETATM   13  O1  UNL     1     -24.784  14.401  22.016  1.00  0.00    -0.242 OA
ATOM     14  H2  UNL     1     -24.069  15.250  20.275  1.00  0.00     0.194 HD
BRANCH  11  15
HETATM   15  C10 UNL     1     -23.704  12.701  19.008  1.00  0.00     0.059 C 
BRANCH  15  16
HETATM   16  C11 UNL     1     -23.904  11.237  18.768  1.00  0.00     0.002 C 
HETATM   17  C12 UNL     1     -22.637  10.613  18.216  1.00  0.00     0.005 C 
ENDBRANCH  15  16
ENDBRANCH  11  15
ENDBRANCH   8   9
ENDBRANCH   7   8
ENDBRANCH   1   7
BRANCH   1  18
HETATM   18  C13 UNL     1     -25.167  10.616  26.533  1.00  0.00     0.042 C 
HETATM   19  N3  UNL     1     -26.128   9.857  27.005  1.00  0.00    -0.275 N 
ATOM     20  H3  UNL     1     -26.273   9.773  28.011  1.00  0.00     0.193 HD
BRANCH  18  21
HETATM   21  C14 UNL     1     -24.353  11.297  27.552  1.00  0.00     0.142 C 
BRANCH  21  22
HETATM   22  S1  UNL     1     -25.347  12.640  28.306  1.00  0.00    -0.092 SA
BRANCH  22  23
HETATM   23  S2  UNL     1     -24.179  14.358  28.683  1.00  0.00    -0.097 SA
BRANCH  23  24
HETATM   24  C15 UNL     1     -24.297  14.939  30.375  1.00  0.00     0.090 C 
BRANCH  24  25
HETATM   25  C16 UNL     1     -25.662  15.436  30.718  1.00  0.00    -0.004 A 
HETATM   26  C17 UNL     1     -26.650  14.563  31.398  1.00  0.00     0.006 A 
HETATM   27  C18 UNL     1     -26.095  15.780  32.089  1.00  0.00     0.006 A 
ENDBRANCH  24  25
ENDBRANCH  23  24
ENDBRANCH  22  23
ENDBRANCH  21  22
ENDBRANCH  18  21
BRANCH  19  28
HETATM   28  O2  UNL     1     -26.928   9.181  26.132  1.00  0.00    -0.290 OA
ATOM     29  H2  UNL     1     -27.745   8.812  26.446  1.00  0.00     0.244 HD
ENDBRANCH  19  28
ENDBRANCH   1  18
TORSDOF 15
ENDMDL
MODEL 2
REMARK VINA RESULT: -7.294897831      3.003      8.698
REMARK  15 active torsions:
REMARK  status: ('A' for Active; 'I' for Inactive)
REMARK    1  A    between atoms: C2_2  and  C3_3 
REMARK    2  A    between atoms: C3_3  and  N1_4 
REMARK    3  A    between atoms: N1_4  and  C4_6 
REMARK    4  A    between atoms: C4_6  and  C5_7 
REMARK    5  A    between atoms: C4_6  and  C13_18 
REMARK    6  A    between atoms: C5_7  and  C6_8 
REMARK    7  A    between atoms: C6_8  and  C7_9 
REMARK    8  A    between atoms: C9_11  and  C10_12 
REMARK    9  A    between atoms: C10_12  and  C11_13 
REMARK   10  A    between atoms: C13_18  and  C14_19 
REMARK   11  A    between atoms: C14_19  and  S1_20 
REMARK   12  A    between atoms: S1_20  and  S2_21 
REMARK   13  A    between atoms: S2_21  and  C15_22 
REMARK   14  A    between atoms: C15_22  and  C16_23 
REMARK   15  A    between atoms: N3_26  and  O2_28 
ROOT
HETATM    1  C4  UNL     1     -25.682  11.541  25.712  1.00  0.00     0.125 C 
ENDROOT
BRANCH   1   2
HETATM    2  N1  UNL     1     -26.724  11.955  24.867  1.00  0.00    -0.412 N 
ATOM      3  H1  UNL     1     -27.570  11.388  24.815  1.00  0.00     0.153 HD
BRANCH   2   4
HETATM    4  C3  UNL     1     -26.641  13.117  24.093  1.00  0.00     0.114 C 
BRANCH   4   5
HETATM    5  C2  UNL     1     -26.306  12.676  22.642  1.00  0.00     0.015 C 
HETATM    6  C1  UNL     1     -25.009  13.341  22.245  1.00  0.00     0.006 C 
ENDBRANCH   4   5
ENDBRANCH   2   4
ENDBRANCH   1   2
BRANCH   1   7
HETATM    7  C5  UNL     1     -24.947  12.647  26.408  1.00  0.00     0.037 C 
BRANCH   7   8
HETATM    8  C6  UNL     1     -24.224  12.197  27.641  1.00  0.00     0.069 C 
BRANCH   8   9
HETATM    9  C7  UNL     1     -24.158  13.312  28.657  1.00  0.00     0.078 A 
HETATM   10  C8  UNL     1     -25.214  13.873  29.367  1.00  0.00     0.061 A 
HETATM   11  C9  UNL     1     -24.717  14.864  30.188  1.00  0.00     0.035 A 
HETATM   12  N2  UNL     1     -23.394  14.863  29.943  1.00  0.00    -0.265 N 
HETATM   13  O1  UNL     1     -23.096  13.957  29.054  1.00  0.00    -0.242 OA
ATOM     14  H2  UNL     1     -22.719  15.484  30.391  1.00  0.00     0.194 HD
BRANCH  11  15
HETATM   15  C10 UNL     1     -25.483  15.723  31.124  1.00  0.00     0.059 C 
BRANCH  15  16
HETATM   16  C11 UNL     1     -26.697  15.053  31.687  1.00  0.00     0.002 C 
HETATM   17  C12 UNL     1     -27.010  15.596  33.067  1.00  0.00     0.005 C 
ENDBRANCH  15  16
ENDBRANCH  11  15
ENDBRANCH   8   9
ENDBRANCH   7   8
ENDBRANCH   1   7
BRANCH   1  18
HETATM   18  C13 UNL     1     -24.836  10.511  25.102  1.00  0.00     0.042 C 
HETATM   19  N3  UNL     1     -25.293   9.281  25.097  1.00  0.00    -0.275 N 
ATOM     20  H3  UNL     1     -24.744   8.527  24.684  1.00  0.00     0.193 HD
BRANCH  18  21
HETATM   21  C14 UNL     1     -23.519  10.689  24.474  1.00  0.00     0.142 C 
BRANCH  21  22
HETATM   22  S1  UNL     1     -23.325   9.447  23.139  1.00  0.00    -0.092 SA
BRANCH  22  23
HETATM   23  S2  UNL     1     -22.905  10.359  21.280  1.00  0.00    -0.097 SA
BRANCH  23  24
HETATM   24  C15 UNL     1     -24.334  10.461  20.201  1.00  0.00     0.090 C 
BRANCH  24  25
HETATM   25  C16 UNL     1     -23.969  10.804  18.795  1.00  0.00    -0.004 A 
HETATM   26  C17 UNL     1     -23.463  12.153  18.440  1.00  0.00     0.006 A 
HETATM   27  C18 UNL     1     -22.579  10.940  18.313  1.00  0.00     0.006 A 
ENDBRANCH  24  25
ENDBRANCH  23  24
ENDBRANCH  22  23
ENDBRANCH  21  22
ENDBRANCH  18  21
BRANCH  19  28
HETATM   28  O2  UNL     1     -26.512   9.024  25.652  1.00  0.00    -0.290 OA
ATOM     29  H2  UNL     1     -26.761   8.124  25.823  1.00  0.00     0.244 HD
ENDBRANCH  19  28
ENDBRANCH   1  18
TORSDOF 15
ENDMDL
MODEL 3
REMARK VINA RESULT: -7.274429278      2.920      9.002
REMARK  15 active torsions:
REMARK  status: ('A' for Active; 'I' for Inactive)
REMARK    1  A    between atoms: C2_2  and  C3_3 
REMARK    2  A    between atoms: C3_3  and  N1_4 
REMARK    3  A    between atoms: N1_4  and  C4_6 
REMARK    4  A    between atoms: C4_6  and  C5_7 
REMARK    5  A    between atoms: C4_6  and  C13_18 
REMARK    6  A    between atoms: C5_7  and  C6_8 
REMARK    7  A    between atoms: C6_8  and  C7_9 
REMARK    8  A    between atoms: C9_11  and  C10_12 
REMARK    9  A    between atoms: C10_12  and  C11_13 
REMARK   10  A    between atoms: C13_18  and  C14_19 
REMARK   11  A    between atoms: C14_19  and  S1_20 
REMARK   12  A    between atoms: S1_20  and  S2_21 
REMARK   13  A    between atoms: S2_21  and  C15_22 
REMARK   14  A    between atoms: C15_22  and  C16_23 
REMARK   15  A    between atoms: N3_26  and  O2_28 
ROOT
HETATM    1  C4  UNL     1     -24.903  11.717  27.315  1.00  0.00     0.125 C 
ENDROOT
BRANCH   1   2
HETATM    2  N1  UNL     1     -23.559  11.962  27.640  1.00  0.00    -0.412 N 
ATOM      3  H1  UNL     1     -22.832  11.644  26.999  1.00  0.00     0.153 HD
BRANCH   2   4
HETATM    4  C3  UNL     1     -23.183  12.625  28.813  1.00  0.00     0.114 C 
BRANCH   4   5
HETATM    5  C2  UNL     1     -23.731  14.074  28.712  1.00  0.00     0.015 C 
HETATM    6  C1  UNL     1     -23.203  14.851  29.895  1.00  0.00     0.006 C 
ENDBRANCH   4   5
ENDBRANCH   2   4
ENDBRANCH   1   2
BRANCH   1   7
HETATM    7  C5  UNL     1     -25.646  10.848  28.284  1.00  0.00     0.037 C 
BRANCH   7   8
HETATM    8  C6  UNL     1     -27.131  11.041  28.237  1.00  0.00     0.069 C 
BRANCH   8   9
HETATM    9  C7  UNL     1     -27.598  11.867  29.412  1.00  0.00     0.078 A 
HETATM   10  C8  UNL     1     -27.051  13.057  29.880  1.00  0.00     0.061 A 
HETATM   11  C9  UNL     1     -27.780  13.478  30.973  1.00  0.00     0.035 A 
HETATM   12  N2  UNL     1     -28.729  12.536  31.120  1.00  0.00    -0.265 N 
HETATM   13  O1  UNL     1     -28.603  11.615  30.206  1.00  0.00    -0.242 OA
ATOM     14  H2  UNL     1     -29.447  12.541  31.846  1.00  0.00     0.194 HD
BRANCH  11  15
HETATM   15  C10 UNL     1     -27.555  14.698  31.786  1.00  0.00     0.059 C 
BRANCH  15  16
HETATM   16  C11 UNL     1     -26.125  15.139  31.813  1.00  0.00     0.002 C 
HETATM   17  C12 UNL     1     -26.037  16.652  31.829  1.00  0.00     0.005 C 
ENDBRANCH  15  16
ENDBRANCH  11  15
ENDBRANCH   8   9
ENDBRANCH   7   8
ENDBRANCH   1   7
BRANCH   1  18
HETATM   18  C13 UNL     1     -25.087  11.382  25.900  1.00  0.00     0.042 C 
HETATM   19  N3  UNL     1     -25.197  12.379  25.054  1.00  0.00    -0.275 N 
ATOM     20  H3  UNL     1     -25.326  12.199  24.058  1.00  0.00     0.193 HD
BRANCH  18  21
HETATM   21  C14 UNL     1     -25.158  10.042  25.298  1.00  0.00     0.142 C 
BRANCH  21  22
HETATM   22  S1  UNL     1     -23.470   9.524  24.803  1.00  0.00    -0.092 SA
BRANCH  22  23
HETATM   23  S2  UNL     1     -23.254   9.473  22.703  1.00  0.00    -0.097 SA
BRANCH  23  24
HETATM   24  C15 UNL     1     -24.180  10.759  21.864  1.00  0.00     0.090 C 
BRANCH  24  25
HETATM   25  C16 UNL     1     -23.957  10.759  20.388  1.00  0.00    -0.004 A 
HETATM   26  C17 UNL     1     -23.689  12.019  19.651  1.00  0.00     0.006 A 
HETATM   27  C18 UNL     1     -22.636  10.947  19.753  1.00  0.00     0.006 A 
ENDBRANCH  24  25
ENDBRANCH  23  24
ENDBRANCH  22  23
ENDBRANCH  21  22
ENDBRANCH  18  21
BRANCH  19  28
HETATM   28  O2  UNL     1     -25.134  13.657  25.523  1.00  0.00    -0.290 OA
ATOM     29  H2  UNL     1     -25.202  14.378  24.909  1.00  0.00     0.244 HD
ENDBRANCH  19  28
ENDBRANCH   1  18
TORSDOF 15
ENDMDL
MODEL 4
REMARK VINA RESULT: -7.248350045      1.251      1.287
REMARK  15 active torsions:
REMARK  status: ('A' for Active; 'I' for Inactive)
REMARK    1  A    between atoms: C2_2  and  C3_3 
REMARK    2  A    between atoms: C3_3  and  N1_4 
REMARK    3  A    between atoms: N1_4  and  C4_6 
REMARK    4  A    between atoms: C4_6  and  C5_7 
REMARK    5  A    between atoms: C4_6  and  C13_18 
REMARK    6  A    between atoms: C5_7  and  C6_8 
REMARK    7  A    between atoms: C6_8  and  C7_9 
REMARK    8  A    between atoms: C9_11  and  C10_12 
REMARK    9  A    between atoms: C10_12  and  C11_13 
REMARK   10  A    between atoms: C13_18  and  C14_19 
REMARK   11  A    between atoms: C14_19  and  S1_20 
REMARK   12  A    between atoms: S1_20  and  S2_21 
REMARK   13  A    between atoms: S2_21  and  C15_22 
REMARK   14  A    between atoms: C15_22  and  C16_23 
REMARK   15  A    between atoms: N3_26  and  O2_28 
ROOT
HETATM    1  C4  UNL     1     -24.980  11.080  25.579  1.00  0.00     0.125 C 
ENDROOT
BRANCH   1   2
HETATM    2  N1  UNL     1     -23.816  10.299  25.663  1.00  0.00    -0.412 N 
ATOM      3  H1  UNL     1     -23.681   9.702  26.479  1.00  0.00     0.153 HD
BRANCH   2   4
HETATM    4  C3  UNL     1     -22.835  10.312  24.666  1.00  0.00     0.114 C 
BRANCH   4   5
HETATM    5  C2  UNL     1     -23.294   9.323  23.560  1.00  0.00     0.015 C 
HETATM    6  C1  UNL     1     -22.092   8.991  22.709  1.00  0.00     0.006 C 
ENDBRANCH   4   5
ENDBRANCH   2   4
ENDBRANCH   1   2
BRANCH   1   7
HETATM    7  C5  UNL     1     -24.791  12.448  24.998  1.00  0.00     0.037 C 
BRANCH   7   8
HETATM    8  C6  UNL     1     -25.844  12.821  24.000  1.00  0.00     0.069 C 
BRANCH   8   9
HETATM    9  C7  UNL     1     -25.219  13.148  22.664  1.00  0.00     0.078 A 
HETATM   10  C8  UNL     1     -24.793  12.253  21.688  1.00  0.00     0.061 A 
HETATM   11  C9  UNL     1     -24.283  12.970  20.625  1.00  0.00     0.035 A 
HETATM   12  N2  UNL     1     -24.421  14.255  20.996  1.00  0.00    -0.265 N 
HETATM   13  O1  UNL     1     -24.965  14.332  22.179  1.00  0.00    -0.242 OA
ATOM     14  H2  UNL     1     -24.140  15.057  20.432  1.00  0.00     0.194 HD
BRANCH  11  15
HETATM   15  C10 UNL     1     -23.719  12.427  19.365  1.00  0.00     0.059 C 
BRANCH  15  16
HETATM   16  C11 UNL     1     -22.935  11.167  19.559  1.00  0.00     0.002 C 
HETATM   17  C12 UNL     1     -22.533  10.581  18.220  1.00  0.00     0.005 C 
ENDBRANCH  15  16
ENDBRANCH  11  15
ENDBRANCH   8   9
ENDBRANCH   7   8
ENDBRANCH   1   7
BRANCH   1  18
HETATM   18  C13 UNL     1     -25.786  11.022  26.802  1.00  0.00     0.042 C 
HETATM   19  N3  UNL     1     -26.614  10.012  26.930  1.00  0.00    -0.275 N 
ATOM     20  H3  UNL     1     -27.197   9.925  27.763  1.00  0.00     0.193 HD
BRANCH  18  21
HETATM   21  C14 UNL     1     -25.775  11.967  27.928  1.00  0.00     0.142 C 
BRANCH  21  22
HETATM   22  S1  UNL     1     -27.208  11.611  29.015  1.00  0.00    -0.092 SA
BRANCH  22  23
HETATM   23  S2  UNL     1     -27.585  13.199  30.355  1.00  0.00    -0.097 SA
BRANCH  23  24
HETATM   24  C15 UNL     1     -26.184  14.300  30.561  1.00  0.00     0.090 C 
BRANCH  24  25
HETATM   25  C16 UNL     1     -26.531  15.534  31.325  1.00  0.00    -0.004 A 
HETATM   26  C17 UNL     1     -26.876  15.473  32.768  1.00  0.00     0.006 A 
HETATM   27  C18 UNL     1     -25.629  16.179  32.303  1.00  0.00     0.006 A 
ENDBRANCH  24  25
ENDBRANCH  23  24
ENDBRANCH  22  23
ENDBRANCH  21  22
ENDBRANCH  18  21
BRANCH  19  28
HETATM   28  O2  UNL     1     -26.684   9.080  25.937  1.00  0.00    -0.290 OA
ATOM     29  H2  UNL     1     -27.508   8.949  25.484  1.00  0.00     0.244 HD
ENDBRANCH  19  28
ENDBRANCH   1  18
TORSDOF 15
ENDMDL
MODEL 5
REMARK VINA RESULT: -7.202938170      3.197      8.969
REMARK  15 active torsions:
REMARK  status: ('A' for Active; 'I' for Inactive)
REMARK    1  A    between atoms: C2_2  and  C3_3 
REMARK    2  A    between atoms: C3_3  and  N1_4 
REMARK    3  A    between atoms: N1_4  and  C4_6 
REMARK    4  A    between atoms: C4_6  and  C5_7 
REMARK    5  A    between atoms: C4_6  and  C13_18 
REMARK    6  A    between atoms: C5_7  and  C6_8 
REMARK    7  A    between atoms: C6_8  and  C7_9 
REMARK    8  A    between atoms: C9_11  and  C10_12 
REMARK    9  A    between atoms: C10_12  and  C11_13 
REMARK   10  A    between atoms: C13_18  and  C14_19 
REMARK   11  A    between atoms: C14_19  and  S1_20 
REMARK   12  A    between atoms: S1_20  and  S2_21 
REMARK   13  A    between atoms: S2_21  and  C15_22 
REMARK   14  A    between atoms: C15_22  and  C16_23 
REMARK   15  A    between atoms: N3_26  and  O2_28 
ROOT
HETATM    1  C4  UNL     1     -24.414  10.918  27.389  1.00  0.00     0.125 C 
ENDROOT
BRANCH   1   2
HETATM    2  N1  UNL     1     -25.496  10.062  27.651  1.00  0.00    -0.412 N 
ATOM      3  H1  UNL     1     -25.306   9.092  27.901  1.00  0.00     0.153 HD
BRANCH   2   4
HETATM    4  C3  UNL     1     -26.824  10.495  27.580  1.00  0.00     0.114 C 
BRANCH   4   5
HETATM    5  C2  UNL     1     -27.444   9.857  26.307  1.00  0.00     0.015 C 
HETATM    6  C1  UNL     1     -27.831  10.977  25.370  1.00  0.00     0.006 C 
ENDBRANCH   4   5
ENDBRANCH   2   4
ENDBRANCH   1   2
BRANCH   1   7
HETATM    7  C5  UNL     1     -24.594  12.334  27.847  1.00  0.00     0.037 C 
BRANCH   7   8
HETATM    8  C6  UNL     1     -23.362  12.921  28.463  1.00  0.00     0.069 C 
BRANCH   8   9
HETATM    9  C7  UNL     1     -23.726  13.983  29.474  1.00  0.00     0.078 A 
HETATM   10  C8  UNL     1     -25.000  14.416  29.823  1.00  0.00     0.061 A 
HETATM   11  C9  UNL     1     -24.884  15.400  30.784  1.00  0.00     0.035 A 
HETATM   12  N2  UNL     1     -23.557  15.520  30.975  1.00  0.00    -0.265 N 
HETATM   13  O1  UNL     1     -22.909  14.690  30.206  1.00  0.00    -0.242 OA
ATOM     14  H2  UNL     1     -23.120  16.169  31.630  1.00  0.00     0.194 HD
BRANCH  11  15
HETATM   15  C10 UNL     1     -25.984  16.142  31.447  1.00  0.00     0.059 C 
BRANCH  15  16
HETATM   16  C11 UNL     1     -26.739  15.319  32.443  1.00  0.00     0.002 C 
HETATM   17  C12 UNL     1     -27.713  14.395  31.739  1.00  0.00     0.005 C 
ENDBRANCH  15  16
ENDBRANCH  11  15
ENDBRANCH   8   9
ENDBRANCH   7   8
ENDBRANCH   1   7
BRANCH   1  18
HETATM   18  C13 UNL     1     -23.886  10.759  26.031  1.00  0.00     0.042 C 
HETATM   19  N3  UNL     1     -23.032   9.783  25.827  1.00  0.00    -0.275 N 
ATOM     20  H3  UNL     1     -22.635   9.630  24.900  1.00  0.00     0.193 HD
BRANCH  18  21
HETATM   21  C14 UNL     1     -24.206  11.566  24.844  1.00  0.00     0.142 C 
BRANCH  21  22
HETATM   22  S1  UNL     1     -24.144  10.490  23.361  1.00  0.00    -0.092 SA
BRANCH  22  23
HETATM   23  S2  UNL     1     -24.775  11.516  21.626  1.00  0.00    -0.097 SA
BRANCH  23  24
HETATM   24  C15 UNL     1     -23.448  11.811  20.455  1.00  0.00     0.090 C 
BRANCH  24  25
HETATM   25  C16 UNL     1     -23.627  11.054  19.182  1.00  0.00    -0.004 A 
HETATM   26  C17 UNL     1     -23.510  11.727  17.864  1.00  0.00     0.006 A 
HETATM   27  C18 UNL     1     -22.516  10.676  18.284  1.00  0.00     0.006 A 
ENDBRANCH  24  25
ENDBRANCH  23  24
ENDBRANCH  22  23
ENDBRANCH  21  22
ENDBRANCH  18  21
BRANCH  19  28
HETATM   28  O2  UNL     1     -22.683   8.978  26.871  1.00  0.00    -0.290 OA
ATOM     29  H2  UNL     1     -22.454   8.073  26.699  1.00  0.00     0.244 HD
ENDBRANCH  19  28
ENDBRANCH   1  18
TORSDOF 15
ENDMDL
