MODEL 1
REMARK VINA RESULT: -8.169023715      0.000      0.000
REMARK  15 active torsions:
REMARK  status: ('A' for Active; 'I' for Inactive)
REMARK    1  A    between atoms: C2_2  and  C3_3 
REMARK    2  A    between atoms: C3_3  and  N1_4 
REMARK    3  A    between atoms: N1_4  and  C4_5 
REMARK    4  A    between atoms: N1_4  and  C7_8 
REMARK    5  A    between atoms: C4_5  and  C5_6 
REMARK    6  A    between atoms: C7_8  and  C8_9 
REMARK    7  A    between atoms: C8_9  and  C9_10 
REMARK    8  A    between atoms: C9_10  and  C10_11 
REMARK    9  A    between atoms: C10_11  and  O1_12 
REMARK   10  A    between atoms: O1_12  and  C11_13 
REMARK   11  A    between atoms: C14_16  and  N2_17 
REMARK   12  A    between atoms: N2_17  and  N3_18 
REMARK   13  A    between atoms: N3_18  and  C15_20 
REMARK   14  A    between atoms: C17_26  and  O2_27 
REMARK   15  A    between atoms: C19_30  and  O3_31 
ROOT
HETATM    1  C11 UNL     1     -25.768  14.533  30.288  1.00  0.00     0.102 A 
HETATM    2  C12 UNL     1     -25.034  15.510  30.945  1.00  0.00     0.043 A 
HETATM    3  C13 UNL     1     -25.435  15.984  32.165  1.00  0.00     0.050 A 
HETATM    4  C14 UNL     1     -26.587  15.515  32.802  1.00  0.00     0.134 A 
HETATM    5  C18 UNL     1     -27.329  14.520  32.130  1.00  0.00     0.086 A 
HETATM    6  C19 UNL     1     -26.891  14.071  30.904  1.00  0.00     0.104 A 
ENDROOT
BRANCH   1   7
HETATM    7  O1  UNL     1     -25.393  14.041  29.046  1.00  0.00    -0.348 OA
BRANCH   7   8
HETATM    8  C10 UNL     1     -24.095  14.367  28.540  1.00  0.00     0.176 C 
BRANCH   8   9
HETATM    9  C9  UNL     1     -23.073  13.348  28.740  1.00  0.00     0.032 C 
BRANCH   9  10
HETATM   10  C8  UNL     1     -23.365  11.906  28.698  1.00  0.00     0.046 C 
BRANCH  10  11
HETATM   11  C7  UNL     1     -22.704  11.098  27.679  1.00  0.00     0.063 C 
BRANCH  11  12
HETATM   12  N1  UNL     1     -23.361  10.736  26.490  1.00  0.00    -0.374 N 
BRANCH  12  13
HETATM   13  C3  UNL     1     -24.805  10.866  26.693  1.00  0.00     0.126 C 
BRANCH  13  14
HETATM   14  C2  UNL     1     -25.583  11.774  25.870  1.00  0.00     0.016 C 
HETATM   15  C1  UNL     1     -25.017  12.965  25.215  1.00  0.00     0.006 C 
ENDBRANCH  13  14
ENDBRANCH  12  13
BRANCH  12  16
HETATM   16  C4  UNL     1     -23.072   9.708  25.635  1.00  0.00     0.062 C 
BRANCH  16  17
HETATM   17  C5  UNL     1     -22.728   9.929  24.188  1.00  0.00     0.040 C 
HETATM   18  C6  UNL     1     -22.785   8.589  23.426  1.00  0.00     0.010 C 
ENDBRANCH  16  17
ENDBRANCH  12  16
ENDBRANCH  11  12
ENDBRANCH  10  11
ENDBRANCH   9  10
ENDBRANCH   8   9
ENDBRANCH   7   8
ENDBRANCH   1   7
BRANCH   6  19
HETATM   19  O3  UNL     1     -27.630  13.074  30.228  1.00  0.00    -0.353 OA
HETATM   20  C20 UNL     1     -29.028  13.034  30.507  1.00  0.00     0.210 C 
ENDBRANCH   6  19
BRANCH   4  21
HETATM   21  N2  UNL     1     -27.041  15.967  33.960  1.00  0.00    -0.324 NA
BRANCH  21  22
HETATM   22  N3  UNL     1     -27.409  16.330  34.932  1.00  0.00    -0.214 N 
ATOM     23  H3  UNL     1     -27.967  17.174  34.799  1.00  0.00     0.203 HD
BRANCH  22  24
HETATM   24  C15 UNL     1     -27.355  16.006  36.277  1.00  0.00     0.183 A 
HETATM   25  N4  UNL     1     -28.183  15.184  36.939  1.00  0.00    -0.333 N 
HETATM   26  C16 UNL     1     -27.764  15.147  38.209  1.00  0.00     0.184 A 
ATOM     27  H4  UNL     1     -28.981  14.682  36.548  1.00  0.00     0.168 HD
HETATM   28  N5  UNL     1     -26.675  15.946  38.351  1.00  0.00    -0.330 N 
HETATM   29  C17 UNL     1     -26.406  16.489  37.154  1.00  0.00     0.188 A 
ATOM     30  H5  UNL     1     -26.154  16.105  39.214  1.00  0.00     0.168 HD
BRANCH  29  31
HETATM   31  O2  UNL     1     -25.351  17.364  36.924  1.00  0.00    -0.343 OA
ATOM     32  H2  UNL     1     -24.650  17.634  37.505  1.00  0.00     0.219 HD
ENDBRANCH  29  31
ENDBRANCH  22  24
ENDBRANCH  21  22
ENDBRANCH   4  21
TORSDOF 15
ENDMDL
MODEL 2
REMARK VINA RESULT: -8.111460076      0.552      1.735
REMARK  15 active torsions:
REMARK  status: ('A' for Active; 'I' for Inactive)
REMARK    1  A    between atoms: C2_2  and  C3_3 
REMARK    2  A    between atoms: C3_3  and  N1_4 
REMARK    3  A    between atoms: N1_4  and  C4_5 
REMARK    4  A    between atoms: N1_4  and  C7_8 
REMARK    5  A    between atoms: C4_5  and  C5_6 
REMARK    6  A    between atoms: C7_8  and  C8_9 
REMARK    7  A    between atoms: C8_9  and  C9_10 
REMARK    8  A    between atoms: C9_10  and  C10_11 
REMARK    9  A    between atoms: C10_11  and  O1_12 
REMARK   10  A    between atoms: O1_12  and  C11_13 
REMARK   11  A    between atoms: C14_16  and  N2_17 
REMARK   12  A    between atoms: N2_17  and  N3_18 
REMARK   13  A    between atoms: N3_18  and  C15_20 
REMARK   14  A    between atoms: C17_26  and  O2_27 
REMARK   15  A    between atoms: C19_30  and  O3_31 
ROOT
HETATM    1  C11 UNL     1     -25.786  14.476  30.213  1.00  0.00     0.102 A 
HETATM    2  C12 UNL     1     -25.049  15.464  30.849  1.00  0.00     0.043 A 
HETATM    3  C13 UNL     1     -25.434  15.945  32.072  1.00  0.00     0.050 A 
HETATM    4  C14 UNL     1     -26.571  15.473  32.733  1.00  0.00     0.134 A 
HETATM    5  C18 UNL     1     -27.315  14.465  32.082  1.00  0.00     0.086 A 
HETATM    6  C19 UNL     1     -26.894  14.010  30.853  1.00  0.00     0.104 A 
ENDROOT
BRANCH   1   7
HETATM    7  O1  UNL     1     -25.428  13.976  28.970  1.00  0.00    -0.348 OA
BRANCH   7   8
HETATM    8  C10 UNL     1     -24.064  14.087  28.551  1.00  0.00     0.176 C 
BRANCH   8   9
HETATM    9  C9  UNL     1     -23.171  13.049  29.050  1.00  0.00     0.032 C 
BRANCH   9  10
HETATM   10  C8  UNL     1     -22.911  11.799  28.317  1.00  0.00     0.046 C 
BRANCH  10  11
HETATM   11  C7  UNL     1     -24.054  11.013  27.867  1.00  0.00     0.063 C 
BRANCH  11  12
HETATM   12  N1  UNL     1     -24.327  10.831  26.500  1.00  0.00    -0.374 N 
BRANCH  12  13
HETATM   13  C3  UNL     1     -23.065  10.592  25.796  1.00  0.00     0.126 C 
BRANCH  13  14
HETATM   14  C2  UNL     1     -22.969   9.542  24.799  1.00  0.00     0.016 C 
HETATM   15  C1  UNL     1     -22.786   9.800  23.360  1.00  0.00     0.006 C 
ENDBRANCH  13  14
ENDBRANCH  12  13
BRANCH  12  16
HETATM   16  C4  UNL     1     -25.214  11.509  25.709  1.00  0.00     0.062 C 
BRANCH  16  17
HETATM   17  C5  UNL     1     -24.917  12.866  25.136  1.00  0.00     0.040 C 
HETATM   18  C6  UNL     1     -25.076  12.833  23.602  1.00  0.00     0.010 C 
ENDBRANCH  16  17
ENDBRANCH  12  16
ENDBRANCH  11  12
ENDBRANCH  10  11
ENDBRANCH   9  10
ENDBRANCH   8   9
ENDBRANCH   7   8
ENDBRANCH   1   7
BRANCH   6  19
HETATM   19  O3  UNL     1     -27.635  13.000  30.198  1.00  0.00    -0.353 OA
HETATM   20  C20 UNL     1     -29.042  13.006  30.431  1.00  0.00     0.210 C 
ENDBRANCH   6  19
BRANCH   4  21
HETATM   21  N2  UNL     1     -27.009  15.931  33.894  1.00  0.00    -0.324 NA
BRANCH  21  22
HETATM   22  N3  UNL     1     -27.390  16.305  34.857  1.00  0.00    -0.214 N 
ATOM     23  H3  UNL     1     -27.944  17.148  34.707  1.00  0.00     0.203 HD
BRANCH  22  24
HETATM   24  C15 UNL     1     -27.357  15.995  36.206  1.00  0.00     0.183 A 
HETATM   25  N4  UNL     1     -28.194  15.178  36.864  1.00  0.00    -0.333 N 
HETATM   26  C16 UNL     1     -27.794  15.155  38.141  1.00  0.00     0.184 A 
ATOM     27  H4  UNL     1     -28.985  14.671  36.466  1.00  0.00     0.168 HD
HETATM   28  N5  UNL     1     -26.709  15.958  38.291  1.00  0.00    -0.330 N 
HETATM   29  C17 UNL     1     -26.423  16.490  37.093  1.00  0.00     0.188 A 
ATOM     30  H5  UNL     1     -26.203  16.127  39.160  1.00  0.00     0.168 HD
BRANCH  29  31
HETATM   31  O2  UNL     1     -25.366  17.364  36.870  1.00  0.00    -0.343 OA
ATOM     32  H2  UNL     1     -25.275  18.278  37.110  1.00  0.00     0.219 HD
ENDBRANCH  29  31
ENDBRANCH  22  24
ENDBRANCH  21  22
ENDBRANCH   4  21
TORSDOF 15
ENDMDL
MODEL 3
REMARK VINA RESULT: -8.097308143      0.584      1.941
REMARK  15 active torsions:
REMARK  status: ('A' for Active; 'I' for Inactive)
REMARK    1  A    between atoms: C2_2  and  C3_3 
REMARK    2  A    between atoms: C3_3  and  N1_4 
REMARK    3  A    between atoms: N1_4  and  C4_5 
REMARK    4  A    between atoms: N1_4  and  C7_8 
REMARK    5  A    between atoms: C4_5  and  C5_6 
REMARK    6  A    between atoms: C7_8  and  C8_9 
REMARK    7  A    between atoms: C8_9  and  C9_10 
REMARK    8  A    between atoms: C9_10  and  C10_11 
REMARK    9  A    between atoms: C10_11  and  O1_12 
REMARK   10  A    between atoms: O1_12  and  C11_13 
REMARK   11  A    between atoms: C14_16  and  N2_17 
REMARK   12  A    between atoms: N2_17  and  N3_18 
REMARK   13  A    between atoms: N3_18  and  C15_20 
REMARK   14  A    between atoms: C17_26  and  O2_27 
REMARK   15  A    between atoms: C19_30  and  O3_31 
ROOT
HETATM    1  C11 UNL     1     -25.840  14.448  30.217  1.00  0.00     0.102 A 
HETATM    2  C12 UNL     1     -25.104  15.444  30.842  1.00  0.00     0.043 A 
HETATM    3  C13 UNL     1     -25.478  15.926  32.067  1.00  0.00     0.050 A 
HETATM    4  C14 UNL     1     -26.603  15.445  32.743  1.00  0.00     0.134 A 
HETATM    5  C18 UNL     1     -27.346  14.429  32.104  1.00  0.00     0.086 A 
HETATM    6  C19 UNL     1     -26.936  13.974  30.872  1.00  0.00     0.104 A 
ENDROOT
BRANCH   1   7
HETATM    7  O1  UNL     1     -25.492  13.947  28.972  1.00  0.00    -0.348 OA
BRANCH   7   8
HETATM    8  C10 UNL     1     -24.276  14.395  28.365  1.00  0.00     0.176 C 
BRANCH   8   9
HETATM    9  C9  UNL     1     -23.071  13.692  28.788  1.00  0.00     0.032 C 
BRANCH   9  10
HETATM   10  C8  UNL     1     -23.028  12.235  28.995  1.00  0.00     0.046 C 
BRANCH  10  11
HETATM   11  C7  UNL     1     -22.637  11.391  27.872  1.00  0.00     0.063 C 
BRANCH  11  12
HETATM   12  N1  UNL     1     -23.590  10.682  27.119  1.00  0.00    -0.374 N 
BRANCH  12  13
HETATM   13  C3  UNL     1     -22.892   9.730  26.253  1.00  0.00     0.126 C 
BRANCH  13  14
HETATM   14  C2  UNL     1     -22.947   9.874  24.810  1.00  0.00     0.016 C 
HETATM   15  C1  UNL     1     -23.209   8.755  23.889  1.00  0.00     0.006 C 
ENDBRANCH  13  14
ENDBRANCH  12  13
BRANCH  12  16
HETATM   16  C4  UNL     1     -24.727  11.154  26.522  1.00  0.00     0.062 C 
BRANCH  16  17
HETATM   17  C5  UNL     1     -26.088  11.013  27.144  1.00  0.00     0.040 C 
HETATM   18  C6  UNL     1     -25.993  10.159  28.425  1.00  0.00     0.010 C 
ENDBRANCH  16  17
ENDBRANCH  12  16
ENDBRANCH  11  12
ENDBRANCH  10  11
ENDBRANCH   9  10
ENDBRANCH   8   9
ENDBRANCH   7   8
ENDBRANCH   1   7
BRANCH   6  19
HETATM   19  O3  UNL     1     -27.676  12.956  30.228  1.00  0.00    -0.353 OA
HETATM   20  C20 UNL     1     -28.999  12.742  30.715  1.00  0.00     0.210 C 
ENDBRANCH   6  19
BRANCH   4  21
HETATM   21  N2  UNL     1     -27.032  15.903  33.908  1.00  0.00    -0.324 NA
BRANCH  21  22
HETATM   22  N3  UNL     1     -27.389  16.301  34.871  1.00  0.00    -0.214 N 
ATOM     23  H3  UNL     1     -27.912  17.164  34.717  1.00  0.00     0.203 HD
BRANCH  22  24
HETATM   24  C15 UNL     1     -27.355  16.003  36.222  1.00  0.00     0.183 A 
HETATM   25  N4  UNL     1     -28.185  15.182  36.885  1.00  0.00    -0.333 N 
HETATM   26  C16 UNL     1     -27.788  15.174  38.163  1.00  0.00     0.184 A 
ATOM     27  H4  UNL     1     -28.968  14.662  36.489  1.00  0.00     0.168 HD
HETATM   28  N5  UNL     1     -26.713  15.991  38.309  1.00  0.00    -0.330 N 
HETATM   29  C17 UNL     1     -26.430  16.516  37.107  1.00  0.00     0.188 A 
ATOM     30  H5  UNL     1     -26.210  16.173  39.178  1.00  0.00     0.168 HD
BRANCH  29  31
HETATM   31  O2  UNL     1     -25.382  17.400  36.879  1.00  0.00    -0.343 OA
ATOM     32  H2  UNL     1     -24.454  17.227  36.776  1.00  0.00     0.219 HD
ENDBRANCH  29  31
ENDBRANCH  22  24
ENDBRANCH  21  22
ENDBRANCH   4  21
TORSDOF 15
ENDMDL
MODEL 4
REMARK VINA RESULT: -8.053105536      1.154      1.885
REMARK  15 active torsions:
REMARK  status: ('A' for Active; 'I' for Inactive)
REMARK    1  A    between atoms: C2_2  and  C3_3 
REMARK    2  A    between atoms: C3_3  and  N1_4 
REMARK    3  A    between atoms: N1_4  and  C4_5 
REMARK    4  A    between atoms: N1_4  and  C7_8 
REMARK    5  A    between atoms: C4_5  and  C5_6 
REMARK    6  A    between atoms: C7_8  and  C8_9 
REMARK    7  A    between atoms: C8_9  and  C9_10 
REMARK    8  A    between atoms: C9_10  and  C10_11 
REMARK    9  A    between atoms: C10_11  and  O1_12 
REMARK   10  A    between atoms: O1_12  and  C11_13 
REMARK   11  A    between atoms: C14_16  and  N2_17 
REMARK   12  A    between atoms: N2_17  and  N3_18 
REMARK   13  A    between atoms: N3_18  and  C15_20 
REMARK   14  A    between atoms: C17_26  and  O2_27 
REMARK   15  A    between atoms: C19_30  and  O3_31 
ROOT
HETATM    1  C11 UNL     1     -25.740  14.498  30.209  1.00  0.00     0.102 A 
HETATM    2  C12 UNL     1     -25.013  15.485  30.859  1.00  0.00     0.043 A 
HETATM    3  C13 UNL     1     -25.409  15.953  32.083  1.00  0.00     0.050 A 
HETATM    4  C14 UNL     1     -26.549  15.468  32.731  1.00  0.00     0.134 A 
HETATM    5  C18 UNL     1     -27.282  14.462  32.066  1.00  0.00     0.086 A 
HETATM    6  C19 UNL     1     -26.850  14.020  30.836  1.00  0.00     0.104 A 
ENDROOT
BRANCH   1   7
HETATM    7  O1  UNL     1     -25.369  14.012  28.964  1.00  0.00    -0.348 OA
BRANCH   7   8
HETATM    8  C10 UNL     1     -24.059  14.308  28.471  1.00  0.00     0.176 C 
BRANCH   8   9
HETATM    9  C9  UNL     1     -23.065  13.261  28.673  1.00  0.00     0.032 C 
BRANCH   9  10
HETATM   10  C8  UNL     1     -23.403  11.828  28.666  1.00  0.00     0.046 C 
BRANCH  10  11
HETATM   11  C7  UNL     1     -23.499  11.148  27.380  1.00  0.00     0.063 C 
BRANCH  11  12
HETATM   12  N1  UNL     1     -24.713  11.085  26.673  1.00  0.00    -0.374 N 
BRANCH  12  13
HETATM   13  C3  UNL     1     -24.562  11.817  25.413  1.00  0.00     0.126 C 
BRANCH  13  14
HETATM   14  C2  UNL     1     -25.430  12.940  25.110  1.00  0.00     0.016 C 
HETATM   15  C1  UNL     1     -26.336  12.978  23.949  1.00  0.00     0.006 C 
ENDBRANCH  13  14
ENDBRANCH  12  13
BRANCH  12  16
HETATM   16  C4  UNL     1     -25.988  11.189  27.157  1.00  0.00     0.062 C 
BRANCH  16  17
HETATM   17  C5  UNL     1     -26.814   9.990  27.529  1.00  0.00     0.040 C 
HETATM   18  C6  UNL     1     -26.669   9.702  29.038  1.00  0.00     0.010 C 
ENDBRANCH  16  17
ENDBRANCH  12  16
ENDBRANCH  11  12
ENDBRANCH  10  11
ENDBRANCH   9  10
ENDBRANCH   8   9
ENDBRANCH   7   8
ENDBRANCH   1   7
BRANCH   6  19
HETATM   19  O3  UNL     1     -27.581  13.012  30.166  1.00  0.00    -0.353 OA
HETATM   20  C20 UNL     1     -28.983  12.984  30.420  1.00  0.00     0.210 C 
ENDBRANCH   6  19
BRANCH   4  21
HETATM   21  N2  UNL     1     -26.998  15.913  33.894  1.00  0.00    -0.324 NA
BRANCH  21  22
HETATM   22  N3  UNL     1     -27.384  16.293  34.852  1.00  0.00    -0.214 N 
ATOM     23  H3  UNL     1     -27.951  17.126  34.692  1.00  0.00     0.203 HD
BRANCH  22  24
HETATM   24  C15 UNL     1     -27.346  16.000  36.205  1.00  0.00     0.183 A 
HETATM   25  N4  UNL     1     -28.160  15.165  36.869  1.00  0.00    -0.333 N 
HETATM   26  C16 UNL     1     -27.764  15.169  38.147  1.00  0.00     0.184 A 
ATOM     27  H4  UNL     1     -28.934  14.630  36.475  1.00  0.00     0.168 HD
HETATM   28  N5  UNL     1     -26.704  16.007  38.292  1.00  0.00    -0.330 N 
HETATM   29  C17 UNL     1     -26.430  16.532  37.088  1.00  0.00     0.188 A 
ATOM     30  H5  UNL     1     -26.206  16.201  39.160  1.00  0.00     0.168 HD
BRANCH  29  31
HETATM   31  O2  UNL     1     -25.400  17.436  36.858  1.00  0.00    -0.343 OA
ATOM     32  H2  UNL     1     -24.795  17.835  37.473  1.00  0.00     0.219 HD
ENDBRANCH  29  31
ENDBRANCH  22  24
ENDBRANCH  21  22
ENDBRANCH   4  21
TORSDOF 15
ENDMDL
MODEL 5
REMARK VINA RESULT: -7.947918042      0.990      1.729
REMARK  15 active torsions:
REMARK  status: ('A' for Active; 'I' for Inactive)
REMARK    1  A    between atoms: C2_2  and  C3_3 
REMARK    2  A    between atoms: C3_3  and  N1_4 
REMARK    3  A    between atoms: N1_4  and  C4_5 
REMARK    4  A    between atoms: N1_4  and  C7_8 
REMARK    5  A    between atoms: C4_5  and  C5_6 
REMARK    6  A    between atoms: C7_8  and  C8_9 
REMARK    7  A    between atoms: C8_9  and  C9_10 
REMARK    8  A    between atoms: C9_10  and  C10_11 
REMARK    9  A    between atoms: C10_11  and  O1_12 
REMARK   10  A    between atoms: O1_12  and  C11_13 
REMARK   11  A    between atoms: C14_16  and  N2_17 
REMARK   12  A    between atoms: N2_17  and  N3_18 
REMARK   13  A    between atoms: N3_18  and  C15_20 
REMARK   14  A    between atoms: C17_26  and  O2_27 
REMARK   15  A    between atoms: C19_30  and  O3_31 
ROOT
HETATM    1  C11 UNL     1     -25.852  14.470  30.250  1.00  0.00     0.102 A 
HETATM    2  C12 UNL     1     -25.110  15.461  30.877  1.00  0.00     0.043 A 
HETATM    3  C13 UNL     1     -25.482  15.943  32.103  1.00  0.00     0.050 A 
HETATM    4  C14 UNL     1     -26.611  15.469  32.776  1.00  0.00     0.134 A 
HETATM    5  C18 UNL     1     -27.360  14.459  32.135  1.00  0.00     0.086 A 
HETATM    6  C19 UNL     1     -26.952  14.003  30.902  1.00  0.00     0.104 A 
ENDROOT
BRANCH   1   7
HETATM    7  O1  UNL     1     -25.506  13.969  29.004  1.00  0.00    -0.348 OA
BRANCH   7   8
HETATM    8  C10 UNL     1     -24.167  14.156  28.534  1.00  0.00     0.176 C 
BRANCH   8   9
HETATM    9  C9  UNL     1     -23.187  13.210  29.051  1.00  0.00     0.032 C 
BRANCH   9  10
HETATM   10  C8  UNL     1     -22.672  12.081  28.259  1.00  0.00     0.046 C 
BRANCH  10  11
HETATM   11  C7  UNL     1     -23.584  10.988  27.941  1.00  0.00     0.063 C 
BRANCH  11  12
HETATM   12  N1  UNL     1     -24.447  11.052  26.834  1.00  0.00    -0.374 N 
BRANCH  12  13
HETATM   13  C3  UNL     1     -25.721  10.425  27.193  1.00  0.00     0.126 C 
BRANCH  13  14
HETATM   14  C2  UNL     1     -26.214  10.495  28.557  1.00  0.00     0.016 C 
HETATM   15  C1  UNL     1     -26.971   9.411  29.206  1.00  0.00     0.006 C 
ENDBRANCH  13  14
ENDBRANCH  12  13
BRANCH  12  16
HETATM   16  C4  UNL     1     -24.155  10.856  25.512  1.00  0.00     0.062 C 
BRANCH  16  17
HETATM   17  C5  UNL     1     -24.726  11.716  24.418  1.00  0.00     0.040 C 
HETATM   18  C6  UNL     1     -24.966  13.145  24.948  1.00  0.00     0.010 C 
ENDBRANCH  16  17
ENDBRANCH  12  16
ENDBRANCH  11  12
ENDBRANCH  10  11
ENDBRANCH   9  10
ENDBRANCH   8   9
ENDBRANCH   7   8
ENDBRANCH   1   7
BRANCH   6  19
HETATM   19  O3  UNL     1     -27.698  12.991  30.256  1.00  0.00    -0.353 OA
HETATM   20  C20 UNL     1     -29.099  12.982  30.520  1.00  0.00     0.210 C 
ENDBRANCH   6  19
BRANCH   4  21
HETATM   21  N2  UNL     1     -27.038  15.928  33.942  1.00  0.00    -0.324 NA
BRANCH  21  22
HETATM   22  N3  UNL     1     -27.409  16.314  34.904  1.00  0.00    -0.214 N 
ATOM     23  H3  UNL     1     -27.941  17.171  34.753  1.00  0.00     0.203 HD
BRANCH  22  24
HETATM   24  C15 UNL     1     -27.382  16.007  36.254  1.00  0.00     0.183 A 
HETATM   25  N4  UNL     1     -28.238  15.209  36.913  1.00  0.00    -0.333 N 
HETATM   26  C16 UNL     1     -27.839  15.181  38.190  1.00  0.00     0.184 A 
ATOM     27  H4  UNL     1     -29.039  14.719  36.516  1.00  0.00     0.168 HD
HETATM   28  N5  UNL     1     -26.736  15.960  38.339  1.00  0.00    -0.330 N 
HETATM   29  C17 UNL     1     -26.438  16.482  37.140  1.00  0.00     0.188 A 
ATOM     30  H5  UNL     1     -26.226  16.119  39.208  1.00  0.00     0.168 HD
BRANCH  29  31
HETATM   31  O2  UNL     1     -25.362  17.332  36.915  1.00  0.00    -0.343 OA
ATOM     32  H2  UNL     1     -25.174  17.888  36.168  1.00  0.00     0.219 HD
ENDBRANCH  29  31
ENDBRANCH  22  24
ENDBRANCH  21  22
ENDBRANCH   4  21
TORSDOF 15
ENDMDL
