MODEL 1
REMARK VINA RESULT: -6.619215781      0.000      0.000
REMARK  11 active torsions:
REMARK  status: ('A' for Active; 'I' for Inactive)
REMARK    1  A    between atoms: C4_6  and  S1_7 
REMARK    2  A    between atoms: S1_7  and  S2_8 
REMARK    3  A    between atoms: S2_8  and  C5_9 
REMARK    4  A    between atoms: C5_9  and  C6_10 
REMARK    5  A    between atoms: C6_10  and  N2_11 
REMARK    6  A    between atoms: N2_11  and  C7_14 
REMARK    7  A    between atoms: C7_14  and  C8_15 
REMARK    8  A    between atoms: C8_15  and  C9_16 
REMARK    9  A    between atoms: C9_16  and  C10_17 
REMARK   10  A    between atoms: C10_17  and  N3_18 
REMARK   11  A    between atoms: C12_26  and  N7_27 
ROOT
HETATM    1  S1  UNL     1     -43.657  40.928 -34.555  1.00  0.00    -0.062 SA
ENDROOT
BRANCH   1   2
HETATM    2  C4  UNL     1     -44.331  41.732 -33.060  1.00  0.00     0.277 C 
HETATM    3  C3  UNL     1     -43.492  42.855 -32.578  1.00  0.00     0.159 C 
HETATM    4  N1  UNL     1     -43.963  44.173 -32.800  1.00  0.00    -0.411 N 
HETATM    5  C2  UNL     1     -45.333  44.349 -33.123  1.00  0.00     0.122 C 
ATOM      6  H1  UNL     1     -43.334  44.974 -32.730  1.00  0.00     0.153 HD
HETATM    7  C1  UNL     1     -45.792  45.703 -32.620  1.00  0.00     0.036 C 
HETATM    8  C12 UNL     1     -46.128  43.224 -32.512  1.00  0.00     0.309 C 
HETATM    9  N6  UNL     1     -45.737  42.021 -33.218  1.00  0.00    -0.037 N 
ATOM     10  H62 UNL     1     -45.996  42.069 -34.203  1.00  0.00     0.281 HD
ATOM     11  H61 UNL     1     -46.311  41.225 -32.939  1.00  0.00     0.281 HD
BRANCH   8  12
HETATM   12  N7  UNL     1     -45.920  43.106 -31.097  1.00  0.00    -0.338 N 
HETATM   13  C13 UNL     1     -46.891  43.078 -30.235  1.00  0.00     0.198 C 
HETATM   14  N8  UNL     1     -46.650  42.961 -28.852  1.00  0.00    -0.067 NA
HETATM   15  N9  UNL     1     -48.216  43.172 -30.779  1.00  0.00    -0.067 NA
ATOM     16  H7  UNL     1     -44.962  43.040 -30.753  1.00  0.00     0.164 HD
ENDBRANCH   8  12
ENDBRANCH   1   2
BRANCH   1  17
HETATM   17  S2  UNL     1     -42.483  39.250 -34.060  1.00  0.00    -0.094 SA
BRANCH  17  18
HETATM   18  C5  UNL     1     -42.959  38.532 -32.466  1.00  0.00     0.113 C 
BRANCH  18  19
HETATM   19  C6  UNL     1     -43.142  37.042 -32.559  1.00  0.00     0.243 C 
BRANCH  19  20
HETATM   20  N2  UNL     1     -42.805  36.395 -31.337  1.00  0.00    -0.074 N 
ATOM     21  H22 UNL     1     -43.289  36.820 -30.547  1.00  0.00     0.277 HD
ATOM     22  H21 UNL     1     -43.208  35.459 -31.288  1.00  0.00     0.277 HD
BRANCH  20  23
HETATM   23  C7  UNL     1     -41.395  36.365 -31.127  1.00  0.00     0.232 C 
BRANCH  23  24
HETATM   24  C8  UNL     1     -40.955  35.739 -29.848  1.00  0.00     0.029 C 
BRANCH  24  25
HETATM   25  C9  UNL     1     -41.923  34.734 -29.274  1.00  0.00     0.021 C 
BRANCH  25  26
HETATM   26  C10 UNL     1     -41.616  33.404 -29.931  1.00  0.00     0.122 C 
BRANCH  26  27
HETATM   27  N3  UNL     1     -42.858  32.657 -29.995  1.00  0.00    -0.367 N 
HETATM   28  C11 UNL     1     -43.515  32.650 -31.092  1.00  0.00     0.196 C 
HETATM   29  N4  UNL     1     -44.727  31.926 -31.170  1.00  0.00    -0.067 NA
HETATM   30  N5  UNL     1     -43.031  33.356 -32.212  1.00  0.00    -0.067 NA
ATOM     31  H3  UNL     1     -43.200  32.148 -29.180  1.00  0.00     0.161 HD
ENDBRANCH  26  27
ENDBRANCH  25  26
ENDBRANCH  24  25
ENDBRANCH  23  24
ENDBRANCH  20  23
ENDBRANCH  19  20
ENDBRANCH  18  19
ENDBRANCH  17  18
ENDBRANCH   1  17
TORSDOF 11
ENDMDL
MODEL 2
REMARK VINA RESULT: -6.575579831      0.926      1.167
REMARK  11 active torsions:
REMARK  status: ('A' for Active; 'I' for Inactive)
REMARK    1  A    between atoms: C4_6  and  S1_7 
REMARK    2  A    between atoms: S1_7  and  S2_8 
REMARK    3  A    between atoms: S2_8  and  C5_9 
REMARK    4  A    between atoms: C5_9  and  C6_10 
REMARK    5  A    between atoms: C6_10  and  N2_11 
REMARK    6  A    between atoms: N2_11  and  C7_14 
REMARK    7  A    between atoms: C7_14  and  C8_15 
REMARK    8  A    between atoms: C8_15  and  C9_16 
REMARK    9  A    between atoms: C9_16  and  C10_17 
REMARK   10  A    between atoms: C10_17  and  N3_18 
REMARK   11  A    between atoms: C12_26  and  N7_27 
ROOT
HETATM    1  S1  UNL     1     -43.638  41.299 -34.534  1.00  0.00    -0.062 SA
ENDROOT
BRANCH   1   2
HETATM    2  C4  UNL     1     -44.382  41.949 -32.998  1.00  0.00     0.277 C 
HETATM    3  C3  UNL     1     -43.580  43.029 -32.378  1.00  0.00     0.159 C 
HETATM    4  N1  UNL     1     -44.060  44.358 -32.492  1.00  0.00    -0.411 N 
HETATM    5  C2  UNL     1     -45.418  44.549 -32.852  1.00  0.00     0.122 C 
ATOM      6  H1  UNL     1     -43.446  45.154 -32.320  1.00  0.00     0.153 HD
HETATM    7  C1  UNL     1     -45.916  45.844 -32.241  1.00  0.00     0.036 C 
HETATM    8  C12 UNL     1     -46.221  43.363 -32.384  1.00  0.00     0.309 C 
HETATM    9  N6  UNL     1     -45.785  42.237 -33.185  1.00  0.00    -0.037 N 
ATOM     10  H62 UNL     1     -46.006  42.377 -34.171  1.00  0.00     0.281 HD
ATOM     11  H61 UNL     1     -46.359  41.412 -33.007  1.00  0.00     0.281 HD
BRANCH   8  12
HETATM   12  N7  UNL     1     -46.067  43.111 -30.980  1.00  0.00    -0.338 N 
HETATM   13  C13 UNL     1     -47.053  43.163 -30.135  1.00  0.00     0.198 C 
HETATM   14  N8  UNL     1     -46.866  42.910 -28.762  1.00  0.00    -0.067 NA
HETATM   15  N9  UNL     1     -48.336  43.490 -30.688  1.00  0.00    -0.067 NA
ATOM     16  H7  UNL     1     -45.138  42.880 -30.628  1.00  0.00     0.164 HD
ENDBRANCH   8  12
ENDBRANCH   1   2
BRANCH   1  17
HETATM   17  S2  UNL     1     -43.185  39.249 -34.359  1.00  0.00    -0.094 SA
BRANCH  17  18
HETATM   18  C5  UNL     1     -44.492  38.334 -33.501  1.00  0.00     0.113 C 
BRANCH  18  19
HETATM   19  C6  UNL     1     -44.012  37.777 -32.188  1.00  0.00     0.243 C 
BRANCH  19  20
HETATM   20  N2  UNL     1     -43.266  36.578 -32.369  1.00  0.00    -0.074 N 
ATOM     21  H22 UNL     1     -43.879  35.783 -32.546  1.00  0.00     0.277 HD
ATOM     22  H21 UNL     1     -42.757  36.588 -33.253  1.00  0.00     0.277 HD
BRANCH  20  23
HETATM   23  C7  UNL     1     -42.394  36.328 -31.269  1.00  0.00     0.232 C 
BRANCH  23  24
HETATM   24  C8  UNL     1     -41.945  34.915 -31.122  1.00  0.00     0.029 C 
BRANCH  24  25
HETATM   25  C9  UNL     1     -42.099  34.346 -29.733  1.00  0.00     0.021 C 
BRANCH  25  26
HETATM   26  C10 UNL     1     -42.251  32.847 -29.887  1.00  0.00     0.122 C 
BRANCH  26  27
HETATM   27  N3  UNL     1     -43.403  32.615 -30.738  1.00  0.00    -0.367 N 
HETATM   28  C11 UNL     1     -44.366  31.904 -30.288  1.00  0.00     0.196 C 
HETATM   29  N4  UNL     1     -45.496  31.669 -31.106  1.00  0.00    -0.067 NA
HETATM   30  N5  UNL     1     -44.300  31.364 -28.988  1.00  0.00    -0.067 NA
ATOM     31  H3  UNL     1     -43.443  33.010 -31.678  1.00  0.00     0.161 HD
ENDBRANCH  26  27
ENDBRANCH  25  26
ENDBRANCH  24  25
ENDBRANCH  23  24
ENDBRANCH  20  23
ENDBRANCH  19  20
ENDBRANCH  18  19
ENDBRANCH  17  18
ENDBRANCH   1  17
TORSDOF 11
ENDMDL
MODEL 3
REMARK VINA RESULT: -6.412053912      1.086      1.272
REMARK  11 active torsions:
REMARK  status: ('A' for Active; 'I' for Inactive)
REMARK    1  A    between atoms: C4_6  and  S1_7 
REMARK    2  A    between atoms: S1_7  and  S2_8 
REMARK    3  A    between atoms: S2_8  and  C5_9 
REMARK    4  A    between atoms: C5_9  and  C6_10 
REMARK    5  A    between atoms: C6_10  and  N2_11 
REMARK    6  A    between atoms: N2_11  and  C7_14 
REMARK    7  A    between atoms: C7_14  and  C8_15 
REMARK    8  A    between atoms: C8_15  and  C9_16 
REMARK    9  A    between atoms: C9_16  and  C10_17 
REMARK   10  A    between atoms: C10_17  and  N3_18 
REMARK   11  A    between atoms: C12_26  and  N7_27 
ROOT
HETATM    1  S1  UNL     1     -42.788  40.801 -33.175  1.00  0.00    -0.062 SA
ENDROOT
BRANCH   1   2
HETATM    2  C4  UNL     1     -44.141  41.742 -32.389  1.00  0.00     0.277 C 
HETATM    3  C3  UNL     1     -43.683  43.009 -31.773  1.00  0.00     0.159 C 
HETATM    4  N1  UNL     1     -44.000  44.220 -32.438  1.00  0.00    -0.411 N 
HETATM    5  C2  UNL     1     -45.020  44.194 -33.422  1.00  0.00     0.122 C 
ATOM      6  H1  UNL     1     -43.508  45.086 -32.215  1.00  0.00     0.153 HD
HETATM    7  C1  UNL     1     -45.696  45.550 -33.473  1.00  0.00     0.036 C 
HETATM    8  C12 UNL     1     -45.995  43.094 -33.090  1.00  0.00     0.309 C 
HETATM    9  N6  UNL     1     -45.278  41.848 -33.272  1.00  0.00    -0.037 N 
ATOM     10  H62 UNL     1     -45.003  41.719 -34.246  1.00  0.00     0.281 HD
ATOM     11  H61 UNL     1     -45.900  41.046 -33.173  1.00  0.00     0.281 HD
BRANCH   8  12
HETATM   12  N7  UNL     1     -46.530  43.213 -31.763  1.00  0.00    -0.338 N 
HETATM   13  C13 UNL     1     -47.798  43.350 -31.517  1.00  0.00     0.198 C 
HETATM   14  N8  UNL     1     -48.289  43.464 -30.202  1.00  0.00    -0.067 NA
HETATM   15  N9  UNL     1     -48.660  43.375 -32.664  1.00  0.00    -0.067 NA
ATOM     16  H7  UNL     1     -45.882  43.188 -30.976  1.00  0.00     0.164 HD
ENDBRANCH   8  12
ENDBRANCH   1   2
BRANCH   1  17
HETATM   17  S2  UNL     1     -43.513  39.073 -34.137  1.00  0.00    -0.094 SA
BRANCH  17  18
HETATM   18  C5  UNL     1     -44.365  37.961 -32.988  1.00  0.00     0.113 C 
BRANCH  18  19
HETATM   19  C6  UNL     1     -43.408  37.323 -32.018  1.00  0.00     0.243 C 
BRANCH  19  20
HETATM   20  N2  UNL     1     -42.683  36.257 -32.621  1.00  0.00    -0.074 N 
ATOM     21  H22 UNL     1     -43.204  35.382 -32.575  1.00  0.00     0.277 HD
ATOM     22  H21 UNL     1     -42.639  36.364 -33.635  1.00  0.00     0.277 HD
BRANCH  20  23
HETATM   23  C7  UNL     1     -41.381  36.118 -32.056  1.00  0.00     0.232 C 
BRANCH  23  24
HETATM   24  C8  UNL     1     -41.284  36.419 -30.600  1.00  0.00     0.029 C 
BRANCH  24  25
HETATM   25  C9  UNL     1     -40.872  35.248 -29.741  1.00  0.00     0.021 C 
BRANCH  25  26
HETATM   26  C10 UNL     1     -42.118  34.421 -29.501  1.00  0.00     0.122 C 
BRANCH  26  27
HETATM   27  N3  UNL     1     -41.805  33.053 -29.868  1.00  0.00    -0.367 N 
HETATM   28  C11 UNL     1     -42.420  32.527 -30.859  1.00  0.00     0.196 C 
HETATM   29  N4  UNL     1     -42.126  31.194 -31.230  1.00  0.00    -0.067 NA
HETATM   30  N5  UNL     1     -43.380  33.272 -31.573  1.00  0.00    -0.067 NA
ATOM     31  H3  UNL     1     -41.108  32.521 -29.347  1.00  0.00     0.161 HD
ENDBRANCH  26  27
ENDBRANCH  25  26
ENDBRANCH  24  25
ENDBRANCH  23  24
ENDBRANCH  20  23
ENDBRANCH  19  20
ENDBRANCH  18  19
ENDBRANCH  17  18
ENDBRANCH   1  17
TORSDOF 11
ENDMDL
MODEL 4
REMARK VINA RESULT: -6.408431299      1.131      1.358
REMARK  11 active torsions:
REMARK  status: ('A' for Active; 'I' for Inactive)
REMARK    1  A    between atoms: C4_6  and  S1_7 
REMARK    2  A    between atoms: S1_7  and  S2_8 
REMARK    3  A    between atoms: S2_8  and  C5_9 
REMARK    4  A    between atoms: C5_9  and  C6_10 
REMARK    5  A    between atoms: C6_10  and  N2_11 
REMARK    6  A    between atoms: N2_11  and  C7_14 
REMARK    7  A    between atoms: C7_14  and  C8_15 
REMARK    8  A    between atoms: C8_15  and  C9_16 
REMARK    9  A    between atoms: C9_16  and  C10_17 
REMARK   10  A    between atoms: C10_17  and  N3_18 
REMARK   11  A    between atoms: C12_26  and  N7_27 
ROOT
HETATM    1  S1  UNL     1     -42.915  42.115 -33.289  1.00  0.00    -0.062 SA
ENDROOT
BRANCH   1   2
HETATM    2  C4  UNL     1     -44.098  43.116 -32.323  1.00  0.00     0.277 C 
HETATM    3  C3  UNL     1     -44.410  44.417 -32.960  1.00  0.00     0.159 C 
HETATM    4  N1  UNL     1     -45.677  44.561 -33.580  1.00  0.00    -0.411 N 
HETATM    5  C2  UNL     1     -46.692  43.627 -33.252  1.00  0.00     0.122 C 
ATOM      6  H1  UNL     1     -45.854  45.316 -34.243  1.00  0.00     0.153 HD
HETATM    7  C1  UNL     1     -48.045  44.298 -33.379  1.00  0.00     0.036 C 
HETATM    8  C12 UNL     1     -46.452  43.110 -31.857  1.00  0.00     0.309 C 
HETATM    9  N6  UNL     1     -45.236  42.324 -31.919  1.00  0.00    -0.037 N 
ATOM     10  H62 UNL     1     -45.353  41.510 -32.523  1.00  0.00     0.281 HD
ATOM     11  H61 UNL     1     -45.059  41.845 -31.036  1.00  0.00     0.281 HD
BRANCH   8  12
HETATM   12  N7  UNL     1     -46.357  44.164 -30.887  1.00  0.00    -0.338 N 
HETATM   13  C13 UNL     1     -46.501  43.971 -29.610  1.00  0.00     0.198 C 
HETATM   14  N8  UNL     1     -46.402  45.029 -28.686  1.00  0.00    -0.067 NA
HETATM   15  N9  UNL     1     -46.765  42.619 -29.206  1.00  0.00    -0.067 NA
ATOM     16  H7  UNL     1     -46.166  45.110 -31.216  1.00  0.00     0.164 HD
ENDBRANCH   8  12
ENDBRANCH   1   2
BRANCH   1  17
HETATM   17  S2  UNL     1     -43.607  40.141 -33.542  1.00  0.00    -0.094 SA
BRANCH  17  18
HETATM   18  C5  UNL     1     -43.031  39.042 -32.222  1.00  0.00     0.113 C 
BRANCH  18  19
HETATM   19  C6  UNL     1     -43.727  37.709 -32.264  1.00  0.00     0.243 C 
BRANCH  19  20
HETATM   20  N2  UNL     1     -42.904  36.672 -31.740  1.00  0.00    -0.074 N 
ATOM     21  H22 UNL     1     -43.444  36.022 -31.170  1.00  0.00     0.277 HD
ATOM     22  H21 UNL     1     -42.603  36.030 -32.474  1.00  0.00     0.277 HD
BRANCH  20  23
HETATM   23  C7  UNL     1     -41.791  37.196 -31.019  1.00  0.00     0.232 C 
BRANCH  23  24
HETATM   24  C8  UNL     1     -40.884  36.176 -30.421  1.00  0.00     0.029 C 
BRANCH  24  25
HETATM   25  C9  UNL     1     -41.571  35.164 -29.537  1.00  0.00     0.021 C 
BRANCH  25  26
HETATM   26  C10 UNL     1     -41.260  33.798 -30.110  1.00  0.00     0.122 C 
BRANCH  26  27
HETATM   27  N3  UNL     1     -42.469  33.002 -30.009  1.00  0.00    -0.367 N 
HETATM   28  C11 UNL     1     -43.235  32.917 -31.030  1.00  0.00     0.196 C 
HETATM   29  N4  UNL     1     -44.417  32.144 -30.948  1.00  0.00    -0.067 NA
HETATM   30  N5  UNL     1     -42.900  33.586 -32.225  1.00  0.00    -0.067 NA
ATOM     31  H3  UNL     1     -42.703  32.520 -29.141  1.00  0.00     0.161 HD
ENDBRANCH  26  27
ENDBRANCH  25  26
ENDBRANCH  24  25
ENDBRANCH  23  24
ENDBRANCH  20  23
ENDBRANCH  19  20
ENDBRANCH  18  19
ENDBRANCH  17  18
ENDBRANCH   1  17
TORSDOF 11
ENDMDL
MODEL 5
REMARK VINA RESULT: -6.367193363      1.532      2.173
REMARK  11 active torsions:
REMARK  status: ('A' for Active; 'I' for Inactive)
REMARK    1  A    between atoms: C4_6  and  S1_7 
REMARK    2  A    between atoms: S1_7  and  S2_8 
REMARK    3  A    between atoms: S2_8  and  C5_9 
REMARK    4  A    between atoms: C5_9  and  C6_10 
REMARK    5  A    between atoms: C6_10  and  N2_11 
REMARK    6  A    between atoms: N2_11  and  C7_14 
REMARK    7  A    between atoms: C7_14  and  C8_15 
REMARK    8  A    between atoms: C8_15  and  C9_16 
REMARK    9  A    between atoms: C9_16  and  C10_17 
REMARK   10  A    between atoms: C10_17  and  N3_18 
REMARK   11  A    between atoms: C12_26  and  N7_27 
ROOT
HETATM    1  S1  UNL     1     -42.803  42.331 -33.186  1.00  0.00    -0.062 SA
ENDROOT
BRANCH   1   2
HETATM    2  C4  UNL     1     -44.070  43.283 -32.277  1.00  0.00     0.277 C 
HETATM    3  C3  UNL     1     -44.439  44.548 -32.955  1.00  0.00     0.159 C 
HETATM    4  N1  UNL     1     -45.693  44.604 -33.612  1.00  0.00    -0.411 N 
HETATM    5  C2  UNL     1     -46.662  43.619 -33.289  1.00  0.00     0.122 C 
ATOM      6  H1  UNL     1     -45.895  45.331 -34.298  1.00  0.00     0.153 HD
HETATM    7  C1  UNL     1     -48.047  44.207 -33.470  1.00  0.00     0.036 C 
HETATM    8  C12 UNL     1     -46.432  43.150 -31.875  1.00  0.00     0.309 C 
HETATM    9  N6  UNL     1     -45.171  42.435 -31.886  1.00  0.00    -0.037 N 
ATOM     10  H62 UNL     1     -45.223  41.602 -32.472  1.00  0.00     0.281 HD
ATOM     11  H61 UNL     1     -44.992  41.989 -30.986  1.00  0.00     0.281 HD
BRANCH   8  12
HETATM   12  N7  UNL     1     -46.426  44.230 -30.930  1.00  0.00    -0.338 N 
HETATM   13  C13 UNL     1     -46.556  44.054 -29.649  1.00  0.00     0.198 C 
HETATM   14  N8  UNL     1     -46.546  45.138 -28.749  1.00  0.00    -0.067 NA
HETATM   15  N9  UNL     1     -46.709  42.695 -29.215  1.00  0.00    -0.067 NA
ATOM     16  H7  UNL     1     -46.313  45.181 -31.281  1.00  0.00     0.164 HD
ENDBRANCH   8  12
ENDBRANCH   1   2
BRANCH   1  17
HETATM   17  S2  UNL     1     -43.669  41.162 -34.710  1.00  0.00    -0.094 SA
BRANCH  17  18
HETATM   18  C5  UNL     1     -43.359  39.393 -34.469  1.00  0.00     0.113 C 
BRANCH  18  19
HETATM   19  C6  UNL     1     -44.538  38.701 -33.841  1.00  0.00     0.243 C 
BRANCH  19  20
HETATM   20  N2  UNL     1     -44.403  38.618 -32.426  1.00  0.00    -0.074 N 
ATOM     21  H22 UNL     1     -44.684  39.488 -31.975  1.00  0.00     0.277 HD
ATOM     22  H21 UNL     1     -45.103  37.995 -32.022  1.00  0.00     0.277 HD
BRANCH  20  23
HETATM   23  C7  UNL     1     -43.084  38.236 -32.044  1.00  0.00     0.232 C 
BRANCH  23  24
HETATM   24  C8  UNL     1     -42.908  36.791 -31.723  1.00  0.00     0.029 C 
BRANCH  24  25
HETATM   25  C9  UNL     1     -41.926  36.065 -32.610  1.00  0.00     0.021 C 
BRANCH  25  26
HETATM   26  C10 UNL     1     -41.603  34.753 -31.926  1.00  0.00     0.122 C 
BRANCH  26  27
HETATM   27  N3  UNL     1     -42.748  33.879 -32.104  1.00  0.00    -0.367 N 
HETATM   28  C11 UNL     1     -43.048  33.061 -31.168  1.00  0.00     0.196 C 
HETATM   29  N4  UNL     1     -44.161  32.203 -31.327  1.00  0.00    -0.067 NA
HETATM   30  N5  UNL     1     -42.276  33.020 -29.989  1.00  0.00    -0.067 NA
ATOM     31  H3  UNL     1     -43.301  33.916 -32.960  1.00  0.00     0.161 HD
ENDBRANCH  26  27
ENDBRANCH  25  26
ENDBRANCH  24  25
ENDBRANCH  23  24
ENDBRANCH  20  23
ENDBRANCH  19  20
ENDBRANCH  18  19
ENDBRANCH  17  18
ENDBRANCH   1  17
TORSDOF 11
ENDMDL
