MODEL 1
REMARK VINA RESULT: -6.777828962      0.000      0.000
REMARK  12 active torsions:
REMARK  status: ('A' for Active; 'I' for Inactive)
REMARK       I    between atoms: C1_4  and  N3_6 
REMARK    1  A    between atoms: N3_6  and  C2_8 
REMARK    2  A    between atoms: C2_8  and  C3_9 
REMARK    3  A    between atoms: C3_9  and  C4_10 
REMARK    4  A    between atoms: C4_10  and  N4_11 
REMARK    5  A    between atoms: N4_11  and  C5_13 
REMARK    6  A    between atoms: C5_13  and  C6_14 
REMARK    7  A    between atoms: C6_14  and  C7_15 
REMARK    8  A    between atoms: C7_15  and  C8_16 
REMARK    9  A    between atoms: C8_16  and  C9_17 
REMARK   10  A    between atoms: C9_17  and  N5_18 
REMARK   11  A    between atoms: N5_18  and  C10_20 
REMARK   12  A    between atoms: C11_23  and  N7_24 
ROOT
HETATM    1  N5  UNL     1     -44.590  43.215 -33.389  1.00  0.00    -0.223 N 
ATOM      2  H5  UNL     1     -44.251  42.255 -33.452  1.00  0.00     0.177 HD
ENDROOT
BRANCH   1   3
HETATM    3  C9  UNL     1     -43.631  44.268 -33.330  1.00  0.00     0.138 C 
BRANCH   3   4
HETATM    4  C8  UNL     1     -42.287  43.637 -32.965  1.00  0.00     0.020 C 
BRANCH   4   5
HETATM    5  C7  UNL     1     -42.400  43.239 -31.488  1.00  0.00     0.003 C 
BRANCH   5   6
HETATM    6  C6  UNL     1     -41.705  41.890 -31.295  1.00  0.00     0.019 C 
BRANCH   6   7
HETATM    7  C5  UNL     1     -42.735  40.801 -31.257  1.00  0.00     0.113 C 
BRANCH   7   8
HETATM    8  N4  UNL     1     -42.128  39.533 -31.394  1.00  0.00    -0.421 N 
ATOM      9  H4  UNL     1     -42.423  38.733 -30.834  1.00  0.00     0.153 HD
BRANCH   8  10
HETATM   10  C4  UNL     1     -41.081  39.430 -32.356  1.00  0.00     0.115 C 
BRANCH  10  11
HETATM   11  C3  UNL     1     -41.467  39.320 -33.771  1.00  0.00     0.039 C 
BRANCH  11  12
HETATM   12  C2  UNL     1     -42.045  37.960 -34.074  1.00  0.00     0.123 C 
BRANCH  12  13
HETATM   13  N3  UNL     1     -43.444  38.030 -34.430  1.00  0.00    -0.365 N 
HETATM   14  C1  UNL     1     -44.465  38.542 -33.601  1.00  0.00     0.181 C 
HETATM   15  N1  UNL     1     -45.090  39.640 -33.860  1.00  0.00    -0.374 N 
HETATM   16  N2  UNL     1     -44.829  37.824 -32.437  1.00  0.00    -0.064 NA
ATOM     17  H12 UNL     1     -45.827  40.010 -33.261  1.00  0.00     0.158 HD
ATOM     18  H11 UNL     1     -44.828  40.157 -34.699  1.00  0.00     0.158 HD
ATOM     19  H3  UNL     1     -43.714  37.683 -35.350  1.00  0.00     0.162 HD
ENDBRANCH  12  13
ENDBRANCH  11  12
ENDBRANCH  10  11
ENDBRANCH   8  10
ENDBRANCH   7   8
ENDBRANCH   6   7
ENDBRANCH   5   6
ENDBRANCH   4   5
ENDBRANCH   3   4
ENDBRANCH   1   3
BRANCH   1  20
HETATM   20  C10 UNL     1     -45.848  43.412 -33.367  1.00  0.00     0.729 A 
HETATM   21  N6  UNL     1     -46.636  43.652 -34.422  1.00  0.00    -0.020 N 
HETATM   22  C11 UNL     1     -47.970  43.842 -34.335  1.00  0.00     0.705 A 
ATOM     23  H6  UNL     1     -46.204  43.694 -35.345  1.00  0.00     0.203 HD
HETATM   24  N8  UNL     1     -48.542  43.788 -33.129  1.00  0.00    -0.019 N 
HETATM   25  C12 UNL     1     -47.798  43.547 -32.011  1.00  0.00     0.737 A 
ATOM     26  H8  UNL     1     -49.548  43.929 -33.043  1.00  0.00     0.203 HD
HETATM   27  N9  UNL     1     -48.158  43.452 -30.718  1.00  0.00    -0.137 N 
HETATM   28  N11 UNL     1     -46.482  43.366 -32.152  1.00  0.00     0.095 N 
HETATM   29  C13 UNL     1     -47.020  43.206 -30.047  1.00  0.00     0.354 A 
ATOM     30  H9  UNL     1     -49.096  43.546 -30.329  1.00  0.00     0.189 HD
HETATM   31  O1  UNL     1     -46.967  43.058 -28.814  1.00  0.00    -0.245 OA
HETATM   32  N10 UNL     1     -45.986  43.153 -30.939  1.00  0.00    -0.215 N 
ATOM     33  H10 UNL     1     -45.007  42.980 -30.712  1.00  0.00     0.193 HD
BRANCH  22  34
HETATM   34  N7  UNL     1     -48.691  44.067 -35.365  1.00  0.00    -0.234 N 
ATOM     35  H72 UNL     1     -48.536  43.526 -36.216  1.00  0.00     0.174 HD
ATOM     36  H71 UNL     1     -49.423  44.776 -35.369  1.00  0.00     0.174 HD
ENDBRANCH  22  34
ENDBRANCH   1  20
TORSDOF 12
ENDMDL
MODEL 2
REMARK VINA RESULT: -6.719088096      2.989      3.772
REMARK  12 active torsions:
REMARK  status: ('A' for Active; 'I' for Inactive)
REMARK       I    between atoms: C1_4  and  N3_6 
REMARK    1  A    between atoms: N3_6  and  C2_8 
REMARK    2  A    between atoms: C2_8  and  C3_9 
REMARK    3  A    between atoms: C3_9  and  C4_10 
REMARK    4  A    between atoms: C4_10  and  N4_11 
REMARK    5  A    between atoms: N4_11  and  C5_13 
REMARK    6  A    between atoms: C5_13  and  C6_14 
REMARK    7  A    between atoms: C6_14  and  C7_15 
REMARK    8  A    between atoms: C7_15  and  C8_16 
REMARK    9  A    between atoms: C8_16  and  C9_17 
REMARK   10  A    between atoms: C9_17  and  N5_18 
REMARK   11  A    between atoms: N5_18  and  C10_20 
REMARK   12  A    between atoms: C11_23  and  N7_24 
ROOT
HETATM    1  N5  UNL     1     -44.578  42.764 -33.326  1.00  0.00    -0.223 N 
ATOM      2  H5  UNL     1     -43.885  43.314 -32.818  1.00  0.00     0.177 HD
ENDROOT
BRANCH   1   3
HETATM    3  C9  UNL     1     -44.138  41.604 -34.028  1.00  0.00     0.138 C 
BRANCH   3   4
HETATM    4  C8  UNL     1     -43.940  40.497 -32.993  1.00  0.00     0.020 C 
BRANCH   4   5
HETATM    5  C7  UNL     1     -44.335  39.192 -33.696  1.00  0.00     0.003 C 
BRANCH   5   6
HETATM    6  C6  UNL     1     -44.309  38.060 -32.667  1.00  0.00     0.019 C 
BRANCH   6   7
HETATM    7  C5  UNL     1     -43.040  37.275 -32.823  1.00  0.00     0.113 C 
BRANCH   7   8
HETATM    8  N4  UNL     1     -42.761  36.537 -31.653  1.00  0.00    -0.421 N 
ATOM      9  H4  UNL     1     -43.502  36.103 -31.102  1.00  0.00     0.153 HD
BRANCH   8  10
HETATM   10  C4  UNL     1     -41.390  36.430 -31.280  1.00  0.00     0.115 C 
BRANCH  10  11
HETATM   11  C3  UNL     1     -41.090  35.998 -29.907  1.00  0.00     0.039 C 
BRANCH  11  12
HETATM   12  C2  UNL     1     -40.871  34.507 -29.840  1.00  0.00     0.123 C 
BRANCH  12  13
HETATM   13  N3  UNL     1     -42.098  33.788 -29.581  1.00  0.00    -0.365 N 
HETATM   14  C1  UNL     1     -42.703  32.874 -30.470  1.00  0.00     0.181 C 
HETATM   15  N1  UNL     1     -42.760  31.607 -30.236  1.00  0.00    -0.374 N 
HETATM   16  N2  UNL     1     -43.277  33.359 -31.669  1.00  0.00    -0.064 NA
ATOM     17  H12 UNL     1     -43.197  30.946 -30.878  1.00  0.00     0.158 HD
ATOM     18  H11 UNL     1     -42.347  31.257 -29.372  1.00  0.00     0.158 HD
ATOM     19  H3  UNL     1     -42.562  33.954 -28.689  1.00  0.00     0.162 HD
ENDBRANCH  12  13
ENDBRANCH  11  12
ENDBRANCH  10  11
ENDBRANCH   8  10
ENDBRANCH   7   8
ENDBRANCH   6   7
ENDBRANCH   5   6
ENDBRANCH   4   5
ENDBRANCH   3   4
ENDBRANCH   1   3
BRANCH   1  20
HETATM   20  C10 UNL     1     -45.792  43.148 -33.300  1.00  0.00     0.729 A 
HETATM   21  N6  UNL     1     -46.546  43.480 -34.354  1.00  0.00    -0.020 N 
HETATM   22  C11 UNL     1     -47.835  43.871 -34.262  1.00  0.00     0.705 A 
ATOM     23  H6  UNL     1     -46.123  43.436 -35.280  1.00  0.00     0.203 HD
HETATM   24  N8  UNL     1     -48.396  43.931 -33.050  1.00  0.00    -0.019 N 
HETATM   25  C12 UNL     1     -47.685  43.606 -31.932  1.00  0.00     0.737 A 
ATOM     26  H8  UNL     1     -49.368  44.223 -32.960  1.00  0.00     0.203 HD
HETATM   27  N9  UNL     1     -48.040  43.595 -30.635  1.00  0.00    -0.137 N 
HETATM   28  N11 UNL     1     -46.413  43.226 -32.079  1.00  0.00     0.095 N 
HETATM   29  C13 UNL     1     -46.945  43.195 -29.966  1.00  0.00     0.354 A 
ATOM     30  H9  UNL     1     -48.949  43.838 -30.241  1.00  0.00     0.189 HD
HETATM   31  O1  UNL     1     -46.901  43.069 -28.731  1.00  0.00    -0.245 OA
HETATM   32  N10 UNL     1     -45.941  42.967 -30.864  1.00  0.00    -0.215 N 
ATOM     33  H10 UNL     1     -44.996  42.654 -30.641  1.00  0.00     0.193 HD
BRANCH  22  34
HETATM   34  N7  UNL     1     -48.526  44.178 -35.291  1.00  0.00    -0.234 N 
ATOM     35  H72 UNL     1     -49.129  43.476 -35.720  1.00  0.00     0.174 HD
ATOM     36  H71 UNL     1     -48.495  45.109 -35.706  1.00  0.00     0.174 HD
ENDBRANCH  22  34
ENDBRANCH   1  20
TORSDOF 12
ENDMDL
MODEL 3
REMARK VINA RESULT: -6.635284454      3.401      4.695
REMARK  12 active torsions:
REMARK  status: ('A' for Active; 'I' for Inactive)
REMARK       I    between atoms: C1_4  and  N3_6 
REMARK    1  A    between atoms: N3_6  and  C2_8 
REMARK    2  A    between atoms: C2_8  and  C3_9 
REMARK    3  A    between atoms: C3_9  and  C4_10 
REMARK    4  A    between atoms: C4_10  and  N4_11 
REMARK    5  A    between atoms: N4_11  and  C5_13 
REMARK    6  A    between atoms: C5_13  and  C6_14 
REMARK    7  A    between atoms: C6_14  and  C7_15 
REMARK    8  A    between atoms: C7_15  and  C8_16 
REMARK    9  A    between atoms: C8_16  and  C9_17 
REMARK   10  A    between atoms: C9_17  and  N5_18 
REMARK   11  A    between atoms: N5_18  and  C10_20 
REMARK   12  A    between atoms: C11_23  and  N7_24 
ROOT
HETATM    1  N5  UNL     1     -44.838  42.081 -33.598  1.00  0.00    -0.223 N 
ATOM      2  H5  UNL     1     -44.796  42.367 -34.576  1.00  0.00     0.177 HD
ENDROOT
BRANCH   1   3
HETATM    3  C9  UNL     1     -44.032  40.983 -33.178  1.00  0.00     0.138 C 
BRANCH   3   4
HETATM    4  C8  UNL     1     -44.075  39.938 -34.293  1.00  0.00     0.020 C 
BRANCH   4   5
HETATM    5  C7  UNL     1     -44.797  38.723 -33.698  1.00  0.00     0.003 C 
BRANCH   5   6
HETATM    6  C6  UNL     1     -44.050  38.284 -32.438  1.00  0.00     0.019 C 
BRANCH   6   7
HETATM    7  C5  UNL     1     -43.106  37.171 -32.781  1.00  0.00     0.113 C 
BRANCH   7   8
HETATM    8  N4  UNL     1     -42.775  36.422 -31.631  1.00  0.00    -0.421 N 
ATOM      9  H4  UNL     1     -43.485  35.931 -31.087  1.00  0.00     0.153 HD
BRANCH   8  10
HETATM   10  C4  UNL     1     -41.397  36.388 -31.269  1.00  0.00     0.115 C 
BRANCH  10  11
HETATM   11  C3  UNL     1     -41.062  35.929 -29.912  1.00  0.00     0.039 C 
BRANCH  11  12
HETATM   12  C2  UNL     1     -40.851  34.436 -29.878  1.00  0.00     0.123 C 
BRANCH  12  13
HETATM   13  N3  UNL     1     -42.074  33.719 -29.599  1.00  0.00    -0.365 N 
HETATM   14  C1  UNL     1     -42.692  32.801 -30.476  1.00  0.00     0.181 C 
HETATM   15  N1  UNL     1     -42.747  31.535 -30.234  1.00  0.00    -0.374 N 
HETATM   16  N2  UNL     1     -43.282  33.281 -31.669  1.00  0.00    -0.064 NA
ATOM     17  H12 UNL     1     -43.193  30.872 -30.867  1.00  0.00     0.158 HD
ATOM     18  H11 UNL     1     -42.322  31.190 -29.374  1.00  0.00     0.158 HD
ATOM     19  H3  UNL     1     -42.526  33.890 -28.701  1.00  0.00     0.162 HD
ENDBRANCH  12  13
ENDBRANCH  11  12
ENDBRANCH  10  11
ENDBRANCH   8  10
ENDBRANCH   7   8
ENDBRANCH   6   7
ENDBRANCH   5   6
ENDBRANCH   4   5
ENDBRANCH   3   4
ENDBRANCH   1   3
BRANCH   1  20
HETATM   20  C10 UNL     1     -45.609  42.724 -32.813  1.00  0.00     0.729 A 
HETATM   21  N6  UNL     1     -45.500  42.811 -31.482  1.00  0.00    -0.020 N 
HETATM   22  C11 UNL     1     -46.345  43.520 -30.704  1.00  0.00     0.705 A 
ATOM     23  H6  UNL     1     -44.733  42.313 -31.030  1.00  0.00     0.203 HD
HETATM   24  N8  UNL     1     -47.351  44.174 -31.291  1.00  0.00    -0.019 N 
HETATM   25  C12 UNL     1     -47.523  44.128 -32.644  1.00  0.00     0.737 A 
ATOM     26  H8  UNL     1     -48.000  44.715 -30.720  1.00  0.00     0.203 HD
HETATM   27  N9  UNL     1     -48.449  44.700 -33.434  1.00  0.00    -0.137 N 
HETATM   28  N11 UNL     1     -46.658  43.413 -33.368  1.00  0.00     0.095 N 
HETATM   29  C13 UNL     1     -48.139  44.317 -34.684  1.00  0.00     0.354 A 
ATOM     30  H9  UNL     1     -49.224  45.297 -33.145  1.00  0.00     0.189 HD
HETATM   31  O1  UNL     1     -48.788  44.656 -35.688  1.00  0.00    -0.245 OA
HETATM   32  N10 UNL     1     -47.030  43.521 -34.638  1.00  0.00    -0.215 N 
ATOM     33  H10 UNL     1     -46.569  43.088 -35.438  1.00  0.00     0.193 HD
BRANCH  22  34
HETATM   34  N7  UNL     1     -46.208  43.582 -29.436  1.00  0.00    -0.234 N 
ATOM     35  H72 UNL     1     -46.968  43.268 -28.832  1.00  0.00     0.174 HD
ATOM     36  H71 UNL     1     -45.359  43.940 -29.000  1.00  0.00     0.174 HD
ENDBRANCH  22  34
ENDBRANCH   1  20
TORSDOF 12
ENDMDL
MODEL 4
REMARK VINA RESULT: -6.607887931      1.087      1.613
REMARK  12 active torsions:
REMARK  status: ('A' for Active; 'I' for Inactive)
REMARK       I    between atoms: C1_4  and  N3_6 
REMARK    1  A    between atoms: N3_6  and  C2_8 
REMARK    2  A    between atoms: C2_8  and  C3_9 
REMARK    3  A    between atoms: C3_9  and  C4_10 
REMARK    4  A    between atoms: C4_10  and  N4_11 
REMARK    5  A    between atoms: N4_11  and  C5_13 
REMARK    6  A    between atoms: C5_13  and  C6_14 
REMARK    7  A    between atoms: C6_14  and  C7_15 
REMARK    8  A    between atoms: C7_15  and  C8_16 
REMARK    9  A    between atoms: C8_16  and  C9_17 
REMARK   10  A    between atoms: C9_17  and  N5_18 
REMARK   11  A    between atoms: N5_18  and  C10_20 
REMARK   12  A    between atoms: C11_23  and  N7_24 
ROOT
HETATM    1  N5  UNL     1     -44.607  43.129 -33.410  1.00  0.00    -0.223 N 
ATOM      2  H5  UNL     1     -44.294  42.162 -33.495  1.00  0.00     0.177 HD
ENDROOT
BRANCH   1   3
HETATM    3  C9  UNL     1     -43.620  44.154 -33.322  1.00  0.00     0.138 C 
BRANCH   3   4
HETATM    4  C8  UNL     1     -42.652  43.755 -32.209  1.00  0.00     0.020 C 
BRANCH   4   5
HETATM    5  C7  UNL     1     -41.968  42.470 -32.692  1.00  0.00     0.003 C 
BRANCH   5   6
HETATM    6  C6  UNL     1     -41.690  41.583 -31.477  1.00  0.00     0.019 C 
BRANCH   6   7
HETATM    7  C5  UNL     1     -42.989  41.212 -30.826  1.00  0.00     0.113 C 
BRANCH   7   8
HETATM    8  N4  UNL     1     -43.656  40.214 -31.570  1.00  0.00    -0.421 N 
ATOM      9  H4  UNL     1     -44.560  40.387 -32.011  1.00  0.00     0.153 HD
BRANCH   8  10
HETATM   10  C4  UNL     1     -43.001  38.953 -31.674  1.00  0.00     0.115 C 
BRANCH  10  11
HETATM   11  C3  UNL     1     -43.729  37.861 -32.338  1.00  0.00     0.039 C 
BRANCH  11  12
HETATM   12  C2  UNL     1     -44.511  38.371 -33.523  1.00  0.00     0.123 C 
BRANCH  12  13
HETATM   13  N3  UNL     1     -43.688  38.498 -34.705  1.00  0.00    -0.365 N 
HETATM   14  C1  UNL     1     -42.985  39.663 -35.079  1.00  0.00     0.181 C 
HETATM   15  N1  UNL     1     -41.698  39.738 -35.057  1.00  0.00    -0.374 N 
HETATM   16  N2  UNL     1     -43.715  40.799 -35.503  1.00  0.00    -0.064 NA
ATOM     17  H12 UNL     1     -41.190  40.580 -35.328  1.00  0.00     0.158 HD
ATOM     18  H11 UNL     1     -41.172  38.919 -34.752  1.00  0.00     0.158 HD
ATOM     19  H3  UNL     1     -43.610  37.684 -35.314  1.00  0.00     0.162 HD
ENDBRANCH  12  13
ENDBRANCH  11  12
ENDBRANCH  10  11
ENDBRANCH   8  10
ENDBRANCH   7   8
ENDBRANCH   6   7
ENDBRANCH   5   6
ENDBRANCH   4   5
ENDBRANCH   3   4
ENDBRANCH   1   3
BRANCH   1  20
HETATM   20  C10 UNL     1     -45.860  43.360 -33.389  1.00  0.00     0.729 A 
HETATM   21  N6  UNL     1     -46.642  43.612 -34.444  1.00  0.00    -0.020 N 
HETATM   22  C11 UNL     1     -47.970  43.839 -34.358  1.00  0.00     0.705 A 
ATOM     23  H6  UNL     1     -46.211  43.635 -35.368  1.00  0.00     0.203 HD
HETATM   24  N8  UNL     1     -48.542  43.811 -33.151  1.00  0.00    -0.019 N 
HETATM   25  C12 UNL     1     -47.804  43.560 -32.031  1.00  0.00     0.737 A 
ATOM     26  H8  UNL     1     -49.544  43.979 -33.064  1.00  0.00     0.203 HD
HETATM   27  N9  UNL     1     -48.164  43.485 -30.737  1.00  0.00    -0.137 N 
HETATM   28  N11 UNL     1     -46.493  43.342 -32.172  1.00  0.00     0.095 N 
HETATM   29  C13 UNL     1     -47.032  43.214 -30.065  1.00  0.00     0.354 A 
ATOM     30  H9  UNL     1     -49.099  43.607 -30.348  1.00  0.00     0.189 HD
HETATM   31  O1  UNL     1     -46.981  43.075 -28.832  1.00  0.00    -0.245 OA
HETATM   32  N10 UNL     1     -46.001  43.125 -30.958  1.00  0.00    -0.215 N 
ATOM     33  H10 UNL     1     -45.027  42.928 -30.731  1.00  0.00     0.193 HD
BRANCH  22  34
HETATM   34  N7  UNL     1     -48.687  44.074 -35.388  1.00  0.00    -0.234 N 
ATOM     35  H72 UNL     1     -49.109  44.995 -35.507  1.00  0.00     0.174 HD
ATOM     36  H71 UNL     1     -48.857  43.367 -36.103  1.00  0.00     0.174 HD
ENDBRANCH  22  34
ENDBRANCH   1  20
TORSDOF 12
ENDMDL
MODEL 5
REMARK VINA RESULT: -6.582264485      3.269      3.995
REMARK  12 active torsions:
REMARK  status: ('A' for Active; 'I' for Inactive)
REMARK       I    between atoms: C1_4  and  N3_6 
REMARK    1  A    between atoms: N3_6  and  C2_8 
REMARK    2  A    between atoms: C2_8  and  C3_9 
REMARK    3  A    between atoms: C3_9  and  C4_10 
REMARK    4  A    between atoms: C4_10  and  N4_11 
REMARK    5  A    between atoms: N4_11  and  C5_13 
REMARK    6  A    between atoms: C5_13  and  C6_14 
REMARK    7  A    between atoms: C6_14  and  C7_15 
REMARK    8  A    between atoms: C7_15  and  C8_16 
REMARK    9  A    between atoms: C8_16  and  C9_17 
REMARK   10  A    between atoms: C9_17  and  N5_18 
REMARK   11  A    between atoms: N5_18  and  C10_20 
REMARK   12  A    between atoms: C11_23  and  N7_24 
ROOT
HETATM    1  N5  UNL     1     -44.583  42.773 -33.284  1.00  0.00    -0.223 N 
ATOM      2  H5  UNL     1     -43.890  43.338 -32.793  1.00  0.00     0.177 HD
ENDROOT
BRANCH   1   3
HETATM    3  C9  UNL     1     -44.143  41.596 -33.957  1.00  0.00     0.138 C 
BRANCH   3   4
HETATM    4  C8  UNL     1     -43.874  40.538 -32.887  1.00  0.00     0.020 C 
BRANCH   4   5
HETATM    5  C7  UNL     1     -44.012  39.184 -33.594  1.00  0.00     0.003 C 
BRANCH   5   6
HETATM    6  C6  UNL     1     -44.186  38.098 -32.533  1.00  0.00     0.019 C 
BRANCH   6   7
HETATM    7  C5  UNL     1     -43.102  37.073 -32.686  1.00  0.00     0.113 C 
BRANCH   7   8
HETATM    8  N4  UNL     1     -42.617  36.663 -31.425  1.00  0.00    -0.421 N 
ATOM      9  H4  UNL     1     -42.348  37.337 -30.708  1.00  0.00     0.153 HD
BRANCH   8  10
HETATM   10  C4  UNL     1     -42.524  35.258 -31.206  1.00  0.00     0.115 C 
BRANCH  10  11
HETATM   11  C3  UNL     1     -42.231  34.407 -32.369  1.00  0.00     0.039 C 
BRANCH  11  12
HETATM   12  C2  UNL     1     -42.803  33.023 -32.189  1.00  0.00     0.123 C 
BRANCH  12  13
HETATM   13  N3  UNL     1     -43.352  32.828 -30.866  1.00  0.00    -0.365 N 
HETATM   14  C1  UNL     1     -44.190  31.758 -30.487  1.00  0.00     0.181 C 
HETATM   15  N1  UNL     1     -43.812  30.827 -29.679  1.00  0.00    -0.374 N 
HETATM   16  N2  UNL     1     -45.505  31.700 -31.007  1.00  0.00    -0.064 NA
ATOM     17  H12 UNL     1     -44.418  30.055 -29.406  1.00  0.00     0.158 HD
ATOM     18  H11 UNL     1     -42.864  30.870 -29.305  1.00  0.00     0.158 HD
ATOM     19  H3  UNL     1     -43.114  33.517 -30.152  1.00  0.00     0.162 HD
ENDBRANCH  12  13
ENDBRANCH  11  12
ENDBRANCH  10  11
ENDBRANCH   8  10
ENDBRANCH   7   8
ENDBRANCH   6   7
ENDBRANCH   5   6
ENDBRANCH   4   5
ENDBRANCH   3   4
ENDBRANCH   1   3
BRANCH   1  20
HETATM   20  C10 UNL     1     -45.798  43.155 -33.265  1.00  0.00     0.729 A 
HETATM   21  N6  UNL     1     -46.546  43.488 -34.323  1.00  0.00    -0.020 N 
HETATM   22  C11 UNL     1     -47.836  43.876 -34.238  1.00  0.00     0.705 A 
ATOM     23  H6  UNL     1     -46.117  43.447 -35.247  1.00  0.00     0.203 HD
HETATM   24  N8  UNL     1     -48.405  43.933 -33.030  1.00  0.00    -0.019 N 
HETATM   25  C12 UNL     1     -47.700  43.607 -31.908  1.00  0.00     0.737 A 
ATOM     26  H8  UNL     1     -49.379  44.223 -32.946  1.00  0.00     0.203 HD
HETATM   27  N9  UNL     1     -48.064  43.592 -30.614  1.00  0.00    -0.137 N 
HETATM   28  N11 UNL     1     -46.427  43.229 -32.048  1.00  0.00     0.095 N 
HETATM   29  C13 UNL     1     -46.972  43.193 -29.939  1.00  0.00     0.354 A 
ATOM     30  H9  UNL     1     -48.976  43.833 -30.225  1.00  0.00     0.189 HD
HETATM   31  O1  UNL     1     -46.936  43.064 -28.704  1.00  0.00    -0.245 OA
HETATM   32  N10 UNL     1     -45.962  42.969 -30.831  1.00  0.00    -0.215 N 
ATOM     33  H10 UNL     1     -45.019  42.657 -30.602  1.00  0.00     0.193 HD
BRANCH  22  34
HETATM   34  N7  UNL     1     -48.521  44.185 -35.271  1.00  0.00    -0.234 N 
ATOM     35  H72 UNL     1     -48.261  43.802 -36.180  1.00  0.00     0.174 HD
ATOM     36  H71 UNL     1     -49.326  44.809 -35.221  1.00  0.00     0.174 HD
ENDBRANCH  22  34
ENDBRANCH   1  20
TORSDOF 12
ENDMDL
