MODEL 1
REMARK VINA RESULT: -5.995214635      0.000      0.000
REMARK  14 active torsions:
REMARK  status: ('A' for Active; 'I' for Inactive)
REMARK    1  A    between atoms: C2_2  and  C3_3 
REMARK    2  A    between atoms: C3_3  and  N1_4 
REMARK    3  A    between atoms: N1_4  and  C4_5 
REMARK    4  A    between atoms: N1_4  and  C6_9 
REMARK    5  A    between atoms: C4_5  and  C5_6 
REMARK    6  A    between atoms: C5_6  and  O1_7 
REMARK    7  A    between atoms: C6_9  and  C7_10 
REMARK    8  A    between atoms: C7_10  and  N2_11 
REMARK    9  A    between atoms: N2_11  and  C8_14 
REMARK   10  A    between atoms: C8_14  and  C9_15 
REMARK   11  A    between atoms: C9_15  and  C10_16 
REMARK   12  A    between atoms: C10_16  and  N3_17 
REMARK   13  A    between atoms: N3_17  and  C11_19 
REMARK   14  A    between atoms: C13_25  and  N6_26 
ROOT
HETATM    1  N3  UNL     1     -43.495  42.389 -30.733  1.00  0.00    -0.226 N 
ATOM      2  H3  UNL     1     -43.413  42.661 -29.754  1.00  0.00     0.177 HD
ENDROOT
BRANCH   1   3
HETATM    3  C10 UNL     1     -42.453  41.602 -31.352  1.00  0.00     0.139 C 
BRANCH   3   4
HETATM    4  C9  UNL     1     -42.558  40.136 -30.966  1.00  0.00     0.048 C 
BRANCH   4   5
HETATM    5  C8  UNL     1     -41.314  39.443 -31.457  1.00  0.00     0.234 C 
BRANCH   5   6
HETATM    6  N2  UNL     1     -41.578  38.371 -32.357  1.00  0.00    -0.074 N 
ATOM      7  H22 UNL     1     -42.540  38.043 -32.275  1.00  0.00     0.277 HD
ATOM      8  H21 UNL     1     -41.097  37.518 -32.071  1.00  0.00     0.277 HD
BRANCH   6   9
HETATM    9  C7  UNL     1     -41.255  38.731 -33.717  1.00  0.00     0.252 C 
BRANCH   9  10
HETATM   10  C6  UNL     1     -42.508  38.583 -34.550  1.00  0.00     0.149 C 
BRANCH  10  11
HETATM   11  N1  UNL     1     -43.321  39.731 -34.391  1.00  0.00    -0.386 N 
BRANCH  11  12
HETATM   12  C3  UNL     1     -43.049  40.873 -35.167  1.00  0.00     0.084 C 
BRANCH  12  13
HETATM   13  C2  UNL     1     -42.578  40.612 -36.555  1.00  0.00     0.007 C 
HETATM   14  C1  UNL     1     -41.484  41.161 -37.048  1.00  0.00     0.012 C 
ENDBRANCH  12  13
ENDBRANCH  11  12
BRANCH  11  15
HETATM   15  C4  UNL     1     -44.636  39.528 -33.918  1.00  0.00     0.148 C 
BRANCH  15  16
HETATM   16  C5  UNL     1     -44.862  38.073 -33.598  1.00  0.00     0.183 C 
BRANCH  16  17
HETATM   17  O1  UNL     1     -44.857  37.838 -32.222  1.00  0.00    -0.399 OA
ATOM     18  H1  UNL     1     -45.623  38.206 -31.799  1.00  0.00     0.209 HD
ENDBRANCH  16  17
ENDBRANCH  15  16
ENDBRANCH  11  15
ENDBRANCH  10  11
ENDBRANCH   9  10
ENDBRANCH   6   9
ENDBRANCH   5   6
ENDBRANCH   4   5
ENDBRANCH   3   4
ENDBRANCH   1   3
BRANCH   1  19
HETATM   19  C11 UNL     1     -44.527  42.748 -31.418  1.00  0.00     0.680 A 
HETATM   20  N4  UNL     1     -44.712  42.899 -32.732  1.00  0.00    -0.174 N 
HETATM   21  C12 UNL     1     -45.965  43.306 -33.009  1.00  0.00     0.169 A 
ATOM     22  H4  UNL     1     -43.995  42.727 -33.436  1.00  0.00     0.186 HD
HETATM   23  N5  UNL     1     -46.603  43.586 -34.159  1.00  0.00    -0.174 N 
HETATM   24  C15 UNL     1     -46.608  43.417 -31.789  1.00  0.00     0.162 A 
HETATM   25  C13 UNL     1     -47.887  43.981 -34.126  1.00  0.00     0.680 A 
ATOM     26  H5  UNL     1     -46.116  43.498 -35.050  1.00  0.00     0.186 HD
HETATM   27  N7  UNL     1     -48.554  44.104 -32.945  1.00  0.00    -0.154 N 
HETATM   28  C14 UNL     1     -47.925  43.827 -31.805  1.00  0.00     0.290 A 
ATOM     29  H7  UNL     1     -49.529  44.405 -32.934  1.00  0.00     0.187 HD
HETATM   30  O2  UNL     1     -48.527  43.935 -30.685  1.00  0.00    -0.265 OA
HETATM   31  N8  UNL     1     -45.717  43.075 -30.844  1.00  0.00    -0.182 N 
ATOM     32  H8  UNL     1     -45.905  43.062 -29.842  1.00  0.00     0.184 HD
BRANCH  25  33
HETATM   33  N6  UNL     1     -48.530  44.258 -35.216  1.00  0.00    -0.234 N 
ATOM     34  H62 UNL     1     -48.449  45.203 -35.592  1.00  0.00     0.174 HD
ATOM     35  H61 UNL     1     -49.101  43.553 -35.684  1.00  0.00     0.174 HD
ENDBRANCH  25  33
ENDBRANCH   1  19
TORSDOF 14
ENDMDL
MODEL 2
REMARK VINA RESULT: -5.989716722      1.516      2.785
REMARK  14 active torsions:
REMARK  status: ('A' for Active; 'I' for Inactive)
REMARK    1  A    between atoms: C2_2  and  C3_3 
REMARK    2  A    between atoms: C3_3  and  N1_4 
REMARK    3  A    between atoms: N1_4  and  C4_5 
REMARK    4  A    between atoms: N1_4  and  C6_9 
REMARK    5  A    between atoms: C4_5  and  C5_6 
REMARK    6  A    between atoms: C5_6  and  O1_7 
REMARK    7  A    between atoms: C6_9  and  C7_10 
REMARK    8  A    between atoms: C7_10  and  N2_11 
REMARK    9  A    between atoms: N2_11  and  C8_14 
REMARK   10  A    between atoms: C8_14  and  C9_15 
REMARK   11  A    between atoms: C9_15  and  C10_16 
REMARK   12  A    between atoms: C10_16  and  N3_17 
REMARK   13  A    between atoms: N3_17  and  C11_19 
REMARK   14  A    between atoms: C13_25  and  N6_26 
ROOT
HETATM    1  N3  UNL     1     -43.459  42.322 -30.997  1.00  0.00    -0.226 N 
ATOM      2  H3  UNL     1     -42.930  42.999 -30.446  1.00  0.00     0.177 HD
ENDROOT
BRANCH   1   3
HETATM    3  C10 UNL     1     -43.025  40.946 -31.059  1.00  0.00     0.139 C 
BRANCH   3   4
HETATM    4  C9  UNL     1     -41.559  40.840 -31.444  1.00  0.00     0.048 C 
BRANCH   4   5
HETATM    5  C8  UNL     1     -41.429  41.279 -32.879  1.00  0.00     0.234 C 
BRANCH   5   6
HETATM    6  N2  UNL     1     -41.993  40.359 -33.808  1.00  0.00    -0.074 N 
ATOM      7  H22 UNL     1     -42.008  40.744 -34.753  1.00  0.00     0.277 HD
ATOM      8  H21 UNL     1     -42.997  40.252 -33.666  1.00  0.00     0.277 HD
BRANCH   6   9
HETATM    9  C7  UNL     1     -41.314  39.085 -33.767  1.00  0.00     0.252 C 
BRANCH   9  10
HETATM   10  C6  UNL     1     -42.328  38.005 -34.072  1.00  0.00     0.149 C 
BRANCH  10  11
HETATM   11  N1  UNL     1     -42.844  37.485 -32.861  1.00  0.00    -0.386 N 
BRANCH  11  12
HETATM   12  C3  UNL     1     -41.948  37.116 -31.840  1.00  0.00     0.084 C 
BRANCH  12  13
HETATM   13  C2  UNL     1     -42.302  35.883 -31.086  1.00  0.00     0.007 C 
HETATM   14  C1  UNL     1     -41.560  35.416 -30.100  1.00  0.00     0.012 C 
ENDBRANCH  12  13
ENDBRANCH  11  12
BRANCH  11  15
HETATM   15  C4  UNL     1     -44.160  37.856 -32.509  1.00  0.00     0.148 C 
BRANCH  15  16
HETATM   16  C5  UNL     1     -44.889  38.408 -33.708  1.00  0.00     0.183 C 
BRANCH  16  17
HETATM   17  O1  UNL     1     -45.044  39.793 -33.629  1.00  0.00    -0.399 OA
ATOM     18  H1  UNL     1     -45.949  40.039 -33.484  1.00  0.00     0.209 HD
ENDBRANCH  16  17
ENDBRANCH  15  16
ENDBRANCH  11  15
ENDBRANCH  10  11
ENDBRANCH   9  10
ENDBRANCH   6   9
ENDBRANCH   5   6
ENDBRANCH   4   5
ENDBRANCH   3   4
ENDBRANCH   1   3
BRANCH   1  19
HETATM   19  C11 UNL     1     -44.514  42.696 -31.638  1.00  0.00     0.680 A 
HETATM   20  N4  UNL     1     -44.755  42.842 -32.943  1.00  0.00    -0.174 N 
HETATM   21  C12 UNL     1     -46.011  43.272 -33.167  1.00  0.00     0.169 A 
ATOM     22  H4  UNL     1     -44.073  42.652 -33.677  1.00  0.00     0.186 HD
HETATM   23  N5  UNL     1     -46.694  43.557 -34.289  1.00  0.00    -0.174 N 
HETATM   24  C15 UNL     1     -46.596  43.404 -31.921  1.00  0.00     0.162 A 
HETATM   25  C13 UNL     1     -47.968  43.978 -34.202  1.00  0.00     0.680 A 
ATOM     26  H5  UNL     1     -46.249  43.454 -35.201  1.00  0.00     0.186 HD
HETATM   27  N7  UNL     1     -48.578  44.121 -32.994  1.00  0.00    -0.154 N 
HETATM   28  C14 UNL     1     -47.904  43.840 -31.881  1.00  0.00     0.290 A 
ATOM     29  H7  UNL     1     -49.545  44.442 -32.942  1.00  0.00     0.187 HD
HETATM   30  O2  UNL     1     -48.453  43.967 -30.735  1.00  0.00    -0.265 OA
HETATM   31  N8  UNL     1     -45.670  43.051 -31.014  1.00  0.00    -0.182 N 
ATOM     32  H8  UNL     1     -45.813  43.048 -30.004  1.00  0.00     0.184 HD
BRANCH  25  33
HETATM   33  N6  UNL     1     -48.653  44.259 -35.264  1.00  0.00    -0.234 N 
ATOM     34  H62 UNL     1     -48.220  44.858 -35.968  1.00  0.00     0.174 HD
ATOM     35  H61 UNL     1     -49.598  43.895 -35.394  1.00  0.00     0.174 HD
ENDBRANCH  25  33
ENDBRANCH   1  19
TORSDOF 14
ENDMDL
MODEL 3
REMARK VINA RESULT: -5.923480585      2.164      3.968
REMARK  14 active torsions:
REMARK  status: ('A' for Active; 'I' for Inactive)
REMARK    1  A    between atoms: C2_2  and  C3_3 
REMARK    2  A    between atoms: C3_3  and  N1_4 
REMARK    3  A    between atoms: N1_4  and  C4_5 
REMARK    4  A    between atoms: N1_4  and  C6_9 
REMARK    5  A    between atoms: C4_5  and  C5_6 
REMARK    6  A    between atoms: C5_6  and  O1_7 
REMARK    7  A    between atoms: C6_9  and  C7_10 
REMARK    8  A    between atoms: C7_10  and  N2_11 
REMARK    9  A    between atoms: N2_11  and  C8_14 
REMARK   10  A    between atoms: C8_14  and  C9_15 
REMARK   11  A    between atoms: C9_15  and  C10_16 
REMARK   12  A    between atoms: C10_16  and  N3_17 
REMARK   13  A    between atoms: N3_17  and  C11_19 
REMARK   14  A    between atoms: C13_25  and  N6_26 
ROOT
HETATM    1  N3  UNL     1     -43.385  41.700 -33.956  1.00  0.00    -0.226 N 
ATOM      2  H3  UNL     1     -42.509  41.891 -33.470  1.00  0.00     0.177 HD
ENDROOT
BRANCH   1   3
HETATM    3  C10 UNL     1     -43.404  40.791 -35.079  1.00  0.00     0.139 C 
BRANCH   3   4
HETATM    4  C9  UNL     1     -42.175  39.897 -35.094  1.00  0.00     0.048 C 
BRANCH   4   5
HETATM    5  C8  UNL     1     -41.333  40.257 -33.897  1.00  0.00     0.234 C 
BRANCH   5   6
HETATM    6  N2  UNL     1     -40.514  39.187 -33.436  1.00  0.00    -0.074 N 
ATOM      7  H22 UNL     1     -39.612  39.176 -33.911  1.00  0.00     0.277 HD
ATOM      8  H21 UNL     1     -40.869  38.283 -33.751  1.00  0.00     0.277 HD
BRANCH   6   9
HETATM    9  C7  UNL     1     -40.357  39.223 -32.001  1.00  0.00     0.252 C 
BRANCH   9  10
HETATM   10  C6  UNL     1     -41.691  38.881 -31.376  1.00  0.00     0.149 C 
BRANCH  10  11
HETATM   11  N1  UNL     1     -41.905  37.483 -31.450  1.00  0.00    -0.386 N 
BRANCH  11  12
HETATM   12  C3  UNL     1     -41.193  36.638 -30.578  1.00  0.00     0.084 C 
BRANCH  12  13
HETATM   13  C2  UNL     1     -41.783  35.288 -30.365  1.00  0.00     0.007 C 
HETATM   14  C1  UNL     1     -41.775  34.688 -29.190  1.00  0.00     0.012 C 
ENDBRANCH  12  13
ENDBRANCH  11  12
BRANCH  11  15
HETATM   15  C4  UNL     1     -43.149  37.048 -31.954  1.00  0.00     0.148 C 
BRANCH  15  16
HETATM   16  C5  UNL     1     -43.998  38.228 -32.353  1.00  0.00     0.183 C 
BRANCH  16  17
HETATM   17  O1  UNL     1     -45.234  37.829 -32.863  1.00  0.00    -0.399 OA
ATOM     18  H1  UNL     1     -45.895  38.502 -32.752  1.00  0.00     0.209 HD
ENDBRANCH  16  17
ENDBRANCH  15  16
ENDBRANCH  11  15
ENDBRANCH  10  11
ENDBRANCH   9  10
ENDBRANCH   6   9
ENDBRANCH   5   6
ENDBRANCH   4   5
ENDBRANCH   3   4
ENDBRANCH   1   3
BRANCH   1  19
HETATM   19  C11 UNL     1     -44.475  42.271 -33.569  1.00  0.00     0.680 A 
HETATM   20  N4  UNL     1     -45.092  42.296 -32.385  1.00  0.00    -0.174 N 
HETATM   21  C12 UNL     1     -46.228  43.017 -32.437  1.00  0.00     0.169 A 
ATOM     22  H4  UNL     1     -44.747  41.829 -31.548  1.00  0.00     0.186 HD
HETATM   23  N5  UNL     1     -47.163  43.319 -31.520  1.00  0.00    -0.174 N 
HETATM   24  C15 UNL     1     -46.330  43.474 -33.739  1.00  0.00     0.162 A 
HETATM   25  C13 UNL     1     -48.216  44.077 -31.870  1.00  0.00     0.680 A 
ATOM     26  H5  UNL     1     -47.073  42.975 -30.564  1.00  0.00     0.186 HD
HETATM   27  N7  UNL     1     -48.352  44.545 -33.141  1.00  0.00    -0.154 N 
HETATM   28  C14 UNL     1     -47.428  44.248 -34.052  1.00  0.00     0.290 A 
ATOM     29  H7  UNL     1     -49.157  45.120 -33.394  1.00  0.00     0.187 HD
HETATM   30  O2  UNL     1     -47.533  44.673 -35.251  1.00  0.00    -0.265 OA
HETATM   31  N8  UNL     1     -45.259  43.009 -34.403  1.00  0.00    -0.182 N 
ATOM     32  H8  UNL     1     -45.061  43.183 -35.388  1.00  0.00     0.184 HD
BRANCH  25  33
HETATM   33  N6  UNL     1     -49.133  44.387 -31.009  1.00  0.00    -0.234 N 
ATOM     34  H62 UNL     1     -49.686  43.630 -30.607  1.00  0.00     0.174 HD
ATOM     35  H61 UNL     1     -49.299  45.358 -30.742  1.00  0.00     0.174 HD
ENDBRANCH  25  33
ENDBRANCH   1  19
TORSDOF 14
ENDMDL
MODEL 4
REMARK VINA RESULT: -5.862294585      1.448      2.428
REMARK  14 active torsions:
REMARK  status: ('A' for Active; 'I' for Inactive)
REMARK    1  A    between atoms: C2_2  and  C3_3 
REMARK    2  A    between atoms: C3_3  and  N1_4 
REMARK    3  A    between atoms: N1_4  and  C4_5 
REMARK    4  A    between atoms: N1_4  and  C6_9 
REMARK    5  A    between atoms: C4_5  and  C5_6 
REMARK    6  A    between atoms: C5_6  and  O1_7 
REMARK    7  A    between atoms: C6_9  and  C7_10 
REMARK    8  A    between atoms: C7_10  and  N2_11 
REMARK    9  A    between atoms: N2_11  and  C8_14 
REMARK   10  A    between atoms: C8_14  and  C9_15 
REMARK   11  A    between atoms: C9_15  and  C10_16 
REMARK   12  A    between atoms: C10_16  and  N3_17 
REMARK   13  A    between atoms: N3_17  and  C11_19 
REMARK   14  A    between atoms: C13_25  and  N6_26 
ROOT
HETATM    1  N3  UNL     1     -43.467  42.437 -30.990  1.00  0.00    -0.226 N 
ATOM      2  H3  UNL     1     -43.384  42.650 -29.996  1.00  0.00     0.177 HD
ENDROOT
BRANCH   1   3
HETATM    3  C10 UNL     1     -42.397  41.746 -31.672  1.00  0.00     0.139 C 
BRANCH   3   4
HETATM    4  C9  UNL     1     -42.338  40.280 -31.276  1.00  0.00     0.048 C 
BRANCH   4   5
HETATM    5  C8  UNL     1     -40.919  39.812 -31.461  1.00  0.00     0.234 C 
BRANCH   5   6
HETATM    6  N2  UNL     1     -40.351  40.197 -32.709  1.00  0.00    -0.074 N 
ATOM      7  H22 UNL     1     -39.556  40.822 -32.581  1.00  0.00     0.277 HD
ATOM      8  H21 UNL     1     -40.968  40.829 -33.221  1.00  0.00     0.277 HD
BRANCH   6   9
HETATM    9  C7  UNL     1     -39.995  39.045 -33.505  1.00  0.00     0.252 C 
BRANCH   9  10
HETATM   10  C6  UNL     1     -40.867  39.044 -34.740  1.00  0.00     0.149 C 
BRANCH  10  11
HETATM   11  N1  UNL     1     -42.001  38.226 -34.519  1.00  0.00    -0.386 N 
BRANCH  11  12
HETATM   12  C3  UNL     1     -41.863  37.064 -33.737  1.00  0.00     0.084 C 
BRANCH  12  13
HETATM   13  C2  UNL     1     -42.927  36.840 -32.722  1.00  0.00     0.007 C 
HETATM   14  C1  UNL     1     -42.661  36.444 -31.491  1.00  0.00     0.012 C 
ENDBRANCH  12  13
ENDBRANCH  11  12
BRANCH  11  15
HETATM   15  C4  UNL     1     -43.267  38.846 -34.597  1.00  0.00     0.148 C 
BRANCH  15  16
HETATM   16  C5  UNL     1     -43.136  40.241 -35.151  1.00  0.00     0.183 C 
BRANCH  16  17
HETATM   17  O1  UNL     1     -44.363  40.907 -35.177  1.00  0.00    -0.399 OA
ATOM     18  H1  UNL     1     -44.433  41.490 -35.923  1.00  0.00     0.209 HD
ENDBRANCH  16  17
ENDBRANCH  15  16
ENDBRANCH  11  15
ENDBRANCH  10  11
ENDBRANCH   9  10
ENDBRANCH   6   9
ENDBRANCH   5   6
ENDBRANCH   4   5
ENDBRANCH   3   4
ENDBRANCH   1   3
BRANCH   1  19
HETATM   19  C11 UNL     1     -44.527  42.785 -31.638  1.00  0.00     0.680 A 
HETATM   20  N4  UNL     1     -44.765  42.919 -32.945  1.00  0.00    -0.174 N 
HETATM   21  C12 UNL     1     -46.029  43.319 -33.177  1.00  0.00     0.169 A 
ATOM     22  H4  UNL     1     -44.076  42.740 -33.675  1.00  0.00     0.186 HD
HETATM   23  N5  UNL     1     -46.714  43.584 -34.303  1.00  0.00    -0.174 N 
HETATM   24  C15 UNL     1     -46.623  43.445 -31.933  1.00  0.00     0.162 A 
HETATM   25  C13 UNL     1     -47.997  43.977 -34.224  1.00  0.00     0.680 A 
ATOM     26  H5  UNL     1     -46.262  43.486 -35.212  1.00  0.00     0.186 HD
HETATM   27  N7  UNL     1     -48.616  44.113 -33.019  1.00  0.00    -0.154 N 
HETATM   28  C14 UNL     1     -47.941  43.852 -31.901  1.00  0.00     0.290 A 
ATOM     29  H7  UNL     1     -49.590  44.413 -32.972  1.00  0.00     0.187 HD
HETATM   30  O2  UNL     1     -48.498  43.973 -30.759  1.00  0.00    -0.265 OA
HETATM   31  N8  UNL     1     -45.694  43.117 -31.020  1.00  0.00    -0.182 N 
ATOM     32  H8  UNL     1     -45.841  43.116 -30.011  1.00  0.00     0.184 HD
BRANCH  25  33
HETATM   33  N6  UNL     1     -48.684  44.238 -35.290  1.00  0.00    -0.234 N 
ATOM     34  H62 UNL     1     -49.078  45.174 -35.387  1.00  0.00     0.174 HD
ATOM     35  H61 UNL     1     -48.827  43.530 -36.011  1.00  0.00     0.174 HD
ENDBRANCH  25  33
ENDBRANCH   1  19
TORSDOF 14
ENDMDL
MODEL 5
REMARK VINA RESULT: -5.752983403      2.356      3.804
REMARK  14 active torsions:
REMARK  status: ('A' for Active; 'I' for Inactive)
REMARK    1  A    between atoms: C2_2  and  C3_3 
REMARK    2  A    between atoms: C3_3  and  N1_4 
REMARK    3  A    between atoms: N1_4  and  C4_5 
REMARK    4  A    between atoms: N1_4  and  C6_9 
REMARK    5  A    between atoms: C4_5  and  C5_6 
REMARK    6  A    between atoms: C5_6  and  O1_7 
REMARK    7  A    between atoms: C6_9  and  C7_10 
REMARK    8  A    between atoms: C7_10  and  N2_11 
REMARK    9  A    between atoms: N2_11  and  C8_14 
REMARK   10  A    between atoms: C8_14  and  C9_15 
REMARK   11  A    between atoms: C9_15  and  C10_16 
REMARK   12  A    between atoms: C10_16  and  N3_17 
REMARK   13  A    between atoms: N3_17  and  C11_19 
REMARK   14  A    between atoms: C13_25  and  N6_26 
ROOT
HETATM    1  N3  UNL     1     -43.555  42.379 -30.913  1.00  0.00    -0.226 N 
ATOM      2  H3  UNL     1     -42.927  43.083 -30.528  1.00  0.00     0.177 HD
ENDROOT
BRANCH   1   3
HETATM    3  C10 UNL     1     -43.280  40.976 -30.707  1.00  0.00     0.139 C 
BRANCH   3   4
HETATM    4  C9  UNL     1     -42.144  40.494 -31.593  1.00  0.00     0.048 C 
BRANCH   4   5
HETATM    5  C8  UNL     1     -42.734  39.591 -32.644  1.00  0.00     0.234 C 
BRANCH   5   6
HETATM    6  N2  UNL     1     -43.968  38.996 -32.255  1.00  0.00    -0.074 N 
ATOM      7  H22 UNL     1     -44.733  39.291 -32.863  1.00  0.00     0.277 HD
ATOM      8  H21 UNL     1     -44.308  39.385 -31.375  1.00  0.00     0.277 HD
BRANCH   6   9
HETATM    9  C7  UNL     1     -43.865  37.557 -32.194  1.00  0.00     0.252 C 
BRANCH   9  10
HETATM   10  C6  UNL     1     -42.571  37.153 -32.863  1.00  0.00     0.149 C 
BRANCH  10  11
HETATM   11  N1  UNL     1     -41.859  36.265 -32.020  1.00  0.00    -0.386 N 
BRANCH  11  12
HETATM   12  C3  UNL     1     -42.487  35.080 -31.592  1.00  0.00     0.084 C 
BRANCH  12  13
HETATM   13  C2  UNL     1     -41.801  34.347 -30.495  1.00  0.00     0.007 C 
HETATM   14  C1  UNL     1     -42.096  34.535 -29.223  1.00  0.00     0.012 C 
ENDBRANCH  12  13
ENDBRANCH  11  12
BRANCH  11  15
HETATM   15  C4  UNL     1     -40.450  36.300 -32.091  1.00  0.00     0.148 C 
BRANCH  15  16
HETATM   16  C5  UNL     1     -39.916  37.510 -31.368  1.00  0.00     0.183 C 
BRANCH  16  17
HETATM   17  O1  UNL     1     -40.397  37.587 -30.061  1.00  0.00    -0.399 OA
ATOM     18  H1  UNL     1     -40.213  38.431 -29.666  1.00  0.00     0.209 HD
ENDBRANCH  16  17
ENDBRANCH  15  16
ENDBRANCH  11  15
ENDBRANCH  10  11
ENDBRANCH   9  10
ENDBRANCH   6   9
ENDBRANCH   5   6
ENDBRANCH   4   5
ENDBRANCH   3   4
ENDBRANCH   1   3
BRANCH   1  19
HETATM   19  C11 UNL     1     -44.596  42.741 -31.584  1.00  0.00     0.680 A 
HETATM   20  N4  UNL     1     -44.810  42.858 -32.897  1.00  0.00    -0.174 N 
HETATM   21  C12 UNL     1     -46.060  43.285 -33.156  1.00  0.00     0.169 A 
ATOM     22  H4  UNL     1     -44.114  42.649 -33.612  1.00  0.00     0.186 HD
HETATM   23  N5  UNL     1     -46.720  43.546 -34.298  1.00  0.00    -0.174 N 
HETATM   24  C15 UNL     1     -46.670  43.447 -31.925  1.00  0.00     0.162 A 
HETATM   25  C13 UNL     1     -47.993  43.972 -34.246  1.00  0.00     0.680 A 
ATOM     26  H5  UNL     1     -46.256  43.422 -35.198  1.00  0.00     0.186 HD
HETATM   27  N7  UNL     1     -48.628  44.144 -33.054  1.00  0.00    -0.154 N 
HETATM   28  C14 UNL     1     -47.978  43.887 -31.922  1.00  0.00     0.290 A 
ATOM     29  H7  UNL     1     -49.595  44.468 -33.029  1.00  0.00     0.187 HD
HETATM   30  O2  UNL     1     -48.550  44.041 -30.791  1.00  0.00    -0.265 OA
HETATM   31  N8  UNL     1     -45.764  43.112 -30.991  1.00  0.00    -0.182 N 
ATOM     32  H8  UNL     1     -45.928  43.132 -29.985  1.00  0.00     0.184 HD
BRANCH  25  33
HETATM   33  N6  UNL     1     -48.657  44.231 -35.328  1.00  0.00    -0.234 N 
ATOM     34  H62 UNL     1     -48.785  43.476 -36.002  1.00  0.00     0.174 HD
ATOM     35  H61 UNL     1     -49.037  45.162 -35.503  1.00  0.00     0.174 HD
ENDBRANCH  25  33
ENDBRANCH   1  19
TORSDOF 14
ENDMDL
