MODEL 1
REMARK VINA RESULT: -6.310008524      0.000      0.000
REMARK  12 active torsions:
REMARK  status: ('A' for Active; 'I' for Inactive)
REMARK       I    between atoms: C1_4  and  N3_6 
REMARK    1  A    between atoms: N3_6  and  C2_8 
REMARK    2  A    between atoms: C5_16  and  N6_17 
REMARK    3  A    between atoms: N6_17  and  C6_19 
REMARK    4  A    between atoms: C6_19  and  C7_20 
REMARK    5  A    between atoms: C7_20  and  N7_21 
REMARK    6  A    between atoms: N7_21  and  C8_24 
REMARK    7  A    between atoms: C8_24  and  C9_25 
REMARK    8  A    between atoms: C9_25  and  N8_26 
REMARK    9  A    between atoms: N8_26  and  C10_29 
REMARK   10  A    between atoms: C10_29  and  C11_30 
REMARK   11  A    between atoms: C11_30  and  N9_31 
REMARK   12  A    between atoms: C13_38  and  N11_39 
ROOT
HETATM    1  C2  UNL     1     -42.605  39.969 -31.608  1.00  0.00     0.144 A 
HETATM    2  N4  UNL     1     -42.359  41.280 -31.397  1.00  0.00    -0.334 N 
ATOM      3  H4  UNL     1     -41.594  41.641 -30.826  1.00  0.00     0.168 HD
HETATM    4  C3  UNL     1     -43.259  42.047 -32.042  1.00  0.00     0.133 A 
HETATM    5  C4  UNL     1     -43.467  43.389 -32.158  1.00  0.00     0.288 A 
HETATM    6  O1  UNL     1     -42.693  44.188 -31.569  1.00  0.00    -0.265 OA
HETATM    7  N5  UNL     1     -44.484  43.854 -32.892  1.00  0.00    -0.154 N 
ATOM      8  H5  UNL     1     -44.622  44.862 -32.965  1.00  0.00     0.187 HD
HETATM    9  C5  UNL     1     -45.317  43.048 -33.524  1.00  0.00     0.681 A 
HETATM   10  N10 UNL     1     -45.147  41.712 -33.435  1.00  0.00    -0.187 N 
ATOM     11  H10 UNL     1     -45.786  41.083 -33.922  1.00  0.00     0.184 HD
HETATM   12  C12 UNL     1     -44.136  41.210 -32.707  1.00  0.00     0.118 A 
HETATM   13  C13 UNL     1     -43.713  39.929 -32.425  1.00  0.00     0.176 A 
ENDROOT
BRANCH   9  14
HETATM   14  N6  UNL     1     -46.318  43.417 -34.227  1.00  0.00    -0.224 N 
ATOM     15  H6  UNL     1     -46.304  43.111 -35.199  1.00  0.00     0.177 HD
BRANCH  14  16
HETATM   16  C6  UNL     1     -47.451  44.194 -33.852  1.00  0.00     0.165 C 
BRANCH  16  17
HETATM   17  C7  UNL     1     -48.398  43.431 -32.941  1.00  0.00     0.252 C 
BRANCH  17  18
HETATM   18  N7  UNL     1     -48.527  44.072 -31.664  1.00  0.00    -0.072 N 
ATOM     19  H72 UNL     1     -48.408  45.082 -31.744  1.00  0.00     0.277 HD
ATOM     20  H71 UNL     1     -49.493  44.048 -31.335  1.00  0.00     0.277 HD
BRANCH  18  21
HETATM   21  C8  UNL     1     -47.636  43.521 -30.691  1.00  0.00     0.259 C 
BRANCH  21  22
HETATM   22  C9  UNL     1     -46.651  44.514 -30.121  1.00  0.00     0.259 C 
BRANCH  22  23
HETATM   23  N8  UNL     1     -46.984  45.870 -30.558  1.00  0.00    -0.072 N 
ATOM     24  H82 UNL     1     -46.513  46.140 -31.421  1.00  0.00     0.277 HD
ATOM     25  H81 UNL     1     -47.941  45.959 -30.899  1.00  0.00     0.277 HD
BRANCH  23  26
HETATM   26  C10 UNL     1     -46.690  46.754 -29.450  1.00  0.00     0.259 C 
BRANCH  26  27
HETATM   27  C11 UNL     1     -46.104  45.988 -28.282  1.00  0.00     0.257 C 
BRANCH  27  28
HETATM   28  N9  UNL     1     -46.546  46.569 -27.035  1.00  0.00    -0.078 N 
ATOM     29  H93 UNL     1     -47.015  47.464 -27.176  1.00  0.00     0.274 HD
ATOM     30  H92 UNL     1     -47.326  46.054 -26.628  1.00  0.00     0.274 HD
ATOM     31  H91 UNL     1     -45.761  46.647 -26.388  1.00  0.00     0.274 HD
ENDBRANCH  27  28
ENDBRANCH  26  27
ENDBRANCH  23  26
ENDBRANCH  22  23
ENDBRANCH  21  22
ENDBRANCH  18  21
ENDBRANCH  17  18
ENDBRANCH  16  17
ENDBRANCH  14  16
ENDBRANCH   9  14
BRANCH  13  32
HETATM   32  N11 UNL     1     -44.382  38.779 -32.939  1.00  0.00    -0.109 N 
HETATM   33  O2  UNL     1     -44.671  38.633 -34.140  1.00  0.00    -0.532 OA
HETATM   34  O3  UNL     1     -44.722  37.788 -32.067  1.00  0.00    -0.532 OA
ENDBRANCH  13  32
BRANCH   1  35
HETATM   35  N3  UNL     1     -41.911  38.836 -31.116  1.00  0.00    -0.315 N 
HETATM   36  C1  UNL     1     -41.081  37.994 -31.889  1.00  0.00     0.187 C 
HETATM   37  N1  UNL     1     -40.180  38.488 -32.641  1.00  0.00    -0.373 N 
HETATM   38  N2  UNL     1     -41.268  36.588 -31.813  1.00  0.00    -0.064 NA
ATOM     39  H12 UNL     1     -39.581  37.881 -33.199  1.00  0.00     0.158 HD
ATOM     40  H11 UNL     1     -40.046  39.498 -32.695  1.00  0.00     0.158 HD
ATOM     41  H3  UNL     1     -42.020  38.609 -30.128  1.00  0.00     0.170 HD
ENDBRANCH   1  35
TORSDOF 12
ENDMDL
MODEL 2
REMARK VINA RESULT: -6.290012476      1.965      2.519
REMARK  12 active torsions:
REMARK  status: ('A' for Active; 'I' for Inactive)
REMARK       I    between atoms: C1_4  and  N3_6 
REMARK    1  A    between atoms: N3_6  and  C2_8 
REMARK    2  A    between atoms: C5_16  and  N6_17 
REMARK    3  A    between atoms: N6_17  and  C6_19 
REMARK    4  A    between atoms: C6_19  and  C7_20 
REMARK    5  A    between atoms: C7_20  and  N7_21 
REMARK    6  A    between atoms: N7_21  and  C8_24 
REMARK    7  A    between atoms: C8_24  and  C9_25 
REMARK    8  A    between atoms: C9_25  and  N8_26 
REMARK    9  A    between atoms: N8_26  and  C10_29 
REMARK   10  A    between atoms: C10_29  and  C11_30 
REMARK   11  A    between atoms: C11_30  and  N9_31 
REMARK   12  A    between atoms: C13_38  and  N11_39 
ROOT
HETATM    1  C2  UNL     1     -41.678  38.627 -33.149  1.00  0.00     0.144 A 
HETATM    2  N4  UNL     1     -41.287  39.880 -33.468  1.00  0.00    -0.334 N 
ATOM      3  H4  UNL     1     -40.321  40.159 -33.639  1.00  0.00     0.168 HD
HETATM    4  C3  UNL     1     -42.344  40.712 -33.530  1.00  0.00     0.133 A 
HETATM    5  C4  UNL     1     -42.507  42.038 -33.798  1.00  0.00     0.288 A 
HETATM    6  O1  UNL     1     -41.499  42.742 -34.066  1.00  0.00    -0.265 OA
HETATM    7  N5  UNL     1     -43.727  42.588 -33.776  1.00  0.00    -0.154 N 
ATOM      8  H5  UNL     1     -43.825  43.583 -33.979  1.00  0.00     0.187 HD
HETATM    9  C5  UNL     1     -44.807  41.881 -33.500  1.00  0.00     0.681 A 
HETATM   10  N10 UNL     1     -44.691  40.564 -33.229  1.00  0.00    -0.187 N 
ATOM     11  H10 UNL     1     -45.522  40.012 -33.015  1.00  0.00     0.184 HD
HETATM   12  C12 UNL     1     -43.482  39.980 -33.242  1.00  0.00     0.118 A 
HETATM   13  C13 UNL     1     -43.047  38.693 -33.009  1.00  0.00     0.176 A 
ENDROOT
BRANCH   9  14
HETATM   14  N6  UNL     1     -45.999  42.339 -33.444  1.00  0.00    -0.224 N 
ATOM     15  H6  UNL     1     -46.735  41.634 -33.416  1.00  0.00     0.177 HD
BRANCH  14  16
HETATM   16  C6  UNL     1     -46.450  43.689 -33.414  1.00  0.00     0.165 C 
BRANCH  16  17
HETATM   17  C7  UNL     1     -47.927  43.797 -33.075  1.00  0.00     0.252 C 
BRANCH  17  18
HETATM   18  N7  UNL     1     -48.183  43.414 -31.716  1.00  0.00    -0.072 N 
ATOM     19  H72 UNL     1     -49.177  43.479 -31.495  1.00  0.00     0.277 HD
ATOM     20  H71 UNL     1     -48.052  42.411 -31.584  1.00  0.00     0.277 HD
BRANCH  18  21
HETATM   21  C8  UNL     1     -47.396  44.166 -30.787  1.00  0.00     0.259 C 
BRANCH  21  22
HETATM   22  C9  UNL     1     -46.872  43.357 -29.624  1.00  0.00     0.259 C 
BRANCH  22  23
HETATM   23  N8  UNL     1     -45.675  42.613 -30.018  1.00  0.00    -0.072 N 
ATOM     24  H82 UNL     1     -45.428  41.874 -29.360  1.00  0.00     0.277 HD
ATOM     25  H81 UNL     1     -45.823  42.016 -30.832  1.00  0.00     0.277 HD
BRANCH  23  26
HETATM   26  C10 UNL     1     -44.618  43.584 -30.208  1.00  0.00     0.259 C 
BRANCH  26  27
HETATM   27  C11 UNL     1     -43.261  42.914 -30.234  1.00  0.00     0.257 C 
BRANCH  27  28
HETATM   28  N9  UNL     1     -43.411  41.483 -30.103  1.00  0.00    -0.078 N 
ATOM     29  H93 UNL     1     -43.780  41.219 -29.189  1.00  0.00     0.274 HD
ATOM     30  H92 UNL     1     -44.172  41.124 -30.680  1.00  0.00     0.274 HD
ATOM     31  H91 UNL     1     -42.526  41.017 -30.306  1.00  0.00     0.274 HD
ENDBRANCH  27  28
ENDBRANCH  26  27
ENDBRANCH  23  26
ENDBRANCH  22  23
ENDBRANCH  21  22
ENDBRANCH  18  21
ENDBRANCH  17  18
ENDBRANCH  16  17
ENDBRANCH  14  16
ENDBRANCH   9  14
BRANCH  13  32
HETATM   32  N11 UNL     1     -43.945  37.637 -32.672  1.00  0.00    -0.109 N 
HETATM   33  O2  UNL     1     -45.179  37.718 -32.804  1.00  0.00    -0.532 OA
HETATM   34  O3  UNL     1     -43.421  36.479 -32.178  1.00  0.00    -0.532 OA
ENDBRANCH  13  32
BRANCH   1  35
HETATM   35  N3  UNL     1     -40.894  37.460 -32.976  1.00  0.00    -0.315 N 
HETATM   36  C1  UNL     1     -40.151  37.145 -31.817  1.00  0.00     0.187 C 
HETATM   37  N1  UNL     1     -40.689  37.215 -30.666  1.00  0.00    -0.373 N 
HETATM   38  N2  UNL     1     -38.794  36.749 -31.958  1.00  0.00    -0.064 NA
ATOM     39  H12 UNL     1     -40.152  36.989 -29.828  1.00  0.00     0.158 HD
ATOM     40  H11 UNL     1     -41.664  37.500 -30.564  1.00  0.00     0.158 HD
ATOM     41  H3  UNL     1     -40.864  36.795 -33.749  1.00  0.00     0.170 HD
ENDBRANCH   1  35
TORSDOF 12
ENDMDL
MODEL 3
REMARK VINA RESULT: -6.191634213      2.545      5.022
REMARK  12 active torsions:
REMARK  status: ('A' for Active; 'I' for Inactive)
REMARK       I    between atoms: C1_4  and  N3_6 
REMARK    1  A    between atoms: N3_6  and  C2_8 
REMARK    2  A    between atoms: C5_16  and  N6_17 
REMARK    3  A    between atoms: N6_17  and  C6_19 
REMARK    4  A    between atoms: C6_19  and  C7_20 
REMARK    5  A    between atoms: C7_20  and  N7_21 
REMARK    6  A    between atoms: N7_21  and  C8_24 
REMARK    7  A    between atoms: C8_24  and  C9_25 
REMARK    8  A    between atoms: C9_25  and  N8_26 
REMARK    9  A    between atoms: N8_26  and  C10_29 
REMARK   10  A    between atoms: C10_29  and  C11_30 
REMARK   11  A    between atoms: C11_30  and  N9_31 
REMARK   12  A    between atoms: C13_38  and  N11_39 
ROOT
HETATM    1  C2  UNL     1     -41.797  35.615 -31.951  1.00  0.00     0.144 A 
HETATM    2  N4  UNL     1     -43.018  36.005 -32.380  1.00  0.00    -0.334 N 
ATOM      3  H4  UNL     1     -43.711  35.382 -32.795  1.00  0.00     0.168 HD
HETATM    4  C3  UNL     1     -43.195  37.325 -32.188  1.00  0.00     0.133 A 
HETATM    5  C4  UNL     1     -44.208  38.203 -32.438  1.00  0.00     0.288 A 
HETATM    6  O1  UNL     1     -45.270  37.786 -32.966  1.00  0.00    -0.265 OA
HETATM    7  N5  UNL     1     -44.073  39.497 -32.126  1.00  0.00    -0.154 N 
ATOM      8  H5  UNL     1     -44.843  40.137 -32.322  1.00  0.00     0.187 HD
HETATM    9  C5  UNL     1     -42.973  39.972 -31.571  1.00  0.00     0.681 A 
HETATM   10  N10 UNL     1     -41.946  39.137 -31.306  1.00  0.00    -0.187 N 
ATOM     11  H10 UNL     1     -41.093  39.497 -30.876  1.00  0.00     0.184 HD
HETATM   12  C12 UNL     1     -42.047  37.832 -31.607  1.00  0.00     0.118 A 
HETATM   13  C13 UNL     1     -41.195  36.757 -31.469  1.00  0.00     0.176 A 
ENDROOT
BRANCH   9  14
HETATM   14  N6  UNL     1     -42.766  41.194 -31.261  1.00  0.00    -0.224 N 
ATOM     15  H6  UNL     1     -42.068  41.675 -31.828  1.00  0.00     0.177 HD
BRANCH  14  16
HETATM   16  C6  UNL     1     -43.367  41.984 -30.241  1.00  0.00     0.165 C 
BRANCH  16  17
HETATM   17  C7  UNL     1     -44.473  42.877 -30.778  1.00  0.00     0.252 C 
BRANCH  17  18
HETATM   18  N7  UNL     1     -45.728  42.597 -30.142  1.00  0.00    -0.072 N 
ATOM     19  H72 UNL     1     -46.226  41.847 -30.623  1.00  0.00     0.277 HD
ATOM     20  H71 UNL     1     -45.591  42.146 -29.237  1.00  0.00     0.277 HD
BRANCH  18  21
HETATM   21  C8  UNL     1     -46.543  43.765 -30.021  1.00  0.00     0.259 C 
BRANCH  21  22
HETATM   22  C9  UNL     1     -47.636  43.869 -31.059  1.00  0.00     0.259 C 
BRANCH  22  23
HETATM   23  N8  UNL     1     -47.407  45.025 -31.926  1.00  0.00    -0.072 N 
ATOM     24  H82 UNL     1     -48.211  45.649 -31.983  1.00  0.00     0.277 HD
ATOM     25  H81 UNL     1     -46.749  45.698 -31.534  1.00  0.00     0.277 HD
BRANCH  23  26
HETATM   26  C10 UNL     1     -46.994  44.510 -33.215  1.00  0.00     0.259 C 
BRANCH  26  27
HETATM   27  C11 UNL     1     -48.186  44.298 -34.125  1.00  0.00     0.257 C 
BRANCH  27  28
HETATM   28  N9  UNL     1     -47.743  43.855 -35.427  1.00  0.00    -0.078 N 
ATOM     29  H93 UNL     1     -47.870  44.574 -36.139  1.00  0.00     0.274 HD
ATOM     30  H92 UNL     1     -46.728  43.772 -35.478  1.00  0.00     0.274 HD
ATOM     31  H91 UNL     1     -48.211  42.983 -35.677  1.00  0.00     0.274 HD
ENDBRANCH  27  28
ENDBRANCH  26  27
ENDBRANCH  23  26
ENDBRANCH  22  23
ENDBRANCH  21  22
ENDBRANCH  18  21
ENDBRANCH  17  18
ENDBRANCH  16  17
ENDBRANCH  14  16
ENDBRANCH   9  14
BRANCH  13  32
HETATM   32  N11 UNL     1     -39.893  36.889 -30.903  1.00  0.00    -0.109 N 
HETATM   33  O2  UNL     1     -38.861  36.459 -31.450  1.00  0.00    -0.532 OA
HETATM   34  O3  UNL     1     -39.773  37.518 -29.700  1.00  0.00    -0.532 OA
ENDBRANCH  13  32
BRANCH   1  35
HETATM   35  N3  UNL     1     -41.208  34.327 -31.971  1.00  0.00    -0.315 N 
HETATM   36  C1  UNL     1     -40.835  33.588 -30.827  1.00  0.00     0.187 C 
HETATM   37  N1  UNL     1     -41.650  33.436 -29.861  1.00  0.00    -0.373 N 
HETATM   38  N2  UNL     1     -39.535  33.016 -30.773  1.00  0.00    -0.064 NA
ATOM     39  H12 UNL     1     -41.380  32.902 -29.035  1.00  0.00     0.158 HD
ATOM     40  H11 UNL     1     -42.583  33.847 -29.900  1.00  0.00     0.158 HD
ATOM     41  H3  UNL     1     -41.040  33.901 -32.882  1.00  0.00     0.170 HD
ENDBRANCH   1  35
TORSDOF 12
ENDMDL
MODEL 4
REMARK VINA RESULT: -6.188899721      2.024      3.306
REMARK  12 active torsions:
REMARK  status: ('A' for Active; 'I' for Inactive)
REMARK       I    between atoms: C1_4  and  N3_6 
REMARK    1  A    between atoms: N3_6  and  C2_8 
REMARK    2  A    between atoms: C5_16  and  N6_17 
REMARK    3  A    between atoms: N6_17  and  C6_19 
REMARK    4  A    between atoms: C6_19  and  C7_20 
REMARK    5  A    between atoms: C7_20  and  N7_21 
REMARK    6  A    between atoms: N7_21  and  C8_24 
REMARK    7  A    between atoms: C8_24  and  C9_25 
REMARK    8  A    between atoms: C9_25  and  N8_26 
REMARK    9  A    between atoms: N8_26  and  C10_29 
REMARK   10  A    between atoms: C10_29  and  C11_30 
REMARK   11  A    between atoms: C11_30  and  N9_31 
REMARK   12  A    between atoms: C13_38  and  N11_39 
ROOT
HETATM    1  C2  UNL     1     -41.250  38.212 -32.335  1.00  0.00     0.144 A 
HETATM    2  N4  UNL     1     -40.634  39.397 -32.133  1.00  0.00    -0.334 N 
ATOM      3  H4  UNL     1     -39.630  39.551 -32.229  1.00  0.00     0.168 HD
HETATM    4  C3  UNL     1     -41.523  40.348 -31.789  1.00  0.00     0.133 A 
HETATM    5  C4  UNL     1     -41.439  41.673 -31.480  1.00  0.00     0.288 A 
HETATM    6  O1  UNL     1     -40.316  42.239 -31.491  1.00  0.00    -0.265 OA
HETATM    7  N5  UNL     1     -42.540  42.365 -31.166  1.00  0.00    -0.154 N 
ATOM      8  H5  UNL     1     -42.454  43.355 -30.937  1.00  0.00     0.187 HD
HETATM    9  C5  UNL     1     -43.736  41.804 -31.143  1.00  0.00     0.681 A 
HETATM   10  N10 UNL     1     -43.864  40.495 -31.444  1.00  0.00    -0.187 N 
ATOM     11  H10 UNL     1     -44.785  40.056 -31.429  1.00  0.00     0.184 HD
HETATM   12  C12 UNL     1     -42.780  39.770 -31.763  1.00  0.00     0.118 A 
HETATM   13  C13 UNL     1     -42.588  38.448 -32.103  1.00  0.00     0.176 A 
ENDROOT
BRANCH   9  14
HETATM   14  N6  UNL     1     -44.827  42.396 -30.837  1.00  0.00    -0.224 N 
ATOM     15  H6  UNL     1     -45.673  41.970 -31.214  1.00  0.00     0.177 HD
BRANCH  14  16
HETATM   16  C6  UNL     1     -45.034  43.562 -30.047  1.00  0.00     0.165 C 
BRANCH  16  17
HETATM   17  C7  UNL     1     -46.468  43.682 -29.561  1.00  0.00     0.252 C 
BRANCH  17  18
HETATM   18  N7  UNL     1     -47.388  43.093 -30.489  1.00  0.00    -0.072 N 
ATOM     19  H72 UNL     1     -46.914  42.445 -31.119  1.00  0.00     0.277 HD
ATOM     20  H71 UNL     1     -48.015  42.436 -30.023  1.00  0.00     0.277 HD
BRANCH  18  21
HETATM   21  C8  UNL     1     -48.124  44.079 -31.220  1.00  0.00     0.259 C 
BRANCH  21  22
HETATM   22  C9  UNL     1     -48.188  43.827 -32.708  1.00  0.00     0.259 C 
BRANCH  22  23
HETATM   23  N8  UNL     1     -47.565  44.932 -33.439  1.00  0.00    -0.072 N 
ATOM     24  H82 UNL     1     -47.965  45.075 -34.365  1.00  0.00     0.277 HD
ATOM     25  H81 UNL     1     -47.795  45.848 -33.055  1.00  0.00     0.277 HD
BRANCH  23  26
HETATM   26  C10 UNL     1     -46.142  44.668 -33.468  1.00  0.00     0.259 C 
BRANCH  26  27
HETATM   27  C11 UNL     1     -45.353  45.950 -33.630  1.00  0.00     0.257 C 
BRANCH  27  28
HETATM   28  N9  UNL     1     -45.904  46.739 -34.708  1.00  0.00    -0.078 N 
ATOM     29  H93 UNL     1     -46.312  46.155 -35.439  1.00  0.00     0.274 HD
ATOM     30  H92 UNL     1     -46.749  47.235 -34.425  1.00  0.00     0.274 HD
ATOM     31  H91 UNL     1     -45.194  47.372 -35.077  1.00  0.00     0.274 HD
ENDBRANCH  27  28
ENDBRANCH  26  27
ENDBRANCH  23  26
ENDBRANCH  22  23
ENDBRANCH  21  22
ENDBRANCH  18  21
ENDBRANCH  17  18
ENDBRANCH  16  17
ENDBRANCH  14  16
ENDBRANCH   9  14
BRANCH  13  32
HETATM   32  N11 UNL     1     -43.668  37.520 -32.179  1.00  0.00    -0.109 N 
HETATM   33  O2  UNL     1     -44.858  37.860 -32.301  1.00  0.00    -0.532 OA
HETATM   34  O3  UNL     1     -43.379  36.188 -32.114  1.00  0.00    -0.532 OA
ENDBRANCH  13  32
BRANCH   1  35
HETATM   35  N3  UNL     1     -40.693  36.962 -32.701  1.00  0.00    -0.315 N 
HETATM   36  C1  UNL     1     -39.992  36.100 -31.830  1.00  0.00     0.187 C 
HETATM   37  N1  UNL     1     -40.477  35.794 -30.693  1.00  0.00    -0.373 N 
HETATM   38  N2  UNL     1     -38.736  35.579 -32.243  1.00  0.00    -0.064 NA
ATOM     39  H12 UNL     1     -39.969  35.172 -30.063  1.00  0.00     0.158 HD
ATOM     40  H11 UNL     1     -41.378  36.168 -30.396  1.00  0.00     0.158 HD
ATOM     41  H3  UNL     1     -40.808  36.660 -33.668  1.00  0.00     0.170 HD
ENDBRANCH   1  35
TORSDOF 12
ENDMDL
MODEL 5
REMARK VINA RESULT: -6.175872435      4.762      6.572
REMARK  12 active torsions:
REMARK  status: ('A' for Active; 'I' for Inactive)
REMARK       I    between atoms: C1_4  and  N3_6 
REMARK    1  A    between atoms: N3_6  and  C2_8 
REMARK    2  A    between atoms: C5_16  and  N6_17 
REMARK    3  A    between atoms: N6_17  and  C6_19 
REMARK    4  A    between atoms: C6_19  and  C7_20 
REMARK    5  A    between atoms: C7_20  and  N7_21 
REMARK    6  A    between atoms: N7_21  and  C8_24 
REMARK    7  A    between atoms: C8_24  and  C9_25 
REMARK    8  A    between atoms: C9_25  and  N8_26 
REMARK    9  A    between atoms: N8_26  and  C10_29 
REMARK   10  A    between atoms: C10_29  and  C11_30 
REMARK   11  A    between atoms: C11_30  and  N9_31 
REMARK   12  A    between atoms: C13_38  and  N11_39 
ROOT
HETATM    1  C2  UNL     1     -46.946  45.093 -32.189  1.00  0.00     0.144 A 
HETATM    2  N4  UNL     1     -46.051  46.076 -32.428  1.00  0.00    -0.334 N 
ATOM      3  H4  UNL     1     -46.017  46.633 -33.282  1.00  0.00     0.168 HD
HETATM    4  C3  UNL     1     -45.210  46.223 -31.387  1.00  0.00     0.133 A 
HETATM    5  C4  UNL     1     -44.152  47.039 -31.116  1.00  0.00     0.288 A 
HETATM    6  O1  UNL     1     -43.797  47.893 -31.969  1.00  0.00    -0.265 OA
HETATM    7  N5  UNL     1     -43.496  46.933 -29.955  1.00  0.00    -0.154 N 
ATOM      8  H5  UNL     1     -42.707  47.554 -29.774  1.00  0.00     0.187 HD
HETATM    9  C5  UNL     1     -43.840  46.049 -29.036  1.00  0.00     0.681 A 
HETATM   10  N10 UNL     1     -44.882  45.222 -29.263  1.00  0.00    -0.187 N 
ATOM     11  H10 UNL     1     -45.153  44.537 -28.557  1.00  0.00     0.184 HD
HETATM   12  C12 UNL     1     -45.562  45.301 -30.418  1.00  0.00     0.118 A 
HETATM   13  C13 UNL     1     -46.638  44.612 -30.935  1.00  0.00     0.176 A 
ENDROOT
BRANCH   9  14
HETATM   14  N6  UNL     1     -43.252  45.879 -27.914  1.00  0.00    -0.224 N 
ATOM     15  H6  UNL     1     -42.424  45.285 -27.942  1.00  0.00     0.177 HD
BRANCH  14  16
HETATM   16  C6  UNL     1     -43.583  46.397 -26.630  1.00  0.00     0.165 C 
BRANCH  16  17
HETATM   17  C7  UNL     1     -43.983  47.861 -26.683  1.00  0.00     0.252 C 
BRANCH  17  18
HETATM   18  N7  UNL     1     -45.394  48.027 -26.484  1.00  0.00    -0.072 N 
ATOM     19  H72 UNL     1     -45.837  47.144 -26.231  1.00  0.00     0.277 HD
ATOM     20  H71 UNL     1     -45.587  48.556 -25.632  1.00  0.00     0.277 HD
BRANCH  18  21
HETATM   21  C8  UNL     1     -46.033  48.621 -27.618  1.00  0.00     0.259 C 
BRANCH  21  22
HETATM   22  C9  UNL     1     -47.163  47.800 -28.192  1.00  0.00     0.259 C 
BRANCH  22  23
HETATM   23  N8  UNL     1     -47.513  48.280 -29.530  1.00  0.00    -0.072 N 
ATOM     24  H82 UNL     1     -47.507  47.543 -30.234  1.00  0.00     0.277 HD
ATOM     25  H81 UNL     1     -48.496  48.537 -29.619  1.00  0.00     0.277 HD
BRANCH  23  26
HETATM   26  C10 UNL     1     -46.610  49.370 -29.836  1.00  0.00     0.259 C 
BRANCH  26  27
HETATM   27  C11 UNL     1     -47.073  50.133 -31.059  1.00  0.00     0.257 C 
BRANCH  27  28
HETATM   28  N9  UNL     1     -46.261  49.779 -32.201  1.00  0.00    -0.078 N 
ATOM     29  H93 UNL     1     -45.982  48.798 -32.183  1.00  0.00     0.274 HD
ATOM     30  H92 UNL     1     -46.802  49.764 -33.065  1.00  0.00     0.274 HD
ATOM     31  H91 UNL     1     -45.457  50.404 -32.266  1.00  0.00     0.274 HD
ENDBRANCH  27  28
ENDBRANCH  26  27
ENDBRANCH  23  26
ENDBRANCH  22  23
ENDBRANCH  21  22
ENDBRANCH  18  21
ENDBRANCH  17  18
ENDBRANCH  16  17
ENDBRANCH  14  16
ENDBRANCH   9  14
BRANCH  13  32
HETATM   32  N11 UNL     1     -47.284  43.562 -30.217  1.00  0.00    -0.109 N 
HETATM   33  O2  UNL     1     -47.068  43.320 -29.016  1.00  0.00    -0.532 OA
HETATM   34  O3  UNL     1     -48.183  42.784 -30.883  1.00  0.00    -0.532 OA
ENDBRANCH  13  32
BRANCH   1  35
HETATM   35  N3  UNL     1     -47.993  44.612 -33.014  1.00  0.00    -0.315 N 
HETATM   36  C1  UNL     1     -47.856  44.256 -34.373  1.00  0.00     0.187 C 
HETATM   37  N1  UNL     1     -46.916  43.484 -34.748  1.00  0.00    -0.373 N 
HETATM   38  N2  UNL     1     -48.786  44.773 -35.315  1.00  0.00    -0.064 NA
ATOM     39  H12 UNL     1     -46.817  43.227 -35.730  1.00  0.00     0.158 HD
ATOM     40  H11 UNL     1     -46.249  43.112 -34.072  1.00  0.00     0.158 HD
ATOM     41  H3  UNL     1     -48.917  44.517 -32.594  1.00  0.00     0.170 HD
ENDBRANCH   1  35
TORSDOF 12
ENDMDL
