MODEL 1
REMARK VINA RESULT: -6.120912644      0.000      0.000
REMARK  0 active torsions:
REMARK  status: ('A' for Active; 'I' for Inactive)
REMARK       I    between atoms: C1_4  and  N3_6 
ROOT
HETATM    1  N1  UNL     1     -11.406   5.992 -29.682  1.00  0.00    -0.373 N 
ATOM      2  H11 UNL     1     -10.623   6.360 -30.222  1.00  0.00     0.158 HD
ATOM      3  H12 UNL     1     -12.229   6.569 -29.508  1.00  0.00     0.158 HD
HETATM    4  C1  UNL     1     -11.352   4.797 -29.219  1.00  0.00     0.187 C 
HETATM    5  N2  UNL     1     -12.432   4.289 -28.473  1.00  0.00    -0.064 NA
HETATM    6  N3  UNL     1     -10.210   3.997 -29.461  1.00  0.00    -0.311 N 
ATOM      7  H3  UNL     1     -10.254   3.152 -30.031  1.00  0.00     0.170 HD
HETATM    8  C2  UNL     1      -9.093   4.404 -28.910  1.00  0.00     0.193 A 
HETATM    9  N4  UNL     1      -7.755   3.959 -28.868  1.00  0.00    -0.278 N 
ATOM     10  H4  UNL     1      -7.272   3.159 -29.277  1.00  0.00     0.189 HD
HETATM   11  N5  UNL     1      -7.337   5.014 -28.063  1.00  0.00    -0.262 N 
ATOM     12  H5  UNL     1      -6.454   5.307 -27.646  1.00  0.00     0.190 HD
HETATM   13  C3  UNL     1      -8.664   5.505 -28.071  1.00  0.00     0.305 A 
HETATM   14  O1  UNL     1      -9.295   6.492 -27.576  1.00  0.00    -0.263 OA
ENDROOT
TORSDOF 0
ENDMDL
MODEL 2
REMARK VINA RESULT: -6.067193233      1.649      3.751
REMARK  0 active torsions:
REMARK  status: ('A' for Active; 'I' for Inactive)
REMARK       I    between atoms: C1_4  and  N3_6 
ROOT
HETATM    1  N1  UNL     1      -9.293   5.600 -26.644  1.00  0.00    -0.373 N 
ATOM      2  H11 UNL     1     -10.128   5.059 -26.422  1.00  0.00     0.158 HD
ATOM      3  H12 UNL     1      -8.744   6.031 -25.900  1.00  0.00     0.158 HD
HETATM    4  C1  UNL     1      -8.931   5.738 -27.867  1.00  0.00     0.187 C 
HETATM    5  N2  UNL     1      -7.778   6.486 -28.173  1.00  0.00    -0.064 NA
HETATM    6  N3  UNL     1      -9.691   5.140 -28.900  1.00  0.00    -0.311 N 
ATOM      7  H3  UNL     1      -9.316   4.391 -29.482  1.00  0.00     0.170 HD
HETATM    8  C2  UNL     1     -10.906   5.604 -29.066  1.00  0.00     0.193 A 
HETATM    9  N4  UNL     1     -11.991   5.336 -29.926  1.00  0.00    -0.278 N 
ATOM     10  H4  UNL     1     -12.130   4.674 -30.690  1.00  0.00     0.189 HD
HETATM   11  N5  UNL     1     -12.802   6.307 -29.349  1.00  0.00    -0.262 N 
ATOM     12  H5  UNL     1     -13.751   6.649 -29.500  1.00  0.00     0.190 HD
HETATM   13  C3  UNL     1     -11.746   6.617 -28.460  1.00  0.00     0.305 A 
HETATM   14  O1  UNL     1     -11.542   7.429 -27.503  1.00  0.00    -0.263 OA
ENDROOT
TORSDOF 0
ENDMDL
MODEL 3
REMARK VINA RESULT: -5.904839597      2.120      2.622
REMARK  0 active torsions:
REMARK  status: ('A' for Active; 'I' for Inactive)
REMARK       I    between atoms: C1_4  and  N3_6 
ROOT
HETATM    1  N1  UNL     1     -11.697   5.156 -26.567  1.00  0.00    -0.373 N 
ATOM      2  H11 UNL     1     -11.306   4.229 -26.404  1.00  0.00     0.158 HD
ATOM      3  H12 UNL     1     -12.703   5.310 -26.507  1.00  0.00     0.158 HD
HETATM    4  C1  UNL     1     -10.916   6.134 -26.848  1.00  0.00     0.187 C 
HETATM    5  N2  UNL     1     -11.456   7.415 -27.074  1.00  0.00    -0.064 NA
HETATM    6  N3  UNL     1      -9.519   5.922 -26.931  1.00  0.00    -0.311 N 
ATOM      7  H3  UNL     1      -8.868   6.352 -26.274  1.00  0.00     0.170 HD
HETATM    8  C2  UNL     1      -9.111   5.141 -27.901  1.00  0.00     0.193 A 
HETATM    9  N4  UNL     1      -7.871   4.654 -28.365  1.00  0.00    -0.278 N 
ATOM     10  H4  UNL     1      -6.908   4.786 -28.054  1.00  0.00     0.189 HD
HETATM   11  N5  UNL     1      -8.444   3.928 -29.403  1.00  0.00    -0.262 N 
ATOM     12  H5  UNL     1      -8.098   3.324 -30.149  1.00  0.00     0.190 HD
HETATM   13  C3  UNL     1      -9.715   4.386 -28.981  1.00  0.00     0.305 A 
HETATM   14  O1  UNL     1     -10.925   4.241 -29.343  1.00  0.00    -0.263 OA
ENDROOT
TORSDOF 0
ENDMDL
MODEL 4
REMARK VINA RESULT: -5.715935287      1.952      2.516
REMARK  0 active torsions:
REMARK  status: ('A' for Active; 'I' for Inactive)
REMARK       I    between atoms: C1_4  and  N3_6 
ROOT
HETATM    1  N1  UNL     1     -10.581   4.297 -29.826  1.00  0.00    -0.373 N 
ATOM      2  H11 UNL     1      -9.883   3.763 -29.309  1.00  0.00     0.158 HD
ATOM      3  H12 UNL     1     -10.424   4.543 -30.803  1.00  0.00     0.158 HD
HETATM    4  C1  UNL     1     -11.663   4.660 -29.240  1.00  0.00     0.187 C 
HETATM    5  N2  UNL     1     -12.627   5.398 -29.953  1.00  0.00    -0.064 NA
HETATM    6  N3  UNL     1     -11.882   4.318 -27.885  1.00  0.00    -0.311 N 
ATOM      7  H3  UNL     1     -12.629   3.684 -27.602  1.00  0.00     0.170 HD
HETATM    8  C2  UNL     1     -11.069   4.864 -27.013  1.00  0.00     0.193 A 
HETATM    9  N4  UNL     1     -10.900   4.826 -25.614  1.00  0.00    -0.278 N 
ATOM     10  H4  UNL     1     -11.390   4.339 -24.864  1.00  0.00     0.189 HD
HETATM   11  N5  UNL     1      -9.817   5.700 -25.633  1.00  0.00    -0.262 N 
ATOM     12  H5  UNL     1      -9.199   6.110 -24.933  1.00  0.00     0.190 HD
HETATM   13  C3  UNL     1      -9.941   5.774 -27.040  1.00  0.00     0.305 A 
HETATM   14  O1  UNL     1      -9.350   6.367 -27.998  1.00  0.00    -0.263 OA
ENDROOT
TORSDOF 0
ENDMDL
MODEL 5
REMARK VINA RESULT: -5.498018287      2.534      2.843
REMARK  0 active torsions:
REMARK  status: ('A' for Active; 'I' for Inactive)
REMARK       I    between atoms: C1_4  and  N3_6 
ROOT
HETATM    1  N1  UNL     1     -11.148   6.934 -26.339  1.00  0.00    -0.373 N 
ATOM      2  H11 UNL     1     -11.516   6.925 -27.290  1.00  0.00     0.158 HD
ATOM      3  H12 UNL     1     -11.040   7.814 -25.836  1.00  0.00     0.158 HD
HETATM    4  C1  UNL     1     -10.822   5.829 -25.774  1.00  0.00     0.187 C 
HETATM    5  N2  UNL     1     -10.315   5.842 -24.461  1.00  0.00    -0.064 NA
HETATM    6  N3  UNL     1     -10.973   4.607 -26.472  1.00  0.00    -0.311 N 
ATOM      7  H3  UNL     1     -11.635   3.892 -26.170  1.00  0.00     0.170 HD
HETATM    8  C2  UNL     1     -10.213   4.447 -27.527  1.00  0.00     0.193 A 
HETATM    9  N4  UNL     1     -10.015   3.444 -28.499  1.00  0.00    -0.278 N 
ATOM     10  H4  UNL     1     -10.433   2.526 -28.649  1.00  0.00     0.189 HD
HETATM   11  N5  UNL     1      -9.040   4.170 -29.176  1.00  0.00    -0.262 N 
ATOM     12  H5  UNL     1      -8.461   4.018 -30.002  1.00  0.00     0.190 HD
HETATM   13  C3  UNL     1      -9.198   5.208 -28.228  1.00  0.00     0.305 A 
HETATM   14  O1  UNL     1      -8.698   6.358 -28.014  1.00  0.00    -0.263 OA
ENDROOT
TORSDOF 0
ENDMDL
