MODEL 1
REMARK VINA RESULT: -5.350281347      0.000      0.000
REMARK  1 active torsions:
REMARK  status: ('A' for Active; 'I' for Inactive)
REMARK       I    between atoms: C1_4  and  N3_6 
REMARK       I    between atoms: N3_6  and  C2_7 
REMARK    1  A    between atoms: C2_7  and  C3_9 
ROOT
HETATM    1  N1  UNL     1      -7.948   4.547 -28.290  1.00  0.00    -0.362 N 
ATOM      2  H11 UNL     1      -8.681   3.896 -28.572  1.00  0.00     0.159 HD
ATOM      3  H12 UNL     1      -6.975   4.355 -28.049  1.00  0.00     0.159 HD
HETATM    4  C1  UNL     1      -8.352   5.813 -28.251  1.00  0.00     0.264 C 
HETATM    5  N2  UNL     1      -7.339   6.713 -27.861  1.00  0.00    -0.049 NA
HETATM    6  N3  UNL     1      -9.632   6.066 -28.567  1.00  0.00    -0.330 NA
HETATM    7  C2  UNL     1     -10.927   6.322 -28.888  1.00  0.00     0.384 C 
HETATM    8  O1  UNL     1     -11.512   7.419 -28.928  1.00  0.00    -0.246 OA
ENDROOT
BRANCH   7   9
HETATM    9  C3  UNL     1     -11.796   5.157 -29.247  1.00  0.00     0.337 C 
HETATM   10  N4  UNL     1     -11.426   3.830 -28.945  1.00  0.00    -0.052 NA
HETATM   11  O2  UNL     1     -12.877   5.350 -29.828  1.00  0.00    -0.264 OA
ENDBRANCH   7   9
TORSDOF 1
ENDMDL
MODEL 2
REMARK VINA RESULT: -5.326993169      1.634      1.634
REMARK  1 active torsions:
REMARK  status: ('A' for Active; 'I' for Inactive)
REMARK       I    between atoms: C1_4  and  N3_6 
REMARK       I    between atoms: N3_6  and  C2_7 
REMARK    1  A    between atoms: C2_7  and  C3_9 
ROOT
HETATM    1  N1  UNL     1      -8.344   4.640 -28.565  1.00  0.00    -0.362 N 
ATOM      2  H11 UNL     1      -9.168   4.039 -28.541  1.00  0.00     0.159 HD
ATOM      3  H12 UNL     1      -7.393   4.415 -28.860  1.00  0.00     0.159 HD
HETATM    4  C1  UNL     1      -8.583   5.882 -28.157  1.00  0.00     0.264 C 
HETATM    5  N2  UNL     1      -7.444   6.713 -28.190  1.00  0.00    -0.049 NA
HETATM    6  N3  UNL     1      -9.834   6.178 -27.768  1.00  0.00    -0.330 NA
HETATM    7  C2  UNL     1     -11.100   6.477 -27.376  1.00  0.00     0.384 C 
HETATM    8  O1  UNL     1     -11.548   7.564 -26.971  1.00  0.00    -0.246 OA
ENDROOT
BRANCH   7   9
HETATM    9  C3  UNL     1     -12.118   5.381 -27.423  1.00  0.00     0.337 C 
HETATM   10  N4  UNL     1     -12.332   4.611 -28.586  1.00  0.00    -0.052 NA
HETATM   11  O2  UNL     1     -12.802   5.131 -26.417  1.00  0.00    -0.264 OA
ENDBRANCH   7   9
TORSDOF 1
ENDMDL
MODEL 3
REMARK VINA RESULT: -5.226489265      1.152      1.152
REMARK  1 active torsions:
REMARK  status: ('A' for Active; 'I' for Inactive)
REMARK       I    between atoms: C1_4  and  N3_6 
REMARK       I    between atoms: N3_6  and  C2_7 
REMARK    1  A    between atoms: C2_7  and  C3_9 
ROOT
HETATM    1  N1  UNL     1      -7.926   4.156 -28.712  1.00  0.00    -0.362 N 
ATOM      2  H11 UNL     1      -8.711   3.605 -29.060  1.00  0.00     0.159 HD
ATOM      3  H12 UNL     1      -6.946   3.887 -28.615  1.00  0.00     0.159 HD
HETATM    4  C1  UNL     1      -8.262   5.391 -28.354  1.00  0.00     0.264 C 
HETATM    5  N2  UNL     1      -7.177   6.150 -27.872  1.00  0.00    -0.049 NA
HETATM    6  N3  UNL     1      -9.552   5.744 -28.481  1.00  0.00    -0.330 NA
HETATM    7  C2  UNL     1     -10.856   6.102 -28.611  1.00  0.00     0.384 C 
HETATM    8  O1  UNL     1     -11.388   7.195 -28.349  1.00  0.00    -0.246 OA
ENDROOT
BRANCH   7   9
HETATM    9  C3  UNL     1     -11.809   5.073 -29.135  1.00  0.00     0.337 C 
HETATM   10  N4  UNL     1     -12.926   5.422 -29.922  1.00  0.00    -0.052 NA
HETATM   11  O2  UNL     1     -11.622   3.872 -28.875  1.00  0.00    -0.264 OA
ENDBRANCH   7   9
TORSDOF 1
ENDMDL
MODEL 4
REMARK VINA RESULT: -5.112355000      2.111      3.984
REMARK  1 active torsions:
REMARK  status: ('A' for Active; 'I' for Inactive)
REMARK       I    between atoms: C1_4  and  N3_6 
REMARK       I    between atoms: N3_6  and  C2_7 
REMARK    1  A    between atoms: C2_7  and  C3_9 
ROOT
HETATM    1  N1  UNL     1     -11.035   3.924 -30.533  1.00  0.00    -0.362 N 
ATOM      2  H11 UNL     1     -10.026   3.775 -30.496  1.00  0.00     0.159 HD
ATOM      3  H12 UNL     1     -11.721   3.512 -31.166  1.00  0.00     0.159 HD
HETATM    4  C1  UNL     1     -11.480   4.770 -29.610  1.00  0.00     0.264 C 
HETATM    5  N2  UNL     1     -12.873   4.975 -29.662  1.00  0.00    -0.049 NA
HETATM    6  N3  UNL     1     -10.576   5.312 -28.777  1.00  0.00    -0.330 NA
HETATM    7  C2  UNL     1      -9.661   5.860 -27.935  1.00  0.00     0.384 C 
HETATM    8  O1  UNL     1      -9.851   6.658 -27.001  1.00  0.00    -0.246 OA
ENDROOT
BRANCH   7   9
HETATM    9  C3  UNL     1      -8.227   5.476 -28.124  1.00  0.00     0.337 C 
HETATM   10  N4  UNL     1      -7.174   6.382 -27.879  1.00  0.00    -0.052 NA
HETATM   11  O2  UNL     1      -7.941   4.330 -28.508  1.00  0.00    -0.264 OA
ENDBRANCH   7   9
TORSDOF 1
ENDMDL
MODEL 5
REMARK VINA RESULT: -5.080744663      2.907      3.857
REMARK  1 active torsions:
REMARK  status: ('A' for Active; 'I' for Inactive)
REMARK       I    between atoms: C1_4  and  N3_6 
REMARK       I    between atoms: N3_6  and  C2_7 
REMARK    1  A    between atoms: C2_7  and  C3_9 
ROOT
HETATM    1  N1  UNL     1      -9.746   5.634 -24.395  1.00  0.00    -0.362 N 
ATOM      2  H11 UNL     1      -8.798   5.574 -24.766  1.00  0.00     0.159 HD
ATOM      3  H12 UNL     1     -10.058   5.605 -23.424  1.00  0.00     0.159 HD
HETATM    4  C1  UNL     1     -10.674   5.779 -25.335  1.00  0.00     0.264 C 
HETATM    5  N2  UNL     1     -11.984   5.863 -24.821  1.00  0.00    -0.049 NA
HETATM    6  N3  UNL     1     -10.263   5.817 -26.613  1.00  0.00    -0.330 NA
HETATM    7  C2  UNL     1      -9.847   5.856 -27.906  1.00  0.00     0.384 C 
HETATM    8  O1  UNL     1     -10.531   5.993 -28.935  1.00  0.00    -0.246 OA
ENDROOT
BRANCH   7   9
HETATM    9  C3  UNL     1      -8.379   5.719 -28.166  1.00  0.00     0.337 C 
HETATM   10  N4  UNL     1      -7.793   4.480 -28.498  1.00  0.00    -0.052 NA
HETATM   11  O2  UNL     1      -7.644   6.718 -28.089  1.00  0.00    -0.264 OA
ENDBRANCH   7   9
TORSDOF 1
ENDMDL
