MODEL 1
REMARK VINA RESULT: -5.917235606      0.000      0.000
REMARK  2 active torsions:
REMARK  status: ('A' for Active; 'I' for Inactive)
REMARK       I    between atoms: N2_3  and  C2_5 
REMARK    1  A    between atoms: C2_5  and  C3_7 
REMARK       I    between atoms: C3_7  and  N3_9 
REMARK    2  A    between atoms: N3_9  and  N4_11 
ROOT
HETATM    1  C3  UNL     1      -8.232   5.345 -28.113  1.00  0.00     0.327 C 
HETATM    2  O2  UNL     1      -7.878   4.252 -28.601  1.00  0.00    -0.261 OA
HETATM    3  N3  UNL     1      -7.279   6.180 -27.490  1.00  0.00    -0.268 N 
ATOM      4  H3  UNL     1      -7.569   7.073 -27.090  1.00  0.00     0.190 HD
ENDROOT
BRANCH   1   5
HETATM    5  C2  UNL     1      -9.605   5.746 -28.187  1.00  0.00     0.315 C 
HETATM    6  N2  UNL     1     -10.479   5.129 -29.103  1.00  0.00    -0.317 N 
HETATM    7  C1  UNL     1     -11.683   5.545 -29.328  1.00  0.00     0.192 C 
ATOM      8  H2  UNL     1     -10.145   4.312 -29.614  1.00  0.00     0.169 HD
HETATM    9  N1  UNL     1     -12.541   4.905 -30.256  1.00  0.00    -0.097 NA
HETATM   10  O1  UNL     1     -10.034   6.644 -27.439  1.00  0.00    -0.262 OA
ENDBRANCH   1   5
BRANCH   3  11
HETATM   11  N4  UNL     1      -5.953   5.793 -27.419  1.00  0.00    -0.342 N 
ATOM     12  H42 UNL     1      -5.286   6.198 -28.076  1.00  0.00     0.176 HD
ATOM     13  H41 UNL     1      -5.652   5.114 -26.721  1.00  0.00     0.176 HD
ENDBRANCH   3  11
TORSDOF 2
ENDMDL
MODEL 2
REMARK VINA RESULT: -5.489938422      2.927      3.889
REMARK  2 active torsions:
REMARK  status: ('A' for Active; 'I' for Inactive)
REMARK       I    between atoms: N2_3  and  C2_5 
REMARK    1  A    between atoms: C2_5  and  C3_7 
REMARK       I    between atoms: C3_7  and  N3_9 
REMARK    2  A    between atoms: N3_9  and  N4_11 
ROOT
HETATM    1  C3  UNL     1      -9.404   5.230 -27.724  1.00  0.00     0.327 C 
HETATM    2  O2  UNL     1      -8.698   6.209 -28.040  1.00  0.00    -0.261 OA
HETATM    3  N3  UNL     1      -9.259   4.006 -28.413  1.00  0.00    -0.268 N 
ATOM      4  H3  UNL     1      -9.838   3.206 -28.155  1.00  0.00     0.190 HD
ENDROOT
BRANCH   1   5
HETATM    5  C2  UNL     1     -10.359   5.353 -26.664  1.00  0.00     0.315 C 
HETATM    6  N2  UNL     1      -9.934   5.654 -25.355  1.00  0.00    -0.317 N 
HETATM    7  C1  UNL     1     -10.721   5.628 -24.328  1.00  0.00     0.192 C 
ATOM      8  H2  UNL     1      -8.957   5.906 -25.210  1.00  0.00     0.169 HD
HETATM    9  N1  UNL     1     -10.267   5.936 -23.021  1.00  0.00    -0.097 NA
HETATM   10  O1  UNL     1     -11.572   5.195 -26.894  1.00  0.00    -0.262 OA
ENDBRANCH   1   5
BRANCH   3  11
HETATM   11  N4  UNL     1      -8.337   3.887 -29.436  1.00  0.00    -0.342 N 
ATOM     12  H42 UNL     1      -8.230   4.659 -30.095  1.00  0.00     0.176 HD
ATOM     13  H41 UNL     1      -7.775   3.041 -29.527  1.00  0.00     0.176 HD
ENDBRANCH   3  11
TORSDOF 2
ENDMDL
MODEL 3
REMARK VINA RESULT: -5.446322608      0.982      4.630
REMARK  2 active torsions:
REMARK  status: ('A' for Active; 'I' for Inactive)
REMARK       I    between atoms: N2_3  and  C2_5 
REMARK    1  A    between atoms: C2_5  and  C3_7 
REMARK       I    between atoms: C3_7  and  N3_9 
REMARK    2  A    between atoms: N3_9  and  N4_11 
ROOT
HETATM    1  C3  UNL     1      -9.901   5.566 -28.666  1.00  0.00     0.327 C 
HETATM    2  O2  UNL     1     -10.467   6.570 -28.188  1.00  0.00    -0.261 OA
HETATM    3  N3  UNL     1     -10.593   4.732 -29.572  1.00  0.00    -0.268 N 
ATOM      4  H3  UNL     1     -10.130   3.910 -29.962  1.00  0.00     0.190 HD
ENDROOT
BRANCH   1   5
HETATM    5  C2  UNL     1      -8.552   5.264 -28.294  1.00  0.00     0.315 C 
HETATM    6  N2  UNL     1      -7.782   6.206 -27.584  1.00  0.00    -0.317 N 
HETATM    7  C1  UNL     1      -6.517   6.060 -27.352  1.00  0.00     0.192 C 
ATOM      8  H2  UNL     1      -8.245   7.044 -27.234  1.00  0.00     0.169 HD
HETATM    9  N1  UNL     1      -5.766   7.025 -26.634  1.00  0.00    -0.097 NA
HETATM   10  O1  UNL     1      -8.051   4.165 -28.596  1.00  0.00    -0.262 OA
ENDBRANCH   1   5
BRANCH   3  11
HETATM   11  N4  UNL     1     -11.895   5.024 -29.932  1.00  0.00    -0.342 N 
ATOM     12  H42 UNL     1     -12.469   4.288 -30.346  1.00  0.00     0.176 HD
ATOM     13  H41 UNL     1     -12.273   5.960 -29.784  1.00  0.00     0.176 HD
ENDBRANCH   3  11
TORSDOF 2
ENDMDL
MODEL 4
REMARK VINA RESULT: -5.443119895      1.284      1.917
REMARK  2 active torsions:
REMARK  status: ('A' for Active; 'I' for Inactive)
REMARK       I    between atoms: N2_3  and  C2_5 
REMARK    1  A    between atoms: C2_5  and  C3_7 
REMARK       I    between atoms: C3_7  and  N3_9 
REMARK    2  A    between atoms: N3_9  and  N4_11 
ROOT
HETATM    1  C3  UNL     1      -7.644   5.850 -28.159  1.00  0.00     0.327 C 
HETATM    2  O2  UNL     1      -7.964   7.050 -28.287  1.00  0.00    -0.261 OA
HETATM    3  N3  UNL     1      -6.481   5.505 -27.437  1.00  0.00    -0.268 N 
ATOM      4  H3  UNL     1      -6.218   4.525 -27.334  1.00  0.00     0.190 HD
ENDROOT
BRANCH   1   5
HETATM    5  C2  UNL     1      -8.459   4.830 -28.746  1.00  0.00     0.315 C 
HETATM    6  N2  UNL     1      -9.837   5.044 -28.943  1.00  0.00    -0.317 N 
HETATM    7  C1  UNL     1     -10.654   4.115 -29.323  1.00  0.00     0.192 C 
ATOM      8  H2  UNL     1     -10.209   5.979 -28.779  1.00  0.00     0.169 HD
HETATM    9  N1  UNL     1     -12.037   4.358 -29.513  1.00  0.00    -0.097 NA
HETATM   10  O1  UNL     1      -7.952   3.745 -29.087  1.00  0.00    -0.262 OA
ENDBRANCH   1   5
BRANCH   3  11
HETATM   11  N4  UNL     1      -5.694   6.491 -26.870  1.00  0.00    -0.342 N 
ATOM     12  H42 UNL     1      -5.779   7.448 -27.215  1.00  0.00     0.176 HD
ATOM     13  H41 UNL     1      -5.043   6.262 -26.120  1.00  0.00     0.176 HD
ENDBRANCH   3  11
TORSDOF 2
ENDMDL
MODEL 5
REMARK VINA RESULT: -5.436086205      1.158      1.464
REMARK  2 active torsions:
REMARK  status: ('A' for Active; 'I' for Inactive)
REMARK       I    between atoms: N2_3  and  C2_5 
REMARK    1  A    between atoms: C2_5  and  C3_7 
REMARK       I    between atoms: C3_7  and  N3_9 
REMARK    2  A    between atoms: N3_9  and  N4_11 
ROOT
HETATM    1  C3  UNL     1      -8.233   5.780 -28.251  1.00  0.00     0.327 C 
HETATM    2  O2  UNL     1      -8.158   7.014 -28.417  1.00  0.00    -0.261 OA
HETATM    3  N3  UNL     1      -7.086   5.050 -27.866  1.00  0.00    -0.268 N 
ATOM      4  H3  UNL     1      -7.148   4.040 -27.731  1.00  0.00     0.190 HD
ENDROOT
BRANCH   1   5
HETATM    5  C2  UNL     1      -9.482   5.109 -28.452  1.00  0.00     0.315 C 
HETATM    6  N2  UNL     1     -10.526   5.743 -29.152  1.00  0.00    -0.317 N 
HETATM    7  C1  UNL     1     -11.723   5.259 -29.236  1.00  0.00     0.192 C 
ATOM      8  H2  UNL     1     -10.328   6.629 -29.617  1.00  0.00     0.169 HD
HETATM    9  N1  UNL     1     -12.756   5.919 -29.948  1.00  0.00    -0.097 NA
HETATM   10  O1  UNL     1      -9.651   3.958 -28.008  1.00  0.00    -0.262 OA
ENDBRANCH   1   5
BRANCH   3  11
HETATM   11  N4  UNL     1      -5.881   5.698 -27.671  1.00  0.00    -0.342 N 
ATOM     12  H42 UNL     1      -5.863   6.544 -27.101  1.00  0.00     0.176 HD
ATOM     13  H41 UNL     1      -5.026   5.333 -28.091  1.00  0.00     0.176 HD
ENDBRANCH   3  11
TORSDOF 2
ENDMDL
