MODEL 1
REMARK VINA RESULT: -5.964594028      0.000      0.000
REMARK  1 active torsions:
REMARK  status: ('A' for Active; 'I' for Inactive)
REMARK    1  A    between atoms: N1_1  and  C1_4 
ROOT
HETATM    1  C1  UNL     1      -9.724   4.248 -28.437  1.00  0.00     0.183 A 
HETATM    2  N2  UNL     1      -8.580   4.023 -29.081  1.00  0.00    -0.277 N 
ATOM      3  H2  UNL     1      -8.561   3.274 -29.772  1.00  0.00     0.189 HD
HETATM    4  N3  UNL     1      -7.463   4.712 -28.880  1.00  0.00    -0.250 N 
ATOM      5  H3  UNL     1      -6.610   4.501 -29.398  1.00  0.00     0.192 HD
HETATM    6  C2  UNL     1      -7.497   5.701 -27.963  1.00  0.00     0.341 A 
HETATM    7  O1  UNL     1      -6.485   6.407 -27.705  1.00  0.00    -0.245 OA
HETATM    8  N4  UNL     1      -8.640   5.956 -27.291  1.00  0.00    -0.271 N 
ATOM      9  H4  UNL     1      -8.646   6.707 -26.602  1.00  0.00     0.174 HD
HETATM   10  C3  UNL     1      -9.770   5.257 -27.495  1.00  0.00     0.294 A 
HETATM   11  O2  UNL     1     -10.838   5.504 -26.859  1.00  0.00    -0.264 OA
ENDROOT
BRANCH   1  12
HETATM   12  N1  UNL     1     -10.800   3.553 -28.658  1.00  0.00    -0.380 N 
ATOM     13  H12 UNL     1     -10.753   2.778 -29.320  1.00  0.00     0.158 HD
ATOM     14  H11 UNL     1     -11.688   3.754 -28.198  1.00  0.00     0.158 HD
ENDBRANCH   1  12
TORSDOF 1
ENDMDL
MODEL 2
REMARK VINA RESULT: -5.919738415      1.303      3.019
REMARK  1 active torsions:
REMARK  status: ('A' for Active; 'I' for Inactive)
REMARK    1  A    between atoms: N1_1  and  C1_4 
ROOT
HETATM    1  C1  UNL     1      -9.001   4.427 -28.347  1.00  0.00     0.183 A 
HETATM    2  N2  UNL     1      -9.949   3.688 -27.776  1.00  0.00    -0.277 N 
ATOM      3  H2  UNL     1     -10.061   2.726 -28.095  1.00  0.00     0.189 HD
HETATM    4  N3  UNL     1     -10.760   4.122 -26.818  1.00  0.00    -0.250 N 
ATOM      5  H3  UNL     1     -11.473   3.517 -26.413  1.00  0.00     0.192 HD
HETATM    6  C2  UNL     1     -10.606   5.396 -26.403  1.00  0.00     0.341 A 
HETATM    7  O1  UNL     1     -11.329   5.896 -25.499  1.00  0.00    -0.245 OA
HETATM    8  N4  UNL     1      -9.654   6.175 -26.960  1.00  0.00    -0.271 N 
ATOM      9  H4  UNL     1      -9.552   7.135 -26.632  1.00  0.00     0.174 HD
HETATM   10  C3  UNL     1      -8.834   5.733 -27.930  1.00  0.00     0.294 A 
HETATM   11  O2  UNL     1      -7.943   6.472 -28.446  1.00  0.00    -0.264 OA
ENDROOT
BRANCH   1  12
HETATM   12  N1  UNL     1      -8.224   3.969 -29.283  1.00  0.00    -0.380 N 
ATOM     13  H12 UNL     1      -8.579   3.234 -29.895  1.00  0.00     0.158 HD
ATOM     14  H11 UNL     1      -7.275   4.315 -29.428  1.00  0.00     0.158 HD
ENDBRANCH   1  12
TORSDOF 1
ENDMDL
MODEL 3
REMARK VINA RESULT: -5.883395544      1.738      3.188
REMARK  1 active torsions:
REMARK  status: ('A' for Active; 'I' for Inactive)
REMARK    1  A    between atoms: N1_1  and  C1_4 
ROOT
HETATM    1  C1  UNL     1      -8.806   5.525 -28.007  1.00  0.00     0.183 A 
HETATM    2  N2  UNL     1      -8.637   4.526 -28.871  1.00  0.00    -0.277 N 
ATOM      3  H2  UNL     1      -7.690   4.176 -29.017  1.00  0.00     0.189 HD
HETATM    4  N3  UNL     1      -9.622   3.955 -29.555  1.00  0.00    -0.250 N 
ATOM      5  H3  UNL     1      -9.441   3.192 -30.207  1.00  0.00     0.192 HD
HETATM    6  C2  UNL     1     -10.871   4.423 -29.357  1.00  0.00     0.341 A 
HETATM    7  O1  UNL     1     -11.868   3.944 -29.962  1.00  0.00    -0.245 OA
HETATM    8  N4  UNL     1     -11.079   5.437 -28.488  1.00  0.00    -0.271 N 
ATOM      9  H4  UNL     1     -12.031   5.777 -28.352  1.00  0.00     0.174 HD
HETATM   10  C3  UNL     1     -10.081   6.013 -27.797  1.00  0.00     0.294 A 
HETATM   11  O2  UNL     1     -10.287   6.963 -26.984  1.00  0.00    -0.264 OA
ENDROOT
BRANCH   1  12
HETATM   12  N1  UNL     1      -7.819   6.061 -27.354  1.00  0.00    -0.380 N 
ATOM     13  H12 UNL     1      -7.251   6.767 -27.822  1.00  0.00     0.158 HD
ATOM     14  H11 UNL     1      -7.589   5.801 -26.394  1.00  0.00     0.158 HD
ENDBRANCH   1  12
TORSDOF 1
ENDMDL
MODEL 4
REMARK VINA RESULT: -5.596873699      2.591      3.516
REMARK  1 active torsions:
REMARK  status: ('A' for Active; 'I' for Inactive)
REMARK    1  A    between atoms: N1_1  and  C1_4 
ROOT
HETATM    1  C1  UNL     1     -10.325   5.343 -26.865  1.00  0.00     0.183 A 
HETATM    2  N2  UNL     1     -10.108   4.124 -27.356  1.00  0.00    -0.277 N 
ATOM      3  H2  UNL     1      -9.524   3.489 -26.813  1.00  0.00     0.189 HD
HETATM    4  N3  UNL     1     -10.604   3.683 -28.506  1.00  0.00    -0.250 N 
ATOM      5  H3  UNL     1     -10.409   2.739 -28.840  1.00  0.00     0.192 HD
HETATM    6  C2  UNL     1     -11.376   4.529 -29.217  1.00  0.00     0.341 A 
HETATM    7  O1  UNL     1     -11.890   4.199 -30.319  1.00  0.00    -0.245 OA
HETATM    8  N4  UNL     1     -11.617   5.774 -28.749  1.00  0.00    -0.271 N 
ATOM      9  H4  UNL     1     -12.203   6.399 -29.301  1.00  0.00     0.174 HD
HETATM   10  C3  UNL     1     -11.113   6.219 -27.585  1.00  0.00     0.294 A 
HETATM   11  O2  UNL     1     -11.346   7.388 -27.155  1.00  0.00    -0.264 OA
ENDROOT
BRANCH   1  12
HETATM   12  N1  UNL     1      -9.823   5.742 -25.735  1.00  0.00    -0.380 N 
ATOM     13  H12 UNL     1     -10.394   6.331 -25.128  1.00  0.00     0.158 HD
ATOM     14  H11 UNL     1      -8.881   5.491 -25.432  1.00  0.00     0.158 HD
ENDBRANCH   1  12
TORSDOF 1
ENDMDL
MODEL 5
REMARK VINA RESULT: -5.523031949      1.902      3.713
REMARK  1 active torsions:
REMARK  status: ('A' for Active; 'I' for Inactive)
REMARK    1  A    between atoms: N1_1  and  C1_4 
ROOT
HETATM    1  C1  UNL     1      -8.524   5.627 -27.953  1.00  0.00     0.183 A 
HETATM    2  N2  UNL     1      -9.709   6.227 -27.873  1.00  0.00    -0.277 N 
ATOM      3  H2  UNL     1      -9.768   7.100 -27.349  1.00  0.00     0.189 HD
HETATM    4  N3  UNL     1     -10.821   5.763 -28.433  1.00  0.00    -0.250 N 
ATOM      5  H3  UNL     1     -11.707   6.260 -28.343  1.00  0.00     0.192 HD
HETATM    6  C2  UNL     1     -10.735   4.609 -29.124  1.00  0.00     0.341 A 
HETATM    7  O1  UNL     1     -11.736   4.092 -29.689  1.00  0.00    -0.245 OA
HETATM    8  N4  UNL     1      -9.548   3.972 -29.225  1.00  0.00    -0.271 N 
ATOM      9  H4  UNL     1      -9.503   3.100 -29.752  1.00  0.00     0.174 HD
HETATM   10  C3  UNL     1      -8.424   4.443 -28.657  1.00  0.00     0.294 A 
HETATM   11  O2  UNL     1      -7.315   3.838 -28.758  1.00  0.00    -0.264 OA
ENDROOT
BRANCH   1  12
HETATM   12  N1  UNL     1      -7.456   6.109 -27.392  1.00  0.00    -0.380 N 
ATOM     13  H12 UNL     1      -7.398   7.116 -27.236  1.00  0.00     0.158 HD
ATOM     14  H11 UNL     1      -6.673   5.522 -27.104  1.00  0.00     0.158 HD
ENDBRANCH   1  12
TORSDOF 1
ENDMDL
