MODEL 1
REMARK VINA RESULT: -5.552628943      0.000      0.000
REMARK  3 active torsions:
REMARK  status: ('A' for Active; 'I' for Inactive)
REMARK    1  A    between atoms: N1_1  and  N2_4 
REMARK       I    between atoms: N2_4  and  C1_6 
REMARK    2  A    between atoms: C1_6  and  C2_8 
REMARK    3  A    between atoms: N5_12  and  O2_13 
ROOT
HETATM    1  C2  UNL     1      -9.490   5.217 -28.599  1.00  0.00     0.232 A 
HETATM    2  N3  UNL     1     -10.405   4.700 -29.437  1.00  0.00    -0.260 N 
ATOM      3  H3  UNL     1     -10.365   3.990 -30.169  1.00  0.00     0.186 HD
HETATM    4  N4  UNL     1     -11.375   5.458 -28.956  1.00  0.00     0.010 NA
HETATM    5  N5  UNL     1     -10.485   5.979 -28.120  1.00  0.00    -0.123 N 
ENDROOT
BRANCH   1   6
HETATM    6  C1  UNL     1      -8.055   5.035 -28.325  1.00  0.00     0.308 C 
HETATM    7  N2  UNL     1      -7.372   6.015 -27.579  1.00  0.00    -0.270 N 
ATOM      8  H2  UNL     1      -7.864   6.838 -27.232  1.00  0.00     0.189 HD
HETATM    9  O1  UNL     1      -7.507   3.996 -28.779  1.00  0.00    -0.262 OA
BRANCH   7  10
HETATM   10  N1  UNL     1      -6.024   5.843 -27.322  1.00  0.00    -0.342 N 
ATOM     11  H12 UNL     1      -5.624   4.905 -27.337  1.00  0.00     0.176 HD
ATOM     12  H11 UNL     1      -5.451   6.663 -27.121  1.00  0.00     0.176 HD
ENDBRANCH   7  10
ENDBRANCH   1   6
BRANCH   5  13
HETATM   13  O2  UNL     1     -10.492   6.941 -27.114  1.00  0.00    -0.268 OA
ATOM     14  H2  UNL     1     -11.202   7.276 -26.580  1.00  0.00     0.246 HD
ENDBRANCH   5  13
TORSDOF 3
ENDMDL
MODEL 2
REMARK VINA RESULT: -5.519015229      1.473      1.779
REMARK  3 active torsions:
REMARK  status: ('A' for Active; 'I' for Inactive)
REMARK    1  A    between atoms: N1_1  and  N2_4 
REMARK       I    between atoms: N2_4  and  C1_6 
REMARK    2  A    between atoms: C1_6  and  C2_8 
REMARK    3  A    between atoms: N5_12  and  O2_13 
ROOT
HETATM    1  C2  UNL     1     -10.006   4.798 -28.575  1.00  0.00     0.232 A 
HETATM    2  N3  UNL     1     -10.507   3.552 -28.541  1.00  0.00    -0.260 N 
ATOM      3  H3  UNL     1     -10.155   2.662 -28.187  1.00  0.00     0.186 HD
HETATM    4  N4  UNL     1     -11.628   3.913 -29.140  1.00  0.00     0.010 NA
HETATM    5  N5  UNL     1     -11.149   5.150 -29.182  1.00  0.00    -0.123 N 
ENDROOT
BRANCH   1   6
HETATM    6  C1  UNL     1      -8.771   5.475 -28.145  1.00  0.00     0.308 C 
HETATM    7  N2  UNL     1      -7.558   4.758 -28.158  1.00  0.00    -0.270 N 
ATOM      8  H2  UNL     1      -7.535   3.785 -28.461  1.00  0.00     0.189 HD
HETATM    9  O1  UNL     1      -8.866   6.677 -27.784  1.00  0.00    -0.262 OA
BRANCH   7  10
HETATM   10  N1  UNL     1      -6.399   5.394 -27.753  1.00  0.00    -0.342 N 
ATOM     11  H12 UNL     1      -5.552   4.847 -27.600  1.00  0.00     0.176 HD
ATOM     12  H11 UNL     1      -6.412   6.405 -27.615  1.00  0.00     0.176 HD
ENDBRANCH   7  10
ENDBRANCH   1   6
BRANCH   5  13
HETATM   13  O2  UNL     1     -11.588   6.385 -29.651  1.00  0.00    -0.268 OA
ATOM     14  H2  UNL     1     -12.466   6.726 -29.774  1.00  0.00     0.246 HD
ENDBRANCH   5  13
TORSDOF 3
ENDMDL
MODEL 3
REMARK VINA RESULT: -5.466615522      1.898      2.073
REMARK  3 active torsions:
REMARK  status: ('A' for Active; 'I' for Inactive)
REMARK    1  A    between atoms: N1_1  and  N2_4 
REMARK       I    between atoms: N2_4  and  C1_6 
REMARK    2  A    between atoms: C1_6  and  C2_8 
REMARK    3  A    between atoms: N5_12  and  O2_13 
ROOT
HETATM    1  C2  UNL     1     -10.862   5.810 -28.814  1.00  0.00     0.232 A 
HETATM    2  N3  UNL     1     -11.858   5.497 -29.659  1.00  0.00    -0.260 N 
ATOM      3  H3  UNL     1     -11.943   4.834 -30.430  1.00  0.00     0.186 HD
HETATM    4  N4  UNL     1     -12.687   6.370 -29.114  1.00  0.00     0.010 NA
HETATM    5  N5  UNL     1     -11.714   6.692 -28.271  1.00  0.00    -0.123 N 
ENDROOT
BRANCH   1   6
HETATM    6  C1  UNL     1      -9.471   5.384 -28.582  1.00  0.00     0.308 C 
HETATM    7  N2  UNL     1      -9.028   4.166 -29.134  1.00  0.00    -0.270 N 
ATOM      8  H2  UNL     1      -9.661   3.587 -29.686  1.00  0.00     0.189 HD
HETATM    9  O1  UNL     1      -8.741   6.144 -27.895  1.00  0.00    -0.262 OA
BRANCH   7  10
HETATM   10  N1  UNL     1      -7.722   3.767 -28.916  1.00  0.00    -0.342 N 
ATOM     11  H12 UNL     1      -7.386   2.898 -29.331  1.00  0.00     0.176 HD
ATOM     12  H11 UNL     1      -7.116   4.351 -28.340  1.00  0.00     0.176 HD
ENDBRANCH   7  10
ENDBRANCH   1   6
BRANCH   5  13
HETATM   13  O2  UNL     1     -11.552   7.581 -27.212  1.00  0.00    -0.268 OA
ATOM     14  H2  UNL     1     -10.999   7.537 -26.442  1.00  0.00     0.246 HD
ENDBRANCH   5  13
TORSDOF 3
ENDMDL
MODEL 4
REMARK VINA RESULT: -5.443872722      1.425      1.666
REMARK  3 active torsions:
REMARK  status: ('A' for Active; 'I' for Inactive)
REMARK    1  A    between atoms: N1_1  and  N2_4 
REMARK       I    between atoms: N2_4  and  C1_6 
REMARK    2  A    between atoms: C1_6  and  C2_8 
REMARK    3  A    between atoms: N5_12  and  O2_13 
ROOT
HETATM    1  C2  UNL     1      -9.635   5.465 -28.285  1.00  0.00     0.232 A 
HETATM    2  N3  UNL     1     -10.538   6.255 -27.681  1.00  0.00    -0.260 N 
ATOM      3  H3  UNL     1     -10.482   6.928 -26.915  1.00  0.00     0.186 HD
HETATM    4  N4  UNL     1     -11.525   5.833 -28.450  1.00  0.00     0.010 NA
HETATM    5  N5  UNL     1     -10.647   5.046 -29.059  1.00  0.00    -0.123 N 
ENDROOT
BRANCH   1   6
HETATM    6  C1  UNL     1      -8.195   5.184 -28.162  1.00  0.00     0.308 C 
HETATM    7  N2  UNL     1      -7.372   6.110 -27.491  1.00  0.00    -0.270 N 
ATOM      8  H2  UNL     1      -7.768   6.963 -27.096  1.00  0.00     0.189 HD
HETATM    9  O1  UNL     1      -7.770   4.113 -28.669  1.00  0.00    -0.262 OA
BRANCH   7  10
HETATM   10  N1  UNL     1      -6.020   5.845 -27.376  1.00  0.00    -0.342 N 
ATOM     11  H12 UNL     1      -5.436   5.839 -28.212  1.00  0.00     0.176 HD
ATOM     12  H11 UNL     1      -5.629   5.659 -26.452  1.00  0.00     0.176 HD
ENDBRANCH   7  10
ENDBRANCH   1   6
BRANCH   5  13
HETATM   13  O2  UNL     1     -10.676   4.120 -30.098  1.00  0.00    -0.268 OA
ATOM     14  H2  UNL     1     -11.239   3.369 -30.246  1.00  0.00     0.246 HD
ENDBRANCH   5  13
TORSDOF 3
ENDMDL
MODEL 5
REMARK VINA RESULT: -5.397090898      2.127      2.743
REMARK  3 active torsions:
REMARK  status: ('A' for Active; 'I' for Inactive)
REMARK    1  A    between atoms: N1_1  and  N2_4 
REMARK       I    between atoms: N2_4  and  C1_6 
REMARK    2  A    between atoms: C1_6  and  C2_8 
REMARK    3  A    between atoms: N5_12  and  O2_13 
ROOT
HETATM    1  C2  UNL     1     -11.005   5.891 -28.589  1.00  0.00     0.232 A 
HETATM    2  N3  UNL     1     -11.780   6.750 -27.905  1.00  0.00    -0.260 N 
ATOM      3  H3  UNL     1     -11.614   7.359 -27.103  1.00  0.00     0.186 HD
HETATM    4  N4  UNL     1     -12.836   6.507 -28.661  1.00  0.00     0.010 NA
HETATM    5  N5  UNL     1     -12.086   5.655 -29.348  1.00  0.00    -0.123 N 
ENDROOT
BRANCH   1   6
HETATM    6  C1  UNL     1      -9.611   5.419 -28.536  1.00  0.00     0.308 C 
HETATM    7  N2  UNL     1      -9.282   4.191 -29.141  1.00  0.00    -0.270 N 
ATOM      8  H2  UNL     1      -9.998   3.635 -29.609  1.00  0.00     0.189 HD
HETATM    9  O1  UNL     1      -8.775   6.152 -27.945  1.00  0.00    -0.262 OA
BRANCH   7  10
HETATM   10  N1  UNL     1      -7.972   3.749 -29.091  1.00  0.00    -0.342 N 
ATOM     11  H12 UNL     1      -7.284   4.141 -29.733  1.00  0.00     0.176 HD
ATOM     12  H11 UNL     1      -7.717   3.035 -28.408  1.00  0.00     0.176 HD
ENDBRANCH   7  10
ENDBRANCH   1   6
BRANCH   5  13
HETATM   13  O2  UNL     1     -12.266   4.808 -30.438  1.00  0.00    -0.268 OA
ATOM     14  H2  UNL     1     -12.452   5.000 -31.350  1.00  0.00     0.246 HD
ENDBRANCH   5  13
TORSDOF 3
ENDMDL
