MODEL 1
REMARK VINA RESULT: -7.196818662      0.000      0.000
REMARK  13 active torsions:
REMARK  status: ('A' for Active; 'I' for Inactive)
REMARK    1  A    between atoms: C2_2  and  C3_3 
REMARK    2  A    between atoms: C3_3  and  O1_4 
REMARK    3  A    between atoms: O1_4  and  C4_5 
REMARK    4  A    between atoms: C4_5  and  C5_7 
REMARK    5  A    between atoms: N2_13  and  C8_14 
REMARK    6  A    between atoms: C9_16  and  C10_17 
REMARK    7  A    between atoms: C10_17  and  C11_18 
REMARK    8  A    between atoms: C11_18  and  C12_19 
REMARK    9  A    between atoms: C13_20  and  C15_22 
REMARK   10  A    between atoms: C17_25  and  C18_26 
REMARK   11  A    between atoms: C18_26  and  O5_27 
REMARK   12  A    between atoms: C19_29  and  O6_30 
REMARK   13  A    between atoms: C20_32  and  O7_33 
ROOT
HETATM    1  C8  UNL     1      65.413  34.957  24.520  1.00  0.00     0.265 C 
HETATM    2  O3  UNL     1      65.374  33.656  24.049  1.00  0.00    -0.334 OA
HETATM    3  C9  UNL     1      65.822  32.729  24.972  1.00  0.00     0.263 C 
HETATM    4  O4  UNL     1      65.443  33.069  26.274  1.00  0.00    -0.351 OA
HETATM    5  C17 UNL     1      64.081  33.022  26.412  1.00  0.00     0.179 C 
HETATM    6  C19 UNL     1      63.454  34.299  26.003  1.00  0.00     0.182 C 
HETATM    7  C20 UNL     1      64.427  35.322  25.547  1.00  0.00     0.198 C 
ENDROOT
BRANCH   1   8
HETATM    8  N2  UNL     1      65.291  35.823  23.337  1.00  0.00    -0.287 N 
HETATM    9  C5  UNL     1      65.978  36.941  23.076  1.00  0.00     0.130 A 
HETATM   10  C6  UNL     1      65.538  37.447  21.850  1.00  0.00     0.126 A 
HETATM   11  N1  UNL     1      64.597  36.602  21.423  1.00  0.00    -0.341 N 
HETATM   12  C7  UNL     1      64.431  35.610  22.307  1.00  0.00     0.180 A 
ATOM     13  H1  UNL     1      64.080  36.697  20.549  1.00  0.00     0.167 HD
HETATM   14  S1  UNL     1      63.379  34.338  22.169  1.00  0.00    -0.040 SA
BRANCH   9  15
HETATM   15  C4  UNL     1      67.032  37.585  23.880  1.00  0.00     0.311 C 
HETATM   16  O2  UNL     1      68.121  36.972  24.005  1.00  0.00    -0.258 OA
BRANCH  15  17
HETATM   17  O1  UNL     1      66.894  38.807  24.497  1.00  0.00    -0.316 OA
BRANCH  17  18
HETATM   18  C3  UNL     1      66.057  39.124  25.563  1.00  0.00     0.178 C 
BRANCH  18  19
HETATM   19  C2  UNL     1      66.463  38.399  26.813  1.00  0.00     0.022 C 
HETATM   20  C1  UNL     1      67.674  39.090  27.452  1.00  0.00     0.007 C 
ENDBRANCH  18  19
ENDBRANCH  17  18
ENDBRANCH  15  17
ENDBRANCH   9  15
ENDBRANCH   1   8
BRANCH   7  21
HETATM   21  O7  UNL     1      63.687  36.438  25.137  1.00  0.00    -0.388 OA
ATOM     22  H7  UNL     1      63.617  36.459  24.190  1.00  0.00     0.210 HD
ENDBRANCH   7  21
BRANCH   3  23
HETATM   23  C10 UNL     1      67.315  32.519  24.966  1.00  0.00     0.065 C 
BRANCH  23  24
HETATM   24  C11 UNL     1      67.930  33.637  25.780  1.00  0.00     0.032 C 
BRANCH  24  25
HETATM   25  C12 UNL     1      69.369  33.501  25.975  1.00  0.00    -0.024 C 
HETATM   26  C13 UNL     1      70.042  34.465  26.560  1.00  0.00    -0.088 C 
HETATM   27  C14 UNL     1      69.356  35.690  27.022  1.00  0.00     0.043 C 
BRANCH  26  28
HETATM   28  C15 UNL     1      71.503  34.327  26.756  1.00  0.00     0.029 C 
HETATM   29  C16 UNL     1      71.992  35.170  27.927  1.00  0.00     0.010 C 
ENDBRANCH  26  28
ENDBRANCH  24  25
ENDBRANCH  23  24
ENDBRANCH   3  23
BRANCH   6  30
HETATM   30  O6  UNL     1      62.351  34.116  25.166  1.00  0.00    -0.390 OA
ATOM     31  H6  UNL     1      61.600  34.634  25.430  1.00  0.00     0.210 HD
ENDBRANCH   6  30
BRANCH   5  32
HETATM   32  C18 UNL     1      63.685  32.603  27.815  1.00  0.00     0.198 C 
BRANCH  32  33
HETATM   33  O5  UNL     1      62.426  33.167  28.074  1.00  0.00    -0.398 OA
ATOM     34  H5  UNL     1      62.042  32.676  28.792  1.00  0.00     0.209 HD
ENDBRANCH  32  33
ENDBRANCH   5  32
TORSDOF 13
ENDMDL
MODEL 2
REMARK VINA RESULT: -7.030538648      2.779      6.475
REMARK  13 active torsions:
REMARK  status: ('A' for Active; 'I' for Inactive)
REMARK    1  A    between atoms: C2_2  and  C3_3 
REMARK    2  A    between atoms: C3_3  and  O1_4 
REMARK    3  A    between atoms: O1_4  and  C4_5 
REMARK    4  A    between atoms: C4_5  and  C5_7 
REMARK    5  A    between atoms: N2_13  and  C8_14 
REMARK    6  A    between atoms: C9_16  and  C10_17 
REMARK    7  A    between atoms: C10_17  and  C11_18 
REMARK    8  A    between atoms: C11_18  and  C12_19 
REMARK    9  A    between atoms: C13_20  and  C15_22 
REMARK   10  A    between atoms: C17_25  and  C18_26 
REMARK   11  A    between atoms: C18_26  and  O5_27 
REMARK   12  A    between atoms: C19_29  and  O6_30 
REMARK   13  A    between atoms: C20_32  and  O7_33 
ROOT
HETATM    1  C8  UNL     1      66.811  36.097  24.430  1.00  0.00     0.265 C 
HETATM    2  O3  UNL     1      66.399  37.219  23.732  1.00  0.00    -0.334 OA
HETATM    3  C9  UNL     1      66.075  36.953  22.414  1.00  0.00     0.263 C 
HETATM    4  O4  UNL     1      65.450  35.710  22.276  1.00  0.00    -0.351 OA
HETATM    5  C17 UNL     1      64.235  35.704  22.909  1.00  0.00     0.179 C 
HETATM    6  C19 UNL     1      64.378  35.361  24.342  1.00  0.00     0.182 C 
HETATM    7  C20 UNL     1      65.778  35.104  24.758  1.00  0.00     0.198 C 
ENDROOT
BRANCH   1   8
HETATM    8  N2  UNL     1      67.473  36.594  25.646  1.00  0.00    -0.287 N 
HETATM    9  C5  UNL     1      68.488  36.024  26.306  1.00  0.00     0.130 A 
HETATM   10  C6  UNL     1      68.798  36.827  27.407  1.00  0.00     0.126 A 
HETATM   11  N1  UNL     1      67.947  37.856  27.359  1.00  0.00    -0.341 N 
HETATM   12  C7  UNL     1      67.136  37.735  26.300  1.00  0.00     0.180 A 
ATOM     13  H1  UNL     1      67.920  38.622  28.031  1.00  0.00     0.167 HD
HETATM   14  S1  UNL     1      65.944  38.794  25.853  1.00  0.00    -0.040 SA
BRANCH   9  15
HETATM   15  C4  UNL     1      69.211  34.779  25.990  1.00  0.00     0.311 C 
HETATM   16  O2  UNL     1      68.530  33.735  25.839  1.00  0.00    -0.258 OA
BRANCH  15  17
HETATM   17  O1  UNL     1      70.578  34.695  25.854  1.00  0.00    -0.316 OA
BRANCH  17  18
HETATM   18  C3  UNL     1      71.467  34.007  26.674  1.00  0.00     0.178 C 
BRANCH  18  19
HETATM   19  C2  UNL     1      71.843  34.820  27.879  1.00  0.00     0.022 C 
HETATM   20  C1  UNL     1      73.147  35.582  27.613  1.00  0.00     0.007 C 
ENDBRANCH  18  19
ENDBRANCH  17  18
ENDBRANCH  15  17
ENDBRANCH   9  15
ENDBRANCH   1   8
BRANCH   7  21
HETATM   21  O7  UNL     1      65.759  34.858  26.136  1.00  0.00    -0.388 OA
ATOM     22  H7  UNL     1      65.613  35.666  26.614  1.00  0.00     0.210 HD
ENDBRANCH   7  21
BRANCH   3  23
HETATM   23  C10 UNL     1      67.248  36.988  21.468  1.00  0.00     0.065 C 
BRANCH  23  24
HETATM   24  C11 UNL     1      67.024  38.143  20.515  1.00  0.00     0.032 C 
BRANCH  24  25
HETATM   25  C12 UNL     1      66.117  37.832  19.416  1.00  0.00    -0.024 C 
HETATM   26  C13 UNL     1      65.633  38.803  18.676  1.00  0.00    -0.088 C 
HETATM   27  C14 UNL     1      65.997  40.210  18.945  1.00  0.00     0.043 C 
BRANCH  26  28
HETATM   28  C15 UNL     1      64.711  38.487  17.562  1.00  0.00     0.029 C 
HETATM   29  C16 UNL     1      65.006  39.339  16.333  1.00  0.00     0.010 C 
ENDBRANCH  26  28
ENDBRANCH  24  25
ENDBRANCH  23  24
ENDBRANCH   3  23
BRANCH   6  30
HETATM   30  O6  UNL     1      63.660  36.218  25.177  1.00  0.00    -0.390 OA
ATOM     31  H6  UNL     1      63.155  35.755  25.836  1.00  0.00     0.210 HD
ENDBRANCH   6  30
BRANCH   5  32
HETATM   32  C18 UNL     1      63.246  34.805  22.192  1.00  0.00     0.198 C 
BRANCH  32  33
HETATM   33  O5  UNL     1      62.413  34.244  23.172  1.00  0.00    -0.398 OA
ATOM     34  H5  UNL     1      61.519  34.470  22.941  1.00  0.00     0.209 HD
ENDBRANCH  32  33
ENDBRANCH   5  32
TORSDOF 13
ENDMDL
MODEL 3
REMARK VINA RESULT: -6.963978990      1.925      2.695
REMARK  13 active torsions:
REMARK  status: ('A' for Active; 'I' for Inactive)
REMARK    1  A    between atoms: C2_2  and  C3_3 
REMARK    2  A    between atoms: C3_3  and  O1_4 
REMARK    3  A    between atoms: O1_4  and  C4_5 
REMARK    4  A    between atoms: C4_5  and  C5_7 
REMARK    5  A    between atoms: N2_13  and  C8_14 
REMARK    6  A    between atoms: C9_16  and  C10_17 
REMARK    7  A    between atoms: C10_17  and  C11_18 
REMARK    8  A    between atoms: C11_18  and  C12_19 
REMARK    9  A    between atoms: C13_20  and  C15_22 
REMARK   10  A    between atoms: C17_25  and  C18_26 
REMARK   11  A    between atoms: C18_26  and  O5_27 
REMARK   12  A    between atoms: C19_29  and  O6_30 
REMARK   13  A    between atoms: C20_32  and  O7_33 
ROOT
HETATM    1  C8  UNL     1      66.195  36.104  25.364  1.00  0.00     0.265 C 
HETATM    2  O3  UNL     1      66.659  35.036  24.616  1.00  0.00    -0.334 OA
HETATM    3  C9  UNL     1      66.413  33.809  25.204  1.00  0.00     0.263 C 
HETATM    4  O4  UNL     1      65.179  33.788  25.860  1.00  0.00    -0.351 OA
HETATM    5  C17 UNL     1      64.151  33.922  24.964  1.00  0.00     0.179 C 
HETATM    6  C19 UNL     1      63.864  35.347  24.683  1.00  0.00     0.182 C 
HETATM    7  C20 UNL     1      64.738  36.289  25.424  1.00  0.00     0.198 C 
ENDROOT
BRANCH   1   8
HETATM    8  N2  UNL     1      66.858  37.300  24.823  1.00  0.00    -0.287 N 
HETATM    9  C5  UNL     1      67.296  38.364  25.508  1.00  0.00     0.130 A 
HETATM   10  C6  UNL     1      67.853  39.268  24.599  1.00  0.00     0.126 A 
HETATM   11  N1  UNL     1      67.725  38.702  23.396  1.00  0.00    -0.341 N 
HETATM   12  C7  UNL     1      67.126  37.510  23.508  1.00  0.00     0.180 A 
ATOM     13  H1  UNL     1      68.039  39.118  22.520  1.00  0.00     0.167 HD
HETATM   14  S1  UNL     1      66.784  36.464  22.270  1.00  0.00    -0.040 SA
BRANCH   9  15
HETATM   15  C4  UNL     1      67.247  38.610  26.960  1.00  0.00     0.311 C 
HETATM   16  O2  UNL     1      66.144  38.954  27.453  1.00  0.00    -0.258 OA
BRANCH  15  17
HETATM   17  O1  UNL     1      68.330  38.488  27.800  1.00  0.00    -0.316 OA
BRANCH  17  18
HETATM   18  C3  UNL     1      68.856  39.461  28.645  1.00  0.00     0.178 C 
BRANCH  18  19
HETATM   19  C2  UNL     1      69.322  40.662  27.874  1.00  0.00     0.022 C 
HETATM   20  C1  UNL     1      68.499  41.894  28.272  1.00  0.00     0.007 C 
ENDBRANCH  18  19
ENDBRANCH  17  18
ENDBRANCH  15  17
ENDBRANCH   9  15
ENDBRANCH   1   8
BRANCH   7  21
HETATM   21  O7  UNL     1      64.393  37.581  25.010  1.00  0.00    -0.388 OA
ATOM     22  H7  UNL     1      64.714  37.744  24.131  1.00  0.00     0.210 HD
ENDBRANCH   7  21
BRANCH   3  23
HETATM   23  C10 UNL     1      67.467  33.373  26.191  1.00  0.00     0.065 C 
BRANCH  23  24
HETATM   24  C11 UNL     1      68.804  33.839  25.657  1.00  0.00     0.032 C 
BRANCH  24  25
HETATM   25  C12 UNL     1      69.522  34.729  26.563  1.00  0.00    -0.024 C 
HETATM   26  C13 UNL     1      70.770  34.468  26.880  1.00  0.00    -0.088 C 
HETATM   27  C14 UNL     1      71.456  33.281  26.329  1.00  0.00     0.043 C 
BRANCH  26  28
HETATM   28  C15 UNL     1      71.497  35.370  27.801  1.00  0.00     0.029 C 
HETATM   29  C16 UNL     1      73.004  35.298  27.581  1.00  0.00     0.010 C 
ENDBRANCH  26  28
ENDBRANCH  24  25
ENDBRANCH  23  24
ENDBRANCH   3  23
BRANCH   6  30
HETATM   30  O6  UNL     1      63.729  35.612  23.319  1.00  0.00    -0.390 OA
ATOM     31  H6  UNL     1      64.128  36.435  23.063  1.00  0.00     0.210 HD
ENDBRANCH   6  30
BRANCH   5  32
HETATM   32  C18 UNL     1      62.920  33.160  25.421  1.00  0.00     0.198 C 
BRANCH  32  33
HETATM   33  O5  UNL     1      62.446  33.799  26.577  1.00  0.00    -0.398 OA
ATOM     34  H5  UNL     1      62.911  33.422  27.315  1.00  0.00     0.209 HD
ENDBRANCH  32  33
ENDBRANCH   5  32
TORSDOF 13
ENDMDL
MODEL 4
REMARK VINA RESULT: -6.920042077      2.890      6.114
REMARK  13 active torsions:
REMARK  status: ('A' for Active; 'I' for Inactive)
REMARK    1  A    between atoms: C2_2  and  C3_3 
REMARK    2  A    between atoms: C3_3  and  O1_4 
REMARK    3  A    between atoms: O1_4  and  C4_5 
REMARK    4  A    between atoms: C4_5  and  C5_7 
REMARK    5  A    between atoms: N2_13  and  C8_14 
REMARK    6  A    between atoms: C9_16  and  C10_17 
REMARK    7  A    between atoms: C10_17  and  C11_18 
REMARK    8  A    between atoms: C11_18  and  C12_19 
REMARK    9  A    between atoms: C13_20  and  C15_22 
REMARK   10  A    between atoms: C17_25  and  C18_26 
REMARK   11  A    between atoms: C18_26  and  O5_27 
REMARK   12  A    between atoms: C19_29  and  O6_30 
REMARK   13  A    between atoms: C20_32  and  O7_33 
ROOT
HETATM    1  C8  UNL     1      66.879  36.132  24.441  1.00  0.00     0.265 C 
HETATM    2  O3  UNL     1      66.462  37.242  23.728  1.00  0.00    -0.334 OA
HETATM    3  C9  UNL     1      66.127  36.953  22.417  1.00  0.00     0.263 C 
HETATM    4  O4  UNL     1      65.501  35.708  22.305  1.00  0.00    -0.351 OA
HETATM    5  C17 UNL     1      64.292  35.712  22.948  1.00  0.00     0.179 C 
HETATM    6  C19 UNL     1      64.446  35.393  24.386  1.00  0.00     0.182 C 
HETATM    7  C20 UNL     1      65.850  35.144  24.795  1.00  0.00     0.198 C 
ENDROOT
BRANCH   1   8
HETATM    8  N2  UNL     1      67.551  36.649  25.643  1.00  0.00    -0.287 N 
HETATM    9  C5  UNL     1      67.258  37.768  26.316  1.00  0.00     0.130 A 
HETATM   10  C6  UNL     1      68.151  37.880  27.386  1.00  0.00     0.126 A 
HETATM   11  N1  UNL     1      68.949  36.812  27.308  1.00  0.00    -0.341 N 
HETATM   12  C7  UNL     1      68.604  36.053  26.260  1.00  0.00     0.180 A 
ATOM     13  H1  UNL     1      69.711  36.605  27.953  1.00  0.00     0.167 HD
HETATM   14  S1  UNL     1      69.317  34.629  25.803  1.00  0.00    -0.040 SA
BRANCH   9  15
HETATM   15  C4  UNL     1      66.196  38.754  26.050  1.00  0.00     0.311 C 
HETATM   16  O2  UNL     1      65.038  38.483  26.456  1.00  0.00    -0.258 OA
BRANCH  15  17
HETATM   17  O1  UNL     1      66.396  39.944  25.388  1.00  0.00    -0.316 OA
BRANCH  17  18
HETATM   18  C3  UNL     1      66.831  41.149  25.931  1.00  0.00     0.178 C 
BRANCH  18  19
HETATM   19  C2  UNL     1      68.296  41.365  25.682  1.00  0.00     0.022 C 
HETATM   20  C1  UNL     1      68.655  40.939  24.253  1.00  0.00     0.007 C 
ENDBRANCH  18  19
ENDBRANCH  17  18
ENDBRANCH  15  17
ENDBRANCH   9  15
ENDBRANCH   1   8
BRANCH   7  21
HETATM   21  O7  UNL     1      65.842  34.921  26.177  1.00  0.00    -0.388 OA
ATOM     22  H7  UNL     1      64.972  34.672  26.467  1.00  0.00     0.210 HD
ENDBRANCH   7  21
BRANCH   3  23
HETATM   23  C10 UNL     1      67.292  36.972  21.461  1.00  0.00     0.065 C 
BRANCH  23  24
HETATM   24  C11 UNL     1      67.071  38.124  20.504  1.00  0.00     0.032 C 
BRANCH  24  25
HETATM   25  C12 UNL     1      66.151  37.817  19.415  1.00  0.00    -0.024 C 
HETATM   26  C13 UNL     1      65.673  38.788  18.672  1.00  0.00    -0.088 C 
HETATM   27  C14 UNL     1      66.057  40.193  18.928  1.00  0.00     0.043 C 
BRANCH  26  28
HETATM   28  C15 UNL     1      64.737  38.476  17.568  1.00  0.00     0.029 C 
HETATM   29  C16 UNL     1      64.884  39.461  16.414  1.00  0.00     0.010 C 
ENDBRANCH  26  28
ENDBRANCH  24  25
ENDBRANCH  23  24
ENDBRANCH   3  23
BRANCH   6  30
HETATM   30  O6  UNL     1      63.735  36.265  25.212  1.00  0.00    -0.390 OA
ATOM     31  H6  UNL     1      63.701  35.972  26.115  1.00  0.00     0.210 HD
ENDBRANCH   6  30
BRANCH   5  32
HETATM   32  C18 UNL     1      63.297  34.801  22.255  1.00  0.00     0.198 C 
BRANCH  32  33
HETATM   33  O5  UNL     1      62.571  34.142  23.259  1.00  0.00    -0.398 OA
ATOM     34  H5  UNL     1      61.913  34.752  23.573  1.00  0.00     0.209 HD
ENDBRANCH  32  33
ENDBRANCH   5  32
TORSDOF 13
ENDMDL
MODEL 5
REMARK VINA RESULT: -6.898272442      2.839      6.561
REMARK  13 active torsions:
REMARK  status: ('A' for Active; 'I' for Inactive)
REMARK    1  A    between atoms: C2_2  and  C3_3 
REMARK    2  A    between atoms: C3_3  and  O1_4 
REMARK    3  A    between atoms: O1_4  and  C4_5 
REMARK    4  A    between atoms: C4_5  and  C5_7 
REMARK    5  A    between atoms: N2_13  and  C8_14 
REMARK    6  A    between atoms: C9_16  and  C10_17 
REMARK    7  A    between atoms: C10_17  and  C11_18 
REMARK    8  A    between atoms: C11_18  and  C12_19 
REMARK    9  A    between atoms: C13_20  and  C15_22 
REMARK   10  A    between atoms: C17_25  and  C18_26 
REMARK   11  A    between atoms: C18_26  and  O5_27 
REMARK   12  A    between atoms: C19_29  and  O6_30 
REMARK   13  A    between atoms: C20_32  and  O7_33 
ROOT
HETATM    1  C8  UNL     1      66.674  36.381  24.304  1.00  0.00     0.265 C 
HETATM    2  O3  UNL     1      66.381  37.490  23.530  1.00  0.00    -0.334 OA
HETATM    3  C9  UNL     1      66.109  37.178  22.211  1.00  0.00     0.263 C 
HETATM    4  O4  UNL     1      65.406  35.975  22.097  1.00  0.00    -0.351 OA
HETATM    5  C17 UNL     1      64.162  36.084  22.660  1.00  0.00     0.179 C 
HETATM    6  C19 UNL     1      64.203  35.808  24.114  1.00  0.00     0.182 C 
HETATM    7  C20 UNL     1      65.558  35.478  24.621  1.00  0.00     0.198 C 
ENDROOT
BRANCH   1   8
HETATM    8  N2  UNL     1      67.304  36.895  25.531  1.00  0.00    -0.287 N 
HETATM    9  C5  UNL     1      68.230  36.287  26.281  1.00  0.00     0.130 A 
HETATM   10  C6  UNL     1      68.541  37.126  27.355  1.00  0.00     0.126 A 
HETATM   11  N1  UNL     1      67.781  38.213  27.200  1.00  0.00    -0.341 N 
HETATM   12  C7  UNL     1      67.024  38.095  26.101  1.00  0.00     0.180 A 
ATOM     13  H1  UNL     1      67.777  39.017  27.827  1.00  0.00     0.167 HD
HETATM   14  S1  UNL     1      65.948  39.215  25.526  1.00  0.00    -0.040 SA
BRANCH   9  15
HETATM   15  C4  UNL     1      68.868  34.974  26.077  1.00  0.00     0.311 C 
HETATM   16  O2  UNL     1      70.049  34.963  25.650  1.00  0.00    -0.258 OA
BRANCH  15  17
HETATM   17  O1  UNL     1      68.250  33.769  26.325  1.00  0.00    -0.316 OA
BRANCH  17  18
HETATM   18  C3  UNL     1      67.767  32.860  25.388  1.00  0.00     0.178 C 
BRANCH  18  19
HETATM   19  C2  UNL     1      66.474  32.245  25.837  1.00  0.00     0.022 C 
HETATM   20  C1  UNL     1      66.289  30.871  25.181  1.00  0.00     0.007 C 
ENDBRANCH  18  19
ENDBRANCH  17  18
ENDBRANCH  15  17
ENDBRANCH   9  15
ENDBRANCH   1   8
BRANCH   7  21
HETATM   21  O7  UNL     1      65.447  35.307  26.006  1.00  0.00    -0.388 OA
ATOM     22  H7  UNL     1      64.822  34.621  26.206  1.00  0.00     0.210 HD
ENDBRANCH   7  21
BRANCH   3  23
HETATM   23  C10 UNL     1      67.331  37.083  21.332  1.00  0.00     0.065 C 
BRANCH  23  24
HETATM   24  C11 UNL     1      67.223  38.176  20.290  1.00  0.00     0.032 C 
BRANCH  24  25
HETATM   25  C12 UNL     1      66.292  37.869  19.210  1.00  0.00    -0.024 C 
HETATM   26  C13 UNL     1      65.646  38.842  18.609  1.00  0.00    -0.088 C 
HETATM   27  C14 UNL     1      65.851  40.247  19.018  1.00  0.00     0.043 C 
BRANCH  26  28
HETATM   28  C15 UNL     1      64.700  38.529  17.515  1.00  0.00     0.029 C 
HETATM   29  C16 UNL     1      64.945  39.411  16.295  1.00  0.00     0.010 C 
ENDBRANCH  26  28
ENDBRANCH  24  25
ENDBRANCH  23  24
ENDBRANCH   3  23
BRANCH   6  30
HETATM   30  O6  UNL     1      63.504  36.755  24.865  1.00  0.00    -0.390 OA
ATOM     31  H6  UNL     1      63.698  37.648  24.604  1.00  0.00     0.210 HD
ENDBRANCH   6  30
BRANCH   5  32
HETATM   32  C18 UNL     1      63.151  35.218  21.932  1.00  0.00     0.198 C 
BRANCH  32  33
HETATM   33  O5  UNL     1      62.616  34.327  22.876  1.00  0.00    -0.398 OA
ATOM     34  H5  UNL     1      63.320  33.745  23.140  1.00  0.00     0.209 HD
ENDBRANCH  32  33
ENDBRANCH   5  32
TORSDOF 13
ENDMDL
