MODEL 1
REMARK VINA RESULT: -8.457206007      0.000      0.000
REMARK  11 active torsions:
REMARK  status: ('A' for Active; 'I' for Inactive)
REMARK    1  A    between atoms: C5_5  and  C6_6 
REMARK    2  A    between atoms: C8_8  and  O1_9 
REMARK    3  A    between atoms: C9_11  and  C10_12 
REMARK    4  A    between atoms: C9_11  and  C11_15 
REMARK    5  A    between atoms: C10_12  and  O2_13 
REMARK    6  A    between atoms: C11_15  and  N1_16 
REMARK    7  A    between atoms: C13_18  and  C14_19 
REMARK    8  A    between atoms: C14_19  and  N2_20 
REMARK    9  A    between atoms: N2_20  and  C15_22 
REMARK   10  A    between atoms: C18_25  and  C19_26 
REMARK   11  A    between atoms: N3_27  and  O3_29 
ROOT
HETATM    1  N1  UNL     1      66.191  37.611  20.239  1.00  0.00    -0.284 N 
HETATM    2  C12 UNL     1      65.516  37.074  21.265  1.00  0.00     0.140 A 
HETATM    3  C13 UNL     1      66.247  37.172  22.433  1.00  0.00     0.061 A 
HETATM    4  N4  UNL     1      67.387  37.786  22.069  1.00  0.00    -0.287 N 
ATOM      5  H4  UNL     1      68.160  38.018  22.694  1.00  0.00     0.188 HD
HETATM    6  N5  UNL     1      67.346  38.040  20.777  1.00  0.00    -0.241 N 
ATOM      7  H5  UNL     1      68.091  38.502  20.254  1.00  0.00     0.208 HD
ENDROOT
BRANCH   1   8
HETATM    8  C11 UNL     1      65.851  37.739  18.874  1.00  0.00     0.192 C 
BRANCH   8   9
HETATM    9  C9  UNL     1      65.974  39.039  18.203  1.00  0.00     0.126 C 
HETATM   10  C8  UNL     1      67.252  39.470  17.626  1.00  0.00     0.159 C 
HETATM   11  C7  UNL     1      67.082  41.007  17.672  1.00  0.00     0.072 C 
HETATM   12  C6  UNL     1      66.376  41.114  18.996  1.00  0.00     0.158 C 
HETATM   13  O4  UNL     1      65.534  40.044  19.080  1.00  0.00    -0.363 OA
BRANCH  10  14
HETATM   14  O1  UNL     1      68.403  39.232  18.322  1.00  0.00    -0.392 OA
ATOM     15  H1  UNL     1      68.593  38.316  18.161  1.00  0.00     0.210 HD
ENDBRANCH  10  14
BRANCH  12  16
HETATM   16  C5  UNL     1      65.608  42.364  19.143  1.00  0.00    -0.029 A 
HETATM   17  C4  UNL     1      66.013  43.447  19.893  1.00  0.00     0.010 A 
HETATM   18  C3  UNL     1      65.242  44.594  19.987  1.00  0.00     0.007 A 
HETATM   19  C2  UNL     1      64.041  44.697  19.338  1.00  0.00    -0.062 A 
HETATM   20  C1  UNL     1      63.193  45.927  19.429  1.00  0.00     0.048 C 
HETATM   21  C23 UNL     1      63.616  43.619  18.580  1.00  0.00     0.007 A 
HETATM   22  C22 UNL     1      64.398  42.464  18.487  1.00  0.00     0.010 A 
ENDBRANCH  12  16
BRANCH   9  23
HETATM   23  C10 UNL     1      64.939  39.108  17.054  1.00  0.00     0.206 C 
BRANCH  23  24
HETATM   24  O2  UNL     1      64.327  37.843  17.026  1.00  0.00    -0.398 OA
ATOM     25  H2  UNL     1      65.037  37.218  17.111  1.00  0.00     0.209 HD
ENDBRANCH  23  24
ENDBRANCH   9  23
ENDBRANCH   8   9
ENDBRANCH   1   8
BRANCH   3  26
HETATM   26  C14 UNL     1      65.838  36.693  23.779  1.00  0.00     0.179 C 
BRANCH  26  27
HETATM   27  N2  UNL     1      65.980  35.278  23.862  1.00  0.00    -0.384 N 
ATOM     28  H2  UNL     1      66.697  34.804  23.313  1.00  0.00     0.160 HD
BRANCH  27  29
HETATM   29  C15 UNL     1      65.124  34.529  24.708  1.00  0.00     0.028 A 
HETATM   30  C16 UNL     1      63.777  34.825  24.799  1.00  0.00     0.030 A 
HETATM   31  C17 UNL     1      62.949  34.081  25.634  1.00  0.00     0.015 A 
HETATM   32  C18 UNL     1      63.434  33.039  26.391  1.00  0.00    -0.019 A 
HETATM   33  C20 UNL     1      64.777  32.755  26.292  1.00  0.00     0.015 A 
HETATM   34  C21 UNL     1      65.610  33.486  25.466  1.00  0.00     0.030 A 
BRANCH  32  35
HETATM   35  C19 UNL     1      62.533  32.279  27.258  1.00  0.00     0.125 C 
HETATM   36  N3  UNL     1      61.620  31.552  26.742  1.00  0.00    -0.280 N 
ATOM     37  H3  UNL     1      61.555  31.532  25.724  1.00  0.00     0.193 HD
BRANCH  36  38
HETATM   38  O3  UNL     1      60.730  30.807  27.439  1.00  0.00    -0.290 OA
ATOM     39  H3  UNL     1      59.804  30.732  27.238  1.00  0.00     0.244 HD
ENDBRANCH  36  38
ENDBRANCH  32  35
ENDBRANCH  27  29
ENDBRANCH  26  27
ENDBRANCH   3  26
TORSDOF 11
ENDMDL
MODEL 2
REMARK VINA RESULT: -8.169420452      1.518      1.805
REMARK  11 active torsions:
REMARK  status: ('A' for Active; 'I' for Inactive)
REMARK    1  A    between atoms: C5_5  and  C6_6 
REMARK    2  A    between atoms: C8_8  and  O1_9 
REMARK    3  A    between atoms: C9_11  and  C10_12 
REMARK    4  A    between atoms: C9_11  and  C11_15 
REMARK    5  A    between atoms: C10_12  and  O2_13 
REMARK    6  A    between atoms: C11_15  and  N1_16 
REMARK    7  A    between atoms: C13_18  and  C14_19 
REMARK    8  A    between atoms: C14_19  and  N2_20 
REMARK    9  A    between atoms: N2_20  and  C15_22 
REMARK   10  A    between atoms: C18_25  and  C19_26 
REMARK   11  A    between atoms: N3_27  and  O3_29 
ROOT
HETATM    1  N1  UNL     1      67.078  38.026  19.665  1.00  0.00    -0.284 N 
HETATM    2  C12 UNL     1      66.961  37.835  20.986  1.00  0.00     0.140 A 
HETATM    3  C13 UNL     1      65.792  37.160  21.278  1.00  0.00     0.061 A 
HETATM    4  N4  UNL     1      65.212  36.954  20.082  1.00  0.00    -0.287 N 
ATOM      5  H4  UNL     1      64.322  36.477  19.930  1.00  0.00     0.188 HD
HETATM    6  N5  UNL     1      65.975  37.468  19.139  1.00  0.00    -0.241 N 
ATOM      7  H5  UNL     1      65.758  37.444  18.142  1.00  0.00     0.208 HD
ENDROOT
BRANCH   1   8
HETATM    8  C11 UNL     1      68.090  38.659  18.908  1.00  0.00     0.192 C 
BRANCH   8   9
HETATM    9  C9  UNL     1      67.970  40.082  18.563  1.00  0.00     0.126 C 
HETATM   10  C8  UNL     1      68.955  41.058  19.042  1.00  0.00     0.159 C 
HETATM   11  C7  UNL     1      68.107  42.350  19.025  1.00  0.00     0.072 C 
HETATM   12  C6  UNL     1      66.805  41.769  19.504  1.00  0.00     0.158 C 
HETATM   13  O4  UNL     1      66.694  40.533  18.940  1.00  0.00    -0.363 OA
BRANCH  10  14
HETATM   14  O1  UNL     1      69.407  40.961  20.327  1.00  0.00    -0.392 OA
ATOM     15  H1  UNL     1      69.616  40.042  20.438  1.00  0.00     0.210 HD
ENDBRANCH  10  14
BRANCH  12  16
HETATM   16  C5  UNL     1      65.635  42.589  19.137  1.00  0.00    -0.029 A 
HETATM   17  C4  UNL     1      65.408  43.873  19.586  1.00  0.00     0.010 A 
HETATM   18  C3  UNL     1      64.287  44.589  19.200  1.00  0.00     0.007 A 
HETATM   19  C2  UNL     1      63.355  44.047  18.354  1.00  0.00    -0.062 A 
HETATM   20  C1  UNL     1      62.137  44.805  17.927  1.00  0.00     0.048 C 
HETATM   21  C23 UNL     1      63.566  42.759  17.892  1.00  0.00     0.007 A 
HETATM   22  C22 UNL     1      64.699  42.041  18.285  1.00  0.00     0.010 A 
ENDBRANCH  12  16
BRANCH   9  23
HETATM   23  C10 UNL     1      67.943  40.220  17.021  1.00  0.00     0.206 C 
BRANCH  23  24
HETATM   24  O2  UNL     1      66.920  39.360  16.587  1.00  0.00    -0.398 OA
ATOM     25  H2  UNL     1      66.621  39.720  15.761  1.00  0.00     0.209 HD
ENDBRANCH  23  24
ENDBRANCH   9  23
ENDBRANCH   8   9
ENDBRANCH   1   8
BRANCH   3  26
HETATM   26  C14 UNL     1      65.309  36.763  22.626  1.00  0.00     0.179 C 
BRANCH  26  27
HETATM   27  N2  UNL     1      64.726  35.464  22.577  1.00  0.00    -0.384 N 
ATOM     28  H2  UNL     1      64.489  35.044  21.678  1.00  0.00     0.160 HD
BRANCH  27  29
HETATM   29  C15 UNL     1      64.475  34.755  23.779  1.00  0.00     0.028 A 
HETATM   30  C16 UNL     1      63.209  34.291  24.081  1.00  0.00     0.030 A 
HETATM   31  C17 UNL     1      62.979  33.597  25.264  1.00  0.00     0.015 A 
HETATM   32  C18 UNL     1      63.990  33.352  26.167  1.00  0.00    -0.019 A 
HETATM   33  C20 UNL     1      65.245  33.821  25.855  1.00  0.00     0.015 A 
HETATM   34  C21 UNL     1      65.487  34.511  24.682  1.00  0.00     0.030 A 
BRANCH  32  35
HETATM   35  C19 UNL     1      63.710  32.619  27.402  1.00  0.00     0.125 C 
HETATM   36  N3  UNL     1      62.508  32.508  27.815  1.00  0.00    -0.280 N 
ATOM     37  H3  UNL     1      61.777  32.945  27.254  1.00  0.00     0.193 HD
BRANCH  36  38
HETATM   38  O3  UNL     1      62.127  31.857  28.939  1.00  0.00    -0.290 OA
ATOM     39  H3  UNL     1      61.227  31.672  29.185  1.00  0.00     0.244 HD
ENDBRANCH  36  38
ENDBRANCH  32  35
ENDBRANCH  27  29
ENDBRANCH  26  27
ENDBRANCH   3  26
TORSDOF 11
ENDMDL
MODEL 3
REMARK VINA RESULT: -7.978905735      3.046      9.955
REMARK  11 active torsions:
REMARK  status: ('A' for Active; 'I' for Inactive)
REMARK    1  A    between atoms: C5_5  and  C6_6 
REMARK    2  A    between atoms: C8_8  and  O1_9 
REMARK    3  A    between atoms: C9_11  and  C10_12 
REMARK    4  A    between atoms: C9_11  and  C11_15 
REMARK    5  A    between atoms: C10_12  and  O2_13 
REMARK    6  A    between atoms: C11_15  and  N1_16 
REMARK    7  A    between atoms: C13_18  and  C14_19 
REMARK    8  A    between atoms: C14_19  and  N2_20 
REMARK    9  A    between atoms: N2_20  and  C15_22 
REMARK   10  A    between atoms: C18_25  and  C19_26 
REMARK   11  A    between atoms: N3_27  and  O3_29 
ROOT
HETATM    1  N1  UNL     1      66.574  37.326  20.012  1.00  0.00    -0.284 N 
HETATM    2  C12 UNL     1      67.128  38.514  19.735  1.00  0.00     0.140 A 
HETATM    3  C13 UNL     1      66.582  39.051  18.587  1.00  0.00     0.061 A 
HETATM    4  N4  UNL     1      65.678  38.140  18.184  1.00  0.00    -0.287 N 
ATOM      5  H4  UNL     1      65.086  38.220  17.356  1.00  0.00     0.188 HD
HETATM    6  N5  UNL     1      65.680  37.128  19.028  1.00  0.00    -0.241 N 
ATOM      7  H5  UNL     1      65.084  36.305  18.945  1.00  0.00     0.208 HD
ENDROOT
BRANCH   1   8
HETATM    8  C11 UNL     1      66.810  36.418  21.069  1.00  0.00     0.192 C 
BRANCH   8   9
HETATM    9  C9  UNL     1      66.167  36.623  22.373  1.00  0.00     0.126 C 
HETATM   10  C8  UNL     1      66.734  37.555  23.354  1.00  0.00     0.159 C 
HETATM   11  C7  UNL     1      66.184  36.955  24.668  1.00  0.00     0.072 C 
HETATM   12  C6  UNL     1      66.320  35.498  24.323  1.00  0.00     0.158 C 
HETATM   13  O4  UNL     1      66.010  35.376  23.001  1.00  0.00    -0.363 OA
BRANCH  10  14
HETATM   14  O1  UNL     1      68.088  37.583  23.530  1.00  0.00    -0.392 OA
ATOM     15  H1  UNL     1      68.435  37.820  22.678  1.00  0.00     0.210 HD
ENDBRANCH  10  14
BRANCH  12  16
HETATM   16  C5  UNL     1      65.436  34.629  25.122  1.00  0.00    -0.029 A 
HETATM   17  C4  UNL     1      65.876  33.650  25.989  1.00  0.00     0.010 A 
HETATM   18  C3  UNL     1      64.990  32.869  26.711  1.00  0.00     0.007 A 
HETATM   19  C2  UNL     1      63.636  33.036  26.592  1.00  0.00    -0.062 A 
HETATM   20  C1  UNL     1      62.663  32.200  27.364  1.00  0.00     0.048 C 
HETATM   21  C23 UNL     1      63.174  34.014  25.727  1.00  0.00     0.007 A 
HETATM   22  C22 UNL     1      64.073  34.800  25.001  1.00  0.00     0.010 A 
ENDBRANCH  12  16
BRANCH   9  23
HETATM   23  C10 UNL     1      64.705  37.078  22.143  1.00  0.00     0.206 C 
BRANCH  23  24
HETATM   24  O2  UNL     1      64.048  35.963  21.596  1.00  0.00    -0.398 OA
ATOM     25  H2  UNL     1      64.537  35.743  20.812  1.00  0.00     0.209 HD
ENDBRANCH  23  24
ENDBRANCH   9  23
ENDBRANCH   8   9
ENDBRANCH   1   8
BRANCH   3  26
HETATM   26  C14 UNL     1      66.935  40.351  17.959  1.00  0.00     0.179 C 
BRANCH  26  27
HETATM   27  N2  UNL     1      66.841  41.402  18.917  1.00  0.00    -0.384 N 
ATOM     28  H2  UNL     1      67.567  41.514  19.624  1.00  0.00     0.160 HD
BRANCH  27  29
HETATM   29  C15 UNL     1      65.737  42.291  18.884  1.00  0.00     0.028 A 
HETATM   30  C16 UNL     1      64.616  42.007  18.128  1.00  0.00     0.030 A 
HETATM   31  C17 UNL     1      63.540  42.889  18.107  1.00  0.00     0.015 A 
HETATM   32  C18 UNL     1      63.554  44.063  18.827  1.00  0.00    -0.019 A 
HETATM   33  C20 UNL     1      64.676  44.334  19.575  1.00  0.00     0.015 A 
HETATM   34  C21 UNL     1      65.751  43.466  19.605  1.00  0.00     0.030 A 
BRANCH  32  35
HETATM   35  C19 UNL     1      62.404  44.967  18.781  1.00  0.00     0.125 C 
HETATM   36  N3  UNL     1      61.359  44.630  18.131  1.00  0.00    -0.280 N 
ATOM     37  H3  UNL     1      61.370  43.724  17.662  1.00  0.00     0.193 HD
BRANCH  36  38
HETATM   38  O3  UNL     1      60.238  45.379  18.015  1.00  0.00    -0.290 OA
ATOM     39  H3  UNL     1      60.170  46.300  18.239  1.00  0.00     0.244 HD
ENDBRANCH  36  38
ENDBRANCH  32  35
ENDBRANCH  27  29
ENDBRANCH  26  27
ENDBRANCH   3  26
TORSDOF 11
ENDMDL
MODEL 4
REMARK VINA RESULT: -7.964009934      1.496      2.217
REMARK  11 active torsions:
REMARK  status: ('A' for Active; 'I' for Inactive)
REMARK    1  A    between atoms: C5_5  and  C6_6 
REMARK    2  A    between atoms: C8_8  and  O1_9 
REMARK    3  A    between atoms: C9_11  and  C10_12 
REMARK    4  A    between atoms: C9_11  and  C11_15 
REMARK    5  A    between atoms: C10_12  and  O2_13 
REMARK    6  A    between atoms: C11_15  and  N1_16 
REMARK    7  A    between atoms: C13_18  and  C14_19 
REMARK    8  A    between atoms: C14_19  and  N2_20 
REMARK    9  A    between atoms: N2_20  and  C15_22 
REMARK   10  A    between atoms: C18_25  and  C19_26 
REMARK   11  A    between atoms: N3_27  and  O3_29 
ROOT
HETATM    1  N1  UNL     1      66.482  38.718  18.523  1.00  0.00    -0.284 N 
HETATM    2  C12 UNL     1      65.980  37.830  19.393  1.00  0.00     0.140 A 
HETATM    3  C13 UNL     1      66.700  37.842  20.571  1.00  0.00     0.061 A 
HETATM    4  N4  UNL     1      67.655  38.769  20.375  1.00  0.00    -0.287 N 
ATOM      5  H4  UNL     1      68.369  39.035  21.053  1.00  0.00     0.188 HD
HETATM    6  N5  UNL     1      67.518  39.279  19.168  1.00  0.00    -0.241 N 
ATOM      7  H5  UNL     1      68.120  40.003  18.776  1.00  0.00     0.208 HD
ENDROOT
BRANCH   1   8
HETATM    8  C11 UNL     1      66.082  39.054  17.211  1.00  0.00     0.192 C 
BRANCH   8   9
HETATM    9  C9  UNL     1      65.816  40.454  16.858  1.00  0.00     0.126 C 
HETATM   10  C8  UNL     1      66.899  41.337  16.410  1.00  0.00     0.159 C 
HETATM   11  C7  UNL     1      66.325  42.717  16.806  1.00  0.00     0.072 C 
HETATM   12  C6  UNL     1      65.686  42.327  18.110  1.00  0.00     0.158 C 
HETATM   13  O4  UNL     1      65.168  41.078  17.937  1.00  0.00    -0.363 OA
BRANCH  10  14
HETATM   14  O1  UNL     1      68.106  41.273  17.046  1.00  0.00    -0.392 OA
ATOM     15  H1  UNL     1      68.591  42.018  16.714  1.00  0.00     0.210 HD
ENDBRANCH  10  14
BRANCH  12  16
HETATM   16  C5  UNL     1      64.618  43.254  18.531  1.00  0.00    -0.029 A 
HETATM   17  C4  UNL     1      63.357  43.297  17.976  1.00  0.00     0.010 A 
HETATM   18  C3  UNL     1      62.399  44.193  18.421  1.00  0.00     0.007 A 
HETATM   19  C2  UNL     1      62.668  45.076  19.432  1.00  0.00    -0.062 A 
HETATM   20  C1  UNL     1      61.647  46.053  19.925  1.00  0.00     0.048 C 
HETATM   21  C23 UNL     1      63.930  45.049  20.002  1.00  0.00     0.007 A 
HETATM   22  C22 UNL     1      64.893  44.142  19.550  1.00  0.00     0.010 A 
ENDBRANCH  12  16
BRANCH   9  23
HETATM   23  C10 UNL     1      64.742  40.493  15.743  1.00  0.00     0.206 C 
BRANCH  23  24
HETATM   24  O2  UNL     1      65.020  39.389  14.918  1.00  0.00    -0.398 OA
ATOM     25  H2  UNL     1      64.202  39.190  14.480  1.00  0.00     0.209 HD
ENDBRANCH  23  24
ENDBRANCH   9  23
ENDBRANCH   8   9
ENDBRANCH   1   8
BRANCH   3  26
HETATM   26  C14 UNL     1      66.452  37.001  21.771  1.00  0.00     0.179 C 
BRANCH  26  27
HETATM   27  N2  UNL     1      65.080  36.625  21.834  1.00  0.00    -0.384 N 
ATOM     28  H2  UNL     1      64.446  36.877  21.075  1.00  0.00     0.160 HD
BRANCH  27  29
HETATM   29  C15 UNL     1      64.596  35.899  22.952  1.00  0.00     0.028 A 
HETATM   30  C16 UNL     1      65.059  36.163  24.227  1.00  0.00     0.030 A 
HETATM   31  C17 UNL     1      64.574  35.444  25.314  1.00  0.00     0.015 A 
HETATM   32  C18 UNL     1      63.629  34.454  25.161  1.00  0.00    -0.019 A 
HETATM   33  C20 UNL     1      63.177  34.200  23.887  1.00  0.00     0.015 A 
HETATM   34  C21 UNL     1      63.650  34.909  22.799  1.00  0.00     0.030 A 
BRANCH  32  35
HETATM   35  C19 UNL     1      63.142  33.716  26.328  1.00  0.00     0.125 C 
HETATM   36  N3  UNL     1      62.364  32.718  26.167  1.00  0.00    -0.280 N 
ATOM     37  H3  UNL     1      62.108  32.471  25.211  1.00  0.00     0.193 HD
BRANCH  36  38
HETATM   38  O3  UNL     1      61.850  31.962  27.165  1.00  0.00    -0.290 OA
ATOM     39  H3  UNL     1      61.163  32.236  27.762  1.00  0.00     0.244 HD
ENDBRANCH  36  38
ENDBRANCH  32  35
ENDBRANCH  27  29
ENDBRANCH  26  27
ENDBRANCH   3  26
TORSDOF 11
ENDMDL
MODEL 5
REMARK VINA RESULT: -7.900005771      6.715      8.484
REMARK  11 active torsions:
REMARK  status: ('A' for Active; 'I' for Inactive)
REMARK    1  A    between atoms: C5_5  and  C6_6 
REMARK    2  A    between atoms: C8_8  and  O1_9 
REMARK    3  A    between atoms: C9_11  and  C10_12 
REMARK    4  A    between atoms: C9_11  and  C11_15 
REMARK    5  A    between atoms: C10_12  and  O2_13 
REMARK    6  A    between atoms: C11_15  and  N1_16 
REMARK    7  A    between atoms: C13_18  and  C14_19 
REMARK    8  A    between atoms: C14_19  and  N2_20 
REMARK    9  A    between atoms: N2_20  and  C15_22 
REMARK   10  A    between atoms: C18_25  and  C19_26 
REMARK   11  A    between atoms: N3_27  and  O3_29 
ROOT
HETATM    1  N1  UNL     1      67.196  38.483  26.754  1.00  0.00    -0.284 N 
HETATM    2  C12 UNL     1      67.149  37.925  25.537  1.00  0.00     0.140 A 
HETATM    3  C13 UNL     1      65.842  37.775  25.119  1.00  0.00     0.061 A 
HETATM    4  N4  UNL     1      65.105  38.264  26.132  1.00  0.00    -0.287 N 
ATOM      5  H4  UNL     1      64.085  38.307  26.155  1.00  0.00     0.188 HD
HETATM    6  N5  UNL     1      65.909  38.678  27.090  1.00  0.00    -0.241 N 
ATOM      7  H5  UNL     1      65.597  39.091  27.969  1.00  0.00     0.208 HD
ENDROOT
BRANCH   1   8
HETATM    8  C11 UNL     1      68.295  38.824  27.574  1.00  0.00     0.192 C 
BRANCH   8   9
HETATM    9  C9  UNL     1      68.443  40.197  28.073  1.00  0.00     0.126 C 
HETATM   10  C8  UNL     1      67.663  41.297  27.494  1.00  0.00     0.159 C 
HETATM   11  C7  UNL     1      68.583  42.498  27.815  1.00  0.00     0.072 C 
HETATM   12  C6  UNL     1      69.910  41.836  27.567  1.00  0.00     0.158 C 
HETATM   13  O4  UNL     1      69.801  40.554  28.018  1.00  0.00    -0.363 OA
BRANCH  10  14
HETATM   14  O1  UNL     1      67.496  41.345  26.140  1.00  0.00    -0.392 OA
ATOM     15  H1  UNL     1      67.857  40.525  25.826  1.00  0.00     0.210 HD
ENDBRANCH  10  14
BRANCH  12  16
HETATM   16  C5  UNL     1      71.030  42.510  28.250  1.00  0.00    -0.029 A 
HETATM   17  C4  UNL     1      72.349  42.428  27.857  1.00  0.00     0.010 A 
HETATM   18  C3  UNL     1      73.353  43.089  28.544  1.00  0.00     0.007 A 
HETATM   19  C2  UNL     1      73.075  43.851  29.647  1.00  0.00    -0.062 A 
HETATM   20  C1  UNL     1      74.148  44.571  30.404  1.00  0.00     0.048 C 
HETATM   21  C23 UNL     1      71.756  43.945  30.058  1.00  0.00     0.007 A 
HETATM   22  C22 UNL     1      70.747  43.277  29.360  1.00  0.00     0.010 A 
ENDBRANCH  12  16
BRANCH   9  23
HETATM   23  C10 UNL     1      68.145  40.211  29.592  1.00  0.00     0.206 C 
BRANCH  23  24
HETATM   24  O2  UNL     1      66.805  39.804  29.713  1.00  0.00    -0.398 OA
ATOM     25  H2  UNL     1      66.543  40.056  30.590  1.00  0.00     0.209 HD
ENDBRANCH  23  24
ENDBRANCH   9  23
ENDBRANCH   8   9
ENDBRANCH   1   8
BRANCH   3  26
HETATM   26  C14 UNL     1      65.382  37.197  23.829  1.00  0.00     0.179 C 
BRANCH  26  27
HETATM   27  N2  UNL     1      65.685  35.805  23.778  1.00  0.00    -0.384 N 
ATOM     28  H2  UNL     1      66.429  35.467  23.168  1.00  0.00     0.160 HD
BRANCH  27  29
HETATM   29  C15 UNL     1      64.950  34.892  24.576  1.00  0.00     0.028 A 
HETATM   30  C16 UNL     1      65.593  33.938  25.342  1.00  0.00     0.030 A 
HETATM   31  C17 UNL     1      64.859  33.049  26.120  1.00  0.00     0.015 A 
HETATM   32  C18 UNL     1      63.483  33.085  26.153  1.00  0.00    -0.019 A 
HETATM   33  C20 UNL     1      62.855  34.039  25.386  1.00  0.00     0.015 A 
HETATM   34  C21 UNL     1      63.573  34.928  24.609  1.00  0.00     0.030 A 
BRANCH  32  35
HETATM   35  C19 UNL     1      62.743  32.133  26.983  1.00  0.00     0.125 C 
HETATM   36  N3  UNL     1      62.603  32.357  28.231  1.00  0.00    -0.280 N 
ATOM     37  H3  UNL     1      63.021  33.208  28.606  1.00  0.00     0.193 HD
BRANCH  36  38
HETATM   38  O3  UNL     1      61.942  31.553  29.098  1.00  0.00    -0.290 OA
ATOM     39  H3  UNL     1      62.212  31.374  29.991  1.00  0.00     0.244 HD
ENDBRANCH  36  38
ENDBRANCH  32  35
ENDBRANCH  27  29
ENDBRANCH  26  27
ENDBRANCH   3  26
TORSDOF 11
ENDMDL
