MODEL 1
REMARK VINA RESULT: -6.802483690      0.000      0.000
REMARK  2 active torsions:
REMARK  status: ('A' for Active; 'I' for Inactive)
REMARK    1  A    between atoms: C2_2  and  N2_6 
REMARK    2  A    between atoms: N2_6  and  C5_8 
ROOT
HETATM    1  C1  UNL     1      -2.565  -8.503 -17.540  1.00  0.00     0.054 C 
HETATM    2  C2  UNL     1      -1.972  -8.711 -16.134  1.00  0.00     0.110 C 
HETATM    3  C3  UNL     1      -2.112  -7.400 -15.441  1.00  0.00     0.054 C 
HETATM    4  C4  UNL     1      -2.903  -9.656 -15.447  1.00  0.00     0.089 C 
HETATM    5  N1  UNL     1      -3.611 -10.403 -14.916  1.00  0.00    -0.195 NA
ENDROOT
BRANCH   2   6
HETATM    6  N2  UNL     1      -0.694  -9.244 -16.298  1.00  0.00    -0.381 N 
ATOM      7  H2  UNL     1      -0.594 -10.258 -16.359  1.00  0.00     0.156 HD
BRANCH   6   8
HETATM    8  C5  UNL     1       0.454  -8.456 -16.381  1.00  0.00     0.117 C 
HETATM    9  C6  UNL     1       0.996  -8.217 -15.018  1.00  0.00     0.090 C 
HETATM   10  N3  UNL     1       1.403  -8.016 -13.951  1.00  0.00    -0.195 NA
HETATM   11  C7  UNL     1       0.440  -7.244 -17.237  1.00  0.00     0.046 C 
HETATM   12  C8  UNL     1       1.312  -7.326 -18.472  1.00  0.00     0.004 C 
HETATM   13  C9  UNL     1       2.737  -7.658 -18.216  1.00  0.00     0.000 C 
HETATM   14  C10 UNL     1       2.805  -8.542 -16.981  1.00  0.00     0.004 C 
HETATM   15  C11 UNL     1       1.538  -9.372 -17.011  1.00  0.00     0.046 C 
ENDBRANCH   6   8
ENDBRANCH   2   6
TORSDOF 2
ENDMDL
MODEL 2
REMARK VINA RESULT: -6.607246086      1.497      2.608
REMARK  2 active torsions:
REMARK  status: ('A' for Active; 'I' for Inactive)
REMARK    1  A    between atoms: C2_2  and  N2_6 
REMARK    2  A    between atoms: N2_6  and  C5_8 
ROOT
HETATM    1  C1  UNL     1      -2.723  -7.760 -14.829  1.00  0.00     0.054 C 
HETATM    2  C2  UNL     1      -1.527  -8.591 -15.331  1.00  0.00     0.110 C 
HETATM    3  C3  UNL     1      -0.586  -8.676 -14.180  1.00  0.00     0.054 C 
HETATM    4  C4  UNL     1      -2.062  -9.969 -15.544  1.00  0.00     0.089 C 
HETATM    5  N1  UNL     1      -2.476 -11.034 -15.730  1.00  0.00    -0.195 NA
ENDROOT
BRANCH   2   6
HETATM    6  N2  UNL     1      -1.081  -8.002 -16.514  1.00  0.00    -0.381 N 
ATOM      7  H2  UNL     1      -1.569  -7.175 -16.859  1.00  0.00     0.156 HD
BRANCH   6   8
HETATM    8  C5  UNL     1       0.002  -8.490 -17.246  1.00  0.00     0.117 C 
HETATM    9  C6  UNL     1      -0.493  -9.207 -18.451  1.00  0.00     0.090 C 
HETATM   10  N3  UNL     1      -0.884  -9.781 -19.378  1.00  0.00    -0.195 NA
HETATM   11  C7  UNL     1       1.095  -9.201 -16.537  1.00  0.00     0.046 C 
HETATM   12  C8  UNL     1       2.415  -8.462 -16.498  1.00  0.00     0.004 C 
HETATM   13  C9  UNL     1       2.951  -8.058 -17.823  1.00  0.00     0.000 C 
HETATM   14  C10 UNL     1       1.775  -7.793 -18.751  1.00  0.00     0.004 C 
HETATM   15  C11 UNL     1       0.681  -7.238 -17.863  1.00  0.00     0.046 C 
ENDBRANCH   6   8
ENDBRANCH   2   6
TORSDOF 2
ENDMDL
MODEL 3
REMARK VINA RESULT: -6.408701104      1.601      2.751
REMARK  2 active torsions:
REMARK  status: ('A' for Active; 'I' for Inactive)
REMARK    1  A    between atoms: C2_2  and  N2_6 
REMARK    2  A    between atoms: N2_6  and  C5_8 
ROOT
HETATM    1  C1  UNL     1      -2.801  -7.709 -14.640  1.00  0.00     0.054 C 
HETATM    2  C2  UNL     1      -2.248  -8.480 -15.854  1.00  0.00     0.110 C 
HETATM    3  C3  UNL     1      -2.187  -9.906 -15.429  1.00  0.00     0.054 C 
HETATM    4  C4  UNL     1      -3.312  -8.392 -16.898  1.00  0.00     0.089 C 
HETATM    5  N1  UNL     1      -4.125  -8.311 -17.717  1.00  0.00    -0.195 NA
ENDROOT
BRANCH   2   6
HETATM    6  N2  UNL     1      -1.066  -7.849 -16.241  1.00  0.00    -0.381 N 
ATOM      7  H2  UNL     1      -0.995  -6.838 -16.128  1.00  0.00     0.156 HD
BRANCH   6   8
HETATM    8  C5  UNL     1       0.024  -8.538 -16.775  1.00  0.00     0.117 C 
HETATM    9  C6  UNL     1      -0.380  -9.209 -18.039  1.00  0.00     0.090 C 
HETATM   10  N3  UNL     1      -0.706  -9.748 -19.012  1.00  0.00    -0.195 NA
HETATM   11  C7  UNL     1       0.849  -9.391 -15.885  1.00  0.00     0.046 C 
HETATM   12  C8  UNL     1       2.251  -8.879 -15.632  1.00  0.00     0.004 C 
HETATM   13  C9  UNL     1       3.057  -8.621 -16.853  1.00  0.00     0.000 C 
HETATM   14  C10 UNL     1       2.112  -8.202 -17.968  1.00  0.00     0.004 C 
HETATM   15  C11 UNL     1       0.997  -7.440 -17.283  1.00  0.00     0.046 C 
ENDBRANCH   6   8
ENDBRANCH   2   6
TORSDOF 2
ENDMDL
MODEL 4
REMARK VINA RESULT: -6.398322254      1.007      1.369
REMARK  2 active torsions:
REMARK  status: ('A' for Active; 'I' for Inactive)
REMARK    1  A    between atoms: C2_2  and  N2_6 
REMARK    2  A    between atoms: N2_6  and  C5_8 
ROOT
HETATM    1  C1  UNL     1      -2.885 -10.294 -16.679  1.00  0.00     0.054 C 
HETATM    2  C2  UNL     1      -2.002  -9.041 -16.831  1.00  0.00     0.110 C 
HETATM    3  C3  UNL     1      -2.406  -8.421 -18.125  1.00  0.00     0.054 C 
HETATM    4  C4  UNL     1      -2.451  -8.107 -15.755  1.00  0.00     0.089 C 
HETATM    5  N1  UNL     1      -2.780  -7.387 -14.911  1.00  0.00    -0.195 NA
ENDROOT
BRANCH   2   6
HETATM    6  N2  UNL     1      -0.678  -9.445 -16.672  1.00  0.00    -0.381 N 
ATOM      7  H2  UNL     1      -0.485 -10.440 -16.550  1.00  0.00     0.156 HD
BRANCH   6   8
HETATM    8  C5  UNL     1       0.395  -8.553 -16.670  1.00  0.00     0.117 C 
HETATM    9  C6  UNL     1       0.782  -8.239 -15.269  1.00  0.00     0.090 C 
HETATM   10  N3  UNL     1       1.066  -7.982 -14.176  1.00  0.00    -0.195 NA
HETATM   11  C7  UNL     1       0.350  -7.364 -17.556  1.00  0.00     0.046 C 
HETATM   12  C8  UNL     1       1.339  -7.386 -18.703  1.00  0.00     0.004 C 
HETATM   13  C9  UNL     1       2.758  -7.577 -18.306  1.00  0.00     0.000 C 
HETATM   14  C10 UNL     1       2.791  -8.428 -17.047  1.00  0.00     0.004 C 
HETATM   15  C11 UNL     1       1.614  -9.374 -17.171  1.00  0.00     0.046 C 
ENDBRANCH   6   8
ENDBRANCH   2   6
TORSDOF 2
ENDMDL
MODEL 5
REMARK VINA RESULT: -6.182850385      1.890      4.768
REMARK  2 active torsions:
REMARK  status: ('A' for Active; 'I' for Inactive)
REMARK    1  A    between atoms: C2_2  and  N2_6 
REMARK    2  A    between atoms: N2_6  and  C5_8 
ROOT
HETATM    1  C1  UNL     1       2.467 -10.151 -14.705  1.00  0.00     0.054 C 
HETATM    2  C2  UNL     1       1.454  -9.118 -15.234  1.00  0.00     0.110 C 
HETATM    3  C3  UNL     1       1.499  -7.982 -14.271  1.00  0.00     0.054 C 
HETATM    4  C4  UNL     1       2.036  -8.613 -16.514  1.00  0.00     0.089 C 
HETATM    5  N1  UNL     1       2.472  -8.232 -17.516  1.00  0.00    -0.195 NA
ENDROOT
BRANCH   2   6
HETATM    6  N2  UNL     1       0.243  -9.783 -15.422  1.00  0.00    -0.381 N 
ATOM      7  H2  UNL     1       0.162 -10.746 -15.093  1.00  0.00     0.156 HD
BRANCH   6   8
HETATM    8  C5  UNL     1      -0.861  -9.194 -16.039  1.00  0.00     0.117 C 
HETATM    9  C6  UNL     1      -0.840  -9.496 -17.495  1.00  0.00     0.090 C 
HETATM   10  N3  UNL     1      -0.808  -9.717 -18.632  1.00  0.00    -0.195 NA
HETATM   11  C7  UNL     1      -1.197  -7.783 -15.728  1.00  0.00     0.046 C 
HETATM   12  C8  UNL     1      -2.476  -7.591 -14.941  1.00  0.00     0.004 C 
HETATM   13  C9  UNL     1      -3.687  -8.200 -15.549  1.00  0.00     0.000 C 
HETATM   14  C10 UNL     1      -3.260  -9.437 -16.323  1.00  0.00     0.004 C 
HETATM   15  C11 UNL     1      -2.089 -10.009 -15.551  1.00  0.00     0.046 C 
ENDBRANCH   6   8
ENDBRANCH   2   6
TORSDOF 2
ENDMDL
