MODEL 1
REMARK VINA RESULT: -5.873596214      0.000      0.000
REMARK  2 active torsions:
REMARK  status: ('A' for Active; 'I' for Inactive)
REMARK    1  A    between atoms: N1_4  and  C4_5 
REMARK    2  A    between atoms: C4_5  and  C5_6 
ROOT
HETATM    1  C1  UNL     1       2.895  -7.837 -18.145  1.00  0.00     0.003 C 
HETATM    2  C2  UNL     1       1.738  -6.930 -18.567  1.00  0.00     0.030 C 
HETATM    3  C3  UNL     1       0.549  -7.756 -18.831  1.00  0.00     0.272 C 
HETATM    4  N1  UNL     1       0.306  -8.927 -18.106  1.00  0.00     0.089 N 
HETATM    5  C8  UNL     1       1.202  -9.290 -17.056  1.00  0.00     0.272 C 
HETATM    6  C9  UNL     1       2.397  -8.446 -16.847  1.00  0.00     0.030 C 
ENDROOT
BRANCH   4   7
HETATM    7  C4  UNL     1      -1.068  -8.890 -17.622  1.00  0.00     0.289 C 
BRANCH   7   8
HETATM    8  C5  UNL     1      -1.185  -8.977 -16.137  1.00  0.00     0.101 C 
HETATM    9  C6  UNL     1      -1.788  -7.668 -15.637  1.00  0.00     0.185 C 
HETATM   10  O1  UNL     1      -3.104  -7.634 -16.084  1.00  0.00    -0.380 OA
HETATM   11  C7  UNL     1      -3.776  -8.650 -15.361  1.00  0.00     0.242 C 
HETATM   12  S1  UNL     1      -2.631 -10.055 -15.699  1.00  0.00    -0.134 SA
ENDBRANCH   7   8
ENDBRANCH   4   7
TORSDOF 2
ENDMDL
MODEL 2
REMARK VINA RESULT: -5.782838515      1.914      2.286
REMARK  2 active torsions:
REMARK  status: ('A' for Active; 'I' for Inactive)
REMARK    1  A    between atoms: N1_4  and  C4_5 
REMARK    2  A    between atoms: C4_5  and  C5_6 
ROOT
HETATM    1  C1  UNL     1       2.956  -7.806 -18.197  1.00  0.00     0.003 C 
HETATM    2  C2  UNL     1       1.819  -6.857 -18.580  1.00  0.00     0.030 C 
HETATM    3  C3  UNL     1       0.600  -7.643 -18.829  1.00  0.00     0.272 C 
HETATM    4  N1  UNL     1       0.336  -8.816 -18.115  1.00  0.00     0.089 N 
HETATM    5  C8  UNL     1       1.243  -9.222 -17.091  1.00  0.00     0.272 C 
HETATM    6  C9  UNL     1       2.469  -8.419 -16.897  1.00  0.00     0.030 C 
ENDROOT
BRANCH   4   7
HETATM    7  C4  UNL     1      -1.025  -8.744 -17.599  1.00  0.00     0.289 C 
BRANCH   7   8
HETATM    8  C5  UNL     1      -2.058  -9.246 -18.551  1.00  0.00     0.101 C 
HETATM    9  C6  UNL     1      -1.713 -10.691 -18.898  1.00  0.00     0.185 C 
HETATM   10  O1  UNL     1      -1.916 -11.440 -17.744  1.00  0.00    -0.380 OA
HETATM   11  C7  UNL     1      -3.316 -11.436 -17.531  1.00  0.00     0.242 C 
HETATM   12  S1  UNL     1      -3.619  -9.619 -17.620  1.00  0.00    -0.134 SA
ENDBRANCH   7   8
ENDBRANCH   4   7
TORSDOF 2
ENDMDL
MODEL 3
REMARK VINA RESULT: -5.593379490      1.566      2.201
REMARK  2 active torsions:
REMARK  status: ('A' for Active; 'I' for Inactive)
REMARK    1  A    between atoms: N1_4  and  C4_5 
REMARK    2  A    between atoms: C4_5  and  C5_6 
ROOT
HETATM    1  C1  UNL     1       2.443  -7.181 -18.447  1.00  0.00     0.003 C 
HETATM    2  C2  UNL     1       2.756  -8.362 -17.528  1.00  0.00     0.030 C 
HETATM    3  C3  UNL     1       1.721  -8.447 -16.485  1.00  0.00     0.272 C 
HETATM    4  N1  UNL     1       0.398  -8.082 -16.746  1.00  0.00     0.089 N 
HETATM    5  C8  UNL     1       0.039  -7.673 -18.066  1.00  0.00     0.272 C 
HETATM    6  C9  UNL     1       1.117  -7.574 -19.073  1.00  0.00     0.030 C 
ENDROOT
BRANCH   4   7
HETATM    7  C4  UNL     1      -0.475  -9.155 -16.286  1.00  0.00     0.289 C 
BRANCH   7   8
HETATM    8  C5  UNL     1      -1.895  -9.003 -16.715  1.00  0.00     0.101 C 
HETATM    9  C6  UNL     1      -2.429 -10.386 -17.074  1.00  0.00     0.185 C 
HETATM   10  O1  UNL     1      -2.504 -11.108 -15.887  1.00  0.00    -0.380 OA
HETATM   11  C7  UNL     1      -3.538 -10.497 -15.138  1.00  0.00     0.242 C 
HETATM   12  S1  UNL     1      -2.963  -8.747 -15.218  1.00  0.00    -0.134 SA
ENDBRANCH   7   8
ENDBRANCH   4   7
TORSDOF 2
ENDMDL
MODEL 4
REMARK VINA RESULT: -5.566663645      1.556      1.823
REMARK  2 active torsions:
REMARK  status: ('A' for Active; 'I' for Inactive)
REMARK    1  A    between atoms: N1_4  and  C4_5 
REMARK    2  A    between atoms: C4_5  and  C5_6 
ROOT
HETATM    1  C1  UNL     1       2.868  -7.834 -18.228  1.00  0.00     0.003 C 
HETATM    2  C2  UNL     1       1.690  -6.925 -18.583  1.00  0.00     0.030 C 
HETATM    3  C3  UNL     1       0.483  -7.747 -18.759  1.00  0.00     0.272 C 
HETATM    4  N1  UNL     1       0.282  -8.908 -18.006  1.00  0.00     0.089 N 
HETATM    5  C8  UNL     1       1.243  -9.265 -17.012  1.00  0.00     0.272 C 
HETATM    6  C9  UNL     1       2.454  -8.426 -16.893  1.00  0.00     0.030 C 
ENDROOT
BRANCH   4   7
HETATM    7  C4  UNL     1      -1.057  -8.857 -17.432  1.00  0.00     0.289 C 
BRANCH   7   8
HETATM    8  C5  UNL     1      -2.118  -9.404 -18.327  1.00  0.00     0.101 C 
HETATM    9  C6  UNL     1      -2.898 -10.454 -17.544  1.00  0.00     0.185 C 
HETATM   10  O1  UNL     1      -3.601  -9.777 -16.553  1.00  0.00    -0.380 OA
HETATM   11  C7  UNL     1      -4.583  -9.021 -17.236  1.00  0.00     0.242 C 
HETATM   12  S1  UNL     1      -3.500  -8.172 -18.462  1.00  0.00    -0.134 SA
ENDBRANCH   7   8
ENDBRANCH   4   7
TORSDOF 2
ENDMDL
MODEL 5
REMARK VINA RESULT: -5.534113290      1.665      2.369
REMARK  2 active torsions:
REMARK  status: ('A' for Active; 'I' for Inactive)
REMARK    1  A    between atoms: N1_4  and  C4_5 
REMARK    2  A    between atoms: C4_5  and  C5_6 
ROOT
HETATM    1  C1  UNL     1       2.931  -8.664 -16.884  1.00  0.00     0.003 C 
HETATM    2  C2  UNL     1       2.278  -9.646 -15.909  1.00  0.00     0.030 C 
HETATM    3  C3  UNL     1       1.257  -8.936 -15.123  1.00  0.00     0.272 C 
HETATM    4  N1  UNL     1       0.518  -7.886 -15.675  1.00  0.00     0.089 N 
HETATM    5  C8  UNL     1       0.723  -7.539 -17.045  1.00  0.00     0.272 C 
HETATM    6  C9  UNL     1       1.780  -8.259 -17.787  1.00  0.00     0.030 C 
ENDROOT
BRANCH   4   7
HETATM    7  C4  UNL     1      -0.895  -8.131 -15.413  1.00  0.00     0.289 C 
BRANCH   7   8
HETATM    8  C5  UNL     1      -1.538  -9.055 -16.392  1.00  0.00     0.101 C 
HETATM    9  C6  UNL     1      -2.291 -10.123 -15.605  1.00  0.00     0.185 C 
HETATM   10  O1  UNL     1      -3.358  -9.485 -14.982  1.00  0.00    -0.380 OA
HETATM   11  C7  UNL     1      -4.236  -9.109 -16.027  1.00  0.00     0.242 C 
HETATM   12  S1  UNL     1      -3.036  -8.232 -17.117  1.00  0.00    -0.134 SA
ENDBRANCH   7   8
ENDBRANCH   4   7
TORSDOF 2
ENDMDL
