MODEL 1
REMARK VINA RESULT: -6.087789851      0.000      0.000
REMARK  6 active torsions:
REMARK  status: ('A' for Active; 'I' for Inactive)
REMARK    1  A    between atoms: N3_4  and  S1_6 
REMARK    2  A    between atoms: S1_6  and  C2_9 
REMARK    3  A    between atoms: C5_12  and  C6_13 
REMARK    4  A    between atoms: C6_13  and  N4_14 
REMARK    5  A    between atoms: C6_13  and  O3_18 
REMARK    6  A    between atoms: N5_20  and  O4_21 
ROOT
HETATM    1  C2  UNL     1     -46.312 -21.790 -18.844  1.00  0.00     0.097 A 
HETATM    2  C3  UNL     1     -46.280 -20.915 -17.773  1.00  0.00     0.029 A 
HETATM    3  C4  UNL     1     -47.033 -21.171 -16.645  1.00  0.00     0.034 A 
HETATM    4  C5  UNL     1     -47.833 -22.288 -16.542  1.00  0.00     0.095 A 
HETATM    5  N5  UNL     1     -47.852 -23.127 -17.594  1.00  0.00    -0.234 N 
HETATM    6  C7  UNL     1     -47.121 -22.900 -18.716  1.00  0.00     0.148 A 
ENDROOT
BRANCH   1   7
HETATM    7  S1  UNL     1     -45.364 -21.496 -20.300  1.00  0.00     0.266 S 
HETATM    8  O1  UNL     1     -44.948 -22.809 -20.926  1.00  0.00    -0.200 OA
HETATM    9  O2  UNL     1     -46.198 -20.775 -21.336  1.00  0.00    -0.200 OA
BRANCH   7  10
HETATM   10  N3  UNL     1     -44.007 -20.501 -19.941  1.00  0.00    -0.256 N 
HETATM   11  C1  UNL     1     -43.084 -20.829 -19.122  1.00  0.00     0.210 C 
HETATM   12  N1  UNL     1     -43.147 -22.066 -18.454  1.00  0.00    -0.066 NA
HETATM   13  N2  UNL     1     -42.006 -19.953 -18.885  1.00  0.00    -0.066 NA
ATOM     14  H3  UNL     1     -43.936 -19.598 -20.410  1.00  0.00     0.181 HD
ENDBRANCH   7  10
ENDBRANCH   1   7
BRANCH   5  15
HETATM   15  O4  UNL     1     -48.653 -24.250 -17.493  1.00  0.00    -0.283 OA
ATOM     16  H4  UNL     1     -48.672 -24.838 -18.239  1.00  0.00     0.245 HD
ENDBRANCH   5  15
BRANCH   4  17
HETATM   17  C6  UNL     1     -48.644 -22.547 -15.307  1.00  0.00     0.369 C 
BRANCH  17  18
HETATM   18  N4  UNL     1     -48.284 -23.821 -14.713  1.00  0.00    -0.047 N 
ATOM     19  H43 UNL     1     -49.095 -24.430 -14.606  1.00  0.00     0.277 HD
ATOM     20  H42 UNL     1     -47.743 -24.399 -15.356  1.00  0.00     0.277 HD
ATOM     21  H41 UNL     1     -47.796 -23.683 -13.827  1.00  0.00     0.277 HD
ENDBRANCH  17  18
BRANCH  17  22
HETATM   22  O3  UNL     1     -48.418 -21.572 -14.347  1.00  0.00    -0.365 OA
ATOM     23  H3  UNL     1     -49.222 -21.341 -13.897  1.00  0.00     0.212 HD
ENDBRANCH  17  22
ENDBRANCH   4  17
TORSDOF 6
ENDMDL
MODEL 2
REMARK VINA RESULT: -5.748671213      2.678      5.338
REMARK  6 active torsions:
REMARK  status: ('A' for Active; 'I' for Inactive)
REMARK    1  A    between atoms: N3_4  and  S1_6 
REMARK    2  A    between atoms: S1_6  and  C2_9 
REMARK    3  A    between atoms: C5_12  and  C6_13 
REMARK    4  A    between atoms: C6_13  and  N4_14 
REMARK    5  A    between atoms: C6_13  and  O3_18 
REMARK    6  A    between atoms: N5_20  and  O4_21 
ROOT
HETATM    1  C2  UNL     1     -46.256 -21.377 -19.266  1.00  0.00     0.097 A 
HETATM    2  C3  UNL     1     -45.464 -20.897 -20.294  1.00  0.00     0.029 A 
HETATM    3  C4  UNL     1     -44.161 -20.516 -20.046  1.00  0.00     0.034 A 
HETATM    4  C5  UNL     1     -43.605 -20.597 -18.787  1.00  0.00     0.095 A 
HETATM    5  N5  UNL     1     -44.391 -21.065 -17.800  1.00  0.00    -0.234 N 
HETATM    6  C7  UNL     1     -45.677 -21.447 -18.015  1.00  0.00     0.148 A 
ENDROOT
BRANCH   1   7
HETATM    7  S1  UNL     1     -47.924 -21.872 -19.544  1.00  0.00     0.266 S 
HETATM    8  O1  UNL     1     -48.611 -22.154 -18.227  1.00  0.00    -0.200 OA
HETATM    9  O2  UNL     1     -48.703 -20.755 -20.202  1.00  0.00    -0.200 OA
BRANCH   7  10
HETATM   10  N3  UNL     1     -47.977 -23.232 -20.597  1.00  0.00    -0.256 N 
HETATM   11  C1  UNL     1     -47.682 -24.421 -20.235  1.00  0.00     0.210 C 
HETATM   12  N1  UNL     1     -47.287 -24.672 -18.908  1.00  0.00    -0.066 NA
HETATM   13  N2  UNL     1     -47.753 -25.479 -21.163  1.00  0.00    -0.066 NA
ATOM     14  H3  UNL     1     -48.259 -23.080 -21.565  1.00  0.00     0.181 HD
ENDBRANCH   7  10
ENDBRANCH   1   7
BRANCH   5  15
HETATM   15  O4  UNL     1     -43.836 -21.148 -16.536  1.00  0.00    -0.283 OA
ATOM     16  H4  UNL     1     -43.923 -20.387 -15.974  1.00  0.00     0.245 HD
ENDBRANCH   5  15
BRANCH   4  17
HETATM   17  C6  UNL     1     -42.186 -20.177 -18.540  1.00  0.00     0.369 C 
BRANCH  17  18
HETATM   18  N4  UNL     1     -42.123 -19.157 -17.510  1.00  0.00    -0.047 N 
ATOM     19  H43 UNL     1     -42.932 -18.536 -17.543  1.00  0.00     0.277 HD
ATOM     20  H42 UNL     1     -42.271 -19.550 -16.580  1.00  0.00     0.277 HD
ATOM     21  H41 UNL     1     -41.246 -18.639 -17.566  1.00  0.00     0.277 HD
ENDBRANCH  17  18
BRANCH  17  22
HETATM   22  O3  UNL     1     -41.418 -21.246 -18.104  1.00  0.00    -0.365 OA
ATOM     23  H3  UNL     1     -40.494 -21.088 -18.258  1.00  0.00     0.212 HD
ENDBRANCH  17  22
ENDBRANCH   4  17
TORSDOF 6
ENDMDL
MODEL 3
REMARK VINA RESULT: -5.729668528      2.372      5.417
REMARK  6 active torsions:
REMARK  status: ('A' for Active; 'I' for Inactive)
REMARK    1  A    between atoms: N3_4  and  S1_6 
REMARK    2  A    between atoms: S1_6  and  C2_9 
REMARK    3  A    between atoms: C5_12  and  C6_13 
REMARK    4  A    between atoms: C6_13  and  N4_14 
REMARK    5  A    between atoms: C6_13  and  O3_18 
REMARK    6  A    between atoms: N5_20  and  O4_21 
ROOT
HETATM    1  C2  UNL     1     -45.869 -21.971 -19.441  1.00  0.00     0.097 A 
HETATM    2  C3  UNL     1     -45.137 -21.281 -20.391  1.00  0.00     0.029 A 
HETATM    3  C4  UNL     1     -43.963 -20.647 -20.038  1.00  0.00     0.034 A 
HETATM    4  C5  UNL     1     -43.481 -20.676 -18.747  1.00  0.00     0.095 A 
HETATM    5  N5  UNL     1     -44.207 -21.351 -17.837  1.00  0.00    -0.234 N 
HETATM    6  C7  UNL     1     -45.365 -21.983 -18.157  1.00  0.00     0.148 A 
ENDROOT
BRANCH   1   7
HETATM    7  S1  UNL     1     -47.372 -22.792 -19.856  1.00  0.00     0.266 S 
HETATM    8  O1  UNL     1     -48.435 -21.780 -20.221  1.00  0.00    -0.200 OA
HETATM    9  O2  UNL     1     -47.177 -23.666 -21.075  1.00  0.00    -0.200 OA
BRANCH   7  10
HETATM   10  N3  UNL     1     -47.875 -23.809 -18.563  1.00  0.00    -0.256 N 
HETATM   11  C1  UNL     1     -48.539 -23.396 -17.553  1.00  0.00     0.210 C 
HETATM   12  N1  UNL     1     -48.897 -22.039 -17.456  1.00  0.00    -0.066 NA
HETATM   13  N2  UNL     1     -48.912 -24.299 -16.536  1.00  0.00    -0.066 NA
ATOM     14  H3  UNL     1     -47.629 -24.798 -18.606  1.00  0.00     0.181 HD
ENDBRANCH   7  10
ENDBRANCH   1   7
BRANCH   5  15
HETATM   15  O4  UNL     1     -43.725 -21.381 -16.540  1.00  0.00    -0.283 OA
ATOM     16  H4  UNL     1     -44.346 -21.208 -15.843  1.00  0.00     0.245 HD
ENDBRANCH   5  15
BRANCH   4  17
HETATM   17  C6  UNL     1     -42.202 -19.980 -18.384  1.00  0.00     0.369 C 
BRANCH  17  18
HETATM   18  N4  UNL     1     -42.419 -19.037 -17.303  1.00  0.00    -0.047 N 
ATOM     19  H43 UNL     1     -43.119 -18.336 -17.547  1.00  0.00     0.277 HD
ATOM     20  H42 UNL     1     -42.903 -19.468 -16.516  1.00  0.00     0.277 HD
ATOM     21  H41 UNL     1     -41.539 -18.607 -17.015  1.00  0.00     0.277 HD
ENDBRANCH  17  18
BRANCH  17  22
HETATM   22  O3  UNL     1     -41.246 -20.885 -17.950  1.00  0.00    -0.365 OA
ATOM     23  H3  UNL     1     -40.623 -21.081 -18.640  1.00  0.00     0.212 HD
ENDBRANCH  17  22
ENDBRANCH   4  17
TORSDOF 6
ENDMDL
MODEL 4
REMARK VINA RESULT: -5.487394479      2.378      5.474
REMARK  6 active torsions:
REMARK  status: ('A' for Active; 'I' for Inactive)
REMARK    1  A    between atoms: N3_4  and  S1_6 
REMARK    2  A    between atoms: S1_6  and  C2_9 
REMARK    3  A    between atoms: C5_12  and  C6_13 
REMARK    4  A    between atoms: C6_13  and  N4_14 
REMARK    5  A    between atoms: C6_13  and  O3_18 
REMARK    6  A    between atoms: N5_20  and  O4_21 
ROOT
HETATM    1  C2  UNL     1     -47.236 -22.488 -18.066  1.00  0.00     0.097 A 
HETATM    2  C3  UNL     1     -46.961 -21.320 -17.379  1.00  0.00     0.029 A 
HETATM    3  C4  UNL     1     -45.763 -20.664 -17.576  1.00  0.00     0.034 A 
HETATM    4  C5  UNL     1     -44.809 -21.138 -18.452  1.00  0.00     0.095 A 
HETATM    5  N5  UNL     1     -45.095 -22.276 -19.111  1.00  0.00    -0.234 N 
HETATM    6  C7  UNL     1     -46.266 -22.942 -18.936  1.00  0.00     0.148 A 
ENDROOT
BRANCH   1   7
HETATM    7  S1  UNL     1     -48.755 -23.352 -17.839  1.00  0.00     0.266 S 
HETATM    8  O1  UNL     1     -48.569 -24.484 -16.853  1.00  0.00    -0.200 OA
HETATM    9  O2  UNL     1     -49.801 -22.435 -17.245  1.00  0.00    -0.200 OA
BRANCH   7  10
HETATM   10  N3  UNL     1     -49.357 -23.914 -19.350  1.00  0.00    -0.256 N 
HETATM   11  C1  UNL     1     -48.769 -24.795 -20.064  1.00  0.00     0.210 C 
HETATM   12  N1  UNL     1     -47.558 -25.361 -19.624  1.00  0.00    -0.066 NA
HETATM   13  N2  UNL     1     -49.331 -25.199 -21.291  1.00  0.00    -0.066 NA
ATOM     14  H3  UNL     1     -50.232 -23.521 -19.695  1.00  0.00     0.181 HD
ENDBRANCH   7  10
ENDBRANCH   1   7
BRANCH   5  15
HETATM   15  O4  UNL     1     -44.141 -22.754 -19.990  1.00  0.00    -0.283 OA
ATOM     16  H4  UNL     1     -44.323 -23.581 -20.420  1.00  0.00     0.245 HD
ENDBRANCH   5  15
BRANCH   4  17
HETATM   17  C6  UNL     1     -43.513 -20.410 -18.652  1.00  0.00     0.369 C 
BRANCH  17  18
HETATM   18  N4  UNL     1     -42.423 -21.110 -17.998  1.00  0.00    -0.047 N 
ATOM     19  H43 UNL     1     -42.377 -20.892 -17.003  1.00  0.00     0.277 HD
ATOM     20  H42 UNL     1     -42.606 -22.111 -17.927  1.00  0.00     0.277 HD
ATOM     21  H41 UNL     1     -41.538 -20.921 -18.469  1.00  0.00     0.277 HD
ENDBRANCH  17  18
BRANCH  17  22
HETATM   22  O3  UNL     1     -43.193 -20.321 -19.997  1.00  0.00    -0.365 OA
ATOM     23  H3  UNL     1     -42.342 -19.916 -20.121  1.00  0.00     0.212 HD
ENDBRANCH  17  22
ENDBRANCH   4  17
TORSDOF 6
ENDMDL
MODEL 5
REMARK VINA RESULT: -5.152576261      1.148      1.575
REMARK  6 active torsions:
REMARK  status: ('A' for Active; 'I' for Inactive)
REMARK    1  A    between atoms: N3_4  and  S1_6 
REMARK    2  A    between atoms: S1_6  and  C2_9 
REMARK    3  A    between atoms: C5_12  and  C6_13 
REMARK    4  A    between atoms: C6_13  and  N4_14 
REMARK    5  A    between atoms: C6_13  and  O3_18 
REMARK    6  A    between atoms: N5_20  and  O4_21 
ROOT
HETATM    1  C2  UNL     1     -46.375 -21.965 -19.020  1.00  0.00     0.097 A 
HETATM    2  C3  UNL     1     -47.025 -23.173 -18.841  1.00  0.00     0.029 A 
HETATM    3  C4  UNL     1     -47.782 -23.392 -17.708  1.00  0.00     0.034 A 
HETATM    4  C5  UNL     1     -47.920 -22.433 -16.727  1.00  0.00     0.095 A 
HETATM    5  N5  UNL     1     -47.280 -21.266 -16.920  1.00  0.00    -0.234 N 
HETATM    6  C7  UNL     1     -46.528 -21.022 -18.024  1.00  0.00     0.148 A 
ENDROOT
BRANCH   1   7
HETATM    7  S1  UNL     1     -45.400 -21.649 -20.454  1.00  0.00     0.266 S 
HETATM    8  O1  UNL     1     -44.935 -22.952 -21.066  1.00  0.00    -0.200 OA
HETATM    9  O2  UNL     1     -46.225 -20.951 -21.511  1.00  0.00    -0.200 OA
BRANCH   7  10
HETATM   10  N3  UNL     1     -44.078 -20.619 -20.064  1.00  0.00    -0.256 N 
HETATM   11  C1  UNL     1     -43.180 -20.913 -19.204  1.00  0.00     0.210 C 
HETATM   12  N1  UNL     1     -43.242 -22.138 -18.515  1.00  0.00    -0.066 NA
HETATM   13  N2  UNL     1     -42.129 -20.010 -18.944  1.00  0.00    -0.066 NA
ATOM     14  H3  UNL     1     -44.007 -19.724 -20.546  1.00  0.00     0.181 HD
ENDBRANCH   7  10
ENDBRANCH   1   7
BRANCH   5  15
HETATM   15  O4  UNL     1     -47.416 -20.301 -15.937  1.00  0.00    -0.283 OA
ATOM     16  H4  UNL     1     -47.174 -20.547 -15.052  1.00  0.00     0.245 HD
ENDBRANCH   5  15
BRANCH   4  17
HETATM   17  C6  UNL     1     -48.748 -22.693 -15.504  1.00  0.00     0.369 C 
BRANCH  17  18
HETATM   18  N4  UNL     1     -48.269 -23.867 -14.798  1.00  0.00    -0.047 N 
ATOM     19  H43 UNL     1     -48.893 -24.663 -14.923  1.00  0.00     0.277 HD
ATOM     20  H42 UNL     1     -47.434 -24.257 -15.236  1.00  0.00     0.277 HD
ATOM     21  H41 UNL     1     -48.115 -23.658 -13.811  1.00  0.00     0.277 HD
ENDBRANCH  17  18
BRANCH  17  22
HETATM   22  O3  UNL     1     -48.679 -21.628 -14.619  1.00  0.00    -0.365 OA
ATOM     23  H3  UNL     1     -49.435 -21.611 -14.044  1.00  0.00     0.212 HD
ENDBRANCH  17  22
ENDBRANCH   4  17
TORSDOF 6
ENDMDL
