MODEL 1
REMARK VINA RESULT: -7.998715150      0.000      0.000
REMARK  4 active torsions:
REMARK  status: ('A' for Active; 'I' for Inactive)
REMARK       I    between atoms: N1_2  and  C2_4 
REMARK    1  A    between atoms: C2_4  and  C3_6 
REMARK    2  A    between atoms: C3_6  and  C7_20 
REMARK    3  A    between atoms: N2_7  and  N3_9 
REMARK       I    between atoms: N3_9  and  C4_11 
REMARK    4  A    between atoms: C4_11  and  C5_13 
REMARK       I    between atoms: C5_13  and  N4_15 
ROOT
HETATM    1  C3  UNL     1     -43.878 -21.155 -18.316  1.00  0.00     0.181 C 
HETATM    2  N2  UNL     1     -44.323 -20.914 -17.159  1.00  0.00    -0.288 N 
ATOM      3  H2  UNL     1     -43.763 -20.215 -16.671  1.00  0.00     0.187 HD
ENDROOT
BRANCH   2   4
HETATM    4  N3  UNL     1     -45.349 -21.348 -16.415  1.00  0.00    -0.261 N 
HETATM    5  C4  UNL     1     -46.690 -21.116 -16.802  1.00  0.00     0.328 C 
HETATM    6  O2  UNL     1     -46.951 -20.487 -17.873  1.00  0.00    -0.261 OA
ATOM      7  H3  UNL     1     -45.160 -21.857 -15.551  1.00  0.00     0.190 HD
BRANCH   5   8
HETATM    8  C5  UNL     1     -47.793 -21.582 -16.005  1.00  0.00     0.317 C 
HETATM    9  O3  UNL     1     -47.693 -21.623 -14.747  1.00  0.00    -0.262 OA
HETATM   10  N4  UNL     1     -49.029 -22.013 -16.555  1.00  0.00    -0.295 N 
HETATM   11  C6  UNL     1     -49.115 -23.134 -17.183  1.00  0.00     0.203 C 
ATOM     12  H4  UNL     1     -49.858 -21.428 -16.452  1.00  0.00     0.171 HD
HETATM   13  N5  UNL     1     -47.977 -23.936 -17.323  1.00  0.00    -0.066 NA
HETATM   14  N6  UNL     1     -50.394 -23.509 -17.713  1.00  0.00    -0.066 NA
ENDBRANCH   5   8
ENDBRANCH   2   4
BRANCH   1  15
HETATM   15  C2  UNL     1     -44.426 -22.087 -19.271  1.00  0.00     0.274 C 
HETATM   16  N1  UNL     1     -45.567 -21.900 -20.050  1.00  0.00    -0.360 N 
HETATM   17  C1  UNL     1     -46.046 -22.902 -20.991  1.00  0.00     0.149 C 
ATOM     18  H1  UNL     1     -46.087 -21.027 -19.957  1.00  0.00     0.162 HD
HETATM   19  O1  UNL     1     -43.823 -23.208 -19.441  1.00  0.00    -0.266 OA
ENDBRANCH   1  15
BRANCH   1  20
HETATM   20  C7  UNL     1     -42.670 -20.369 -18.661  1.00  0.00     0.288 C 
HETATM   21  N7  UNL     1     -41.866 -19.898 -17.606  1.00  0.00    -0.056 NA
HETATM   22  O4  UNL     1     -42.346 -20.114 -19.837  1.00  0.00    -0.269 OA
ENDBRANCH   1  20
TORSDOF 4
ENDMDL
MODEL 2
REMARK VINA RESULT: -7.021393797      2.329      4.096
REMARK  4 active torsions:
REMARK  status: ('A' for Active; 'I' for Inactive)
REMARK       I    between atoms: N1_2  and  C2_4 
REMARK    1  A    between atoms: C2_4  and  C3_6 
REMARK    2  A    between atoms: C3_6  and  C7_20 
REMARK    3  A    between atoms: N2_7  and  N3_9 
REMARK       I    between atoms: N3_9  and  C4_11 
REMARK    4  A    between atoms: C4_11  and  C5_13 
REMARK       I    between atoms: C5_13  and  N4_15 
ROOT
HETATM    1  C3  UNL     1     -45.985 -23.117 -20.966  1.00  0.00     0.181 C 
HETATM    2  N2  UNL     1     -47.201 -23.177 -20.632  1.00  0.00    -0.288 N 
ATOM      3  H2  UNL     1     -47.774 -23.626 -21.347  1.00  0.00     0.187 HD
ENDROOT
BRANCH   2   4
HETATM    4  N3  UNL     1     -47.925 -22.798 -19.570  1.00  0.00    -0.261 N 
HETATM    5  C4  UNL     1     -48.238 -23.704 -18.530  1.00  0.00     0.328 C 
HETATM    6  O2  UNL     1     -47.836 -24.907 -18.581  1.00  0.00    -0.261 OA
ATOM      7  H3  UNL     1     -48.258 -21.835 -19.510  1.00  0.00     0.190 HD
BRANCH   5   8
HETATM    8  C5  UNL     1     -49.015 -23.299 -17.389  1.00  0.00     0.317 C 
HETATM    9  O3  UNL     1     -50.277 -23.324 -17.440  1.00  0.00    -0.262 OA
HETATM   10  N4  UNL     1     -48.441 -22.858 -16.168  1.00  0.00    -0.295 N 
HETATM   11  C6  UNL     1     -47.871 -21.706 -16.086  1.00  0.00     0.203 C 
ATOM     12  H4  UNL     1     -48.480 -23.461 -15.346  1.00  0.00     0.171 HD
HETATM   13  N5  UNL     1     -47.818 -20.881 -17.215  1.00  0.00    -0.066 NA
HETATM   14  N6  UNL     1     -47.311 -21.323 -14.821  1.00  0.00    -0.066 NA
ENDBRANCH   5   8
ENDBRANCH   2   4
BRANCH   1  15
HETATM   15  C2  UNL     1     -44.908 -22.547 -20.194  1.00  0.00     0.274 C 
HETATM   16  N1  UNL     1     -44.763 -21.207 -19.838  1.00  0.00    -0.360 N 
HETATM   17  C1  UNL     1     -43.637 -20.723 -19.052  1.00  0.00     0.149 C 
ATOM     18  H1  UNL     1     -45.473 -20.540 -20.140  1.00  0.00     0.162 HD
HETATM   19  O1  UNL     1     -43.978 -23.329 -19.779  1.00  0.00    -0.266 OA
ENDBRANCH   1  15
BRANCH   1  20
HETATM   20  C7  UNL     1     -45.708 -23.708 -22.297  1.00  0.00     0.288 C 
HETATM   21  N7  UNL     1     -46.495 -24.798 -22.711  1.00  0.00    -0.056 NA
HETATM   22  O4  UNL     1     -44.814 -23.277 -23.051  1.00  0.00    -0.269 OA
ENDBRANCH   1  20
TORSDOF 4
ENDMDL
MODEL 3
REMARK VINA RESULT: -6.144324384      4.976      6.767
REMARK  4 active torsions:
REMARK  status: ('A' for Active; 'I' for Inactive)
REMARK       I    between atoms: N1_2  and  C2_4 
REMARK    1  A    between atoms: C2_4  and  C3_6 
REMARK    2  A    between atoms: C3_6  and  C7_20 
REMARK    3  A    between atoms: N2_7  and  N3_9 
REMARK       I    between atoms: N3_9  and  C4_11 
REMARK    4  A    between atoms: C4_11  and  C5_13 
REMARK       I    between atoms: C5_13  and  N4_15 
ROOT
HETATM    1  C3  UNL     1     -49.583 -17.919 -21.289  1.00  0.00     0.181 C 
HETATM    2  N2  UNL     1     -49.282 -19.017 -20.741  1.00  0.00    -0.288 N 
ATOM      3  H2  UNL     1     -49.907 -19.242 -19.967  1.00  0.00     0.187 HD
ENDROOT
BRANCH   2   4
HETATM    4  N3  UNL     1     -48.346 -19.957 -20.925  1.00  0.00    -0.261 N 
HETATM    5  C4  UNL     1     -47.970 -20.835 -19.881  1.00  0.00     0.328 C 
HETATM    6  O2  UNL     1     -48.517 -20.751 -18.739  1.00  0.00    -0.261 OA
ATOM      7  H3  UNL     1     -47.894 -20.042 -21.836  1.00  0.00     0.190 HD
BRANCH   5   8
HETATM    8  C5  UNL     1     -46.964 -21.846 -20.076  1.00  0.00     0.317 C 
HETATM    9  O3  UNL     1     -47.286 -23.068 -20.079  1.00  0.00    -0.262 OA
HETATM   10  N4  UNL     1     -45.589 -21.554 -20.271  1.00  0.00    -0.295 N 
HETATM   11  C6  UNL     1     -44.861 -21.132 -19.295  1.00  0.00     0.203 C 
ATOM     12  H4  UNL     1     -45.173 -21.679 -21.193  1.00  0.00     0.171 HD
HETATM   13  N5  UNL     1     -45.433 -20.961 -18.030  1.00  0.00    -0.066 NA
HETATM   14  N6  UNL     1     -43.478 -20.857 -19.562  1.00  0.00    -0.066 NA
ENDBRANCH   5   8
ENDBRANCH   2   4
BRANCH   1  15
HETATM   15  C2  UNL     1     -48.909 -17.303 -22.406  1.00  0.00     0.274 C 
HETATM   16  N1  UNL     1     -49.427 -16.318 -23.245  1.00  0.00    -0.360 N 
HETATM   17  C1  UNL     1     -48.668 -15.753 -24.352  1.00  0.00     0.149 C 
ATOM     18  H1  UNL     1     -50.374 -15.979 -23.077  1.00  0.00     0.162 HD
HETATM   19  O1  UNL     1     -47.712 -17.680 -22.677  1.00  0.00    -0.266 OA
ENDBRANCH   1  15
BRANCH   1  20
HETATM   20  C7  UNL     1     -50.753 -17.252 -20.673  1.00  0.00     0.288 C 
HETATM   21  N7  UNL     1     -50.745 -15.847 -20.594  1.00  0.00    -0.056 NA
HETATM   22  O4  UNL     1     -51.731 -17.884 -20.228  1.00  0.00    -0.269 OA
ENDBRANCH   1  20
TORSDOF 4
ENDMDL
MODEL 4
REMARK VINA RESULT: -5.909792739      2.152      3.727
REMARK  4 active torsions:
REMARK  status: ('A' for Active; 'I' for Inactive)
REMARK       I    between atoms: N1_2  and  C2_4 
REMARK    1  A    between atoms: C2_4  and  C3_6 
REMARK    2  A    between atoms: C3_6  and  C7_20 
REMARK    3  A    between atoms: N2_7  and  N3_9 
REMARK       I    between atoms: N3_9  and  C4_11 
REMARK    4  A    between atoms: C4_11  and  C5_13 
REMARK       I    between atoms: C5_13  and  N4_15 
ROOT
HETATM    1  C3  UNL     1     -43.647 -21.233 -18.351  1.00  0.00     0.181 C 
HETATM    2  N2  UNL     1     -43.741 -22.080 -19.283  1.00  0.00    -0.288 N 
ATOM      3  H2  UNL     1     -42.969 -22.008 -19.946  1.00  0.00     0.187 HD
ENDROOT
BRANCH   2   4
HETATM    4  N3  UNL     1     -44.604 -23.049 -19.618  1.00  0.00    -0.261 N 
HETATM    5  C4  UNL     1     -45.653 -22.815 -20.537  1.00  0.00     0.328 C 
HETATM    6  O2  UNL     1     -45.800 -21.672 -21.070  1.00  0.00    -0.261 OA
ATOM      7  H3  UNL     1     -44.503 -23.974 -19.200  1.00  0.00     0.190 HD
BRANCH   5   8
HETATM    8  C5  UNL     1     -46.582 -23.853 -20.898  1.00  0.00     0.317 C 
HETATM    9  O3  UNL     1     -46.771 -24.139 -22.114  1.00  0.00    -0.262 OA
HETATM   10  N4  UNL     1     -47.324 -24.603 -19.949  1.00  0.00    -0.295 N 
HETATM   11  C6  UNL     1     -48.301 -24.066 -19.304  1.00  0.00     0.203 C 
ATOM     12  H4  UNL     1     -47.081 -25.578 -19.776  1.00  0.00     0.171 HD
HETATM   13  N5  UNL     1     -48.633 -22.728 -19.542  1.00  0.00    -0.066 NA
HETATM   14  N6  UNL     1     -49.009 -24.882 -18.359  1.00  0.00    -0.066 NA
ENDBRANCH   5   8
ENDBRANCH   2   4
BRANCH   1  15
HETATM   15  C2  UNL     1     -44.565 -21.060 -17.252  1.00  0.00     0.274 C 
HETATM   16  N1  UNL     1     -45.943 -20.865 -17.346  1.00  0.00    -0.360 N 
HETATM   17  C1  UNL     1     -46.793 -20.699 -16.177  1.00  0.00     0.149 C 
ATOM     18  H1  UNL     1     -46.372 -20.839 -18.272  1.00  0.00     0.162 HD
HETATM   19  O1  UNL     1     -44.096 -21.082 -16.057  1.00  0.00    -0.266 OA
ENDBRANCH   1  15
BRANCH   1  20
HETATM   20  C7  UNL     1     -42.451 -20.365 -18.459  1.00  0.00     0.288 C 
HETATM   21  N7  UNL     1     -42.017 -19.999 -19.746  1.00  0.00    -0.056 NA
HETATM   22  O4  UNL     1     -41.826 -19.953 -17.462  1.00  0.00    -0.269 OA
ENDBRANCH   1  20
TORSDOF 4
ENDMDL
MODEL 5
REMARK VINA RESULT: -5.860018154      5.376      6.559
REMARK  4 active torsions:
REMARK  status: ('A' for Active; 'I' for Inactive)
REMARK       I    between atoms: N1_2  and  C2_4 
REMARK    1  A    between atoms: C2_4  and  C3_6 
REMARK    2  A    between atoms: C3_6  and  C7_20 
REMARK    3  A    between atoms: N2_7  and  N3_9 
REMARK       I    between atoms: N3_9  and  C4_11 
REMARK    4  A    between atoms: C4_11  and  C5_13 
REMARK       I    between atoms: C5_13  and  N4_15 
ROOT
HETATM    1  C3  UNL     1     -47.732 -20.861 -19.912  1.00  0.00     0.181 C 
HETATM    2  N2  UNL     1     -48.432 -19.991 -20.501  1.00  0.00    -0.288 N 
ATOM      3  H2  UNL     1     -48.134 -19.848 -21.466  1.00  0.00     0.187 HD
ENDROOT
BRANCH   2   4
HETATM    4  N3  UNL     1     -49.470 -19.209 -20.173  1.00  0.00    -0.261 N 
HETATM    5  C4  UNL     1     -49.818 -18.081 -20.952  1.00  0.00     0.328 C 
HETATM    6  O2  UNL     1     -49.149 -17.783 -21.989  1.00  0.00    -0.261 OA
ATOM      7  H3  UNL     1     -50.020 -19.432 -19.342  1.00  0.00     0.190 HD
BRANCH   5   8
HETATM    8  C5  UNL     1     -50.931 -17.240 -20.601  1.00  0.00     0.317 C 
HETATM    9  O3  UNL     1     -52.096 -17.723 -20.542  1.00  0.00    -0.262 OA
HETATM   10  N4  UNL     1     -50.805 -15.857 -20.307  1.00  0.00    -0.295 N 
HETATM   11  C6  UNL     1     -50.559 -15.005 -21.241  1.00  0.00     0.203 C 
ATOM     12  H4  UNL     1     -50.909 -15.535 -19.345  1.00  0.00     0.171 HD
HETATM   13  N5  UNL     1     -50.417 -15.448 -22.561  1.00  0.00    -0.066 NA
HETATM   14  N6  UNL     1     -50.445 -13.622 -20.874  1.00  0.00    -0.066 NA
ENDBRANCH   5   8
ENDBRANCH   2   4
BRANCH   1  15
HETATM   15  C2  UNL     1     -47.880 -21.303 -18.547  1.00  0.00     0.274 C 
HETATM   16  N1  UNL     1     -47.279 -20.737 -17.423  1.00  0.00    -0.360 N 
HETATM   17  C1  UNL     1     -47.489 -21.254 -16.078  1.00  0.00     0.149 C 
ATOM     18  H1  UNL     1     -46.668 -19.929 -17.547  1.00  0.00     0.162 HD
HETATM   19  O1  UNL     1     -48.635 -22.315 -18.313  1.00  0.00    -0.266 OA
ENDBRANCH   1  15
BRANCH   1  20
HETATM   20  C7  UNL     1     -46.670 -21.443 -20.766  1.00  0.00     0.288 C 
HETATM   21  N7  UNL     1     -46.499 -22.839 -20.745  1.00  0.00    -0.056 NA
HETATM   22  O4  UNL     1     -45.934 -20.747 -21.492  1.00  0.00    -0.269 OA
ENDBRANCH   1  20
TORSDOF 4
ENDMDL
