MODEL 1
REMARK VINA RESULT: -4.592175977      0.000      0.000
REMARK  7 active torsions:
REMARK  status: ('A' for Active; 'I' for Inactive)
REMARK    1  A    between atoms: N1_2  and  C2_4 
REMARK       I    between atoms: N2_6  and  C4_8 
REMARK       I    between atoms: C4_8  and  N6_25 
REMARK       I    between atoms: N3_9  and  C5_11 
REMARK    2  A    between atoms: C5_11  and  C6_13 
REMARK    3  A    between atoms: C6_13  and  N4_14 
REMARK    4  A    between atoms: C6_13  and  C7_18 
REMARK    5  A    between atoms: C7_18  and  N5_19 
REMARK    6  A    between atoms: C7_18  and  C8_23 
REMARK    7  A    between atoms: N6_25  and  N7_27 
ROOT
HETATM    1  C2  UNL     1     -48.035 -21.637 -16.275  1.00  0.00     0.089 C 
HETATM    2  C3  UNL     1     -48.024 -21.510 -14.795  1.00  0.00     0.089 C 
HETATM    3  N2  UNL     1     -47.101 -21.105 -16.974  1.00  0.00    -0.180 N 
ATOM      4  H2  UNL     1     -46.362 -20.600 -16.484  1.00  0.00     0.185 HD
HETATM    5  C4  UNL     1     -47.036 -21.177 -18.373  1.00  0.00     0.702 C 
HETATM    6  N3  UNL     1     -45.915 -21.324 -18.992  1.00  0.00    -0.156 N 
ATOM      7  H3  UNL     1     -45.048 -21.392 -18.458  1.00  0.00     0.187 HD
HETATM    8  C5  UNL     1     -45.874 -21.394 -20.413  1.00  0.00     0.269 C 
HETATM    9  O1  UNL     1     -46.449 -20.475 -21.045  1.00  0.00    -0.270 OA
HETATM   10  N6  UNL     1     -48.255 -21.082 -19.119  1.00  0.00    -0.118 N 
ATOM     11  H6  UNL     1     -48.702 -21.906 -19.520  1.00  0.00     0.207 HD
ENDROOT
BRANCH   8  12
HETATM   12  C6  UNL     1     -45.212 -22.455 -21.164  1.00  0.00     0.312 C 
BRANCH  12  13
HETATM   13  N4  UNL     1     -44.564 -23.365 -20.262  1.00  0.00    -0.064 N 
ATOM     14  H43 UNL     1     -44.380 -22.936 -19.354  1.00  0.00     0.275 HD
ATOM     15  H42 UNL     1     -45.190 -24.108 -19.952  1.00  0.00     0.275 HD
ATOM     16  H41 UNL     1     -43.715 -23.734 -20.689  1.00  0.00     0.275 HD
ENDBRANCH  12  13
BRANCH  12  17
HETATM   17  C7  UNL     1     -46.129 -23.201 -22.099  1.00  0.00     0.283 C 
BRANCH  17  18
HETATM   18  N5  UNL     1     -45.325 -23.867 -23.106  1.00  0.00    -0.066 N 
ATOM     19  H53 UNL     1     -44.351 -23.975 -22.820  1.00  0.00     0.275 HD
ATOM     20  H52 UNL     1     -45.555 -24.857 -23.199  1.00  0.00     0.275 HD
ATOM     21  H51 UNL     1     -45.418 -23.360 -23.986  1.00  0.00     0.275 HD
ENDBRANCH  17  18
BRANCH  17  22
HETATM   22  C8  UNL     1     -46.823 -24.252 -21.317  1.00  0.00     0.266 C 
HETATM   23  O2  UNL     1     -47.612 -23.919 -20.458  1.00  0.00    -0.305 OA
ENDBRANCH  17  22
ENDBRANCH  12  17
ENDBRANCH   8  12
BRANCH  10  24
HETATM   24  N7  UNL     1     -48.802 -19.806 -19.270  1.00  0.00    -0.235 N 
HETATM   25  N8  UNL     1     -49.156 -19.417 -20.424  1.00  0.00    -0.330 N 
ATOM     26  H82 UNL     1     -49.036 -20.040 -21.221  1.00  0.00     0.178 HD
ATOM     27  H81 UNL     1     -49.555 -18.485 -20.534  1.00  0.00     0.178 HD
ATOM     28  H7  UNL     1     -48.915 -19.194 -18.462  1.00  0.00     0.208 HD
ENDBRANCH  10  24
BRANCH   1  29
HETATM   29  N1  UNL     1     -49.122 -22.366 -16.852  1.00  0.00    -0.384 N 
HETATM   30  C1  UNL     1     -49.015 -23.780 -17.190  1.00  0.00     0.147 C 
ATOM     31  H1  UNL     1     -50.001 -21.882 -17.033  1.00  0.00     0.160 HD
ENDBRANCH   1  29
TORSDOF 7
ENDMDL
MODEL 2
REMARK VINA RESULT: -4.071693464      1.973      5.323
REMARK  7 active torsions:
REMARK  status: ('A' for Active; 'I' for Inactive)
REMARK    1  A    between atoms: N1_2  and  C2_4 
REMARK       I    between atoms: N2_6  and  C4_8 
REMARK       I    between atoms: C4_8  and  N6_25 
REMARK       I    between atoms: N3_9  and  C5_11 
REMARK    2  A    between atoms: C5_11  and  C6_13 
REMARK    3  A    between atoms: C6_13  and  N4_14 
REMARK    4  A    between atoms: C6_13  and  C7_18 
REMARK    5  A    between atoms: C7_18  and  N5_19 
REMARK    6  A    between atoms: C7_18  and  C8_23 
REMARK    7  A    between atoms: N6_25  and  N7_27 
ROOT
HETATM    1  C2  UNL     1     -45.965 -20.997 -21.146  1.00  0.00     0.089 C 
HETATM    2  C3  UNL     1     -46.018 -20.352 -22.483  1.00  0.00     0.089 C 
HETATM    3  N2  UNL     1     -46.480 -20.411 -20.128  1.00  0.00    -0.180 N 
ATOM      4  H2  UNL     1     -46.920 -19.502 -20.268  1.00  0.00     0.185 HD
HETATM    5  C4  UNL     1     -46.474 -20.950 -18.833  1.00  0.00     0.702 C 
HETATM    6  N3  UNL     1     -47.482 -20.820 -18.041  1.00  0.00    -0.156 N 
ATOM      7  H3  UNL     1     -48.311 -20.315 -18.356  1.00  0.00     0.187 HD
HETATM    8  C5  UNL     1     -47.452 -21.374 -16.730  1.00  0.00     0.269 C 
HETATM    9  O1  UNL     1     -46.465 -21.084 -16.012  1.00  0.00    -0.270 OA
HETATM   10  N6  UNL     1     -45.309 -21.658 -18.393  1.00  0.00    -0.118 N 
ATOM     11  H6  UNL     1     -45.284 -22.677 -18.360  1.00  0.00     0.207 HD
ENDROOT
BRANCH   8  12
HETATM   12  C6  UNL     1     -48.486 -22.245 -16.183  1.00  0.00     0.312 C 
BRANCH  12  13
HETATM   13  N4  UNL     1     -49.764 -21.903 -16.742  1.00  0.00    -0.064 N 
ATOM     14  H43 UNL     1     -50.398 -21.520 -16.041  1.00  0.00     0.275 HD
ATOM     15  H42 UNL     1     -49.707 -21.087 -17.353  1.00  0.00     0.275 HD
ATOM     16  H41 UNL     1     -50.163 -22.710 -17.220  1.00  0.00     0.275 HD
ENDBRANCH  12  13
BRANCH  12  17
HETATM   17  C7  UNL     1     -48.205 -23.714 -16.370  1.00  0.00     0.283 C 
BRANCH  17  18
HETATM   18  N5  UNL     1     -48.469 -24.400 -15.119  1.00  0.00    -0.066 N 
ATOM     19  H53 UNL     1     -47.813 -25.161 -14.944  1.00  0.00     0.275 HD
ATOM     20  H52 UNL     1     -48.243 -23.828 -14.304  1.00  0.00     0.275 HD
ATOM     21  H51 UNL     1     -49.439 -24.715 -15.118  1.00  0.00     0.275 HD
ENDBRANCH  17  18
BRANCH  17  22
HETATM   22  C8  UNL     1     -49.158 -24.239 -17.376  1.00  0.00     0.266 C 
HETATM   23  O2  UNL     1     -49.018 -23.920 -18.538  1.00  0.00    -0.305 OA
ENDBRANCH  17  22
ENDBRANCH  12  17
ENDBRANCH   8  12
BRANCH  10  24
HETATM   24  N7  UNL     1     -44.209 -20.885 -18.013  1.00  0.00    -0.235 N 
HETATM   25  N8  UNL     1     -43.563 -21.199 -16.969  1.00  0.00    -0.330 N 
ATOM     26  H82 UNL     1     -43.856 -22.010 -16.423  1.00  0.00     0.178 HD
ATOM     27  H81 UNL     1     -42.761 -20.635 -16.691  1.00  0.00     0.178 HD
ATOM     28  H7  UNL     1     -43.929 -20.077 -18.570  1.00  0.00     0.208 HD
ENDBRANCH  10  24
BRANCH   1  29
HETATM   29  N1  UNL     1     -45.322 -22.273 -21.070  1.00  0.00    -0.384 N 
HETATM   30  C1  UNL     1     -45.723 -23.396 -21.908  1.00  0.00     0.147 C 
ATOM     31  H1  UNL     1     -44.558 -22.401 -20.407  1.00  0.00     0.160 HD
ENDBRANCH   1  29
TORSDOF 7
ENDMDL
MODEL 3
REMARK VINA RESULT: -4.065621748      1.229      1.310
REMARK  7 active torsions:
REMARK  status: ('A' for Active; 'I' for Inactive)
REMARK    1  A    between atoms: N1_2  and  C2_4 
REMARK       I    between atoms: N2_6  and  C4_8 
REMARK       I    between atoms: C4_8  and  N6_25 
REMARK       I    between atoms: N3_9  and  C5_11 
REMARK    2  A    between atoms: C5_11  and  C6_13 
REMARK    3  A    between atoms: C6_13  and  N4_14 
REMARK    4  A    between atoms: C6_13  and  C7_18 
REMARK    5  A    between atoms: C7_18  and  N5_19 
REMARK    6  A    between atoms: C7_18  and  C8_23 
REMARK    7  A    between atoms: N6_25  and  N7_27 
ROOT
HETATM    1  C2  UNL     1     -48.174 -21.672 -15.983  1.00  0.00     0.089 C 
HETATM    2  C3  UNL     1     -48.332 -21.473 -14.520  1.00  0.00     0.089 C 
HETATM    3  N2  UNL     1     -47.171 -21.161 -16.597  1.00  0.00    -0.180 N 
ATOM      4  H2  UNL     1     -46.497 -20.623 -16.053  1.00  0.00     0.185 HD
HETATM    5  C4  UNL     1     -46.946 -21.301 -17.975  1.00  0.00     0.702 C 
HETATM    6  N3  UNL     1     -45.761 -21.462 -18.455  1.00  0.00    -0.156 N 
ATOM      7  H3  UNL     1     -44.960 -21.490 -17.824  1.00  0.00     0.187 HD
HETATM    8  C5  UNL     1     -45.558 -21.600 -19.857  1.00  0.00     0.269 C 
HETATM    9  O1  UNL     1     -46.065 -20.721 -20.595  1.00  0.00    -0.270 OA
HETATM   10  N6  UNL     1     -48.073 -21.259 -18.858  1.00  0.00    -0.118 N 
ATOM     11  H6  UNL     1     -48.464 -22.108 -19.265  1.00  0.00     0.207 HD
ENDROOT
BRANCH   8  12
HETATM   12  C6  UNL     1     -44.805 -22.687 -20.475  1.00  0.00     0.312 C 
BRANCH  12  13
HETATM   13  N4  UNL     1     -43.998 -23.348 -19.488  1.00  0.00    -0.064 N 
ATOM     14  H43 UNL     1     -43.018 -23.072 -19.549  1.00  0.00     0.275 HD
ATOM     15  H42 UNL     1     -44.190 -23.006 -18.546  1.00  0.00     0.275 HD
ATOM     16  H41 UNL     1     -44.117 -24.358 -19.560  1.00  0.00     0.275 HD
ENDBRANCH  12  13
BRANCH  12  17
HETATM   17  C7  UNL     1     -45.667 -23.683 -21.206  1.00  0.00     0.283 C 
BRANCH  17  18
HETATM   18  N5  UNL     1     -47.052 -23.458 -20.837  1.00  0.00    -0.066 N 
ATOM     19  H53 UNL     1     -47.320 -23.967 -19.995  1.00  0.00     0.275 HD
ATOM     20  H52 UNL     1     -47.215 -22.513 -20.489  1.00  0.00     0.275 HD
ATOM     21  H51 UNL     1     -47.644 -23.687 -21.636  1.00  0.00     0.275 HD
ENDBRANCH  17  18
BRANCH  17  22
HETATM   22  C8  UNL     1     -45.544 -23.416 -22.659  1.00  0.00     0.266 C 
HETATM   23  O2  UNL     1     -45.537 -24.353 -23.429  1.00  0.00    -0.305 OA
ENDBRANCH  17  22
ENDBRANCH  12  17
ENDBRANCH   8  12
BRANCH  10  24
HETATM   24  N7  UNL     1     -48.610 -20.000 -19.134  1.00  0.00    -0.235 N 
HETATM   25  N8  UNL     1     -48.895 -19.697 -20.332  1.00  0.00    -0.330 N 
ATOM     26  H82 UNL     1     -48.728 -20.376 -21.074  1.00  0.00     0.178 HD
ATOM     27  H81 UNL     1     -49.287 -18.778 -20.533  1.00  0.00     0.178 HD
ATOM     28  H7  UNL     1     -48.773 -19.332 -18.380  1.00  0.00     0.208 HD
ENDBRANCH  10  24
BRANCH   1  29
HETATM   29  N1  UNL     1     -49.182 -22.444 -16.643  1.00  0.00    -0.384 N 
HETATM   30  C1  UNL     1     -48.968 -23.834 -17.025  1.00  0.00     0.147 C 
ATOM     31  H1  UNL     1     -50.079 -22.008 -16.853  1.00  0.00     0.160 HD
ENDBRANCH   1  29
TORSDOF 7
ENDMDL
MODEL 4
REMARK VINA RESULT: -3.890543656      2.442      3.810
REMARK  7 active torsions:
REMARK  status: ('A' for Active; 'I' for Inactive)
REMARK    1  A    between atoms: N1_2  and  C2_4 
REMARK       I    between atoms: N2_6  and  C4_8 
REMARK       I    between atoms: C4_8  and  N6_25 
REMARK       I    between atoms: N3_9  and  C5_11 
REMARK    2  A    between atoms: C5_11  and  C6_13 
REMARK    3  A    between atoms: C6_13  and  N4_14 
REMARK    4  A    between atoms: C6_13  and  C7_18 
REMARK    5  A    between atoms: C7_18  and  N5_19 
REMARK    6  A    between atoms: C7_18  and  C8_23 
REMARK    7  A    between atoms: N6_25  and  N7_27 
ROOT
HETATM    1  C2  UNL     1     -43.421 -20.711 -18.456  1.00  0.00     0.089 C 
HETATM    2  C3  UNL     1     -42.189 -19.881 -18.473  1.00  0.00     0.089 C 
HETATM    3  N2  UNL     1     -44.302 -20.573 -19.377  1.00  0.00    -0.180 N 
ATOM      4  H2  UNL     1     -44.129 -19.884 -20.110  1.00  0.00     0.185 HD
HETATM    5  C4  UNL     1     -45.491 -21.316 -19.436  1.00  0.00     0.702 C 
HETATM    6  N3  UNL     1     -45.975 -21.730 -20.556  1.00  0.00    -0.156 N 
ATOM      7  H3  UNL     1     -45.487 -21.518 -21.427  1.00  0.00     0.187 HD
HETATM    8  C5  UNL     1     -47.184 -22.482 -20.591  1.00  0.00     0.269 C 
HETATM    9  O1  UNL     1     -48.174 -21.993 -19.997  1.00  0.00    -0.270 OA
HETATM   10  N6  UNL     1     -46.173 -21.611 -18.212  1.00  0.00    -0.118 N 
ATOM     11  H6  UNL     1     -46.117 -22.532 -17.778  1.00  0.00     0.207 HD
ENDROOT
BRANCH   8  12
HETATM   12  C6  UNL     1     -47.334 -23.765 -21.268  1.00  0.00     0.312 C 
BRANCH  12  13
HETATM   13  N4  UNL     1     -46.114 -24.110 -21.943  1.00  0.00    -0.064 N 
ATOM     14  H43 UNL     1     -45.671 -23.296 -22.372  1.00  0.00     0.275 HD
ATOM     15  H42 UNL     1     -45.371 -24.355 -21.288  1.00  0.00     0.275 HD
ATOM     16  H41 UNL     1     -46.287 -24.852 -22.620  1.00  0.00     0.275 HD
ENDBRANCH  12  13
BRANCH  12  17
HETATM   17  C7  UNL     1     -47.768 -24.885 -20.358  1.00  0.00     0.283 C 
BRANCH  17  18
HETATM   18  N5  UNL     1     -47.279 -24.612 -19.019  1.00  0.00    -0.066 N 
ATOM     19  H53 UNL     1     -46.984 -25.457 -18.531  1.00  0.00     0.275 HD
ATOM     20  H52 UNL     1     -46.379 -24.130 -19.023  1.00  0.00     0.275 HD
ATOM     21  H51 UNL     1     -47.996 -24.097 -18.509  1.00  0.00     0.275 HD
ENDBRANCH  17  18
BRANCH  17  22
HETATM   22  C8  UNL     1     -49.250 -24.880 -20.300  1.00  0.00     0.266 C 
HETATM   23  O2  UNL     1     -49.875 -25.261 -21.267  1.00  0.00    -0.305 OA
ENDBRANCH  17  22
ENDBRANCH  12  17
ENDBRANCH   8  12
BRANCH  10  24
HETATM   24  N7  UNL     1     -46.918 -20.576 -17.641  1.00  0.00    -0.235 N 
HETATM   25  N8  UNL     1     -47.569 -20.797 -16.576  1.00  0.00    -0.330 N 
ATOM     26  H82 UNL     1     -47.538 -21.724 -16.153  1.00  0.00     0.178 HD
ATOM     27  H81 UNL     1     -48.112 -20.041 -16.159  1.00  0.00     0.178 HD
ATOM     28  H7  UNL     1     -46.938 -19.654 -18.077  1.00  0.00     0.208 HD
ENDBRANCH  10  24
BRANCH   1  29
HETATM   29  N1  UNL     1     -43.556 -21.643 -17.379  1.00  0.00    -0.384 N 
HETATM   30  C1  UNL     1     -43.813 -21.216 -16.010  1.00  0.00     0.147 C 
ATOM     31  H1  UNL     1     -43.471 -22.640 -17.577  1.00  0.00     0.160 HD
ENDBRANCH   1  29
TORSDOF 7
ENDMDL
MODEL 5
REMARK VINA RESULT: -3.765186706      2.630      4.604
REMARK  7 active torsions:
REMARK  status: ('A' for Active; 'I' for Inactive)
REMARK    1  A    between atoms: N1_2  and  C2_4 
REMARK       I    between atoms: N2_6  and  C4_8 
REMARK       I    between atoms: C4_8  and  N6_25 
REMARK       I    between atoms: N3_9  and  C5_11 
REMARK    2  A    between atoms: C5_11  and  C6_13 
REMARK    3  A    between atoms: C6_13  and  N4_14 
REMARK    4  A    between atoms: C6_13  and  C7_18 
REMARK    5  A    between atoms: C7_18  and  N5_19 
REMARK    6  A    between atoms: C7_18  and  C8_23 
REMARK    7  A    between atoms: N6_25  and  N7_27 
ROOT
HETATM    1  C2  UNL     1     -47.422 -24.273 -20.716  1.00  0.00     0.089 C 
HETATM    2  C3  UNL     1     -47.934 -25.642 -20.981  1.00  0.00     0.089 C 
HETATM    3  N2  UNL     1     -47.357 -23.832 -19.513  1.00  0.00    -0.180 N 
ATOM      4  H2  UNL     1     -47.664 -24.446 -18.758  1.00  0.00     0.185 HD
HETATM    5  C4  UNL     1     -46.887 -22.554 -19.176  1.00  0.00     0.702 C 
HETATM    6  N3  UNL     1     -46.171 -22.353 -18.123  1.00  0.00    -0.156 N 
ATOM      7  H3  UNL     1     -45.934 -23.137 -17.515  1.00  0.00     0.187 HD
HETATM    8  C5  UNL     1     -45.706 -21.046 -17.800  1.00  0.00     0.269 C 
HETATM    9  O1  UNL     1     -46.562 -20.131 -17.763  1.00  0.00    -0.270 OA
HETATM   10  N6  UNL     1     -47.220 -21.456 -20.032  1.00  0.00    -0.118 N 
ATOM     11  H6  UNL     1     -46.545 -21.067 -20.690  1.00  0.00     0.207 HD
ENDROOT
BRANCH   8  12
HETATM   12  C6  UNL     1     -44.313 -20.717 -17.516  1.00  0.00     0.312 C 
BRANCH  12  13
HETATM   13  N4  UNL     1     -43.883 -21.392 -16.323  1.00  0.00    -0.064 N 
ATOM     14  H43 UNL     1     -44.641 -21.496 -15.648  1.00  0.00     0.275 HD
ATOM     15  H42 UNL     1     -43.696 -22.382 -16.490  1.00  0.00     0.275 HD
ATOM     16  H41 UNL     1     -43.077 -20.914 -15.923  1.00  0.00     0.275 HD
ENDBRANCH  12  13
BRANCH  12  17
HETATM   17  C7  UNL     1     -43.374 -21.011 -18.657  1.00  0.00     0.283 C 
BRANCH  17  18
HETATM   18  N5  UNL     1     -44.018 -20.625 -19.899  1.00  0.00    -0.066 N 
ATOM     19  H53 UNL     1     -44.819 -20.012 -19.750  1.00  0.00     0.275 HD
ATOM     20  H52 UNL     1     -43.449 -19.982 -20.451  1.00  0.00     0.275 HD
ATOM     21  H51 UNL     1     -44.264 -21.470 -20.415  1.00  0.00     0.275 HD
ENDBRANCH  17  18
BRANCH  17  22
HETATM   22  C8  UNL     1     -42.173 -20.158 -18.494  1.00  0.00     0.266 C 
HETATM   23  O2  UNL     1     -41.977 -19.621 -17.424  1.00  0.00    -0.305 OA
ENDBRANCH  17  22
ENDBRANCH  12  17
ENDBRANCH   8  12
BRANCH  10  24
HETATM   24  N7  UNL     1     -48.515 -20.943 -19.922  1.00  0.00    -0.235 N 
HETATM   25  N8  UNL     1     -48.739 -19.746 -20.275  1.00  0.00    -0.330 N 
ATOM     26  H82 UNL     1     -47.972 -19.178 -20.633  1.00  0.00     0.178 HD
ATOM     27  H81 UNL     1     -49.684 -19.372 -20.195  1.00  0.00     0.178 HD
ATOM     28  H7  UNL     1     -49.272 -21.525 -19.562  1.00  0.00     0.208 HD
ENDBRANCH  10  24
BRANCH   1  29
HETATM   29  N1  UNL     1     -47.021 -23.502 -21.852  1.00  0.00    -0.384 N 
HETATM   30  C1  UNL     1     -45.686 -23.606 -22.428  1.00  0.00     0.147 C 
ATOM     31  H1  UNL     1     -47.691 -22.859 -22.273  1.00  0.00     0.160 HD
ENDBRANCH   1  29
TORSDOF 7
ENDMDL
