MODEL 1
REMARK VINA RESULT: -7.011795978      0.000      0.000
REMARK  9 active torsions:
REMARK  status: ('A' for Active; 'I' for Inactive)
REMARK    1  A    between atoms: C2_2  and  C3_3 
REMARK    2  A    between atoms: C3_3  and  O1_4 
REMARK    3  A    between atoms: C3_3  and  C4_6 
REMARK    4  A    between atoms: C4_6  and  O2_7 
REMARK    5  A    between atoms: C4_6  and  C5_9 
REMARK    6  A    between atoms: C5_9  and  N1_10 
REMARK    7  A    between atoms: C5_9  and  C6_14 
REMARK    8  A    between atoms: C15_23  and  C16_24 
REMARK    9  A    between atoms: C16_24  and  O3_26 
ROOT
HETATM    1  C6  UNL     1      12.074  35.374  17.357  1.00  0.00     0.035 C 
HETATM    2  C7  UNL     1      11.134  34.216  17.093  1.00  0.00     0.043 C 
HETATM    3  C8  UNL     1      10.739  34.953  15.838  1.00  0.00    -0.068 C 
HETATM    4  C9  UNL     1       9.660  34.881  15.097  1.00  0.00    -0.072 C 
HETATM    5  C10 UNL     1       8.461  34.019  15.281  1.00  0.00     0.040 C 
HETATM    6  C11 UNL     1       7.502  34.440  14.188  1.00  0.00    -0.003 C 
HETATM    7  C12 UNL     1       7.885  35.932  14.089  1.00  0.00     0.014 C 
HETATM    8  C13 UNL     1       9.389  35.656  13.871  1.00  0.00     0.016 C 
HETATM    9  C14 UNL     1       9.297  34.700  12.700  1.00  0.00     0.016 C 
HETATM   10  C15 UNL     1       7.964  33.983  12.848  1.00  0.00     0.019 C 
HETATM   11  C18 UNL     1      12.056  35.680  15.917  1.00  0.00    -0.018 C 
HETATM   12  C19 UNL     1      11.829  37.142  15.567  1.00  0.00     0.020 C 
HETATM   13  C20 UNL     1      12.998  35.037  14.968  1.00  0.00     0.020 C 
ENDROOT
BRANCH   1  14
HETATM   14  C5  UNL     1      13.300  34.979  18.078  1.00  0.00     0.220 C 
BRANCH  14  15
HETATM   15  C4  UNL     1      14.355  36.034  18.066  1.00  0.00     0.177 C 
BRANCH  15  16
HETATM   16  C3  UNL     1      14.715  36.577  19.431  1.00  0.00     0.148 C 
BRANCH  16  17
HETATM   17  C2  UNL     1      13.704  36.230  20.498  1.00  0.00     0.030 C 
HETATM   18  C1  UNL     1      14.458  35.353  21.507  1.00  0.00     0.007 C 
ENDBRANCH  16  17
BRANCH  16  19
HETATM   19  O1  UNL     1      14.630  37.985  19.288  1.00  0.00    -0.393 OA
ATOM     20  H1  UNL     1      15.519  38.298  19.406  1.00  0.00     0.210 HD
ENDBRANCH  16  19
ENDBRANCH  15  16
BRANCH  15  21
HETATM   21  O2  UNL     1      15.532  35.706  17.444  1.00  0.00    -0.391 OA
ATOM     22  H2  UNL     1      15.304  35.308  16.613  1.00  0.00     0.210 HD
ENDBRANCH  15  21
ENDBRANCH  14  15
BRANCH  14  23
HETATM   23  N1  UNL     1      13.801  33.658  17.767  1.00  0.00    -0.072 N 
ATOM     24  H13 UNL     1      14.748  33.711  17.392  1.00  0.00     0.274 HD
ATOM     25  H12 UNL     1      13.985  33.131  18.621  1.00  0.00     0.274 HD
ATOM     26  H11 UNL     1      13.193  33.129  17.141  1.00  0.00     0.274 HD
ENDBRANCH  14  23
ENDBRANCH   1  14
BRANCH  10  27
HETATM   27  C16 UNL     1       8.082  32.510  12.661  1.00  0.00     0.118 C 
HETATM   28  C17 UNL     1       9.530  32.248  12.215  1.00  0.00     0.040 C 
BRANCH  27  29
HETATM   29  O3  UNL     1       7.292  32.118  11.572  1.00  0.00    -0.396 OA
ATOM     30  H3  UNL     1       6.716  31.412  11.842  1.00  0.00     0.210 HD
ENDBRANCH  27  29
ENDBRANCH  10  27
TORSDOF 9
ENDMDL
MODEL 2
REMARK VINA RESULT: -6.696653686      2.248      7.987
REMARK  9 active torsions:
REMARK  status: ('A' for Active; 'I' for Inactive)
REMARK    1  A    between atoms: C2_2  and  C3_3 
REMARK    2  A    between atoms: C3_3  and  O1_4 
REMARK    3  A    between atoms: C3_3  and  C4_6 
REMARK    4  A    between atoms: C4_6  and  O2_7 
REMARK    5  A    between atoms: C4_6  and  C5_9 
REMARK    6  A    between atoms: C5_9  and  N1_10 
REMARK    7  A    between atoms: C5_9  and  C6_14 
REMARK    8  A    between atoms: C15_23  and  C16_24 
REMARK    9  A    between atoms: C16_24  and  O3_26 
ROOT
HETATM    1  C6  UNL     1       9.042  33.301  15.657  1.00  0.00     0.035 C 
HETATM    2  C7  UNL     1       9.236  34.104  16.927  1.00  0.00     0.043 C 
HETATM    3  C8  UNL     1      10.707  33.808  16.771  1.00  0.00    -0.068 C 
HETATM    4  C9  UNL     1      11.683  33.802  17.644  1.00  0.00    -0.072 C 
HETATM    5  C10 UNL     1      11.631  34.097  19.101  1.00  0.00     0.040 C 
HETATM    6  C11 UNL     1      13.033  33.833  19.608  1.00  0.00    -0.003 C 
HETATM    7  C12 UNL     1      13.431  32.696  18.642  1.00  0.00     0.014 C 
HETATM    8  C13 UNL     1      13.101  33.500  17.365  1.00  0.00     0.016 C 
HETATM    9  C14 UNL     1      13.926  34.742  17.637  1.00  0.00     0.016 C 
HETATM   10  C15 UNL     1      13.987  34.882  19.151  1.00  0.00     0.019 C 
HETATM   11  C18 UNL     1      10.445  33.569  15.306  1.00  0.00    -0.018 C 
HETATM   12  C19 UNL     1      11.246  32.357  14.859  1.00  0.00     0.020 C 
HETATM   13  C20 UNL     1      10.847  34.787  14.560  1.00  0.00     0.020 C 
ENDROOT
BRANCH   1  14
HETATM   14  C5  UNL     1       7.906  33.767  14.838  1.00  0.00     0.220 C 
BRANCH  14  15
HETATM   15  C4  UNL     1       7.806  33.073  13.521  1.00  0.00     0.177 C 
BRANCH  15  16
HETATM   16  C3  UNL     1       6.427  32.550  13.190  1.00  0.00     0.148 C 
BRANCH  16  17
HETATM   17  C2  UNL     1       6.323  31.979  11.796  1.00  0.00     0.030 C 
HETATM   18  C1  UNL     1       6.397  30.456  11.970  1.00  0.00     0.007 C 
ENDBRANCH  16  17
BRANCH  16  19
HETATM   19  O1  UNL     1       5.602  33.703  13.177  1.00  0.00    -0.393 OA
ATOM     20  H1  UNL     1       4.811  33.445  13.636  1.00  0.00     0.210 HD
ENDBRANCH  16  19
ENDBRANCH  15  16
BRANCH  15  21
HETATM   21  O2  UNL     1       8.237  33.782  12.429  1.00  0.00    -0.391 OA
ATOM     22  H2  UNL     1       8.998  34.278  12.705  1.00  0.00     0.210 HD
ENDBRANCH  15  21
ENDBRANCH  14  15
BRANCH  14  23
HETATM   23  N1  UNL     1       7.760  35.203  14.747  1.00  0.00    -0.072 N 
ATOM     24  H13 UNL     1       8.613  35.631  14.387  1.00  0.00     0.274 HD
ATOM     25  H12 UNL     1       7.116  35.454  13.996  1.00  0.00     0.274 HD
ATOM     26  H11 UNL     1       7.478  35.641  15.625  1.00  0.00     0.274 HD
ENDBRANCH  14  23
ENDBRANCH   1  14
BRANCH  10  27
HETATM   27  C16 UNL     1      13.705  36.270  19.610  1.00  0.00     0.118 C 
HETATM   28  C17 UNL     1      13.705  37.148  18.347  1.00  0.00     0.040 C 
BRANCH  27  29
HETATM   29  O3  UNL     1      14.787  36.733  20.371  1.00  0.00    -0.396 OA
ATOM     30  H3  UNL     1      15.228  37.428  19.898  1.00  0.00     0.210 HD
ENDBRANCH  27  29
ENDBRANCH  10  27
TORSDOF 9
ENDMDL
MODEL 3
REMARK VINA RESULT: -6.607306254      1.627      2.672
REMARK  9 active torsions:
REMARK  status: ('A' for Active; 'I' for Inactive)
REMARK    1  A    between atoms: C2_2  and  C3_3 
REMARK    2  A    between atoms: C3_3  and  O1_4 
REMARK    3  A    between atoms: C3_3  and  C4_6 
REMARK    4  A    between atoms: C4_6  and  O2_7 
REMARK    5  A    between atoms: C4_6  and  C5_9 
REMARK    6  A    between atoms: C5_9  and  N1_10 
REMARK    7  A    between atoms: C5_9  and  C6_14 
REMARK    8  A    between atoms: C15_23  and  C16_24 
REMARK    9  A    between atoms: C16_24  and  O3_26 
ROOT
HETATM    1  C6  UNL     1      13.032  34.919  17.230  1.00  0.00     0.035 C 
HETATM    2  C7  UNL     1      12.287  36.066  16.577  1.00  0.00     0.043 C 
HETATM    3  C8  UNL     1      11.705  35.028  15.650  1.00  0.00    -0.068 C 
HETATM    4  C9  UNL     1      11.183  35.135  14.453  1.00  0.00    -0.072 C 
HETATM    5  C10 UNL     1      11.002  36.355  13.622  1.00  0.00     0.040 C 
HETATM    6  C11 UNL     1      10.447  35.858  12.305  1.00  0.00    -0.003 C 
HETATM    7  C12 UNL     1      11.143  34.481  12.252  1.00  0.00     0.014 C 
HETATM    8  C13 UNL     1      10.632  34.034  13.640  1.00  0.00     0.016 C 
HETATM    9  C14 UNL     1       9.148  34.269  13.443  1.00  0.00     0.016 C 
HETATM   10  C15 UNL     1       9.034  35.409  12.442  1.00  0.00     0.019 C 
HETATM   11  C18 UNL     1      12.015  33.996  16.703  1.00  0.00    -0.018 C 
HETATM   12  C19 UNL     1      12.559  32.751  16.021  1.00  0.00     0.020 C 
HETATM   13  C20 UNL     1      10.764  33.702  17.445  1.00  0.00     0.020 C 
ENDROOT
BRANCH   1  14
HETATM   14  C5  UNL     1      13.262  35.120  18.674  1.00  0.00     0.220 C 
BRANCH  14  15
HETATM   15  C4  UNL     1      14.206  36.238  18.970  1.00  0.00     0.177 C 
BRANCH  15  16
HETATM   16  C3  UNL     1      14.633  36.333  20.417  1.00  0.00     0.148 C 
BRANCH  16  17
HETATM   17  C2  UNL     1      13.722  37.200  21.253  1.00  0.00     0.030 C 
HETATM   18  C1  UNL     1      12.733  36.234  21.918  1.00  0.00     0.007 C 
ENDBRANCH  16  17
BRANCH  16  19
HETATM   19  O1  UNL     1      15.869  37.027  20.379  1.00  0.00    -0.393 OA
ATOM     20  H1  UNL     1      16.299  36.721  19.590  1.00  0.00     0.210 HD
ENDBRANCH  16  19
ENDBRANCH  15  16
BRANCH  15  21
HETATM   21  O2  UNL     1      15.348  36.282  18.213  1.00  0.00    -0.391 OA
ATOM     22  H2  UNL     1      15.680  35.393  18.161  1.00  0.00     0.210 HD
ENDBRANCH  15  21
ENDBRANCH  14  15
BRANCH  14  23
HETATM   23  N1  UNL     1      13.539  33.917  19.428  1.00  0.00    -0.072 N 
ATOM     24  H13 UNL     1      12.699  33.344  19.514  1.00  0.00     0.274 HD
ATOM     25  H12 UNL     1      14.125  33.279  18.889  1.00  0.00     0.274 HD
ATOM     26  H11 UNL     1      13.949  34.096  20.345  1.00  0.00     0.274 HD
ENDBRANCH  14  23
ENDBRANCH   1  14
BRANCH  10  27
HETATM   27  C16 UNL     1       8.052  36.446  12.864  1.00  0.00     0.118 C 
HETATM   28  C17 UNL     1       7.492  35.981  14.218  1.00  0.00     0.040 C 
BRANCH  27  29
HETATM   29  O3  UNL     1       6.955  36.426  11.992  1.00  0.00    -0.396 OA
ATOM     30  H3  UNL     1       6.425  35.660  12.175  1.00  0.00     0.210 HD
ENDBRANCH  27  29
ENDBRANCH  10  27
TORSDOF 9
ENDMDL
MODEL 4
REMARK VINA RESULT: -6.597849567      1.441      1.876
REMARK  9 active torsions:
REMARK  status: ('A' for Active; 'I' for Inactive)
REMARK    1  A    between atoms: C2_2  and  C3_3 
REMARK    2  A    between atoms: C3_3  and  O1_4 
REMARK    3  A    between atoms: C3_3  and  C4_6 
REMARK    4  A    between atoms: C4_6  and  O2_7 
REMARK    5  A    between atoms: C4_6  and  C5_9 
REMARK    6  A    between atoms: C5_9  and  N1_10 
REMARK    7  A    between atoms: C5_9  and  C6_14 
REMARK    8  A    between atoms: C15_23  and  C16_24 
REMARK    9  A    between atoms: C16_24  and  O3_26 
ROOT
HETATM    1  C6  UNL     1      12.457  35.827  15.857  1.00  0.00     0.035 C 
HETATM    2  C7  UNL     1      10.981  35.760  16.189  1.00  0.00     0.043 C 
HETATM    3  C8  UNL     1      10.765  35.495  14.720  1.00  0.00    -0.068 C 
HETATM    4  C9  UNL     1       9.711  35.658  13.959  1.00  0.00    -0.072 C 
HETATM    5  C10 UNL     1       8.364  36.170  14.331  1.00  0.00     0.040 C 
HETATM    6  C11 UNL     1       7.593  36.234  13.031  1.00  0.00    -0.003 C 
HETATM    7  C12 UNL     1       8.759  36.555  12.071  1.00  0.00     0.014 C 
HETATM    8  C13 UNL     1       9.618  35.351  12.518  1.00  0.00     0.016 C 
HETATM    9  C14 UNL     1       8.607  34.240  12.321  1.00  0.00     0.016 C 
HETATM   10  C15 UNL     1       7.241  34.874  12.536  1.00  0.00     0.019 C 
HETATM   11  C18 UNL     1      12.195  35.025  14.652  1.00  0.00    -0.018 C 
HETATM   12  C19 UNL     1      12.822  35.551  13.372  1.00  0.00     0.020 C 
HETATM   13  C20 UNL     1      12.196  33.542  14.684  1.00  0.00     0.020 C 
ENDROOT
BRANCH   1  14
HETATM   14  C5  UNL     1      13.325  35.363  16.957  1.00  0.00     0.220 C 
BRANCH  14  15
HETATM   15  C4  UNL     1      13.410  36.332  18.089  1.00  0.00     0.177 C 
BRANCH  15  16
HETATM   16  C3  UNL     1      14.434  35.979  19.144  1.00  0.00     0.148 C 
BRANCH  16  17
HETATM   17  C2  UNL     1      14.085  36.503  20.516  1.00  0.00     0.030 C 
HETATM   18  C1  UNL     1      14.421  35.364  21.488  1.00  0.00     0.007 C 
ENDBRANCH  16  17
BRANCH  16  19
HETATM   19  O1  UNL     1      15.598  36.693  18.763  1.00  0.00    -0.393 OA
ATOM     20  H1  UNL     1      15.756  36.442  17.861  1.00  0.00     0.210 HD
ENDBRANCH  16  19
ENDBRANCH  15  16
BRANCH  15  21
HETATM   21  O2  UNL     1      13.623  37.643  17.749  1.00  0.00    -0.391 OA
ATOM     22  H2  UNL     1      12.855  38.129  18.027  1.00  0.00     0.210 HD
ENDBRANCH  15  21
ENDBRANCH  14  15
BRANCH  14  23
HETATM   23  N1  UNL     1      14.610  34.838  16.550  1.00  0.00    -0.072 N 
ATOM     24  H13 UNL     1      15.240  35.594  16.283  1.00  0.00     0.274 HD
ATOM     25  H12 UNL     1      15.120  34.468  17.353  1.00  0.00     0.274 HD
ATOM     26  H11 UNL     1      14.548  34.139  15.809  1.00  0.00     0.274 HD
ENDBRANCH  14  23
ENDBRANCH   1  14
BRANCH  10  27
HETATM   27  C16 UNL     1       6.364  34.060  13.422  1.00  0.00     0.118 C 
HETATM   28  C17 UNL     1       6.810  32.599  13.242  1.00  0.00     0.040 C 
BRANCH  27  29
HETATM   29  O3  UNL     1       5.051  34.098  12.934  1.00  0.00    -0.396 OA
ATOM     30  H3  UNL     1       4.801  35.002  12.780  1.00  0.00     0.210 HD
ENDBRANCH  27  29
ENDBRANCH  10  27
TORSDOF 9
ENDMDL
MODEL 5
REMARK VINA RESULT: -6.432887427      1.641      1.871
REMARK  9 active torsions:
REMARK  status: ('A' for Active; 'I' for Inactive)
REMARK    1  A    between atoms: C2_2  and  C3_3 
REMARK    2  A    between atoms: C3_3  and  O1_4 
REMARK    3  A    between atoms: C3_3  and  C4_6 
REMARK    4  A    between atoms: C4_6  and  O2_7 
REMARK    5  A    between atoms: C4_6  and  C5_9 
REMARK    6  A    between atoms: C5_9  and  N1_10 
REMARK    7  A    between atoms: C5_9  and  C6_14 
REMARK    8  A    between atoms: C15_23  and  C16_24 
REMARK    9  A    between atoms: C16_24  and  O3_26 
ROOT
HETATM    1  C6  UNL     1      12.006  34.392  18.448  1.00  0.00     0.035 C 
HETATM    2  C7  UNL     1      10.770  33.600  18.076  1.00  0.00     0.043 C 
HETATM    3  C8  UNL     1      10.784  34.377  16.783  1.00  0.00    -0.068 C 
HETATM    4  C9  UNL     1       9.831  34.636  15.922  1.00  0.00    -0.072 C 
HETATM    5  C10 UNL     1       8.401  34.226  15.963  1.00  0.00     0.040 C 
HETATM    6  C11 UNL     1       7.763  34.897  14.766  1.00  0.00    -0.003 C 
HETATM    7  C12 UNL     1       8.629  36.175  14.712  1.00  0.00     0.014 C 
HETATM    8  C13 UNL     1       9.970  35.410  14.672  1.00  0.00     0.016 C 
HETATM    9  C14 UNL     1       9.696  34.493  13.498  1.00  0.00     0.016 C 
HETATM   10  C15 UNL     1       8.193  34.262  13.489  1.00  0.00     0.019 C 
HETATM   11  C18 UNL     1      12.250  34.631  17.017  1.00  0.00    -0.018 C 
HETATM   12  C19 UNL     1      12.562  36.071  16.642  1.00  0.00     0.020 C 
HETATM   13  C20 UNL     1      13.023  33.677  16.184  1.00  0.00     0.020 C 
ENDROOT
BRANCH   1  14
HETATM   14  C5  UNL     1      12.943  33.643  19.308  1.00  0.00     0.220 C 
BRANCH  14  15
HETATM   15  C4  UNL     1      13.865  34.524  20.081  1.00  0.00     0.177 C 
BRANCH  15  16
HETATM   16  C3  UNL     1      13.317  35.902  20.376  1.00  0.00     0.148 C 
BRANCH  16  17
HETATM   17  C2  UNL     1      14.386  36.964  20.471  1.00  0.00     0.030 C 
HETATM   18  C1  UNL     1      15.102  36.947  19.113  1.00  0.00     0.007 C 
ENDBRANCH  16  17
BRANCH  16  19
HETATM   19  O1  UNL     1      12.783  35.801  21.686  1.00  0.00    -0.393 OA
ATOM     20  H1  UNL     1      12.214  35.041  21.661  1.00  0.00     0.210 HD
ENDBRANCH  16  19
ENDBRANCH  15  16
BRANCH  15  21
HETATM   21  O2  UNL     1      14.334  34.019  21.267  1.00  0.00    -0.391 OA
ATOM     22  H2  UNL     1      15.108  34.520  21.494  1.00  0.00     0.210 HD
ENDBRANCH  15  21
ENDBRANCH  14  15
BRANCH  14  23
HETATM   23  N1  UNL     1      13.610  32.529  18.670  1.00  0.00    -0.072 N 
ATOM     24  H13 UNL     1      14.569  32.775  18.424  1.00  0.00     0.274 HD
ATOM     25  H12 UNL     1      13.793  31.784  19.343  1.00  0.00     0.274 HD
ATOM     26  H11 UNL     1      13.110  32.166  17.858  1.00  0.00     0.274 HD
ENDBRANCH  14  23
ENDBRANCH   1  14
BRANCH  10  27
HETATM   27  C16 UNL     1       7.834  32.827  13.317  1.00  0.00     0.118 C 
HETATM   28  C17 UNL     1       8.113  32.489  11.843  1.00  0.00     0.040 C 
BRANCH  27  29
HETATM   29  O3  UNL     1       6.449  32.676  13.466  1.00  0.00    -0.396 OA
ATOM     30  H3  UNL     1       6.074  32.398  12.639  1.00  0.00     0.210 HD
ENDBRANCH  27  29
ENDBRANCH  10  27
TORSDOF 9
ENDMDL
