MODEL 1
REMARK VINA RESULT: -6.711847084      0.000      0.000
REMARK  7 active torsions:
REMARK  status: ('A' for Active; 'I' for Inactive)
REMARK    1  A    between atoms: C2_2  and  C4_4 
REMARK    2  A    between atoms: C6_6  and  N1_7 
REMARK    3  A    between atoms: N1_7  and  C7_9 
REMARK    4  A    between atoms: C7_9  and  C8_10 
REMARK    5  A    between atoms: C8_10  and  C9_11 
REMARK    6  A    between atoms: C9_11  and  O1_12 
REMARK    7  A    between atoms: N4_24  and  C15_26 
ROOT
HETATM    1  C4  UNL     1      10.110  34.848  15.399  1.00  0.00     0.033 A 
HETATM    2  C5  UNL     1      11.111  35.187  16.295  1.00  0.00     0.074 A 
HETATM    3  C6  UNL     1      12.327  35.663  15.865  1.00  0.00     0.118 A 
HETATM    4  N3  UNL     1      12.491  35.783  14.516  1.00  0.00    -0.177 N 
ATOM      5  H3  UNL     1      13.383  36.134  14.166  1.00  0.00     0.185 HD
HETATM    6  C14 UNL     1      11.539  35.461  13.624  1.00  0.00     0.680 A 
HETATM    7  N4  UNL     1      11.677  35.566  12.360  1.00  0.00    -0.218 N 
ATOM      8  H4  UNL     1      10.863  35.284  11.813  1.00  0.00     0.178 HD
HETATM    9  N5  UNL     1      10.333  34.986  14.089  1.00  0.00    -0.195 N 
ATOM     10  H5  UNL     1       9.600  34.737  13.424  1.00  0.00     0.184 HD
ENDROOT
BRANCH   3  11
HETATM   11  N1  UNL     1      13.261  35.981  16.689  1.00  0.00    -0.375 N 
ATOM     12  H1  UNL     1      14.202  35.629  16.511  1.00  0.00     0.161 HD
BRANCH  11  13
HETATM   13  C7  UNL     1      13.053  36.798  17.835  1.00  0.00     0.134 C 
BRANCH  13  14
HETATM   14  C8  UNL     1      13.802  36.265  19.064  1.00  0.00     0.021 C 
HETATM   15  C10 UNL     1      13.143  36.710  20.325  1.00  0.00     0.017 C 
HETATM   16  C11 UNL     1      13.923  36.225  21.503  1.00  0.00     0.028 C 
HETATM   17  C12 UNL     1      14.326  34.778  21.375  1.00  0.00     0.232 C 
HETATM   18  N2  UNL     1      13.601  34.145  20.290  1.00  0.00    -0.074 N 
HETATM   19  C13 UNL     1      13.838  34.754  19.021  1.00  0.00     0.245 C 
ATOM     20  H22 UNL     1      13.802  33.145  20.254  1.00  0.00     0.277 HD
ATOM     21  H21 UNL     1      12.602  34.109  20.493  1.00  0.00     0.277 HD
BRANCH  14  22
HETATM   22  C9  UNL     1      15.206  36.840  18.961  1.00  0.00     0.177 C 
BRANCH  22  23
HETATM   23  O1  UNL     1      15.045  38.241  19.057  1.00  0.00    -0.400 OA
ATOM     24  H1  UNL     1      15.692  38.526  19.691  1.00  0.00     0.209 HD
ENDBRANCH  22  23
ENDBRANCH  14  22
ENDBRANCH  13  14
ENDBRANCH  11  13
ENDBRANCH   3  11
BRANCH   1  25
HETATM   25  C2  UNL     1       8.827  34.341  15.916  1.00  0.00     0.028 C 
HETATM   26  C1  UNL     1       8.972  33.607  17.218  1.00  0.00     0.016 C 
HETATM   27  C3  UNL     1       8.250  33.381  14.898  1.00  0.00     0.016 C 
ENDBRANCH   1  25
BRANCH   7  28
HETATM   28  C15 UNL     1      12.784  36.014  11.598  1.00  0.00     0.036 C 
HETATM   29  C16 UNL     1      12.566  35.746  10.109  1.00  0.00     0.038 C 
HETATM   30  C17 UNL     1      12.964  37.516  11.713  1.00  0.00     0.038 C 
HETATM   31  C18 UNL     1      14.076  35.324  11.991  1.00  0.00     0.038 C 
ENDBRANCH   7  28
TORSDOF 7
ENDMDL
MODEL 2
REMARK VINA RESULT: -6.315408628      4.597      7.520
REMARK  7 active torsions:
REMARK  status: ('A' for Active; 'I' for Inactive)
REMARK    1  A    between atoms: C2_2  and  C4_4 
REMARK    2  A    between atoms: C6_6  and  N1_7 
REMARK    3  A    between atoms: N1_7  and  C7_9 
REMARK    4  A    between atoms: C7_9  and  C8_10 
REMARK    5  A    between atoms: C8_10  and  C9_11 
REMARK    6  A    between atoms: C9_11  and  O1_12 
REMARK    7  A    between atoms: N4_24  and  C15_26 
ROOT
HETATM    1  C4  UNL     1       9.413  33.929  14.937  1.00  0.00     0.033 A 
HETATM    2  C5  UNL     1       9.932  32.782  14.357  1.00  0.00     0.074 A 
HETATM    3  C6  UNL     1      11.175  32.304  14.702  1.00  0.00     0.118 A 
HETATM    4  N3  UNL     1      11.861  33.016  15.641  1.00  0.00    -0.177 N 
ATOM      5  H3  UNL     1      12.786  32.685  15.918  1.00  0.00     0.185 HD
HETATM    6  C14 UNL     1      11.384  34.131  16.219  1.00  0.00     0.680 A 
HETATM    7  N4  UNL     1      12.013  34.809  17.098  1.00  0.00    -0.218 N 
ATOM      8  H4  UNL     1      11.518  35.630  17.444  1.00  0.00     0.178 HD
HETATM    9  N5  UNL     1      10.136  34.583  15.850  1.00  0.00    -0.195 N 
ATOM     10  H5  UNL     1       9.760  35.428  16.280  1.00  0.00     0.184 HD
ENDROOT
BRANCH   3  11
HETATM   11  N1  UNL     1      11.664  31.241  14.170  1.00  0.00    -0.375 N 
ATOM     12  H1  UNL     1      12.146  30.576  14.776  1.00  0.00     0.161 HD
BRANCH  11  13
HETATM   13  C7  UNL     1      11.569  30.941  12.783  1.00  0.00     0.134 C 
BRANCH  13  14
HETATM   14  C8  UNL     1      11.552  29.429  12.522  1.00  0.00     0.021 C 
HETATM   15  C10 UNL     1      11.578  28.666  13.804  1.00  0.00     0.017 C 
HETATM   16  C11 UNL     1      11.618  27.200  13.520  1.00  0.00     0.028 C 
HETATM   17  C12 UNL     1      10.629  26.788  12.460  1.00  0.00     0.232 C 
HETATM   18  N2  UNL     1       9.687  27.861  12.202  1.00  0.00    -0.074 N 
HETATM   19  C13 UNL     1      10.309  29.060  11.744  1.00  0.00     0.245 C 
ATOM     20  H22 UNL     1       8.962  27.558  11.551  1.00  0.00     0.277 HD
ATOM     21  H21 UNL     1       9.111  28.042  13.024  1.00  0.00     0.277 HD
BRANCH  14  22
HETATM   22  C9  UNL     1      12.802  29.146  11.705  1.00  0.00     0.177 C 
BRANCH  22  23
HETATM   23  O1  UNL     1      13.881  29.579  12.509  1.00  0.00    -0.400 OA
ATOM     24  H1  UNL     1      14.447  28.822  12.599  1.00  0.00     0.209 HD
ENDBRANCH  22  23
ENDBRANCH  14  22
ENDBRANCH  13  14
ENDBRANCH  11  13
ENDBRANCH   3  11
BRANCH   1  25
HETATM   25  C2  UNL     1       8.077  34.396  14.528  1.00  0.00     0.028 C 
HETATM   26  C1  UNL     1       7.771  34.100  13.088  1.00  0.00     0.016 C 
HETATM   27  C3  UNL     1       8.018  35.896  14.721  1.00  0.00     0.016 C 
ENDBRANCH   1  25
BRANCH   7  28
HETATM   28  C15 UNL     1      13.294  34.597  17.667  1.00  0.00     0.036 C 
HETATM   29  C16 UNL     1      13.661  35.734  18.620  1.00  0.00     0.038 C 
HETATM   30  C17 UNL     1      13.322  33.339  18.513  1.00  0.00     0.038 C 
HETATM   31  C18 UNL     1      14.388  34.521  16.620  1.00  0.00     0.038 C 
ENDBRANCH   7  28
TORSDOF 7
ENDMDL
MODEL 3
REMARK VINA RESULT: -6.231731670      1.899      4.563
REMARK  7 active torsions:
REMARK  status: ('A' for Active; 'I' for Inactive)
REMARK    1  A    between atoms: C2_2  and  C4_4 
REMARK    2  A    between atoms: C6_6  and  N1_7 
REMARK    3  A    between atoms: N1_7  and  C7_9 
REMARK    4  A    between atoms: C7_9  and  C8_10 
REMARK    5  A    between atoms: C8_10  and  C9_11 
REMARK    6  A    between atoms: C9_11  and  O1_12 
REMARK    7  A    between atoms: N4_24  and  C15_26 
ROOT
HETATM    1  C4  UNL     1      11.867  36.787  11.849  1.00  0.00     0.033 A 
HETATM    2  C5  UNL     1      12.587  36.351  12.950  1.00  0.00     0.074 A 
HETATM    3  C6  UNL     1      11.966  35.757  14.023  1.00  0.00     0.118 A 
HETATM    4  N3  UNL     1      10.611  35.623  13.944  1.00  0.00    -0.177 N 
ATOM      5  H3  UNL     1      10.121  35.186  14.726  1.00  0.00     0.185 HD
HETATM    6  C14 UNL     1       9.886  36.038  12.891  1.00  0.00     0.680 A 
HETATM    7  N4  UNL     1       8.619  35.920  12.802  1.00  0.00    -0.218 N 
ATOM      8  H4  UNL     1       8.213  36.281  11.939  1.00  0.00     0.178 HD
HETATM    9  N5  UNL     1      10.540  36.628  11.832  1.00  0.00    -0.195 N 
ATOM     10  H5  UNL     1      10.005  36.948  11.025  1.00  0.00     0.184 HD
ENDROOT
BRANCH   3  11
HETATM   11  N1  UNL     1      12.625  35.349  15.048  1.00  0.00    -0.375 N 
ATOM     12  H1  UNL     1      13.567  34.986  14.902  1.00  0.00     0.161 HD
BRANCH  11  13
HETATM   13  C7  UNL     1      12.112  35.375  16.375  1.00  0.00     0.134 C 
BRANCH  13  14
HETATM   14  C8  UNL     1      13.228  35.520  17.419  1.00  0.00     0.021 C 
HETATM   15  C10 UNL     1      13.365  36.938  17.861  1.00  0.00     0.017 C 
HETATM   16  C11 UNL     1      14.492  37.059  18.832  1.00  0.00     0.028 C 
HETATM   17  C12 UNL     1      14.470  35.979  19.883  1.00  0.00     0.232 C 
HETATM   18  N2  UNL     1      13.200  35.280  19.864  1.00  0.00    -0.074 N 
HETATM   19  C13 UNL     1      12.921  34.648  18.615  1.00  0.00     0.245 C 
ATOM     20  H22 UNL     1      13.144  34.608  20.630  1.00  0.00     0.277 HD
ATOM     21  H21 UNL     1      12.439  35.904  20.132  1.00  0.00     0.277 HD
BRANCH  14  22
HETATM   22  C9  UNL     1      14.496  35.052  16.722  1.00  0.00     0.177 C 
BRANCH  22  23
HETATM   23  O1  UNL     1      14.389  33.644  16.656  1.00  0.00    -0.400 OA
ATOM     24  H1  UNL     1      15.121  33.362  16.122  1.00  0.00     0.209 HD
ENDBRANCH  22  23
ENDBRANCH  14  22
ENDBRANCH  13  14
ENDBRANCH  11  13
ENDBRANCH   3  11
BRANCH   1  25
HETATM   25  C2  UNL     1      12.585  37.417  10.727  1.00  0.00     0.028 C 
HETATM   26  C1  UNL     1      14.074  37.431  10.922  1.00  0.00     0.016 C 
HETATM   27  C3  UNL     1      12.114  38.850  10.606  1.00  0.00     0.016 C 
ENDBRANCH   1  25
BRANCH   7  28
HETATM   28  C15 UNL     1       7.689  35.366  13.715  1.00  0.00     0.036 C 
HETATM   29  C16 UNL     1       6.255  35.589  13.236  1.00  0.00     0.038 C 
HETATM   30  C17 UNL     1       7.847  33.862  13.823  1.00  0.00     0.038 C 
HETATM   31  C18 UNL     1       7.797  35.981  15.097  1.00  0.00     0.038 C 
ENDBRANCH   7  28
TORSDOF 7
ENDMDL
MODEL 4
REMARK VINA RESULT: -6.229932307      2.073      4.739
REMARK  7 active torsions:
REMARK  status: ('A' for Active; 'I' for Inactive)
REMARK    1  A    between atoms: C2_2  and  C4_4 
REMARK    2  A    between atoms: C6_6  and  N1_7 
REMARK    3  A    between atoms: N1_7  and  C7_9 
REMARK    4  A    between atoms: C7_9  and  C8_10 
REMARK    5  A    between atoms: C8_10  and  C9_11 
REMARK    6  A    between atoms: C9_11  and  O1_12 
REMARK    7  A    between atoms: N4_24  and  C15_26 
ROOT
HETATM    1  C4  UNL     1      11.568  37.147  11.600  1.00  0.00     0.033 A 
HETATM    2  C5  UNL     1      12.344  36.821  12.701  1.00  0.00     0.074 A 
HETATM    3  C6  UNL     1      11.798  36.213  13.808  1.00  0.00     0.118 A 
HETATM    4  N3  UNL     1      10.461  35.951  13.760  1.00  0.00    -0.177 N 
ATOM      5  H3  UNL     1      10.027  35.500  14.566  1.00  0.00     0.185 HD
HETATM    6  C14 UNL     1       9.684  36.257  12.707  1.00  0.00     0.680 A 
HETATM    7  N4  UNL     1       8.432  36.019  12.647  1.00  0.00    -0.218 N 
ATOM      8  H4  UNL     1       7.979  36.308  11.780  1.00  0.00     0.178 HD
HETATM    9  N5  UNL     1      10.262  36.865  11.615  1.00  0.00    -0.195 N 
ATOM     10  H5  UNL     1       9.686  37.104  10.808  1.00  0.00     0.184 HD
ENDROOT
BRANCH   3  11
HETATM   11  N1  UNL     1      12.510  35.906  14.833  1.00  0.00    -0.375 N 
ATOM     12  H1  UNL     1      13.375  35.387  14.682  1.00  0.00     0.161 HD
BRANCH  11  13
HETATM   13  C7  UNL     1      12.156  36.252  16.167  1.00  0.00     0.134 C 
BRANCH  13  14
HETATM   14  C8  UNL     1      12.718  35.252  17.187  1.00  0.00     0.021 C 
HETATM   15  C10 UNL     1      11.617  34.587  17.943  1.00  0.00     0.017 C 
HETATM   16  C11 UNL     1      12.192  33.663  18.966  1.00  0.00     0.028 C 
HETATM   17  C12 UNL     1      13.304  32.807  18.414  1.00  0.00     0.232 C 
HETATM   18  N2  UNL     1      13.329  32.882  16.966  1.00  0.00    -0.074 N 
HETATM   19  C13 UNL     1      13.541  34.205  16.473  1.00  0.00     0.245 C 
ATOM     20  H22 UNL     1      14.020  32.238  16.581  1.00  0.00     0.277 HD
ATOM     21  H21 UNL     1      12.482  32.479  16.567  1.00  0.00     0.277 HD
BRANCH  14  22
HETATM   22  C9  UNL     1      13.588  36.076  18.123  1.00  0.00     0.177 C 
BRANCH  22  23
HETATM   23  O1  UNL     1      13.546  37.393  17.611  1.00  0.00    -0.400 OA
ATOM     24  H1  UNL     1      14.447  37.612  17.407  1.00  0.00     0.209 HD
ENDBRANCH  22  23
ENDBRANCH  14  22
ENDBRANCH  13  14
ENDBRANCH  11  13
ENDBRANCH   3  11
BRANCH   1  25
HETATM   25  C2  UNL     1      12.206  37.798  10.442  1.00  0.00     0.028 C 
HETATM   26  C1  UNL     1      13.703  37.834  10.546  1.00  0.00     0.016 C 
HETATM   27  C3  UNL     1      11.706  39.224  10.364  1.00  0.00     0.016 C 
ENDBRANCH   1  25
BRANCH   7  28
HETATM   28  C15 UNL     1       7.572  35.416  13.599  1.00  0.00     0.036 C 
HETATM   29  C16 UNL     1       6.109  35.563  13.182  1.00  0.00     0.038 C 
HETATM   30  C17 UNL     1       7.813  33.922  13.694  1.00  0.00     0.038 C 
HETATM   31  C18 UNL     1       7.707  36.034  14.977  1.00  0.00     0.038 C 
ENDBRANCH   7  28
TORSDOF 7
ENDMDL
MODEL 5
REMARK VINA RESULT: -6.197207588      2.518      6.891
REMARK  7 active torsions:
REMARK  status: ('A' for Active; 'I' for Inactive)
REMARK    1  A    between atoms: C2_2  and  C4_4 
REMARK    2  A    between atoms: C6_6  and  N1_7 
REMARK    3  A    between atoms: N1_7  and  C7_9 
REMARK    4  A    between atoms: C7_9  and  C8_10 
REMARK    5  A    between atoms: C8_10  and  C9_11 
REMARK    6  A    between atoms: C9_11  and  O1_12 
REMARK    7  A    between atoms: N4_24  and  C15_26 
ROOT
HETATM    1  C4  UNL     1       9.396  35.519  14.749  1.00  0.00     0.033 A 
HETATM    2  C5  UNL     1      10.103  36.197  13.768  1.00  0.00     0.074 A 
HETATM    3  C6  UNL     1      11.428  36.520  13.935  1.00  0.00     0.118 A 
HETATM    4  N3  UNL     1      12.004  36.141  15.112  1.00  0.00    -0.177 N 
ATOM      5  H3  UNL     1      12.988  36.366  15.264  1.00  0.00     0.185 HD
HETATM    6  C14 UNL     1      11.343  35.484  16.081  1.00  0.00     0.680 A 
HETATM    7  N4  UNL     1      11.867  35.123  17.186  1.00  0.00    -0.218 N 
ATOM      8  H4  UNL     1      11.237  34.631  17.821  1.00  0.00     0.178 HD
HETATM    9  N5  UNL     1      10.016  35.176  15.881  1.00  0.00    -0.195 N 
ATOM     10  H5  UNL     1       9.501  34.678  16.607  1.00  0.00     0.184 HD
ENDROOT
BRANCH   3  11
HETATM   11  N1  UNL     1      12.093  37.147  13.030  1.00  0.00    -0.375 N 
ATOM     12  H1  UNL     1      13.031  37.475  13.260  1.00  0.00     0.161 HD
BRANCH  11  13
HETATM   13  C7  UNL     1      11.589  37.409  11.726  1.00  0.00     0.134 C 
BRANCH  13  14
HETATM   14  C8  UNL     1      12.678  37.273  10.653  1.00  0.00     0.021 C 
HETATM   15  C10 UNL     1      14.000  36.962  11.270  1.00  0.00     0.017 C 
HETATM   16  C11 UNL     1      15.050  36.892  10.210  1.00  0.00     0.028 C 
HETATM   17  C12 UNL     1      14.611  36.089   9.012  1.00  0.00     0.232 C 
HETATM   18  N2  UNL     1      13.405  35.343   9.316  1.00  0.00    -0.074 N 
HETATM   19  C13 UNL     1      12.305  36.173   9.685  1.00  0.00     0.245 C 
ATOM     20  H22 UNL     1      13.152  34.730   8.541  1.00  0.00     0.277 HD
ATOM     21  H21 UNL     1      13.585  34.641  10.034  1.00  0.00     0.277 HD
BRANCH  14  22
HETATM   22  C9  UNL     1      12.720  38.620   9.948  1.00  0.00     0.177 C 
BRANCH  22  23
HETATM   23  O1  UNL     1      12.352  39.568  10.929  1.00  0.00    -0.400 OA
ATOM     24  H1  UNL     1      11.630  40.054  10.550  1.00  0.00     0.209 HD
ENDBRANCH  22  23
ENDBRANCH  14  22
ENDBRANCH  13  14
ENDBRANCH  11  13
ENDBRANCH   3  11
BRANCH   1  25
HETATM   25  C2  UNL     1       7.976  35.199  14.517  1.00  0.00     0.028 C 
HETATM   26  C1  UNL     1       7.767  33.789  14.043  1.00  0.00     0.016 C 
HETATM   27  C3  UNL     1       7.445  36.135  13.453  1.00  0.00     0.016 C 
ENDBRANCH   1  25
BRANCH   7  28
HETATM   28  C15 UNL     1      13.187  35.298  17.670  1.00  0.00     0.036 C 
HETATM   29  C16 UNL     1      13.378  34.581  19.006  1.00  0.00     0.038 C 
HETATM   30  C17 UNL     1      14.207  34.678  16.734  1.00  0.00     0.038 C 
HETATM   31  C18 UNL     1      13.535  36.757  17.893  1.00  0.00     0.038 C 
ENDBRANCH   7  28
TORSDOF 7
ENDMDL
