MODEL 1
REMARK VINA RESULT: -8.244465167      0.000      0.000
REMARK  3 active torsions:
REMARK  status: ('A' for Active; 'I' for Inactive)
REMARK    1  A    between atoms: C3_4  and  N1_5 
REMARK    2  A    between atoms: N1_5  and  C4_7 
REMARK    3  A    between atoms: C8_13  and  C9_14 
ROOT
HETATM    1  C9  UNL     1      11.783  35.272  15.298  1.00  0.00     0.249 C 
HETATM    2  C10 UNL     1      12.754  35.261  14.191  1.00  0.00     0.027 C 
HETATM    3  C11 UNL     1      12.710  34.604  12.907  1.00  0.00     0.081 C 
HETATM    4  N3  UNL     1      12.151  33.393  12.571  1.00  0.00    -0.399 N 
ATOM      5  H3  UNL     1      12.668  32.523  12.693  1.00  0.00     0.158 HD
HETATM    6  C12 UNL     1      10.776  33.395  12.027  1.00  0.00     0.123 C 
HETATM    7  C13 UNL     1       9.901  33.510  13.144  1.00  0.00     0.006 C 
HETATM    8  C14 UNL     1       8.544  32.980  13.398  1.00  0.00     0.011 C 
HETATM    9  C15 UNL     1       8.190  33.420  14.813  1.00  0.00    -0.009 C 
HETATM   10  C16 UNL     1       9.401  33.766  15.662  1.00  0.00     0.043 C 
HETATM   11  C17 UNL     1       9.527  34.983  14.874  1.00  0.00     0.128 C 
HETATM   12  C18 UNL     1       9.671  34.940  13.388  1.00  0.00     0.045 C 
HETATM   13  C19 UNL     1       8.071  34.949  15.019  1.00  0.00     0.043 C 
HETATM   14  N4  UNL     1      10.518  35.866  15.302  1.00  0.00    -0.054 N 
ATOM     15  H41 UNL     1      10.511  36.725  14.753  1.00  0.00     0.279 HD
ATOM     16  H42 UNL     1      10.295  36.258  16.217  1.00  0.00     0.279 HD
ENDROOT
BRANCH   1  17
HETATM   17  C8  UNL     1      12.546  35.823  16.505  1.00  0.00     0.042 A 
HETATM   18  C1  UNL     1      12.641  37.169  16.756  1.00  0.00     0.185 A 
HETATM   19  O1  UNL     1      12.113  38.027  16.048  1.00  0.00    -0.288 OA
HETATM   20  C2  UNL     1      13.374  37.615  17.865  1.00  0.00     0.103 A 
HETATM   21  C3  UNL     1      14.000  36.737  18.721  1.00  0.00     0.104 A 
HETATM   22  N2  UNL     1      13.877  35.394  18.446  1.00  0.00    -0.352 N 
HETATM   23  C7  UNL     1      13.185  34.974  17.390  1.00  0.00     0.103 A 
ATOM     24  H2  UNL     1      14.322  34.711  19.060  1.00  0.00     0.166 HD
BRANCH  21  25
HETATM   25  N1  UNL     1      14.900  37.141  19.745  1.00  0.00    -0.372 N 
ATOM     26  H1  UNL     1      15.751  37.642  19.488  1.00  0.00     0.161 HD
BRANCH  25  27
HETATM   27  C4  UNL     1      14.647  36.866  21.119  1.00  0.00     0.083 A 
HETATM   28  C5  UNL     1      13.250  36.503  21.610  1.00  0.00     0.027 A 
HETATM   29  C6  UNL     1      14.393  35.509  21.655  1.00  0.00     0.027 A 
ENDBRANCH  25  27
ENDBRANCH  21  25
ENDBRANCH   1  17
TORSDOF 3
ENDMDL
MODEL 2
REMARK VINA RESULT: -8.042149877      1.450      1.682
REMARK  3 active torsions:
REMARK  status: ('A' for Active; 'I' for Inactive)
REMARK    1  A    between atoms: C3_4  and  N1_5 
REMARK    2  A    between atoms: N1_5  and  C4_7 
REMARK    3  A    between atoms: C8_13  and  C9_14 
ROOT
HETATM    1  C9  UNL     1      11.679  35.766  15.502  1.00  0.00     0.249 C 
HETATM    2  C10 UNL     1      11.965  36.699  14.398  1.00  0.00     0.027 C 
HETATM    3  C11 UNL     1      11.559  36.671  13.014  1.00  0.00     0.081 C 
HETATM    4  N3  UNL     1      11.361  35.588  12.189  1.00  0.00    -0.399 N 
ATOM      5  H3  UNL     1      12.138  35.160  11.686  1.00  0.00     0.158 HD
HETATM    6  C12 UNL     1       9.984  35.066  12.055  1.00  0.00     0.123 C 
HETATM    7  C13 UNL     1       9.746  34.259  13.204  1.00  0.00     0.006 C 
HETATM    8  C14 UNL     1       8.935  33.039  13.406  1.00  0.00     0.011 C 
HETATM    9  C15 UNL     1       9.150  32.641  14.860  1.00  0.00    -0.009 C 
HETATM   10  C16 UNL     1      10.415  33.221  15.469  1.00  0.00     0.043 C 
HETATM   11  C17 UNL     1       9.737  34.508  15.492  1.00  0.00     0.128 C 
HETATM   12  C18 UNL     1       9.181  35.122  14.249  1.00  0.00     0.045 C 
HETATM   13  C19 UNL     1       8.625  33.652  15.907  1.00  0.00     0.043 C 
HETATM   14  N4  UNL     1      10.443  35.539  16.112  1.00  0.00    -0.054 N 
ATOM     15  H41 UNL     1       9.889  36.394  16.157  1.00  0.00     0.279 HD
ATOM     16  H42 UNL     1      10.550  35.365  17.112  1.00  0.00     0.279 HD
ENDROOT
BRANCH   1  17
HETATM   17  C8  UNL     1      12.673  36.125  16.608  1.00  0.00     0.042 A 
HETATM   18  C1  UNL     1      13.529  35.199  17.150  1.00  0.00     0.185 A 
HETATM   19  O1  UNL     1      13.575  34.025  16.781  1.00  0.00    -0.288 OA
HETATM   20  C2  UNL     1      14.401  35.583  18.179  1.00  0.00     0.103 A 
HETATM   21  C3  UNL     1      14.431  36.872  18.661  1.00  0.00     0.104 A 
HETATM   22  N2  UNL     1      13.566  37.779  18.089  1.00  0.00    -0.352 N 
HETATM   23  C7  UNL     1      12.736  37.410  17.116  1.00  0.00     0.103 A 
ATOM     24  H2  UNL     1      13.562  38.745  18.416  1.00  0.00     0.166 HD
BRANCH  21  25
HETATM   25  N1  UNL     1      15.159  37.265  19.817  1.00  0.00    -0.372 N 
ATOM     26  H1  UNL     1      15.997  37.837  19.705  1.00  0.00     0.161 HD
BRANCH  25  27
HETATM   27  C4  UNL     1      14.753  36.881  21.127  1.00  0.00     0.083 A 
HETATM   28  C5  UNL     1      13.294  36.576  21.446  1.00  0.00     0.027 A 
HETATM   29  C6  UNL     1      14.361  35.501  21.498  1.00  0.00     0.027 A 
ENDBRANCH  25  27
ENDBRANCH  21  25
ENDBRANCH   1  17
TORSDOF 3
ENDMDL
MODEL 3
REMARK VINA RESULT: -8.041943027      2.401      2.655
REMARK  3 active torsions:
REMARK  status: ('A' for Active; 'I' for Inactive)
REMARK    1  A    between atoms: C3_4  and  N1_5 
REMARK    2  A    between atoms: N1_5  and  C4_7 
REMARK    3  A    between atoms: C8_13  and  C9_14 
ROOT
HETATM    1  C9  UNL     1      10.733  33.079  15.032  1.00  0.00     0.249 C 
HETATM    2  C10 UNL     1      11.728  32.337  14.238  1.00  0.00     0.027 C 
HETATM    3  C11 UNL     1      11.600  31.638  12.982  1.00  0.00     0.081 C 
HETATM    4  N3  UNL     1      10.524  30.940  12.484  1.00  0.00    -0.399 N 
ATOM      5  H3  UNL     1      10.371  29.962  12.731  1.00  0.00     0.158 HD
HETATM    6  C12 UNL     1       9.597  31.653  11.579  1.00  0.00     0.123 C 
HETATM    7  C13 UNL     1       8.736  32.424  12.410  1.00  0.00     0.006 C 
HETATM    8  C14 UNL     1       7.320  32.823  12.268  1.00  0.00     0.011 C 
HETATM    9  C15 UNL     1       6.983  33.599  13.535  1.00  0.00    -0.009 C 
HETATM   10  C16 UNL     1       7.921  33.306  14.693  1.00  0.00     0.043 C 
HETATM   11  C17 UNL     1       8.929  34.086  13.991  1.00  0.00     0.128 C 
HETATM   12  C18 UNL     1       9.359  33.740  12.603  1.00  0.00     0.045 C 
HETATM   13  C19 UNL     1       7.758  34.924  13.725  1.00  0.00     0.043 C 
HETATM   14  N4  UNL     1      10.118  34.286  14.692  1.00  0.00    -0.054 N 
ATOM     15  H41 UNL     1      10.754  34.894  14.177  1.00  0.00     0.279 HD
ATOM     16  H42 UNL     1       9.969  34.870  15.515  1.00  0.00     0.279 HD
ENDROOT
BRANCH   1  17
HETATM   17  C8  UNL     1      11.367  33.265  16.411  1.00  0.00     0.042 A 
HETATM   18  C1  UNL     1      10.638  33.669  17.502  1.00  0.00     0.185 A 
HETATM   19  O1  UNL     1       9.428  33.895  17.459  1.00  0.00    -0.288 OA
HETATM   20  C2  UNL     1      11.280  33.844  18.736  1.00  0.00     0.103 A 
HETATM   21  C3  UNL     1      12.629  33.615  18.891  1.00  0.00     0.104 A 
HETATM   22  N2  UNL     1      13.329  33.202  17.780  1.00  0.00    -0.352 N 
HETATM   23  C7  UNL     1      12.718  33.041  16.609  1.00  0.00     0.103 A 
ATOM     24  H2  UNL     1      14.329  33.017  17.856  1.00  0.00     0.166 HD
BRANCH  21  25
HETATM   25  N1  UNL     1      13.355  33.953  20.065  1.00  0.00    -0.372 N 
ATOM     26  H1  UNL     1      13.605  33.214  20.723  1.00  0.00     0.161 HD
BRANCH  25  27
HETATM   27  C4  UNL     1      13.745  35.293  20.349  1.00  0.00     0.083 A 
HETATM   28  C5  UNL     1      13.128  36.068  21.508  1.00  0.00     0.027 A 
HETATM   29  C6  UNL     1      14.593  35.679  21.500  1.00  0.00     0.027 A 
ENDBRANCH  25  27
ENDBRANCH  21  25
ENDBRANCH   1  17
TORSDOF 3
ENDMDL
MODEL 4
REMARK VINA RESULT: -7.825850305      2.500      7.341
REMARK  3 active torsions:
REMARK  status: ('A' for Active; 'I' for Inactive)
REMARK    1  A    between atoms: C3_4  and  N1_5 
REMARK    2  A    between atoms: N1_5  and  C4_7 
REMARK    3  A    between atoms: C8_13  and  C9_14 
ROOT
HETATM    1  C9  UNL     1      11.298  35.071  16.499  1.00  0.00     0.249 C 
HETATM    2  C10 UNL     1      11.736  36.359  15.934  1.00  0.00     0.027 C 
HETATM    3  C11 UNL     1      12.649  37.351  16.447  1.00  0.00     0.081 C 
HETATM    4  N3  UNL     1      12.883  37.722  17.751  1.00  0.00    -0.399 N 
ATOM      5  H3  UNL     1      12.298  38.417  18.214  1.00  0.00     0.158 HD
HETATM    6  C12 UNL     1      14.012  37.080  18.459  1.00  0.00     0.123 C 
HETATM    7  C13 UNL     1      13.547  35.804  18.885  1.00  0.00     0.006 C 
HETATM    8  C14 UNL     1      13.864  34.981  20.072  1.00  0.00     0.011 C 
HETATM    9  C15 UNL     1      12.982  33.744  19.961  1.00  0.00    -0.009 C 
HETATM   10  C16 UNL     1      11.772  33.940  19.063  1.00  0.00     0.043 C 
HETATM   11  C17 UNL     1      12.685  33.895  17.931  1.00  0.00     0.128 C 
HETATM   12  C18 UNL     1      13.835  34.841  17.815  1.00  0.00     0.045 C 
HETATM   13  C19 UNL     1      13.273  32.831  18.746  1.00  0.00     0.043 C 
HETATM   14  N4  UNL     1      12.075  33.923  16.677  1.00  0.00    -0.054 N 
ATOM     15  H41 UNL     1      12.761  33.820  15.928  1.00  0.00     0.279 HD
ATOM     16  H42 UNL     1      11.529  33.077  16.511  1.00  0.00     0.279 HD
ENDROOT
BRANCH   1  17
HETATM   17  C8  UNL     1      10.068  34.664  15.687  1.00  0.00     0.042 A 
HETATM   18  C1  UNL     1       9.131  33.784  16.169  1.00  0.00     0.185 A 
HETATM   19  O1  UNL     1       9.200  33.272  17.288  1.00  0.00    -0.288 OA
HETATM   20  C2  UNL     1       8.036  33.432  15.368  1.00  0.00     0.103 A 
HETATM   21  C3  UNL     1       7.865  33.951  14.104  1.00  0.00     0.104 A 
HETATM   22  N2  UNL     1       8.817  34.837  13.653  1.00  0.00    -0.352 N 
HETATM   23  C7  UNL     1       9.858  35.166  14.415  1.00  0.00     0.103 A 
ATOM     24  H2  UNL     1       8.723  35.247  12.724  1.00  0.00     0.166 HD
BRANCH  21  25
HETATM   25  N1  UNL     1       6.880  33.489  13.189  1.00  0.00    -0.372 N 
ATOM     26  H1  UNL     1       6.728  32.484  13.090  1.00  0.00     0.161 HD
BRANCH  25  27
HETATM   27  C4  UNL     1       6.100  34.388  12.408  1.00  0.00     0.083 A 
HETATM   28  C5  UNL     1       4.577  34.372  12.468  1.00  0.00     0.027 A 
HETATM   29  C6  UNL     1       5.380  35.556  12.968  1.00  0.00     0.027 A 
ENDBRANCH  25  27
ENDBRANCH  21  25
ENDBRANCH   1  17
TORSDOF 3
ENDMDL
MODEL 5
REMARK VINA RESULT: -7.810283797      1.644      3.065
REMARK  3 active torsions:
REMARK  status: ('A' for Active; 'I' for Inactive)
REMARK    1  A    between atoms: C3_4  and  N1_5 
REMARK    2  A    between atoms: N1_5  and  C4_7 
REMARK    3  A    between atoms: C8_13  and  C9_14 
ROOT
HETATM    1  C9  UNL     1      11.695  35.758  15.521  1.00  0.00     0.249 C 
HETATM    2  C10 UNL     1      10.542  35.152  16.208  1.00  0.00     0.027 C 
HETATM    3  C11 UNL     1       9.207  34.872  15.739  1.00  0.00     0.081 C 
HETATM    4  N3  UNL     1       8.438  35.575  14.840  1.00  0.00    -0.399 N 
ATOM      5  H3  UNL     1       7.872  36.369  15.140  1.00  0.00     0.158 HD
HETATM    6  C12 UNL     1       8.458  35.142  13.427  1.00  0.00     0.123 C 
HETATM    7  C13 UNL     1       9.648  35.679  12.858  1.00  0.00     0.006 C 
HETATM    8  C14 UNL     1       9.966  36.156  11.495  1.00  0.00     0.011 C 
HETATM    9  C15 UNL     1      11.402  36.659  11.561  1.00  0.00    -0.009 C 
HETATM   10  C16 UNL     1      11.863  36.996  12.969  1.00  0.00     0.043 C 
HETATM   11  C17 UNL     1      11.917  35.565  13.226  1.00  0.00     0.128 C 
HETATM   12  C18 UNL     1      10.719  34.692  13.044  1.00  0.00     0.045 C 
HETATM   13  C19 UNL     1      12.466  35.579  11.869  1.00  0.00     0.043 C 
HETATM   14  N4  UNL     1      12.434  35.206  14.471  1.00  0.00    -0.054 N 
ATOM     15  H41 UNL     1      12.509  34.193  14.563  1.00  0.00     0.279 HD
ATOM     16  H42 UNL     1      13.422  35.447  14.546  1.00  0.00     0.279 HD
ENDROOT
BRANCH   1  17
HETATM   17  C8  UNL     1      12.685  36.123  16.628  1.00  0.00     0.042 A 
HETATM   18  C1  UNL     1      13.546  35.203  17.172  1.00  0.00     0.185 A 
HETATM   19  O1  UNL     1      13.599  34.028  16.803  1.00  0.00    -0.288 OA
HETATM   20  C2  UNL     1      14.415  35.592  18.201  1.00  0.00     0.103 A 
HETATM   21  C3  UNL     1      14.436  36.881  18.683  1.00  0.00     0.104 A 
HETATM   22  N2  UNL     1      13.568  37.782  18.110  1.00  0.00    -0.352 N 
HETATM   23  C7  UNL     1      12.741  37.408  17.136  1.00  0.00     0.103 A 
ATOM     24  H2  UNL     1      13.557  38.749  18.436  1.00  0.00     0.166 HD
BRANCH  21  25
HETATM   25  N1  UNL     1      15.161  37.278  19.840  1.00  0.00    -0.372 N 
ATOM     26  H1  UNL     1      16.004  37.843  19.727  1.00  0.00     0.161 HD
BRANCH  25  27
HETATM   27  C4  UNL     1      14.745  36.910  21.151  1.00  0.00     0.083 A 
HETATM   28  C5  UNL     1      13.287  36.585  21.456  1.00  0.00     0.027 A 
HETATM   29  C6  UNL     1      14.371  35.530  21.539  1.00  0.00     0.027 A 
ENDBRANCH  25  27
ENDBRANCH  21  25
ENDBRANCH   1  17
TORSDOF 3
ENDMDL
