MODEL 1
REMARK VINA RESULT: -6.854929593      0.000      0.000
REMARK  6 active torsions:
REMARK  status: ('A' for Active; 'I' for Inactive)
REMARK    1  A    between atoms: N1_1  and  C1_4 
REMARK    2  A    between atoms: C2_9  and  N4_10 
REMARK    3  A    between atoms: N4_10  and  C3_12 
REMARK    4  A    between atoms: C3_12  and  C4_13 
REMARK    5  A    between atoms: C4_13  and  N5_14 
REMARK    6  A    between atoms: C8_18  and  C9_19 
ROOT
HETATM    1  C4  UNL     1      11.123  34.424  15.274  1.00  0.00     0.045 C 
HETATM    2  C14 UNL     1       9.712  34.529  14.719  1.00  0.00     0.032 C 
HETATM    3  C15 UNL     1       8.707  35.018  15.739  1.00  0.00     0.002 C 
HETATM    4  C16 UNL     1       8.586  33.957  16.789  1.00  0.00     0.000 C 
HETATM    5  C17 UNL     1       9.936  33.794  17.408  1.00  0.00     0.002 C 
HETATM    6  C18 UNL     1      11.021  33.459  16.451  1.00  0.00     0.032 C 
ENDROOT
BRANCH   1   7
HETATM    7  C3  UNL     1      11.572  35.755  15.822  1.00  0.00     0.169 C 
BRANCH   7   8
HETATM    8  N4  UNL     1      12.919  35.842  16.258  1.00  0.00    -0.222 N 
ATOM      9  H4  UNL     1      13.650  35.642  15.575  1.00  0.00     0.177 HD
BRANCH   8  10
HETATM   10  C2  UNL     1      13.288  36.156  17.450  1.00  0.00     0.707 A 
HETATM   11  N3  UNL     1      13.554  37.357  17.982  1.00  0.00    -0.117 N 
HETATM   12  N2  UNL     1      13.899  37.215  19.262  1.00  0.00    -0.118 N 
ATOM     13  H3  UNL     1      13.502  38.245  17.483  1.00  0.00     0.206 HD
HETATM   14  C1  UNL     1      13.855  35.897  19.565  1.00  0.00     0.705 A 
ATOM     15  H2  UNL     1      14.152  37.968  19.903  1.00  0.00     0.206 HD
HETATM   16  N7  UNL     1      13.478  35.267  18.438  1.00  0.00    -0.020 N 
ATOM     17  H7  UNL     1      13.354  34.259  18.347  1.00  0.00     0.203 HD
BRANCH  14  18
HETATM   18  N1  UNL     1      14.125  35.343  20.717  1.00  0.00    -0.233 N 
ATOM     19  H12 UNL     1      14.634  35.766  21.492  1.00  0.00     0.174 HD
ATOM     20  H11 UNL     1      13.869  34.404  21.023  1.00  0.00     0.174 HD
ENDBRANCH  14  18
ENDBRANCH   8  10
ENDBRANCH   7   8
ENDBRANCH   1   7
BRANCH   1  21
HETATM   21  N5  UNL     1      12.023  33.979  14.295  1.00  0.00    -0.394 N 
HETATM   22  C5  UNL     1      12.643  32.729  14.495  1.00  0.00     0.118 C 
HETATM   23  C6  UNL     1      12.688  32.025  13.136  1.00  0.00     0.022 C 
HETATM   24  C7  UNL     1      12.731  33.207  12.223  1.00  0.00     0.031 C 
HETATM   25  C8  UNL     1      11.839  34.223  12.941  1.00  0.00     0.114 C 
BRANCH  25  26
HETATM   26  C9  UNL     1      12.357  35.514  12.424  1.00  0.00    -0.020 A 
HETATM   27  C10 UNL     1      13.676  35.675  12.088  1.00  0.00     0.012 A 
HETATM   28  C11 UNL     1      14.067  36.903  11.610  1.00  0.00     0.018 A 
HETATM   29  C12 UNL     1      13.182  37.948  11.466  1.00  0.00     0.087 A 
HETATM   30  N6  UNL     1      11.891  37.768  11.802  1.00  0.00    -0.375 N 
HETATM   31  C13 UNL     1      11.481  36.569  12.275  1.00  0.00     0.096 A 
ATOM     32  H6  UNL     1      11.224  38.533  11.700  1.00  0.00     0.164 HD
ENDBRANCH  25  26
ENDBRANCH   1  21
TORSDOF 6
ENDMDL
MODEL 2
REMARK VINA RESULT: -6.842641552      1.669      4.737
REMARK  6 active torsions:
REMARK  status: ('A' for Active; 'I' for Inactive)
REMARK    1  A    between atoms: N1_1  and  C1_4 
REMARK    2  A    between atoms: C2_9  and  N4_10 
REMARK    3  A    between atoms: N4_10  and  C3_12 
REMARK    4  A    between atoms: C3_12  and  C4_13 
REMARK    5  A    between atoms: C4_13  and  N5_14 
REMARK    6  A    between atoms: C8_18  and  C9_19 
ROOT
HETATM    1  C4  UNL     1      11.166  35.200  13.869  1.00  0.00     0.045 C 
HETATM    2  C14 UNL     1      11.795  34.083  13.052  1.00  0.00     0.032 C 
HETATM    3  C15 UNL     1      12.775  34.585  12.015  1.00  0.00     0.002 C 
HETATM    4  C16 UNL     1      11.991  35.355  10.998  1.00  0.00     0.000 C 
HETATM    5  C17 UNL     1      11.343  36.496  11.713  1.00  0.00     0.002 C 
HETATM    6  C18 UNL     1      10.474  36.100  12.851  1.00  0.00     0.032 C 
ENDROOT
BRANCH   1   7
HETATM    7  C3  UNL     1      12.234  36.022  14.544  1.00  0.00     0.169 C 
BRANCH   7   8
HETATM    8  N4  UNL     1      11.822  36.825  15.639  1.00  0.00    -0.222 N 
ATOM      9  H4  UNL     1      10.860  37.167  15.639  1.00  0.00     0.177 HD
BRANCH   8  10
HETATM   10  C2  UNL     1      12.571  37.153  16.633  1.00  0.00     0.707 A 
HETATM   11  N3  UNL     1      12.776  38.351  17.198  1.00  0.00    -0.117 N 
HETATM   12  N2  UNL     1      13.635  38.229  18.211  1.00  0.00    -0.118 N 
ATOM     13  H3  UNL     1      12.342  39.224  16.898  1.00  0.00     0.206 HD
HETATM   14  C1  UNL     1      13.992  36.927  18.303  1.00  0.00     0.705 A 
ATOM     15  H2  UNL     1      13.965  38.984  18.812  1.00  0.00     0.206 HD
HETATM   16  N7  UNL     1      13.328  36.287  17.325  1.00  0.00    -0.020 N 
ATOM     17  H7  UNL     1      13.389  35.286  17.135  1.00  0.00     0.203 HD
BRANCH  14  18
HETATM   18  N1  UNL     1      14.817  36.395  19.165  1.00  0.00    -0.233 N 
ATOM     19  H12 UNL     1      14.783  35.444  19.532  1.00  0.00     0.174 HD
ATOM     20  H11 UNL     1      15.621  36.842  19.605  1.00  0.00     0.174 HD
ENDBRANCH  14  18
ENDBRANCH   8  10
ENDBRANCH   7   8
ENDBRANCH   1   7
BRANCH   1  21
HETATM   21  N5  UNL     1      10.275  34.690  14.824  1.00  0.00    -0.394 N 
HETATM   22  C5  UNL     1       8.907  34.999  14.675  1.00  0.00     0.118 C 
HETATM   23  C6  UNL     1       8.118  33.736  15.028  1.00  0.00     0.022 C 
HETATM   24  C7  UNL     1       9.062  33.090  15.990  1.00  0.00     0.031 C 
HETATM   25  C8  UNL     1      10.434  33.440  15.407  1.00  0.00     0.114 C 
BRANCH  25  26
HETATM   26  C9  UNL     1      11.308  33.373  16.604  1.00  0.00    -0.020 A 
HETATM   27  C10 UNL     1      10.878  33.802  17.832  1.00  0.00     0.012 A 
HETATM   28  C11 UNL     1      11.753  33.696  18.887  1.00  0.00     0.018 A 
HETATM   29  C12 UNL     1      13.021  33.179  18.738  1.00  0.00     0.087 A 
HETATM   30  N6  UNL     1      13.422  32.763  17.522  1.00  0.00    -0.375 N 
HETATM   31  C13 UNL     1      12.580  32.857  16.468  1.00  0.00     0.096 A 
ATOM     32  H6  UNL     1      14.358  32.378  17.397  1.00  0.00     0.164 HD
ENDBRANCH  25  26
ENDBRANCH   1  21
TORSDOF 6
ENDMDL
MODEL 3
REMARK VINA RESULT: -6.780599720      1.748      4.320
REMARK  6 active torsions:
REMARK  status: ('A' for Active; 'I' for Inactive)
REMARK    1  A    between atoms: N1_1  and  C1_4 
REMARK    2  A    between atoms: C2_9  and  N4_10 
REMARK    3  A    between atoms: N4_10  and  C3_12 
REMARK    4  A    between atoms: C3_12  and  C4_13 
REMARK    5  A    between atoms: C4_13  and  N5_14 
REMARK    6  A    between atoms: C8_18  and  C9_19 
ROOT
HETATM    1  C4  UNL     1      11.852  35.005  15.135  1.00  0.00     0.045 C 
HETATM    2  C14 UNL     1      12.335  34.195  13.942  1.00  0.00     0.032 C 
HETATM    3  C15 UNL     1      13.364  34.925  13.107  1.00  0.00     0.002 C 
HETATM    4  C16 UNL     1      12.676  36.095  12.474  1.00  0.00     0.000 C 
HETATM    5  C17 UNL     1      12.177  36.964  13.581  1.00  0.00     0.002 C 
HETATM    6  C18 UNL     1      11.271  36.285  14.542  1.00  0.00     0.032 C 
ENDROOT
BRANCH   1   7
HETATM    7  C3  UNL     1      13.016  35.400  16.007  1.00  0.00     0.169 C 
BRANCH   7   8
HETATM    8  N4  UNL     1      12.797  36.469  16.914  1.00  0.00    -0.222 N 
ATOM      9  H4  UNL     1      12.084  37.157  16.670  1.00  0.00     0.177 HD
BRANCH   8  10
HETATM   10  C2  UNL     1      13.432  36.635  18.021  1.00  0.00     0.707 A 
HETATM   11  N3  UNL     1      14.088  37.708  18.486  1.00  0.00    -0.117 N 
HETATM   12  N2  UNL     1      14.597  37.436  19.688  1.00  0.00    -0.118 N 
ATOM     13  H3  UNL     1      14.184  38.596  17.994  1.00  0.00     0.206 HD
HETATM   14  C1  UNL     1      14.264  36.164  20.007  1.00  0.00     0.705 A 
ATOM     15  H2  UNL     1      15.142  38.075  20.267  1.00  0.00     0.206 HD
HETATM   16  N7  UNL     1      13.550  35.693  18.970  1.00  0.00    -0.020 N 
ATOM     17  H7  UNL     1      13.155  34.754  18.912  1.00  0.00     0.203 HD
BRANCH  14  18
HETATM   18  N1  UNL     1      14.573  35.519  21.101  1.00  0.00    -0.233 N 
ATOM     19  H12 UNL     1      14.875  35.928  21.985  1.00  0.00     0.174 HD
ATOM     20  H11 UNL     1      14.560  34.509  21.244  1.00  0.00     0.174 HD
ENDBRANCH  14  18
ENDBRANCH   8  10
ENDBRANCH   7   8
ENDBRANCH   1   7
BRANCH   1  21
HETATM   21  N5  UNL     1      10.909  34.288  15.886  1.00  0.00    -0.394 N 
HETATM   22  C5  UNL     1      11.383  33.513  16.965  1.00  0.00     0.118 C 
HETATM   23  C6  UNL     1      10.385  33.680  18.114  1.00  0.00     0.022 C 
HETATM   24  C7  UNL     1       9.133  33.952  17.344  1.00  0.00     0.031 C 
HETATM   25  C8  UNL     1       9.638  34.776  16.156  1.00  0.00     0.114 C 
BRANCH  25  26
HETATM   26  C9  UNL     1       8.597  34.515  15.131  1.00  0.00    -0.020 A 
HETATM   27  C10 UNL     1       8.344  33.248  14.671  1.00  0.00     0.012 A 
HETATM   28  C11 UNL     1       7.357  33.099  13.726  1.00  0.00     0.018 A 
HETATM   29  C12 UNL     1       6.635  34.169  13.245  1.00  0.00     0.087 A 
HETATM   30  N6  UNL     1       6.900  35.403  13.711  1.00  0.00    -0.375 N 
HETATM   31  C13 UNL     1       7.867  35.577  14.641  1.00  0.00     0.096 A 
ATOM     32  H6  UNL     1       6.373  36.205  13.365  1.00  0.00     0.164 HD
ENDBRANCH  25  26
ENDBRANCH   1  21
TORSDOF 6
ENDMDL
MODEL 4
REMARK VINA RESULT: -6.708335441      1.775      4.434
REMARK  6 active torsions:
REMARK  status: ('A' for Active; 'I' for Inactive)
REMARK    1  A    between atoms: N1_1  and  C1_4 
REMARK    2  A    between atoms: C2_9  and  N4_10 
REMARK    3  A    between atoms: N4_10  and  C3_12 
REMARK    4  A    between atoms: C3_12  and  C4_13 
REMARK    5  A    between atoms: C4_13  and  N5_14 
REMARK    6  A    between atoms: C8_18  and  C9_19 
ROOT
HETATM    1  C4  UNL     1      11.586  34.897  14.769  1.00  0.00     0.045 C 
HETATM    2  C14 UNL     1      11.913  34.105  13.513  1.00  0.00     0.032 C 
HETATM    3  C15 UNL     1      13.020  34.727  12.691  1.00  0.00     0.002 C 
HETATM    4  C16 UNL     1      12.501  36.025  12.153  1.00  0.00     0.000 C 
HETATM    5  C17 UNL     1      12.164  36.884  13.328  1.00  0.00     0.002 C 
HETATM    6  C18 UNL     1      11.190  36.285  14.276  1.00  0.00     0.032 C 
ENDROOT
BRANCH   1   7
HETATM    7  C3  UNL     1      12.816  35.058  15.624  1.00  0.00     0.169 C 
BRANCH   7   8
HETATM    8  N4  UNL     1      12.806  36.124  16.560  1.00  0.00    -0.222 N 
ATOM      9  H4  UNL     1      12.401  37.011  16.261  1.00  0.00     0.177 HD
BRANCH   8  10
HETATM   10  C2  UNL     1      13.270  36.054  17.759  1.00  0.00     0.707 A 
HETATM   11  N3  UNL     1      13.236  35.044  18.639  1.00  0.00    -0.117 N 
HETATM   12  N2  UNL     1      13.846  35.411  19.767  1.00  0.00    -0.118 N 
ATOM     13  H3  UNL     1      12.808  34.134  18.472  1.00  0.00     0.206 HD
HETATM   14  C1  UNL     1      14.282  36.682  19.614  1.00  0.00     0.705 A 
ATOM     15  H2  UNL     1      13.963  34.834  20.600  1.00  0.00     0.206 HD
HETATM   16  N7  UNL     1      13.918  37.056  18.374  1.00  0.00    -0.020 N 
ATOM     17  H7  UNL     1      14.106  37.970  17.962  1.00  0.00     0.203 HD
BRANCH  14  18
HETATM   18  N1  UNL     1      14.928  37.406  20.490  1.00  0.00    -0.233 N 
ATOM     19  H12 UNL     1      14.517  37.990  21.218  1.00  0.00     0.174 HD
ATOM     20  H11 UNL     1      15.939  37.500  20.585  1.00  0.00     0.174 HD
ENDBRANCH  14  18
ENDBRANCH   8  10
ENDBRANCH   7   8
ENDBRANCH   1   7
BRANCH   1  21
HETATM   21  N5  UNL     1      10.565  34.281  15.506  1.00  0.00    -0.394 N 
HETATM   22  C5  UNL     1      10.944  33.414  16.552  1.00  0.00     0.118 C 
HETATM   23  C6  UNL     1       9.983  33.665  17.717  1.00  0.00     0.022 C 
HETATM   24  C7  UNL     1       8.770  34.122  16.971  1.00  0.00     0.031 C 
HETATM   25  C8  UNL     1       9.368  34.916  15.806  1.00  0.00     0.114 C 
BRANCH  25  26
HETATM   26  C9  UNL     1       8.295  34.825  14.785  1.00  0.00    -0.020 A 
HETATM   27  C10 UNL     1       7.646  35.941  14.324  1.00  0.00     0.012 A 
HETATM   28  C11 UNL     1       6.670  35.763  13.372  1.00  0.00     0.018 A 
HETATM   29  C12 UNL     1       6.340  34.518  12.886  1.00  0.00     0.087 A 
HETATM   30  N6  UNL     1       6.990  33.436  13.352  1.00  0.00    -0.375 N 
HETATM   31  C13 UNL     1       7.955  33.584  14.289  1.00  0.00     0.096 A 
ATOM     32  H6  UNL     1       6.757  32.507  13.001  1.00  0.00     0.164 HD
ENDBRANCH  25  26
ENDBRANCH   1  21
TORSDOF 6
ENDMDL
MODEL 5
REMARK VINA RESULT: -6.616994713      1.521      5.284
REMARK  6 active torsions:
REMARK  status: ('A' for Active; 'I' for Inactive)
REMARK    1  A    between atoms: N1_1  and  C1_4 
REMARK    2  A    between atoms: C2_9  and  N4_10 
REMARK    3  A    between atoms: N4_10  and  C3_12 
REMARK    4  A    between atoms: C3_12  and  C4_13 
REMARK    5  A    between atoms: C4_13  and  N5_14 
REMARK    6  A    between atoms: C8_18  and  C9_19 
ROOT
HETATM    1  C4  UNL     1      10.948  34.313  15.991  1.00  0.00     0.045 C 
HETATM    2  C14 UNL     1      10.302  33.207  15.173  1.00  0.00     0.032 C 
HETATM    3  C15 UNL     1       8.825  33.431  14.934  1.00  0.00     0.002 C 
HETATM    4  C16 UNL     1       8.138  33.324  16.260  1.00  0.00     0.000 C 
HETATM    5  C17 UNL     1       8.703  34.394  17.136  1.00  0.00     0.002 C 
HETATM    6  C18 UNL     1      10.177  34.341  17.308  1.00  0.00     0.032 C 
ENDROOT
BRANCH   1   7
HETATM    7  C3  UNL     1      10.746  35.648  15.323  1.00  0.00     0.169 C 
BRANCH   7   8
HETATM    8  N4  UNL     1      10.767  35.660  13.904  1.00  0.00    -0.222 N 
ATOM      9  H4  UNL     1      10.003  35.190  13.417  1.00  0.00     0.177 HD
BRANCH   8  10
HETATM   10  C2  UNL     1      11.677  36.219  13.187  1.00  0.00     0.707 A 
HETATM   11  N3  UNL     1      11.838  37.506  12.848  1.00  0.00    -0.117 N 
HETATM   12  N2  UNL     1      12.927  37.638  12.090  1.00  0.00    -0.118 N 
ATOM     13  H3  UNL     1      11.220  38.268  13.127  1.00  0.00     0.206 HD
HETATM   14  C1  UNL     1      13.482  36.414  11.936  1.00  0.00     0.705 A 
ATOM     15  H2  UNL     1      13.281  38.509  11.696  1.00  0.00     0.206 HD
HETATM   16  N7  UNL     1      12.698  35.559  12.617  1.00  0.00    -0.020 N 
ATOM     17  H7  UNL     1      12.856  34.554  12.690  1.00  0.00     0.203 HD
BRANCH  14  18
HETATM   18  N1  UNL     1      14.561  36.116  11.262  1.00  0.00    -0.233 N 
ATOM     19  H12 UNL     1      14.629  35.467  10.478  1.00  0.00     0.174 HD
ATOM     20  H11 UNL     1      15.501  36.482  11.410  1.00  0.00     0.174 HD
ENDBRANCH  14  18
ENDBRANCH   8  10
ENDBRANCH   7   8
ENDBRANCH   1   7
BRANCH   1  21
HETATM   21  N5  UNL     1      12.317  34.072  16.179  1.00  0.00    -0.394 N 
HETATM   22  C5  UNL     1      12.915  33.055  15.407  1.00  0.00     0.118 C 
HETATM   23  C6  UNL     1      14.294  33.563  14.980  1.00  0.00     0.022 C 
HETATM   24  C7  UNL     1      14.600  34.491  16.112  1.00  0.00     0.031 C 
HETATM   25  C8  UNL     1      13.228  35.085  16.444  1.00  0.00     0.114 C 
BRANCH  25  26
HETATM   26  C9  UNL     1      13.392  35.473  17.866  1.00  0.00    -0.020 A 
HETATM   27  C10 UNL     1      13.257  34.561  18.880  1.00  0.00     0.012 A 
HETATM   28  C11 UNL     1      13.433  35.008  20.168  1.00  0.00     0.018 A 
HETATM   29  C12 UNL     1      13.736  36.321  20.452  1.00  0.00     0.087 A 
HETATM   30  N6  UNL     1      13.864  37.200  19.441  1.00  0.00    -0.375 N 
HETATM   31  C13 UNL     1      13.695  36.785  18.165  1.00  0.00     0.096 A 
ATOM     32  H6  UNL     1      14.089  38.176  19.637  1.00  0.00     0.164 HD
ENDBRANCH  25  26
ENDBRANCH   1  21
TORSDOF 6
ENDMDL
