MODEL 1
REMARK VINA RESULT: -7.016335913      0.000      0.000
REMARK  12 active torsions:
REMARK  status: ('A' for Active; 'I' for Inactive)
REMARK    1  A    between atoms: C2_2  and  C4_4 
REMARK    2  A    between atoms: C4_4  and  O1_5 
REMARK    3  A    between atoms: C4_4  and  C5_7 
REMARK    4  A    between atoms: C5_7  and  C6_8 
REMARK    5  A    between atoms: C6_8  and  C8_10 
REMARK    6  A    between atoms: C8_10  and  C9_11 
REMARK       I    between atoms: C9_11  and  N1_13 
REMARK    7  A    between atoms: C14_18  and  C15_19 
REMARK    8  A    between atoms: C15_19  and  C16_20 
REMARK    9  A    between atoms: C18_22  and  C19_23 
REMARK   10  A    between atoms: C19_23  and  C20_24 
REMARK   11  A    between atoms: C20_24  and  C21_25 
REMARK   12  A    between atoms: C21_25  and  C22_26 
ROOT
HETATM    1  C9  UNL     1     -45.780  12.059  -4.185  1.00  0.00     0.220 C 
HETATM    2  O2  UNL     1     -45.694  11.500  -3.022  1.00  0.00    -0.273 OA
HETATM    3  N1  UNL     1     -44.584  12.588  -4.716  1.00  0.00    -0.343 N 
HETATM    4  C10 UNL     1     -43.294  12.535  -4.010  1.00  0.00     0.083 C 
HETATM    5  C11 UNL     1     -43.090  11.274  -3.226  1.00  0.00     0.032 C 
HETATM    6  C12 UNL     1     -42.325  12.567  -5.202  1.00  0.00     0.027 C 
HETATM    7  C13 UNL     1     -42.936  13.691  -5.996  1.00  0.00     0.028 C 
HETATM    8  C14 UNL     1     -44.406  13.226  -5.987  1.00  0.00     0.091 C 
ENDROOT
BRANCH   1   9
HETATM    9  C8  UNL     1     -47.106  12.072  -4.809  1.00  0.00     0.107 C 
BRANCH   9  10
HETATM   10  C6  UNL     1     -47.189  10.994  -5.925  1.00  0.00    -0.004 C 
HETATM   11  C7  UNL     1     -48.044  11.577  -7.033  1.00  0.00     0.011 C 
BRANCH  10  12
HETATM   12  C5  UNL     1     -47.874   9.794  -5.361  1.00  0.00     0.069 C 
BRANCH  12  13
HETATM   13  C4  UNL     1     -48.613   9.954  -4.128  1.00  0.00     0.048 C 
BRANCH  13  14
HETATM   14  C2  UNL     1     -49.902  10.436  -3.765  1.00  0.00    -0.042 C 
HETATM   15  C1  UNL     1     -50.958   9.834  -4.360  1.00  0.00     0.021 C 
HETATM   16  C3  UNL     1     -50.265  11.523  -2.834  1.00  0.00     0.050 C 
ENDBRANCH  13  14
BRANCH  13  17
HETATM   17  O1  UNL     1     -47.906   9.545  -3.078  1.00  0.00    -0.364 OA
ATOM     18  H1  UNL     1     -47.620   8.643  -3.159  1.00  0.00     0.217 HD
ENDBRANCH  13  17
ENDBRANCH  12  13
ENDBRANCH  10  12
ENDBRANCH   9  10
ENDBRANCH   1   9
BRANCH   8  19
HETATM   19  C15 UNL     1     -45.306  14.370  -6.309  1.00  0.00     0.058 C 
BRANCH  19  20
HETATM   20  C16 UNL     1     -45.671  14.378  -7.771  1.00  0.00    -0.086 C 
HETATM   21  C17 UNL     1     -46.523  15.452  -8.327  1.00  0.00     0.043 C 
HETATM   22  C18 UNL     1     -45.216  13.417  -8.543  1.00  0.00    -0.024 C 
BRANCH  22  23
HETATM   23  C19 UNL     1     -45.542  13.363 -10.007  1.00  0.00     0.028 C 
BRANCH  23  24
HETATM   24  C20 UNL     1     -46.404  12.198 -10.344  1.00  0.00     0.011 C 
BRANCH  24  25
HETATM   25  C21 UNL     1     -47.031  12.246 -11.706  1.00  0.00     0.078 C 
BRANCH  25  26
HETATM   26  C22 UNL     1     -48.031  11.193 -11.936  1.00  0.00     0.123 C 
HETATM   27  C23 UNL     1     -48.995  10.941 -10.806  1.00  0.00     0.091 C 
HETATM   28  O3  UNL     1     -48.150  10.518 -12.936  1.00  0.00    -0.298 OA
ENDBRANCH  25  26
ENDBRANCH  24  25
ENDBRANCH  23  24
ENDBRANCH  22  23
ENDBRANCH  19  20
ENDBRANCH   8  19
TORSDOF 12
ENDMDL
MODEL 2
REMARK VINA RESULT: -6.744240185      1.082      1.139
REMARK  12 active torsions:
REMARK  status: ('A' for Active; 'I' for Inactive)
REMARK    1  A    between atoms: C2_2  and  C4_4 
REMARK    2  A    between atoms: C4_4  and  O1_5 
REMARK    3  A    between atoms: C4_4  and  C5_7 
REMARK    4  A    between atoms: C5_7  and  C6_8 
REMARK    5  A    between atoms: C6_8  and  C8_10 
REMARK    6  A    between atoms: C8_10  and  C9_11 
REMARK       I    between atoms: C9_11  and  N1_13 
REMARK    7  A    between atoms: C14_18  and  C15_19 
REMARK    8  A    between atoms: C15_19  and  C16_20 
REMARK    9  A    between atoms: C18_22  and  C19_23 
REMARK   10  A    between atoms: C19_23  and  C20_24 
REMARK   11  A    between atoms: C20_24  and  C21_25 
REMARK   12  A    between atoms: C21_25  and  C22_26 
ROOT
HETATM    1  C9  UNL     1     -46.720  12.215  -4.019  1.00  0.00     0.220 C 
HETATM    2  O2  UNL     1     -46.723  11.737  -2.817  1.00  0.00    -0.273 OA
HETATM    3  N1  UNL     1     -45.621  13.029  -4.367  1.00  0.00    -0.343 N 
HETATM    4  C10 UNL     1     -44.526  13.348  -3.439  1.00  0.00     0.083 C 
HETATM    5  C11 UNL     1     -44.161  12.214  -2.529  1.00  0.00     0.032 C 
HETATM    6  C12 UNL     1     -43.384  13.602  -4.434  1.00  0.00     0.027 C 
HETATM    7  C13 UNL     1     -44.097  14.494  -5.416  1.00  0.00     0.028 C 
HETATM    8  C14 UNL     1     -45.369  13.651  -5.634  1.00  0.00     0.091 C 
ENDROOT
BRANCH   1   9
HETATM    9  C8  UNL     1     -47.856  11.850  -4.871  1.00  0.00     0.107 C 
BRANCH   9  10
HETATM   10  C6  UNL     1     -47.419  10.808  -5.936  1.00  0.00    -0.004 C 
HETATM   11  C7  UNL     1     -48.374  10.952  -7.106  1.00  0.00     0.011 C 
BRANCH  10  12
HETATM   12  C5  UNL     1     -47.575   9.446  -5.345  1.00  0.00     0.069 C 
BRANCH  12  13
HETATM   13  C4  UNL     1     -48.887   9.059  -4.874  1.00  0.00     0.048 C 
BRANCH  13  14
HETATM   14  C2  UNL     1     -49.818   9.556  -3.919  1.00  0.00    -0.042 C 
HETATM   15  C1  UNL     1     -51.059   9.835  -4.381  1.00  0.00     0.021 C 
HETATM   16  C3  UNL     1     -49.625   9.835  -2.482  1.00  0.00     0.050 C 
ENDBRANCH  13  14
BRANCH  13  17
HETATM   17  O1  UNL     1     -49.325   7.967  -5.494  1.00  0.00    -0.364 OA
ATOM     18  H1  UNL     1     -48.697   7.255  -5.466  1.00  0.00     0.217 HD
ENDBRANCH  13  17
ENDBRANCH  12  13
ENDBRANCH  10  12
ENDBRANCH   9  10
ENDBRANCH   1   9
BRANCH   8  19
HETATM   19  C15 UNL     1     -46.452  14.499  -6.206  1.00  0.00     0.058 C 
BRANCH  19  20
HETATM   20  C16 UNL     1     -46.373  14.540  -7.711  1.00  0.00    -0.086 C 
HETATM   21  C17 UNL     1     -46.731  15.770  -8.450  1.00  0.00     0.043 C 
HETATM   22  C18 UNL     1     -45.977  13.464  -8.353  1.00  0.00    -0.024 C 
BRANCH  22  23
HETATM   23  C19 UNL     1     -45.875  13.434  -9.850  1.00  0.00     0.028 C 
BRANCH  23  24
HETATM   24  C20 UNL     1     -46.356  12.144 -10.416  1.00  0.00     0.011 C 
BRANCH  24  25
HETATM   25  C21 UNL     1     -47.031  12.250 -11.751  1.00  0.00     0.078 C 
BRANCH  25  26
HETATM   26  C22 UNL     1     -48.062  11.226 -11.977  1.00  0.00     0.123 C 
HETATM   27  C23 UNL     1     -48.990  10.959 -10.821  1.00  0.00     0.091 C 
HETATM   28  O3  UNL     1     -48.231  10.586 -12.993  1.00  0.00    -0.298 OA
ENDBRANCH  25  26
ENDBRANCH  24  25
ENDBRANCH  23  24
ENDBRANCH  22  23
ENDBRANCH  19  20
ENDBRANCH   8  19
TORSDOF 12
ENDMDL
MODEL 3
REMARK VINA RESULT: -6.674791034      2.480      5.671
REMARK  12 active torsions:
REMARK  status: ('A' for Active; 'I' for Inactive)
REMARK    1  A    between atoms: C2_2  and  C4_4 
REMARK    2  A    between atoms: C4_4  and  O1_5 
REMARK    3  A    between atoms: C4_4  and  C5_7 
REMARK    4  A    between atoms: C5_7  and  C6_8 
REMARK    5  A    between atoms: C6_8  and  C8_10 
REMARK    6  A    between atoms: C8_10  and  C9_11 
REMARK       I    between atoms: C9_11  and  N1_13 
REMARK    7  A    between atoms: C14_18  and  C15_19 
REMARK    8  A    between atoms: C15_19  and  C16_20 
REMARK    9  A    between atoms: C18_22  and  C19_23 
REMARK   10  A    between atoms: C19_23  and  C20_24 
REMARK   11  A    between atoms: C20_24  and  C21_25 
REMARK   12  A    between atoms: C21_25  and  C22_26 
ROOT
HETATM    1  C9  UNL     1     -47.542  12.346  -6.766  1.00  0.00     0.220 C 
HETATM    2  O2  UNL     1     -48.731  11.987  -7.128  1.00  0.00    -0.273 OA
HETATM    3  N1  UNL     1     -47.181  12.063  -5.432  1.00  0.00    -0.343 N 
HETATM    4  C10 UNL     1     -48.083  11.408  -4.472  1.00  0.00     0.083 C 
HETATM    5  C11 UNL     1     -48.951  10.353  -5.089  1.00  0.00     0.032 C 
HETATM    6  C12 UNL     1     -47.059  10.752  -3.533  1.00  0.00     0.027 C 
HETATM    7  C13 UNL     1     -46.123  11.913  -3.327  1.00  0.00     0.028 C 
HETATM    8  C14 UNL     1     -45.923  12.331  -4.798  1.00  0.00     0.091 C 
ENDROOT
BRANCH   1   9
HETATM    9  C8  UNL     1     -46.716  12.999  -7.787  1.00  0.00     0.107 C 
BRANCH   9  10
HETATM   10  C6  UNL     1     -46.164  11.948  -8.788  1.00  0.00    -0.004 C 
HETATM   11  C7  UNL     1     -44.807  11.516  -8.265  1.00  0.00     0.011 C 
BRANCH  10  12
HETATM   12  C5  UNL     1     -45.986  12.616 -10.112  1.00  0.00     0.069 C 
BRANCH  12  13
HETATM   13  C4  UNL     1     -46.818  12.175 -11.209  1.00  0.00     0.048 C 
BRANCH  13  14
HETATM   14  C2  UNL     1     -47.975  11.357 -11.350  1.00  0.00    -0.042 C 
HETATM   15  C1  UNL     1     -48.182  10.818 -12.574  1.00  0.00     0.021 C 
HETATM   16  C3  UNL     1     -49.008  11.018 -10.352  1.00  0.00     0.050 C 
ENDBRANCH  13  14
BRANCH  13  17
HETATM   17  O1  UNL     1     -46.390  12.659 -12.371  1.00  0.00    -0.364 OA
ATOM     18  H1  UNL     1     -45.513  12.364 -12.589  1.00  0.00     0.217 HD
ENDBRANCH  13  17
ENDBRANCH  12  13
ENDBRANCH  10  12
ENDBRANCH   9  10
ENDBRANCH   1   9
BRANCH   8  19
HETATM   19  C15 UNL     1     -45.406  13.727  -4.867  1.00  0.00     0.058 C 
BRANCH  19  20
HETATM   20  C16 UNL     1     -44.067  13.777  -5.557  1.00  0.00    -0.086 C 
HETATM   21  C17 UNL     1     -43.007  12.805  -5.213  1.00  0.00     0.043 C 
HETATM   22  C18 UNL     1     -43.860  14.698  -6.471  1.00  0.00    -0.024 C 
BRANCH  22  23
HETATM   23  C19 UNL     1     -42.551  14.805  -7.196  1.00  0.00     0.028 C 
BRANCH  23  24
HETATM   24  C20 UNL     1     -42.646  15.689  -8.390  1.00  0.00     0.011 C 
BRANCH  24  25
HETATM   25  C21 UNL     1     -43.859  15.473  -9.245  1.00  0.00     0.078 C 
BRANCH  25  26
HETATM   26  C22 UNL     1     -44.731  16.653  -9.346  1.00  0.00     0.123 C 
HETATM   27  C23 UNL     1     -46.138  16.478  -8.837  1.00  0.00     0.091 C 
HETATM   28  O3  UNL     1     -44.426  17.738  -9.793  1.00  0.00    -0.298 OA
ENDBRANCH  25  26
ENDBRANCH  24  25
ENDBRANCH  23  24
ENDBRANCH  22  23
ENDBRANCH  19  20
ENDBRANCH   8  19
TORSDOF 12
ENDMDL
MODEL 4
REMARK VINA RESULT: -6.476526461      2.614      7.636
REMARK  12 active torsions:
REMARK  status: ('A' for Active; 'I' for Inactive)
REMARK    1  A    between atoms: C2_2  and  C4_4 
REMARK    2  A    between atoms: C4_4  and  O1_5 
REMARK    3  A    between atoms: C4_4  and  C5_7 
REMARK    4  A    between atoms: C5_7  and  C6_8 
REMARK    5  A    between atoms: C6_8  and  C8_10 
REMARK    6  A    between atoms: C8_10  and  C9_11 
REMARK       I    between atoms: C9_11  and  N1_13 
REMARK    7  A    between atoms: C14_18  and  C15_19 
REMARK    8  A    between atoms: C15_19  and  C16_20 
REMARK    9  A    between atoms: C18_22  and  C19_23 
REMARK   10  A    between atoms: C19_23  and  C20_24 
REMARK   11  A    between atoms: C20_24  and  C21_25 
REMARK   12  A    between atoms: C21_25  and  C22_26 
ROOT
HETATM    1  C9  UNL     1     -45.550  12.996  -9.624  1.00  0.00     0.220 C 
HETATM    2  O2  UNL     1     -45.219  13.220 -10.855  1.00  0.00    -0.273 OA
HETATM    3  N1  UNL     1     -46.846  12.480  -9.408  1.00  0.00    -0.343 N 
HETATM    4  C10 UNL     1     -47.799  12.208 -10.494  1.00  0.00     0.083 C 
HETATM    5  C11 UNL     1     -47.154  11.688 -11.743  1.00  0.00     0.032 C 
HETATM    6  C12 UNL     1     -48.646  11.100  -9.849  1.00  0.00     0.027 C 
HETATM    7  C13 UNL     1     -48.886  11.719  -8.498  1.00  0.00     0.028 C 
HETATM    8  C14 UNL     1     -47.439  12.124  -8.152  1.00  0.00     0.091 C 
ENDROOT
BRANCH   1   9
HETATM    9  C8  UNL     1     -44.539  13.304  -8.609  1.00  0.00     0.107 C 
BRANCH   9  10
HETATM   10  C6  UNL     1     -44.124  14.798  -8.694  1.00  0.00    -0.004 C 
HETATM   11  C7  UNL     1     -42.902  14.963  -7.811  1.00  0.00     0.011 C 
BRANCH  10  12
HETATM   12  C5  UNL     1     -45.239  15.623  -8.143  1.00  0.00     0.069 C 
BRANCH  12  13
HETATM   13  C4  UNL     1     -45.659  16.783  -8.898  1.00  0.00     0.048 C 
BRANCH  13  14
HETATM   14  C2  UNL     1     -45.045  17.985  -9.350  1.00  0.00    -0.042 C 
HETATM   15  C1  UNL     1     -45.843  18.853 -10.015  1.00  0.00     0.021 C 
HETATM   16  C3  UNL     1     -43.643  18.427  -9.215  1.00  0.00     0.050 C 
ENDBRANCH  13  14
BRANCH  13  17
HETATM   17  O1  UNL     1     -46.937  16.697  -9.255  1.00  0.00    -0.364 OA
ATOM     18  H1  UNL     1     -47.530  16.825  -8.525  1.00  0.00     0.217 HD
ENDBRANCH  13  17
ENDBRANCH  12  13
ENDBRANCH  10  12
ENDBRANCH   9  10
ENDBRANCH   1   9
BRANCH   8  19
HETATM   19  C15 UNL     1     -47.439  13.156  -7.078  1.00  0.00     0.058 C 
BRANCH  19  20
HETATM   20  C16 UNL     1     -46.913  12.593  -5.783  1.00  0.00    -0.086 C 
HETATM   21  C17 UNL     1     -45.733  13.195  -5.125  1.00  0.00     0.043 C 
HETATM   22  C18 UNL     1     -47.524  11.561  -5.247  1.00  0.00    -0.024 C 
BRANCH  22  23
HETATM   23  C19 UNL     1     -47.055  10.950  -3.960  1.00  0.00     0.028 C 
BRANCH  23  24
HETATM   24  C20 UNL     1     -47.945  11.299  -2.819  1.00  0.00     0.011 C 
BRANCH  24  25
HETATM   25  C21 UNL     1     -49.402  11.396  -3.159  1.00  0.00     0.078 C 
BRANCH  25  26
HETATM   26  C22 UNL     1     -50.101  10.102  -3.150  1.00  0.00     0.123 C 
HETATM   27  C23 UNL     1     -50.865   9.757  -4.401  1.00  0.00     0.091 C 
HETATM   28  O3  UNL     1     -50.118   9.299  -2.241  1.00  0.00    -0.298 OA
ENDBRANCH  25  26
ENDBRANCH  24  25
ENDBRANCH  23  24
ENDBRANCH  22  23
ENDBRANCH  19  20
ENDBRANCH   8  19
TORSDOF 12
ENDMDL
MODEL 5
REMARK VINA RESULT: -6.366935756      2.451      6.315
REMARK  12 active torsions:
REMARK  status: ('A' for Active; 'I' for Inactive)
REMARK    1  A    between atoms: C2_2  and  C4_4 
REMARK    2  A    between atoms: C4_4  and  O1_5 
REMARK    3  A    between atoms: C4_4  and  C5_7 
REMARK    4  A    between atoms: C5_7  and  C6_8 
REMARK    5  A    between atoms: C6_8  and  C8_10 
REMARK    6  A    between atoms: C8_10  and  C9_11 
REMARK       I    between atoms: C9_11  and  N1_13 
REMARK    7  A    between atoms: C14_18  and  C15_19 
REMARK    8  A    between atoms: C15_19  and  C16_20 
REMARK    9  A    between atoms: C18_22  and  C19_23 
REMARK   10  A    between atoms: C19_23  and  C20_24 
REMARK   11  A    between atoms: C20_24  and  C21_25 
REMARK   12  A    between atoms: C21_25  and  C22_26 
ROOT
HETATM    1  C9  UNL     1     -44.849  14.458  -6.631  1.00  0.00     0.220 C 
HETATM    2  O2  UNL     1     -44.153  15.479  -7.015  1.00  0.00    -0.273 OA
HETATM    3  N1  UNL     1     -45.579  13.784  -7.633  1.00  0.00    -0.343 N 
HETATM    4  C10 UNL     1     -45.584  14.197  -9.045  1.00  0.00     0.083 C 
HETATM    5  C11 UNL     1     -44.262  14.718  -9.522  1.00  0.00     0.032 C 
HETATM    6  C12 UNL     1     -45.887  12.853  -9.726  1.00  0.00     0.027 C 
HETATM    7  C13 UNL     1     -47.028  12.384  -8.862  1.00  0.00     0.028 C 
HETATM    8  C14 UNL     1     -46.398  12.619  -7.474  1.00  0.00     0.091 C 
ENDROOT
BRANCH   1   9
HETATM    9  C8  UNL     1     -44.789  14.125  -5.205  1.00  0.00     0.107 C 
BRANCH   9  10
HETATM   10  C6  UNL     1     -43.390  13.560  -4.840  1.00  0.00    -0.004 C 
HETATM   11  C7  UNL     1     -43.130  12.395  -5.776  1.00  0.00     0.011 C 
BRANCH  10  12
HETATM   12  C5  UNL     1     -43.444  13.054  -3.436  1.00  0.00     0.069 C 
BRANCH  12  13
HETATM   13  C4  UNL     1     -43.796  13.991  -2.393  1.00  0.00     0.048 C 
BRANCH  13  14
HETATM   14  C2  UNL     1     -44.781  14.058  -1.367  1.00  0.00    -0.042 C 
HETATM   15  C1  UNL     1     -44.700  15.114  -0.526  1.00  0.00     0.021 C 
HETATM   16  C3  UNL     1     -45.884  13.123  -1.068  1.00  0.00     0.050 C 
ENDBRANCH  13  14
BRANCH  13  17
HETATM   17  O1  UNL     1     -42.994  15.053  -2.400  1.00  0.00    -0.364 OA
ATOM     18  H1  UNL     1     -42.279  14.965  -3.018  1.00  0.00     0.217 HD
ENDBRANCH  13  17
ENDBRANCH  12  13
ENDBRANCH  10  12
ENDBRANCH   9  10
ENDBRANCH   1   9
BRANCH   8  19
HETATM   19  C15 UNL     1     -47.461  12.667  -6.431  1.00  0.00     0.058 C 
BRANCH  19  20
HETATM   20  C16 UNL     1     -47.447  11.421  -5.583  1.00  0.00    -0.086 C 
HETATM   21  C17 UNL     1     -46.713  11.393  -4.300  1.00  0.00     0.043 C 
HETATM   22  C18 UNL     1     -48.102  10.361  -6.003  1.00  0.00    -0.024 C 
BRANCH  22  23
HETATM   23  C19 UNL     1     -48.130   9.088  -5.210  1.00  0.00     0.028 C 
BRANCH  23  24
HETATM   24  C20 UNL     1     -49.519   8.667  -4.881  1.00  0.00     0.011 C 
BRANCH  24  25
HETATM   25  C21 UNL     1     -50.415   9.765  -4.391  1.00  0.00     0.078 C 
BRANCH  25  26
HETATM   26  C22 UNL     1     -50.116  10.208  -3.021  1.00  0.00     0.123 C 
HETATM   27  C23 UNL     1     -50.287  11.680  -2.753  1.00  0.00     0.091 C 
HETATM   28  O3  UNL     1     -49.751   9.508  -2.101  1.00  0.00    -0.298 OA
ENDBRANCH  25  26
ENDBRANCH  24  25
ENDBRANCH  23  24
ENDBRANCH  22  23
ENDBRANCH  19  20
ENDBRANCH   8  19
TORSDOF 12
ENDMDL
