MODEL 1
REMARK VINA RESULT: -6.697776719      0.000      0.000
REMARK  10 active torsions:
REMARK  status: ('A' for Active; 'I' for Inactive)
REMARK    1  A    between atoms: C2_2  and  N1_3 
REMARK    2  A    between atoms: N1_3  and  C3_4 
REMARK    3  A    between atoms: N1_3  and  C5_6 
REMARK    4  A    between atoms: C5_6  and  C6_7 
REMARK    5  A    between atoms: C6_7  and  C7_8 
REMARK    6  A    between atoms: C7_8  and  N2_9 
REMARK    7  A    between atoms: N2_9  and  C8_10 
REMARK    8  A    between atoms: N2_9  and  C14_16 
REMARK    9  A    between atoms: C8_10  and  C9_11 
REMARK   10  A    between atoms: C9_11  and  C10_12 
ROOT
HETATM    1  N2  UNL     1     -46.653  11.354  -6.258  1.00  0.00     0.102 N 
ENDROOT
BRANCH   1   2
HETATM    2  C7  UNL     1     -47.480  11.603  -5.106  1.00  0.00     0.275 C 
BRANCH   2   3
HETATM    3  C6  UNL     1     -47.546  10.525  -4.069  1.00  0.00     0.060 C 
BRANCH   3   4
HETATM    4  C5  UNL     1     -48.193  11.233  -2.854  1.00  0.00     0.274 C 
BRANCH   4   5
HETATM    5  N1  UNL     1     -49.462  10.704  -2.545  1.00  0.00     0.087 N 
BRANCH   5   6
HETATM    6  C2  UNL     1     -49.746   9.420  -3.071  1.00  0.00     0.268 C 
HETATM    7  C1  UNL     1     -50.834   9.321  -4.078  1.00  0.00     0.037 C 
ENDBRANCH   5   6
BRANCH   5   8
HETATM    8  C3  UNL     1     -50.498  11.628  -2.937  1.00  0.00     0.268 C 
HETATM    9  C4  UNL     1     -50.900  12.545  -1.804  1.00  0.00     0.037 C 
ENDBRANCH   5   8
ENDBRANCH   4   5
ENDBRANCH   3   4
ENDBRANCH   2   3
ENDBRANCH   1   2
BRANCH   1  10
HETATM   10  C8  UNL     1     -47.621  10.949  -7.304  1.00  0.00     0.277 C 
BRANCH  10  11
HETATM   11  C9  UNL     1     -48.100  11.990  -8.214  1.00  0.00     0.057 C 
BRANCH  11  12
HETATM   12  C10 UNL     1     -48.539  11.436  -9.508  1.00  0.00    -0.023 C 
HETATM   13  C11 UNL     1     -47.949  11.592 -10.657  1.00  0.00    -0.091 C 
HETATM   14  C12 UNL     1     -48.536  10.953 -11.897  1.00  0.00     0.042 C 
HETATM   15  C13 UNL     1     -46.694  12.374 -10.784  1.00  0.00     0.042 C 
ENDBRANCH  11  12
ENDBRANCH  10  11
ENDBRANCH   1  10
BRANCH   1  16
HETATM   16  C14 UNL     1     -46.033  12.510  -6.778  1.00  0.00     0.296 C 
HETATM   17  C15 UNL     1     -45.555  13.560  -5.851  1.00  0.00    -0.048 C 
HETATM   18  C16 UNL     1     -45.413  13.369  -4.410  1.00  0.00     0.046 C 
HETATM   19  C17 UNL     1     -45.207  14.781  -6.290  1.00  0.00    -0.008 C 
HETATM   20  C18 UNL     1     -45.217  15.334  -7.707  1.00  0.00     0.097 C 
HETATM   21  C19 UNL     1     -46.597  15.651  -8.181  1.00  0.00     0.024 C 
HETATM   22  C20 UNL     1     -44.553  14.377  -8.630  1.00  0.00     0.229 C 
HETATM   23  O1  UNL     1     -44.273  14.773  -9.780  1.00  0.00    -0.273 OA
HETATM   24  N3  UNL     1     -44.196  13.034  -8.333  1.00  0.00    -0.332 N 
HETATM   25  C21 UNL     1     -44.798  12.166  -7.532  1.00  0.00     0.023 C 
ATOM     26  H3  UNL     1     -43.359  12.690  -8.801  1.00  0.00     0.168 HD
HETATM   27  C22 UNL     1     -44.094  10.899  -7.409  1.00  0.00     0.066 C 
ENDBRANCH   1  16
TORSDOF 10
ENDMDL
MODEL 2
REMARK VINA RESULT: -6.191410184      1.371      2.236
REMARK  10 active torsions:
REMARK  status: ('A' for Active; 'I' for Inactive)
REMARK    1  A    between atoms: C2_2  and  N1_3 
REMARK    2  A    between atoms: N1_3  and  C3_4 
REMARK    3  A    between atoms: N1_3  and  C5_6 
REMARK    4  A    between atoms: C5_6  and  C6_7 
REMARK    5  A    between atoms: C6_7  and  C7_8 
REMARK    6  A    between atoms: C7_8  and  N2_9 
REMARK    7  A    between atoms: N2_9  and  C8_10 
REMARK    8  A    between atoms: N2_9  and  C14_16 
REMARK    9  A    between atoms: C8_10  and  C9_11 
REMARK   10  A    between atoms: C9_11  and  C10_12 
ROOT
HETATM    1  N2  UNL     1     -46.023  12.190  -6.263  1.00  0.00     0.102 N 
ENDROOT
BRANCH   1   2
HETATM    2  C7  UNL     1     -47.297  12.471  -5.652  1.00  0.00     0.275 C 
BRANCH   2   3
HETATM    3  C6  UNL     1     -47.558  11.860  -4.311  1.00  0.00     0.060 C 
BRANCH   3   4
HETATM    4  C5  UNL     1     -48.601  10.757  -4.616  1.00  0.00     0.274 C 
BRANCH   4   5
HETATM    5  N1  UNL     1     -49.857  11.039  -4.040  1.00  0.00     0.087 N 
BRANCH   5   6
HETATM    6  C2  UNL     1     -49.862  11.271  -2.643  1.00  0.00     0.268 C 
HETATM    7  C1  UNL     1     -50.797  12.305  -2.126  1.00  0.00     0.037 C 
ENDBRANCH   5   6
BRANCH   5   8
HETATM    8  C3  UNL     1     -50.800   9.996  -4.361  1.00  0.00     0.268 C 
HETATM    9  C4  UNL     1     -50.629   8.784  -3.473  1.00  0.00     0.037 C 
ENDBRANCH   5   8
ENDBRANCH   4   5
ENDBRANCH   3   4
ENDBRANCH   2   3
ENDBRANCH   1   2
BRANCH   1  10
HETATM   10  C8  UNL     1     -46.369  11.324  -7.414  1.00  0.00     0.277 C 
BRANCH  10  11
HETATM   11  C9  UNL     1     -47.526  11.710  -8.221  1.00  0.00     0.057 C 
BRANCH  11  12
HETATM   12  C10 UNL     1     -47.141  12.110  -9.587  1.00  0.00    -0.023 C 
HETATM   13  C11 UNL     1     -47.727  11.751 -10.692  1.00  0.00    -0.091 C 
HETATM   14  C12 UNL     1     -47.202  12.254 -12.019  1.00  0.00     0.042 C 
HETATM   15  C13 UNL     1     -48.917  10.865 -10.686  1.00  0.00     0.042 C 
ENDBRANCH  11  12
ENDBRANCH  10  11
ENDBRANCH   1  10
BRANCH   1  16
HETATM   16  C14 UNL     1     -45.406  13.319  -6.842  1.00  0.00     0.296 C 
HETATM   17  C15 UNL     1     -46.204  14.540  -7.089  1.00  0.00    -0.048 C 
HETATM   18  C16 UNL     1     -47.527  14.777  -6.515  1.00  0.00     0.046 C 
HETATM   19  C17 UNL     1     -45.748  15.534  -7.869  1.00  0.00    -0.008 C 
HETATM   20  C18 UNL     1     -44.428  15.641  -8.619  1.00  0.00     0.097 C 
HETATM   21  C19 UNL     1     -44.402  14.783  -9.842  1.00  0.00     0.024 C 
HETATM   22  C20 UNL     1     -43.301  15.298  -7.714  1.00  0.00     0.229 C 
HETATM   23  O1  UNL     1     -42.143  15.554  -8.101  1.00  0.00    -0.273 OA
HETATM   24  N3  UNL     1     -43.407  14.699  -6.430  1.00  0.00    -0.332 N 
HETATM   25  C21 UNL     1     -44.302  13.829  -5.984  1.00  0.00     0.023 C 
ATOM     26  H3  UNL     1     -42.694  14.977  -5.757  1.00  0.00     0.168 HD
HETATM   27  C22 UNL     1     -44.144  13.497  -4.576  1.00  0.00     0.066 C 
ENDBRANCH   1  16
TORSDOF 10
ENDMDL
MODEL 3
REMARK VINA RESULT: -6.136272778      2.056      4.815
REMARK  10 active torsions:
REMARK  status: ('A' for Active; 'I' for Inactive)
REMARK    1  A    between atoms: C2_2  and  N1_3 
REMARK    2  A    between atoms: N1_3  and  C3_4 
REMARK    3  A    between atoms: N1_3  and  C5_6 
REMARK    4  A    between atoms: C5_6  and  C6_7 
REMARK    5  A    between atoms: C6_7  and  C7_8 
REMARK    6  A    between atoms: C7_8  and  N2_9 
REMARK    7  A    between atoms: N2_9  and  C8_10 
REMARK    8  A    between atoms: N2_9  and  C14_16 
REMARK    9  A    between atoms: C8_10  and  C9_11 
REMARK   10  A    between atoms: C9_11  and  C10_12 
ROOT
HETATM    1  N2  UNL     1     -45.847  12.873  -6.345  1.00  0.00     0.102 N 
ENDROOT
BRANCH   1   2
HETATM    2  C7  UNL     1     -46.196  11.579  -6.871  1.00  0.00     0.275 C 
BRANCH   2   3
HETATM    3  C6  UNL     1     -47.579  11.080  -6.589  1.00  0.00     0.060 C 
BRANCH   3   4
HETATM    4  C5  UNL     1     -47.605  10.948  -5.046  1.00  0.00     0.274 C 
BRANCH   4   5
HETATM    5  N1  UNL     1     -48.439   9.896  -4.617  1.00  0.00     0.087 N 
BRANCH   5   6
HETATM    6  C2  UNL     1     -49.831  10.103  -4.770  1.00  0.00     0.268 C 
HETATM    7  C1  UNL     1     -50.742   9.209  -4.010  1.00  0.00     0.037 C 
ENDBRANCH   5   6
BRANCH   5   8
HETATM    8  C3  UNL     1     -48.148   9.556  -3.245  1.00  0.00     0.268 C 
HETATM    9  C4  UNL     1     -47.592  10.731  -2.475  1.00  0.00     0.037 C 
ENDBRANCH   5   8
ENDBRANCH   4   5
ENDBRANCH   3   4
ENDBRANCH   2   3
ENDBRANCH   1   2
BRANCH   1  10
HETATM   10  C8  UNL     1     -44.591  12.623  -5.600  1.00  0.00     0.277 C 
BRANCH  10  11
HETATM   11  C9  UNL     1     -44.242  13.566  -4.537  1.00  0.00     0.057 C 
BRANCH  11  12
HETATM   12  C10 UNL     1     -44.978  13.293  -3.289  1.00  0.00    -0.023 C 
HETATM   13  C11 UNL     1     -44.783  13.862  -2.135  1.00  0.00    -0.091 C 
HETATM   14  C12 UNL     1     -45.631  13.463  -0.947  1.00  0.00     0.042 C 
HETATM   15  C13 UNL     1     -43.750  14.912  -1.955  1.00  0.00     0.042 C 
ENDBRANCH  11  12
ENDBRANCH  10  11
ENDBRANCH   1  10
BRANCH   1  16
HETATM   16  C14 UNL     1     -45.490  13.815  -7.334  1.00  0.00     0.296 C 
HETATM   17  C15 UNL     1     -45.256  13.360  -8.722  1.00  0.00    -0.048 C 
HETATM   18  C16 UNL     1     -45.646  12.045  -9.224  1.00  0.00     0.046 C 
HETATM   19  C17 UNL     1     -44.664  14.152  -9.632  1.00  0.00    -0.008 C 
HETATM   20  C18 UNL     1     -44.137  15.570  -9.477  1.00  0.00     0.097 C 
HETATM   21  C19 UNL     1     -42.848  15.616  -8.722  1.00  0.00     0.024 C 
HETATM   22  C20 UNL     1     -45.160  16.422  -8.817  1.00  0.00     0.229 C 
HETATM   23  O1  UNL     1     -44.982  17.657  -8.819  1.00  0.00    -0.273 OA
HETATM   24  N3  UNL     1     -46.342  15.968  -8.173  1.00  0.00    -0.332 N 
HETATM   25  C21 UNL     1     -46.554  14.840  -7.510  1.00  0.00     0.023 C 
ATOM     26  H3  UNL     1     -47.141  16.599  -8.229  1.00  0.00     0.168 HD
HETATM   27  C22 UNL     1     -47.926  14.678  -7.055  1.00  0.00     0.066 C 
ENDBRANCH   1  16
TORSDOF 10
ENDMDL
MODEL 4
REMARK VINA RESULT: -6.102221366      1.985      4.872
REMARK  10 active torsions:
REMARK  status: ('A' for Active; 'I' for Inactive)
REMARK    1  A    between atoms: C2_2  and  N1_3 
REMARK    2  A    between atoms: N1_3  and  C3_4 
REMARK    3  A    between atoms: N1_3  and  C5_6 
REMARK    4  A    between atoms: C5_6  and  C6_7 
REMARK    5  A    between atoms: C6_7  and  C7_8 
REMARK    6  A    between atoms: C7_8  and  N2_9 
REMARK    7  A    between atoms: N2_9  and  C8_10 
REMARK    8  A    between atoms: N2_9  and  C14_16 
REMARK    9  A    between atoms: C8_10  and  C9_11 
REMARK   10  A    between atoms: C9_11  and  C10_12 
ROOT
HETATM    1  N2  UNL     1     -45.756  12.926  -6.301  1.00  0.00     0.102 N 
ENDROOT
BRANCH   1   2
HETATM    2  C7  UNL     1     -46.128  11.629  -6.806  1.00  0.00     0.275 C 
BRANCH   2   3
HETATM    3  C6  UNL     1     -47.478  11.111  -6.420  1.00  0.00     0.060 C 
BRANCH   3   4
HETATM    4  C5  UNL     1     -47.377  10.956  -4.882  1.00  0.00     0.274 C 
BRANCH   4   5
HETATM    5  N1  UNL     1     -48.646  10.908  -4.269  1.00  0.00     0.087 N 
BRANCH   5   6
HETATM    6  C2  UNL     1     -48.653  10.930  -2.853  1.00  0.00     0.268 C 
HETATM    7  C1  UNL     1     -47.417  10.488  -2.157  1.00  0.00     0.037 C 
ENDBRANCH   5   6
BRANCH   5   8
HETATM    8  C3  UNL     1     -49.385   9.762  -4.739  1.00  0.00     0.268 C 
HETATM    9  C4  UNL     1     -50.835   9.810  -4.315  1.00  0.00     0.037 C 
ENDBRANCH   5   8
ENDBRANCH   4   5
ENDBRANCH   3   4
ENDBRANCH   2   3
ENDBRANCH   1   2
BRANCH   1  10
HETATM   10  C8  UNL     1     -44.476  12.675  -5.600  1.00  0.00     0.277 C 
BRANCH  10  11
HETATM   11  C9  UNL     1     -44.120  13.582  -4.508  1.00  0.00     0.057 C 
BRANCH  11  12
HETATM   12  C10 UNL     1     -44.895  13.306  -3.284  1.00  0.00    -0.023 C 
HETATM   13  C11 UNL     1     -44.748  13.887  -2.128  1.00  0.00    -0.091 C 
HETATM   14  C12 UNL     1     -45.630  13.484  -0.967  1.00  0.00     0.042 C 
HETATM   15  C13 UNL     1     -43.739  14.955  -1.921  1.00  0.00     0.042 C 
ENDBRANCH  11  12
ENDBRANCH  10  11
ENDBRANCH   1  10
BRANCH   1  16
HETATM   16  C14 UNL     1     -45.432  13.860  -7.308  1.00  0.00     0.296 C 
HETATM   17  C15 UNL     1     -45.216  13.391  -8.695  1.00  0.00    -0.048 C 
HETATM   18  C16 UNL     1     -45.595  12.064  -9.173  1.00  0.00     0.046 C 
HETATM   19  C17 UNL     1     -44.652  14.180  -9.625  1.00  0.00    -0.008 C 
HETATM   20  C18 UNL     1     -44.144  15.608  -9.496  1.00  0.00     0.097 C 
HETATM   21  C19 UNL     1     -42.843  15.682  -8.766  1.00  0.00     0.024 C 
HETATM   22  C20 UNL     1     -45.168  16.453  -8.829  1.00  0.00     0.229 C 
HETATM   23  O1  UNL     1     -45.009  17.690  -8.850  1.00  0.00    -0.273 OA
HETATM   24  N3  UNL     1     -46.332  15.989  -8.159  1.00  0.00    -0.332 N 
HETATM   25  C21 UNL     1     -46.514  14.867  -7.478  1.00  0.00     0.023 C 
ATOM     26  H3  UNL     1     -47.141  16.607  -8.208  1.00  0.00     0.168 HD
HETATM   27  C22 UNL     1     -47.875  14.690  -6.996  1.00  0.00     0.066 C 
ENDBRANCH   1  16
TORSDOF 10
ENDMDL
MODEL 5
REMARK VINA RESULT: -6.074260881      2.247      6.094
REMARK  10 active torsions:
REMARK  status: ('A' for Active; 'I' for Inactive)
REMARK    1  A    between atoms: C2_2  and  N1_3 
REMARK    2  A    between atoms: N1_3  and  C3_4 
REMARK    3  A    between atoms: N1_3  and  C5_6 
REMARK    4  A    between atoms: C5_6  and  C6_7 
REMARK    5  A    between atoms: C6_7  and  C7_8 
REMARK    6  A    between atoms: C7_8  and  N2_9 
REMARK    7  A    between atoms: N2_9  and  C8_10 
REMARK    8  A    between atoms: N2_9  and  C14_16 
REMARK    9  A    between atoms: C8_10  and  C9_11 
REMARK   10  A    between atoms: C9_11  and  C10_12 
ROOT
HETATM    1  N2  UNL     1     -47.500  11.350  -5.571  1.00  0.00     0.102 N 
ENDROOT
BRANCH   1   2
HETATM    2  C7  UNL     1     -48.058  12.009  -6.724  1.00  0.00     0.275 C 
BRANCH   2   3
HETATM    3  C6  UNL     1     -47.898  11.321  -8.044  1.00  0.00     0.060 C 
BRANCH   3   4
HETATM    4  C5  UNL     1     -47.480  12.467  -8.997  1.00  0.00     0.274 C 
BRANCH   4   5
HETATM    5  N1  UNL     1     -46.315  12.153  -9.727  1.00  0.00     0.087 N 
BRANCH   5   6
HETATM    6  C2  UNL     1     -45.095  12.627  -9.185  1.00  0.00     0.268 C 
HETATM    7  C1  UNL     1     -44.837  14.088  -9.262  1.00  0.00     0.037 C 
ENDBRANCH   5   6
BRANCH   5   8
HETATM    8  C3  UNL     1     -46.445  12.599 -11.092  1.00  0.00     0.268 C 
HETATM    9  C4  UNL     1     -47.418  11.750 -11.877  1.00  0.00     0.037 C 
ENDBRANCH   5   8
ENDBRANCH   4   5
ENDBRANCH   3   4
ENDBRANCH   2   3
ENDBRANCH   1   2
BRANCH   1  10
HETATM   10  C8  UNL     1     -47.335   9.946  -6.014  1.00  0.00     0.277 C 
BRANCH  10  11
HETATM   11  C9  UNL     1     -48.368   8.991  -5.616  1.00  0.00     0.057 C 
BRANCH  11  12
HETATM   12  C10 UNL     1     -48.717   9.113  -4.189  1.00  0.00    -0.023 C 
HETATM   13  C11 UNL     1     -49.853   9.519  -3.701  1.00  0.00    -0.091 C 
HETATM   14  C12 UNL     1     -50.048   9.587  -2.203  1.00  0.00     0.042 C 
HETATM   15  C13 UNL     1     -50.980   9.907  -4.585  1.00  0.00     0.042 C 
ENDBRANCH  11  12
ENDBRANCH  10  11
ENDBRANCH   1  10
BRANCH   1  16
HETATM   16  C14 UNL     1     -46.193  11.775  -5.247  1.00  0.00     0.296 C 
HETATM   17  C15 UNL     1     -45.773  13.155  -5.576  1.00  0.00    -0.048 C 
HETATM   18  C16 UNL     1     -46.699  14.219  -5.955  1.00  0.00     0.046 C 
HETATM   19  C17 UNL     1     -44.482  13.526  -5.537  1.00  0.00    -0.008 C 
HETATM   20  C18 UNL     1     -43.254  12.702  -5.182  1.00  0.00     0.097 C 
HETATM   21  C19 UNL     1     -42.864  11.766  -6.280  1.00  0.00     0.024 C 
HETATM   22  C20 UNL     1     -43.490  11.957  -3.919  1.00  0.00     0.229 C 
HETATM   23  O1  UNL     1     -42.510  11.415  -3.368  1.00  0.00    -0.273 OA
HETATM   24  N3  UNL     1     -44.738  11.796  -3.260  1.00  0.00    -0.332 N 
HETATM   25  C21 UNL     1     -45.954  11.711  -3.780  1.00  0.00     0.023 C 
ATOM     26  H3  UNL     1     -44.693  11.737  -2.243  1.00  0.00     0.168 HD
HETATM   27  C22 UNL     1     -47.012  11.633  -2.784  1.00  0.00     0.066 C 
ENDBRANCH   1  16
TORSDOF 10
ENDMDL
