MODEL 1
REMARK VINA RESULT: -6.274131217      0.000      0.000
REMARK  2 active torsions:
REMARK  status: ('A' for Active; 'I' for Inactive)
REMARK    1  A    between atoms: O1_2  and  C2_3 
REMARK    2  A    between atoms: C2_3  and  C3_5 
ROOT
HETATM    1  C3  UNL     1      21.081 124.397  -8.600  1.00  0.00     0.106 A 
HETATM    2  C4  UNL     1      22.034 125.076  -9.322  1.00  0.00     0.137 A 
HETATM    3  N1  UNL     1      23.045 124.358 -10.013  1.00  0.00    -0.081 NA
HETATM    4  N2  UNL     1      22.018 126.442  -9.381  1.00  0.00    -0.309 N 
ATOM      5  H2  UNL     1      22.735 126.925  -9.922  1.00  0.00     0.170 HD
HETATM    6  C5  UNL     1      21.078 127.167  -8.740  1.00  0.00     0.273 A 
HETATM    7  O3  UNL     1      21.112 128.422  -8.829  1.00  0.00    -0.266 OA
HETATM    8  C6  UNL     1      20.101 126.528  -8.003  1.00  0.00     0.139 A 
HETATM    9  N3  UNL     1      19.127 127.304  -7.342  1.00  0.00    -0.094 NA
HETATM   10  C7  UNL     1      20.120 125.131  -7.946  1.00  0.00     0.095 A 
HETATM   11  N4  UNL     1      19.120 124.460  -7.191  1.00  0.00    -0.099 NA
ENDROOT
BRANCH   1  12
HETATM   12  C2  UNL     1      21.142 122.944  -8.569  1.00  0.00     0.298 C 
HETATM   13  O2  UNL     1      20.639 122.232  -9.492  1.00  0.00    -0.259 OA
BRANCH  12  14
HETATM   14  O1  UNL     1      21.750 122.254  -7.535  1.00  0.00    -0.322 OA
HETATM   15  C1  UNL     1      21.918 120.861  -7.505  1.00  0.00     0.213 C 
ENDBRANCH  12  14
ENDBRANCH   1  12
TORSDOF 2
ENDMDL
MODEL 2
REMARK VINA RESULT: -5.899885184      1.351      1.579
REMARK  2 active torsions:
REMARK  status: ('A' for Active; 'I' for Inactive)
REMARK    1  A    between atoms: O1_2  and  C2_3 
REMARK    2  A    between atoms: C2_3  and  C3_5 
ROOT
HETATM    1  C3  UNL     1      20.621 125.168  -7.959  1.00  0.00     0.106 A 
HETATM    2  C4  UNL     1      21.894 125.681  -8.053  1.00  0.00     0.137 A 
HETATM    3  N1  UNL     1      23.013 124.808  -8.034  1.00  0.00    -0.081 NA
HETATM    4  N2  UNL     1      22.092 127.028  -8.166  1.00  0.00    -0.309 N 
ATOM      5  H2  UNL     1      23.045 127.387  -8.235  1.00  0.00     0.170 HD
HETATM    6  C5  UNL     1      21.060 127.896  -8.188  1.00  0.00     0.273 A 
HETATM    7  O3  UNL     1      21.301 129.128  -8.294  1.00  0.00    -0.266 OA
HETATM    8  C6  UNL     1      19.765 127.427  -8.096  1.00  0.00     0.139 A 
HETATM    9  N3  UNL     1      18.699 128.351  -8.122  1.00  0.00    -0.094 NA
HETATM   10  C7  UNL     1      19.565 126.048  -7.982  1.00  0.00     0.095 A 
HETATM   11  N4  UNL     1      18.237 125.550  -7.886  1.00  0.00    -0.099 NA
ENDROOT
BRANCH   1  12
HETATM   12  C2  UNL     1      20.464 123.727  -7.841  1.00  0.00     0.298 C 
HETATM   13  O2  UNL     1      20.255 123.164  -6.722  1.00  0.00    -0.259 OA
BRANCH  12  14
HETATM   14  O1  UNL     1      20.532 122.885  -8.938  1.00  0.00    -0.322 OA
HETATM   15  C1  UNL     1      21.425 121.808  -9.055  1.00  0.00     0.213 C 
ENDBRANCH  12  14
ENDBRANCH   1  12
TORSDOF 2
ENDMDL
MODEL 3
REMARK VINA RESULT: -5.837572319      2.494      4.067
REMARK  2 active torsions:
REMARK  status: ('A' for Active; 'I' for Inactive)
REMARK    1  A    between atoms: O1_2  and  C2_3 
REMARK    2  A    between atoms: C2_3  and  C3_5 
ROOT
HETATM    1  C3  UNL     1      21.169 123.832  -8.464  1.00  0.00     0.106 A 
HETATM    2  C4  UNL     1      21.188 122.795  -9.367  1.00  0.00     0.137 A 
HETATM    3  N1  UNL     1      20.107 121.876  -9.413  1.00  0.00    -0.081 NA
HETATM    4  N2  UNL     1      22.241 122.640 -10.224  1.00  0.00    -0.309 N 
ATOM      5  H2  UNL     1      22.234 121.863 -10.886  1.00  0.00     0.170 HD
HETATM    6  C5  UNL     1      23.290 123.488 -10.217  1.00  0.00     0.273 A 
HETATM    7  O3  UNL     1      24.233 123.297 -11.029  1.00  0.00    -0.266 OA
HETATM    8  C6  UNL     1      23.315 124.543  -9.328  1.00  0.00     0.139 A 
HETATM    9  N3  UNL     1      24.420 125.419  -9.337  1.00  0.00    -0.094 NA
HETATM   10  C7  UNL     1      22.235 124.700  -8.453  1.00  0.00     0.095 A 
HETATM   11  N4  UNL     1      22.247 125.782  -7.532  1.00  0.00    -0.099 NA
ENDROOT
BRANCH   1  12
HETATM   12  C2  UNL     1      20.025 123.953  -7.574  1.00  0.00     0.298 C 
HETATM   13  O2  UNL     1      19.952 123.310  -6.482  1.00  0.00    -0.259 OA
BRANCH  12  14
HETATM   14  O1  UNL     1      18.949 124.776  -7.864  1.00  0.00    -0.322 OA
HETATM   15  C1  UNL     1      18.822 126.100  -7.416  1.00  0.00     0.213 C 
ENDBRANCH  12  14
ENDBRANCH   1  12
TORSDOF 2
ENDMDL
MODEL 4
REMARK VINA RESULT: -5.813530527      2.158      4.251
REMARK  2 active torsions:
REMARK  status: ('A' for Active; 'I' for Inactive)
REMARK    1  A    between atoms: O1_2  and  C2_3 
REMARK    2  A    between atoms: C2_3  and  C3_5 
ROOT
HETATM    1  C3  UNL     1      20.156 126.179  -8.178  1.00  0.00     0.106 A 
HETATM    2  C4  UNL     1      21.139 126.907  -8.805  1.00  0.00     0.137 A 
HETATM    3  N1  UNL     1      20.921 128.276  -9.113  1.00  0.00    -0.081 NA
HETATM    4  N2  UNL     1      22.330 126.324  -9.137  1.00  0.00    -0.309 N 
ATOM      5  H2  UNL     1      23.045 126.884  -9.602  1.00  0.00     0.170 HD
HETATM    6  C5  UNL     1      22.583 125.028  -8.865  1.00  0.00     0.273 A 
HETATM    7  O3  UNL     1      23.698 124.543  -9.194  1.00  0.00    -0.266 OA
HETATM    8  C6  UNL     1      21.627 124.257  -8.236  1.00  0.00     0.139 A 
HETATM    9  N3  UNL     1      21.911 122.904  -7.960  1.00  0.00    -0.094 NA
HETATM   10  C7  UNL     1      20.409 124.857  -7.897  1.00  0.00     0.095 A 
HETATM   11  N4  UNL     1      19.414 124.076  -7.249  1.00  0.00    -0.099 NA
ENDROOT
BRANCH   1  12
HETATM   12  C2  UNL     1      18.907 126.846  -7.846  1.00  0.00     0.298 C 
HETATM   13  O2  UNL     1      18.790 127.576  -6.814  1.00  0.00    -0.259 OA
BRANCH  12  14
HETATM   14  O1  UNL     1      17.774 126.723  -8.633  1.00  0.00    -0.322 OA
HETATM   15  C1  UNL     1      17.711 127.078  -9.989  1.00  0.00     0.213 C 
ENDBRANCH  12  14
ENDBRANCH   1  12
TORSDOF 2
ENDMDL
MODEL 5
REMARK VINA RESULT: -5.660557164      2.269      4.264
REMARK  2 active torsions:
REMARK  status: ('A' for Active; 'I' for Inactive)
REMARK    1  A    between atoms: O1_2  and  C2_3 
REMARK    2  A    between atoms: C2_3  and  C3_5 
ROOT
HETATM    1  C3  UNL     1      19.978 126.109  -8.148  1.00  0.00     0.106 A 
HETATM    2  C4  UNL     1      20.851 126.941  -8.808  1.00  0.00     0.137 A 
HETATM    3  N1  UNL     1      20.470 128.277  -9.104  1.00  0.00    -0.081 NA
HETATM    4  N2  UNL     1      22.086 126.493  -9.185  1.00  0.00    -0.309 N 
ATOM      5  H2  UNL     1      22.717 127.128  -9.674  1.00  0.00     0.170 HD
HETATM    6  C5  UNL     1      22.491 125.233  -8.926  1.00  0.00     0.273 A 
HETATM    7  O3  UNL     1      23.640 124.875  -9.296  1.00  0.00    -0.266 OA
HETATM    8  C6  UNL     1      21.649 124.362  -8.265  1.00  0.00     0.139 A 
HETATM    9  N3  UNL     1      22.091 123.049  -8.003  1.00  0.00    -0.094 NA
HETATM   10  C7  UNL     1      20.386 124.824  -7.881  1.00  0.00     0.095 A 
HETATM   11  N4  UNL     1      19.507 123.938  -7.199  1.00  0.00    -0.099 NA
ENDROOT
BRANCH   1  12
HETATM   12  C2  UNL     1      18.675 126.634  -7.769  1.00  0.00     0.298 C 
HETATM   13  O2  UNL     1      17.660 126.518  -8.522  1.00  0.00    -0.259 OA
BRANCH  12  14
HETATM   14  O1  UNL     1      18.466 127.289  -6.567  1.00  0.00    -0.322 OA
HETATM   15  C1  UNL     1      17.949 128.590  -6.455  1.00  0.00     0.213 C 
ENDBRANCH  12  14
ENDBRANCH   1  12
TORSDOF 2
ENDMDL
