MODEL 1
REMARK VINA RESULT: -7.186995621      0.000      0.000
REMARK  2 active torsions:
REMARK  status: ('A' for Active; 'I' for Inactive)
REMARK    1  A    between atoms: N1_1  and  C1_4 
REMARK    2  A    between atoms: C2_5  and  N2_6 
ROOT
HETATM    1  C1  UNL     1      22.445 124.583  -9.493  1.00  0.00     0.131 C 
HETATM    2  C2  UNL     1      21.332 124.853  -8.707  1.00  0.00     0.175 C 
HETATM    3  C3  UNL     1      20.522 123.936  -8.062  1.00  0.00     0.156 C 
HETATM    4  N3  UNL     1      19.273 124.466  -7.656  1.00  0.00    -0.080 NA
HETATM    5  N4  UNL     1      20.769 122.631  -7.781  1.00  0.00    -0.295 N 
ATOM      6  H4  UNL     1      20.133 122.192  -7.115  1.00  0.00     0.172 HD
HETATM    7  C4  UNL     1      21.752 121.837  -8.270  1.00  0.00     0.328 C 
HETATM    8  O3  UNL     1      21.941 120.756  -7.659  1.00  0.00    -0.247 OA
HETATM    9  N5  UNL     1      22.527 122.119  -9.343  1.00  0.00    -0.274 N 
ATOM     10  H5  UNL     1      22.909 121.303  -9.820  1.00  0.00     0.173 HD
HETATM   11  C5  UNL     1      22.884 123.323  -9.894  1.00  0.00     0.278 C 
HETATM   12  O4  UNL     1      23.672 123.299 -10.838  1.00  0.00    -0.265 OA
ENDROOT
BRANCH   1  13
HETATM   13  N1  UNL     1      23.152 125.582  -9.876  1.00  0.00    -0.393 N 
ATOM     14  H12 UNL     1      23.744 125.433 -10.693  1.00  0.00     0.156 HD
ATOM     15  H11 UNL     1      23.081 126.441  -9.331  1.00  0.00     0.156 HD
ENDBRANCH   1  13
BRANCH   2  16
HETATM   16  N2  UNL     1      20.958 126.206  -8.520  1.00  0.00    -0.110 N 
HETATM   17  O1  UNL     1      20.163 126.807  -9.235  1.00  0.00    -0.532 OA
HETATM   18  O2  UNL     1      21.537 126.866  -7.466  1.00  0.00    -0.532 OA
ENDBRANCH   2  16
TORSDOF 2
ENDMDL
MODEL 2
REMARK VINA RESULT: -6.979490963      1.261      3.840
REMARK  2 active torsions:
REMARK  status: ('A' for Active; 'I' for Inactive)
REMARK    1  A    between atoms: N1_1  and  C1_4 
REMARK    2  A    between atoms: C2_5  and  N2_6 
ROOT
HETATM    1  C1  UNL     1      22.746 123.685  -9.429  1.00  0.00     0.131 C 
HETATM    2  C2  UNL     1      21.707 123.227  -8.629  1.00  0.00     0.175 C 
HETATM    3  C3  UNL     1      20.767 123.991  -7.960  1.00  0.00     0.156 C 
HETATM    4  N3  UNL     1      20.079 123.286  -6.944  1.00  0.00    -0.080 NA
HETATM    5  N4  UNL     1      20.436 125.293  -8.153  1.00  0.00    -0.295 N 
ATOM      6  H4  UNL     1      19.575 125.604  -7.702  1.00  0.00     0.172 HD
HETATM    7  C4  UNL     1      21.100 126.233  -8.867  1.00  0.00     0.328 C 
HETATM    8  O3  UNL     1      20.461 127.284  -9.123  1.00  0.00    -0.247 OA
HETATM    9  N5  UNL     1      22.373 126.123  -9.315  1.00  0.00    -0.274 N 
ATOM     10  H5  UNL     1      22.852 127.012  -9.459  1.00  0.00     0.173 HD
HETATM   11  C5  UNL     1      23.123 125.014  -9.608  1.00  0.00     0.278 C 
HETATM   12  O4  UNL     1      24.245 125.200 -10.076  1.00  0.00    -0.265 OA
ENDROOT
BRANCH   1  13
HETATM   13  N1  UNL     1      23.414 122.809 -10.084  1.00  0.00    -0.393 N 
ATOM     14  H12 UNL     1      24.032 123.161 -10.815  1.00  0.00     0.156 HD
ATOM     15  H11 UNL     1      23.269 121.830  -9.838  1.00  0.00     0.156 HD
ENDBRANCH   1  13
BRANCH   2  16
HETATM   16  N2  UNL     1      21.561 121.829  -8.458  1.00  0.00    -0.110 N 
HETATM   17  O1  UNL     1      21.955 121.209  -7.475  1.00  0.00    -0.532 OA
HETATM   18  O2  UNL     1      20.938 121.145  -9.471  1.00  0.00    -0.532 OA
ENDBRANCH   2  16
TORSDOF 2
ENDMDL
MODEL 3
REMARK VINA RESULT: -6.329382119      1.458      3.324
REMARK  2 active torsions:
REMARK  status: ('A' for Active; 'I' for Inactive)
REMARK    1  A    between atoms: N1_1  and  C1_4 
REMARK    2  A    between atoms: C2_5  and  N2_6 
ROOT
HETATM    1  C1  UNL     1      20.617 124.218  -7.994  1.00  0.00     0.131 C 
HETATM    2  C2  UNL     1      20.511 125.551  -8.371  1.00  0.00     0.175 C 
HETATM    3  C3  UNL     1      21.465 126.315  -9.019  1.00  0.00     0.156 C 
HETATM    4  N3  UNL     1      21.230 127.708  -8.937  1.00  0.00    -0.080 NA
HETATM    5  N4  UNL     1      22.566 125.905  -9.699  1.00  0.00    -0.295 N 
ATOM      6  H4  UNL     1      23.019 126.612 -10.278  1.00  0.00     0.172 HD
HETATM    7  C4  UNL     1      23.141 124.678  -9.708  1.00  0.00     0.328 C 
HETATM    8  O3  UNL     1      23.980 124.470 -10.619  1.00  0.00    -0.247 OA
HETATM    9  N5  UNL     1      22.879 123.683  -8.828  1.00  0.00    -0.274 N 
ATOM     10  H5  UNL     1      23.637 123.013  -8.705  1.00  0.00     0.173 HD
HETATM   11  C5  UNL     1      21.761 123.427  -8.076  1.00  0.00     0.278 C 
HETATM   12  O4  UNL     1      21.758 122.398  -7.404  1.00  0.00    -0.265 OA
ENDROOT
BRANCH   1  13
HETATM   13  N1  UNL     1      19.561 123.648  -7.542  1.00  0.00    -0.393 N 
ATOM     14  H12 UNL     1      19.634 123.224  -6.618  1.00  0.00     0.156 HD
ATOM     15  H11 UNL     1      18.736 123.650  -8.141  1.00  0.00     0.156 HD
ENDBRANCH   1  13
BRANCH   2  16
HETATM   16  N2  UNL     1      19.305 126.233  -8.081  1.00  0.00    -0.110 N 
HETATM   17  O1  UNL     1      19.055 126.766  -7.004  1.00  0.00    -0.532 OA
HETATM   18  O2  UNL     1      18.369 126.287  -9.083  1.00  0.00    -0.532 OA
ENDBRANCH   2  16
TORSDOF 2
ENDMDL
MODEL 4
REMARK VINA RESULT: -6.208235091      2.020      4.081
REMARK  2 active torsions:
REMARK  status: ('A' for Active; 'I' for Inactive)
REMARK    1  A    between atoms: N1_1  and  C1_4 
REMARK    2  A    between atoms: C2_5  and  N2_6 
ROOT
HETATM    1  C1  UNL     1      21.359 126.061  -8.894  1.00  0.00     0.131 C 
HETATM    2  C2  UNL     1      21.157 124.803  -8.340  1.00  0.00     0.175 C 
HETATM    3  C3  UNL     1      20.042 124.365  -7.647  1.00  0.00     0.156 C 
HETATM    4  N3  UNL     1      20.268 123.189  -6.892  1.00  0.00    -0.080 NA
HETATM    5  N4  UNL     1      18.799 124.909  -7.602  1.00  0.00    -0.295 N 
ATOM      6  H4  UNL     1      18.069 124.316  -7.205  1.00  0.00     0.172 HD
HETATM    7  C4  UNL     1      18.402 126.136  -8.017  1.00  0.00     0.328 C 
HETATM    8  O3  UNL     1      17.162 126.307  -8.124  1.00  0.00    -0.247 OA
HETATM    9  N5  UNL     1      19.227 127.166  -8.319  1.00  0.00    -0.274 N 
ATOM     10  H5  UNL     1      18.809 128.090  -8.215  1.00  0.00     0.173 HD
HETATM   11  C5  UNL     1      20.530 127.171  -8.743  1.00  0.00     0.278 C 
HETATM   12  O4  UNL     1      21.028 128.261  -9.022  1.00  0.00    -0.265 OA
ENDROOT
BRANCH   1  13
HETATM   13  N1  UNL     1      22.396 126.219  -9.631  1.00  0.00    -0.393 N 
ATOM     14  H12 UNL     1      23.167 126.747  -9.222  1.00  0.00     0.156 HD
ATOM     15  H11 UNL     1      22.369 125.821 -10.569  1.00  0.00     0.156 HD
ENDBRANCH   1  13
BRANCH   2  16
HETATM   16  N2  UNL     1      22.180 123.836  -8.485  1.00  0.00    -0.110 N 
HETATM   17  O1  UNL     1      22.129 122.888  -9.263  1.00  0.00    -0.532 OA
HETATM   18  O2  UNL     1      23.289 123.987  -7.692  1.00  0.00    -0.532 OA
ENDBRANCH   2  16
TORSDOF 2
ENDMDL
MODEL 5
REMARK VINA RESULT: -6.126013112      1.045      1.353
REMARK  2 active torsions:
REMARK  status: ('A' for Active; 'I' for Inactive)
REMARK    1  A    between atoms: N1_1  and  C1_4 
REMARK    2  A    between atoms: C2_5  and  N2_6 
ROOT
HETATM    1  C1  UNL     1      21.842 125.012  -9.389  1.00  0.00     0.131 C 
HETATM    2  C2  UNL     1      20.854 125.562  -8.584  1.00  0.00     0.175 C 
HETATM    3  C3  UNL     1      19.957 124.882  -7.778  1.00  0.00     0.156 C 
HETATM    4  N3  UNL     1      18.848 125.664  -7.376  1.00  0.00    -0.080 NA
HETATM    5  N4  UNL     1      20.009 123.598  -7.343  1.00  0.00    -0.295 N 
ATOM      6  H4  UNL     1      19.363 123.358  -6.590  1.00  0.00     0.172 HD
HETATM    7  C4  UNL     1      20.807 122.593  -7.778  1.00  0.00     0.328 C 
HETATM    8  O3  UNL     1      20.864 121.577  -7.042  1.00  0.00    -0.247 OA
HETATM    9  N5  UNL     1      21.531 122.607  -8.921  1.00  0.00    -0.274 N 
ATOM     10  H5  UNL     1      21.736 121.686  -9.307  1.00  0.00     0.173 HD
HETATM   11  C5  UNL     1      22.036 123.656  -9.645  1.00  0.00     0.278 C 
HETATM   12  O4  UNL     1      22.734 123.384 -10.621  1.00  0.00    -0.265 OA
ENDROOT
BRANCH   1  13
HETATM   13  N1  UNL     1      22.671 125.821  -9.939  1.00  0.00    -0.393 N 
ATOM     14  H12 UNL     1      23.588 125.899  -9.501  1.00  0.00     0.156 HD
ATOM     15  H11 UNL     1      22.349 126.333 -10.760  1.00  0.00     0.156 HD
ENDBRANCH   1  13
BRANCH   2  16
HETATM   16  N2  UNL     1      20.722 126.971  -8.555  1.00  0.00    -0.110 N 
HETATM   17  O1  UNL     1      21.265 127.699  -7.728  1.00  0.00    -0.532 OA
HETATM   18  O2  UNL     1      19.929 127.538  -9.520  1.00  0.00    -0.532 OA
ENDBRANCH   2  16
TORSDOF 2
ENDMDL
