MODEL 1
REMARK VINA RESULT: -3.946551205      0.000      0.000
REMARK  3 active torsions:
REMARK  status: ('A' for Active; 'I' for Inactive)
REMARK    1  A    between atoms: C2_2  and  C3_3 
REMARK    2  A    between atoms: C3_3  and  N1_4 
REMARK    3  A    between atoms: N1_4  and  C4_6 
ROOT
HETATM    1  N1  UNL     1      58.763  68.242  37.796  1.00  0.00    -0.383 N 
ATOM      2  H1  UNL     1      58.111  68.921  37.403  1.00  0.00     0.160 HD
ENDROOT
BRANCH   1   3
HETATM    3  C3  UNL     1      58.291  67.115  38.577  1.00  0.00     0.147 C 
BRANCH   3   4
HETATM    4  C2  UNL     1      59.487  66.360  39.020  1.00  0.00    -0.018 C 
HETATM    5  C1  UNL     1      59.545  65.609  40.083  1.00  0.00     0.008 C 
ENDBRANCH   3   4
ENDBRANCH   1   3
BRANCH   1   6
HETATM    6  C4  UNL     1      60.154  68.368  37.595  1.00  0.00     0.171 C 
HETATM    7  N2  UNL     1      60.671  69.550  37.356  1.00  0.00    -0.391 N 
HETATM    8  C5  UNL     1      59.796  70.691  37.307  1.00  0.00     0.147 C 
ATOM      9  H2  UNL     1      61.674  69.657  37.208  1.00  0.00     0.159 HD
ENDBRANCH   1   6
TORSDOF 3
ENDMDL
MODEL 2
REMARK VINA RESULT: -3.911026194      1.363      4.137
REMARK  3 active torsions:
REMARK  status: ('A' for Active; 'I' for Inactive)
REMARK    1  A    between atoms: C2_2  and  C3_3 
REMARK    2  A    between atoms: C3_3  and  N1_4 
REMARK    3  A    between atoms: N1_4  and  C4_6 
ROOT
HETATM    1  N1  UNL     1      59.678  69.287  37.386  1.00  0.00    -0.383 N 
ATOM      2  H1  UNL     1      58.688  69.259  37.140  1.00  0.00     0.160 HD
ENDROOT
BRANCH   1   3
HETATM    3  C3  UNL     1      60.421  70.532  37.361  1.00  0.00     0.147 C 
BRANCH   3   4
HETATM    4  C2  UNL     1      59.450  71.614  37.079  1.00  0.00    -0.018 C 
HETATM    5  C1  UNL     1      58.154  71.484  37.117  1.00  0.00     0.008 C 
ENDBRANCH   3   4
ENDBRANCH   1   3
BRANCH   1   6
HETATM    6  C4  UNL     1      60.367  68.114  37.762  1.00  0.00     0.171 C 
HETATM    7  N2  UNL     1      59.709  67.121  38.308  1.00  0.00    -0.391 N 
HETATM    8  C5  UNL     1      58.291  67.257  38.508  1.00  0.00     0.147 C 
ATOM      9  H2  UNL     1      60.193  66.267  38.586  1.00  0.00     0.159 HD
ENDBRANCH   1   6
TORSDOF 3
ENDMDL
MODEL 3
REMARK VINA RESULT: -3.895905235      1.178      1.930
REMARK  3 active torsions:
REMARK  status: ('A' for Active; 'I' for Inactive)
REMARK    1  A    between atoms: C2_2  and  C3_3 
REMARK    2  A    between atoms: C3_3  and  N1_4 
REMARK    3  A    between atoms: N1_4  and  C4_6 
ROOT
HETATM    1  N1  UNL     1      59.843  69.132  37.431  1.00  0.00    -0.383 N 
ATOM      2  H1  UNL     1      58.852  69.184  37.196  1.00  0.00     0.160 HD
ENDROOT
BRANCH   1   3
HETATM    3  C3  UNL     1      60.456  67.876  37.818  1.00  0.00     0.147 C 
BRANCH   3   4
HETATM    4  C2  UNL     1      59.425  67.092  38.538  1.00  0.00    -0.018 C 
HETATM    5  C1  UNL     1      58.143  67.318  38.487  1.00  0.00     0.008 C 
ENDBRANCH   3   4
ENDBRANCH   1   3
BRANCH   1   6
HETATM    6  C4  UNL     1      60.662  70.280  37.390  1.00  0.00     0.171 C 
HETATM    7  N2  UNL     1      60.116  71.462  37.230  1.00  0.00    -0.391 N 
HETATM    8  C5  UNL     1      58.687  71.553  37.101  1.00  0.00     0.147 C 
ATOM      9  H2  UNL     1      60.695  72.301  37.197  1.00  0.00     0.159 HD
ENDBRANCH   1   6
TORSDOF 3
ENDMDL
MODEL 4
REMARK VINA RESULT: -3.842011089      1.093      4.130
REMARK  3 active torsions:
REMARK  status: ('A' for Active; 'I' for Inactive)
REMARK    1  A    between atoms: C2_2  and  C3_3 
REMARK    2  A    between atoms: C3_3  and  N1_4 
REMARK    3  A    between atoms: N1_4  and  C4_6 
ROOT
HETATM    1  N1  UNL     1      60.011  68.085  37.671  1.00  0.00    -0.383 N 
ATOM      2  H1  UNL     1      60.617  67.265  37.694  1.00  0.00     0.160 HD
ENDROOT
BRANCH   1   3
HETATM    3  C3  UNL     1      60.533  69.392  37.318  1.00  0.00     0.147 C 
BRANCH   3   4
HETATM    4  C2  UNL     1      59.391  70.336  37.335  1.00  0.00    -0.018 C 
HETATM    5  C1  UNL     1      59.472  71.611  37.081  1.00  0.00     0.008 C 
ENDBRANCH   3   4
ENDBRANCH   1   3
BRANCH   1   6
HETATM    6  C4  UNL     1      58.639  67.986  37.983  1.00  0.00     0.171 C 
HETATM    7  N2  UNL     1      58.223  67.041  38.792  1.00  0.00    -0.391 N 
HETATM    8  C5  UNL     1      59.189  66.127  39.343  1.00  0.00     0.147 C 
ATOM      9  H2  UNL     1      57.235  66.955  39.027  1.00  0.00     0.159 HD
ENDBRANCH   1   6
TORSDOF 3
ENDMDL
MODEL 5
REMARK VINA RESULT: -3.645182355      4.343      5.462
REMARK  3 active torsions:
REMARK  status: ('A' for Active; 'I' for Inactive)
REMARK    1  A    between atoms: C2_2  and  C3_3 
REMARK    2  A    between atoms: C3_3  and  N1_4 
REMARK    3  A    between atoms: N1_4  and  C4_6 
ROOT
HETATM    1  N1  UNL     1      56.802  71.963  36.243  1.00  0.00    -0.383 N 
ATOM      2  H1  UNL     1      55.809  71.752  36.147  1.00  0.00     0.160 HD
ENDROOT
BRANCH   1   3
HETATM    3  C3  UNL     1      57.626  71.268  37.213  1.00  0.00     0.147 C 
BRANCH   3   4
HETATM    4  C2  UNL     1      59.017  71.740  37.022  1.00  0.00    -0.018 C 
HETATM    5  C1  UNL     1      60.086  71.034  37.262  1.00  0.00     0.008 C 
ENDBRANCH   3   4
ENDBRANCH   1   3
BRANCH   1   6
HETATM    6  C4  UNL     1      57.420  72.942  35.435  1.00  0.00     0.171 C 
HETATM    7  N2  UNL     1      57.056  73.073  34.182  1.00  0.00    -0.391 N 
HETATM    8  C5  UNL     1      56.029  72.209  33.665  1.00  0.00     0.147 C 
ATOM      9  H2  UNL     1      57.493  73.775  33.585  1.00  0.00     0.159 HD
ENDBRANCH   1   6
TORSDOF 3
ENDMDL
