MODEL 1
REMARK VINA RESULT: -4.498767792      0.000      0.000
REMARK  3 active torsions:
REMARK  status: ('A' for Active; 'I' for Inactive)
REMARK    1  A    between atoms: C2_2  and  C3_3 
REMARK    2  A    between atoms: C3_3  and  C4_4 
REMARK    3  A    between atoms: N1_5  and  N2_7 
ROOT
HETATM    1  C4  UNL     1      52.192  73.450  38.506  1.00  0.00     0.162 C 
HETATM    2  N1  UNL     1      53.247  74.170  38.077  1.00  0.00    -0.309 N 
ATOM      3  H1  UNL     1      53.991  73.794  37.490  1.00  0.00     0.186 HD
ENDROOT
BRANCH   2   4
HETATM    4  N2  UNL     1      53.206  75.443  38.511  1.00  0.00    -0.341 N 
HETATM    5  C5  UNL     1      52.042  76.318  38.446  1.00  0.00     0.167 C 
ATOM      6  H2  UNL     1      54.059  75.827  38.919  1.00  0.00     0.179 HD
ENDBRANCH   2   4
BRANCH   1   7
HETATM    7  C3  UNL     1      51.963  72.499  39.286  1.00  0.00    -0.111 C 
BRANCH   7   8
HETATM    8  C2  UNL     1      51.728  71.519  40.090  1.00  0.00     0.047 C 
HETATM    9  C1  UNL     1      52.774  70.838  40.677  1.00  0.00     0.020 C 
ENDBRANCH   7   8
ENDBRANCH   1   7
TORSDOF 3
ENDMDL
MODEL 2
REMARK VINA RESULT: -4.229883963      8.264      9.323
REMARK  3 active torsions:
REMARK  status: ('A' for Active; 'I' for Inactive)
REMARK    1  A    between atoms: C2_2  and  C3_3 
REMARK    2  A    between atoms: C3_3  and  C4_4 
REMARK    3  A    between atoms: N1_5  and  N2_7 
ROOT
HETATM    1  C4  UNL     1      60.655  69.498  37.461  1.00  0.00     0.162 C 
HETATM    2  N1  UNL     1      60.671  68.211  37.063  1.00  0.00    -0.309 N 
ATOM      3  H1  UNL     1      60.897  67.912  36.114  1.00  0.00     0.186 HD
ENDROOT
BRANCH   2   4
HETATM    4  N2  UNL     1      60.353  67.365  38.060  1.00  0.00    -0.341 N 
HETATM    5  C5  UNL     1      59.005  67.113  38.552  1.00  0.00     0.167 C 
ATOM      6  H2  UNL     1      61.118  66.859  38.507  1.00  0.00     0.179 HD
ENDBRANCH   2   4
BRANCH   1   7
HETATM    7  C3  UNL     1      59.981  70.533  37.259  1.00  0.00    -0.111 C 
BRANCH   7   8
HETATM    8  C2  UNL     1      59.286  71.599  37.051  1.00  0.00     0.047 C 
HETATM    9  C1  UNL     1      57.908  71.535  37.041  1.00  0.00     0.020 C 
ENDBRANCH   7   8
ENDBRANCH   1   7
TORSDOF 3
ENDMDL
MODEL 3
REMARK VINA RESULT: -4.103876768      6.723      7.171
REMARK  3 active torsions:
REMARK  status: ('A' for Active; 'I' for Inactive)
REMARK    1  A    between atoms: C2_2  and  C3_3 
REMARK    2  A    between atoms: C3_3  and  C4_4 
REMARK    3  A    between atoms: N1_5  and  N2_7 
ROOT
HETATM    1  C4  UNL     1      58.493  71.841  37.162  1.00  0.00     0.162 C 
HETATM    2  N1  UNL     1      57.176  71.587  37.033  1.00  0.00    -0.309 N 
ATOM      3  H1  UNL     1      56.606  71.158  37.762  1.00  0.00     0.186 HD
ENDROOT
BRANCH   2   4
HETATM    4  N2  UNL     1      56.699  71.963  35.832  1.00  0.00    -0.341 N 
HETATM    5  C5  UNL     1      55.443  72.669  35.609  1.00  0.00     0.167 C 
ATOM      6  H2  UNL     1      57.262  71.736  35.012  1.00  0.00     0.179 HD
ENDBRANCH   2   4
BRANCH   1   7
HETATM    7  C3  UNL     1      59.565  71.203  37.254  1.00  0.00    -0.111 C 
BRANCH   7   8
HETATM    8  C2  UNL     1      60.670  70.545  37.348  1.00  0.00     0.047 C 
HETATM    9  C1  UNL     1      60.659  69.165  37.319  1.00  0.00     0.020 C 
ENDBRANCH   7   8
ENDBRANCH   1   7
TORSDOF 3
ENDMDL
MODEL 4
REMARK VINA RESULT: -4.033013305      7.642      8.286
REMARK  3 active torsions:
REMARK  status: ('A' for Active; 'I' for Inactive)
REMARK    1  A    between atoms: C2_2  and  C3_3 
REMARK    2  A    between atoms: C3_3  and  C4_4 
REMARK    3  A    between atoms: N1_5  and  N2_7 
ROOT
HETATM    1  C4  UNL     1      60.548  69.807  37.273  1.00  0.00     0.162 C 
HETATM    2  N1  UNL     1      60.671  71.071  37.722  1.00  0.00    -0.309 N 
ATOM      3  H1  UNL     1      61.254  71.339  38.514  1.00  0.00     0.186 HD
ENDROOT
BRANCH   2   4
HETATM    4  N2  UNL     1      59.935  71.941  37.005  1.00  0.00    -0.341 N 
HETATM    5  C5  UNL     1      58.481  72.027  37.022  1.00  0.00     0.167 C 
ATOM      6  H2  UNL     1      60.437  72.592  36.400  1.00  0.00     0.179 HD
ENDBRANCH   2   4
BRANCH   1   7
HETATM    7  C3  UNL     1      60.061  68.720  37.657  1.00  0.00    -0.111 C 
BRANCH   7   8
HETATM    8  C2  UNL     1      59.560  67.600  38.054  1.00  0.00     0.047 C 
HETATM    9  C1  UNL     1      58.217  67.510  38.355  1.00  0.00     0.020 C 
ENDBRANCH   7   8
ENDBRANCH   1   7
TORSDOF 3
ENDMDL
MODEL 5
REMARK VINA RESULT: -3.718648905      7.198      7.692
REMARK  3 active torsions:
REMARK  status: ('A' for Active; 'I' for Inactive)
REMARK    1  A    between atoms: C2_2  and  C3_3 
REMARK    2  A    between atoms: C3_3  and  C4_4 
REMARK    3  A    between atoms: N1_5  and  N2_7 
ROOT
HETATM    1  C4  UNL     1      59.867  71.619  37.129  1.00  0.00     0.162 C 
HETATM    2  N1  UNL     1      58.859  72.393  37.577  1.00  0.00    -0.309 N 
ATOM      3  H1  UNL     1      58.754  72.681  38.550  1.00  0.00     0.186 HD
ENDROOT
BRANCH   2   4
HETATM    4  N2  UNL     1      58.008  72.742  36.596  1.00  0.00    -0.341 N 
HETATM    5  C5  UNL     1      56.821  71.992  36.204  1.00  0.00     0.167 C 
ATOM      6  H2  UNL     1      58.209  73.602  36.085  1.00  0.00     0.179 HD
ENDBRANCH   2   4
BRANCH   1   7
HETATM    7  C3  UNL     1      60.262  70.438  37.243  1.00  0.00    -0.111 C 
BRANCH   7   8
HETATM    8  C2  UNL     1      60.671  69.220  37.361  1.00  0.00     0.047 C 
HETATM    9  C1  UNL     1      59.801  68.236  37.782  1.00  0.00     0.020 C 
ENDBRANCH   7   8
ENDBRANCH   1   7
TORSDOF 3
ENDMDL
