MODEL 1
REMARK VINA RESULT: -9.212706572      0.000      0.000
REMARK  17 active torsions:
REMARK  status: ('A' for Active; 'I' for Inactive)
REMARK    1  A    between atoms: C2_2  and  C4_4 
REMARK    2  A    between atoms: C4_4  and  N1_5 
REMARK    3  A    between atoms: C4_4  and  C5_9 
REMARK    4  A    between atoms: C7_12  and  N2_13 
REMARK       I    between atoms: N2_13  and  C8_15 
REMARK    5  A    between atoms: C8_15  and  C9_17 
REMARK    6  A    between atoms: C9_17  and  N3_18 
REMARK    7  A    between atoms: C9_17  and  C10_22 
REMARK    8  A    between atoms: C10_22  and  C11_23 
REMARK    9  A    between atoms: C11_23  and  C12_24 
REMARK   10  A    between atoms: C12_24  and  N4_25 
REMARK   11  A    between atoms: C16_32  and  O3_33 
REMARK   12  A    between atoms: O3_33  and  C17_34 
REMARK   13  A    between atoms: C17_34  and  C18_35 
REMARK   14  A    between atoms: C18_35  and  C19_36 
REMARK   15  A    between atoms: C18_35  and  C20_41 
REMARK   16  A    between atoms: C19_36  and  N7_37 
REMARK   17  A    between atoms: C20_41  and  C21_42 
ROOT
HETATM    1  C5  UNL     1     -14.935 -10.562  23.145  1.00  0.00     0.117 C 
HETATM    2  C6  UNL     1     -14.377  -9.718  22.085  1.00  0.00     0.158 C 
HETATM    3  O1  UNL     1     -13.226  -9.790  21.650  1.00  0.00    -0.295 OA
HETATM    4  C7  UNL     1     -15.220  -8.664  21.449  1.00  0.00     0.154 C 
HETATM    5  C14 UNL     1     -16.629  -9.189  21.463  1.00  0.00     0.035 C 
HETATM    6  C15 UNL     1     -17.083  -9.293  22.867  1.00  0.00     0.035 C 
HETATM    7  C16 UNL     1     -16.052  -9.761  23.880  1.00  0.00     0.134 C 
ENDROOT
BRANCH   7   8
HETATM    8  O3  UNL     1     -15.667  -8.826  24.626  1.00  0.00    -0.385 OA
BRANCH   8   9
HETATM    9  C17 UNL     1     -15.258  -7.915  25.351  1.00  0.00     0.174 C 
BRANCH   9  10
HETATM   10  C18 UNL     1     -13.983  -8.211  26.184  1.00  0.00     0.039 C 
BRANCH  10  11
HETATM   11  C19 UNL     1     -12.953  -7.139  25.967  1.00  0.00     0.236 C 
BRANCH  11  12
HETATM   12  N7  UNL     1     -11.870  -7.491  25.109  1.00  0.00    -0.079 N 
ATOM     13  H73 UNL     1     -11.339  -8.261  25.516  1.00  0.00     0.274 HD
ATOM     14  H72 UNL     1     -12.225  -7.941  24.266  1.00  0.00     0.274 HD
ATOM     15  H71 UNL     1     -11.241  -6.728  24.858  1.00  0.00     0.274 HD
ENDBRANCH  11  12
ENDBRANCH  10  11
BRANCH  10  16
HETATM   16  C20 UNL     1     -14.357  -8.332  27.647  1.00  0.00     0.049 C 
BRANCH  16  17
HETATM   17  C21 UNL     1     -15.132  -9.574  27.896  1.00  0.00    -0.030 A 
HETATM   18  C22 UNL     1     -14.561 -10.839  27.757  1.00  0.00     0.096 A 
HETATM   19  N8  UNL     1     -15.475 -11.783  28.033  1.00  0.00    -0.365 N 
HETATM   20  C23 UNL     1     -16.647 -11.166  28.355  1.00  0.00     0.042 A 
ATOM     21  H8  UNL     1     -15.320 -12.791  28.006  1.00  0.00     0.165 HD
HETATM   22  C24 UNL     1     -17.876 -11.688  28.714  1.00  0.00     0.030 A 
HETATM   23  C28 UNL     1     -16.421  -9.794  28.266  1.00  0.00    -0.002 A 
HETATM   24  C25 UNL     1     -18.881 -10.794  28.984  1.00  0.00     0.002 A 
HETATM   25  C26 UNL     1     -18.672  -9.431  28.900  1.00  0.00     0.001 A 
HETATM   26  C27 UNL     1     -17.437  -8.905  28.540  1.00  0.00     0.014 A 
ENDBRANCH  16  17
ENDBRANCH  10  16
ENDBRANCH   9  10
ENDBRANCH   8   9
ENDBRANCH   7   8
BRANCH   1  27
HETATM   27  C4  UNL     1     -15.429 -11.875  22.719  1.00  0.00     0.200 C 
BRANCH  27  28
HETATM   28  C2  UNL     1     -14.754 -12.653  21.658  1.00  0.00     0.009 C 
HETATM   29  C1  UNL     1     -13.536 -13.419  21.956  1.00  0.00     0.011 C 
HETATM   30  C3  UNL     1     -15.754 -13.652  21.014  1.00  0.00     0.011 C 
ENDBRANCH  27  28
BRANCH  27  31
HETATM   31  N1  UNL     1     -15.264 -12.821  23.916  1.00  0.00    -0.074 N 
ATOM     32  H13 UNL     1     -14.915 -13.753  23.695  1.00  0.00     0.274 HD
ATOM     33  H12 UNL     1     -14.503 -12.593  24.556  1.00  0.00     0.274 HD
ATOM     34  H11 UNL     1     -16.201 -12.786  24.318  1.00  0.00     0.274 HD
ENDBRANCH  27  31
ENDBRANCH   1  27
BRANCH   4  35
HETATM   35  N2  UNL     1     -14.751  -8.333  20.131  1.00  0.00    -0.348 N 
HETATM   36  C8  UNL     1     -14.298  -7.039  19.764  1.00  0.00     0.248 C 
HETATM   37  O2  UNL     1     -14.326  -6.156  20.683  1.00  0.00    -0.271 OA
ATOM     38  H2  UNL     1     -14.744  -9.067  19.422  1.00  0.00     0.163 HD
BRANCH  36  39
HETATM   39  C9  UNL     1     -13.810  -6.646  18.438  1.00  0.00     0.274 C 
BRANCH  39  40
HETATM   40  N3  UNL     1     -14.587  -7.113  17.331  1.00  0.00    -0.067 N 
ATOM     41  H33 UNL     1     -15.475  -7.491  17.663  1.00  0.00     0.275 HD
ATOM     42  H32 UNL     1     -14.921  -6.321  16.781  1.00  0.00     0.275 HD
ATOM     43  H31 UNL     1     -14.126  -7.790  16.723  1.00  0.00     0.275 HD
ENDBRANCH  39  40
BRANCH  39  44
HETATM   44  C10 UNL     1     -13.520  -5.173  18.375  1.00  0.00     0.044 C 
BRANCH  44  45
HETATM   45  C11 UNL     1     -12.301  -4.789  17.619  1.00  0.00     0.022 C 
BRANCH  45  46
HETATM   46  C12 UNL     1     -12.486  -4.479  16.171  1.00  0.00     0.122 C 
BRANCH  46  47
HETATM   47  N4  UNL     1     -13.328  -3.336  15.924  1.00  0.00    -0.367 N 
HETATM   48  C13 UNL     1     -14.557  -3.437  15.523  1.00  0.00     0.196 C 
HETATM   49  N5  UNL     1     -15.303  -2.266  15.307  1.00  0.00    -0.067 NA
HETATM   50  N6  UNL     1     -15.122  -4.721  15.310  1.00  0.00    -0.067 NA
ATOM     51  H4  UNL     1     -12.939  -2.404  16.072  1.00  0.00     0.161 HD
ENDBRANCH  46  47
ENDBRANCH  45  46
ENDBRANCH  44  45
ENDBRANCH  39  44
ENDBRANCH  36  39
ENDBRANCH   4  35
TORSDOF 17
ENDMDL
MODEL 2
REMARK VINA RESULT: -9.042174802      1.398      1.911
REMARK  17 active torsions:
REMARK  status: ('A' for Active; 'I' for Inactive)
REMARK    1  A    between atoms: C2_2  and  C4_4 
REMARK    2  A    between atoms: C4_4  and  N1_5 
REMARK    3  A    between atoms: C4_4  and  C5_9 
REMARK    4  A    between atoms: C7_12  and  N2_13 
REMARK       I    between atoms: N2_13  and  C8_15 
REMARK    5  A    between atoms: C8_15  and  C9_17 
REMARK    6  A    between atoms: C9_17  and  N3_18 
REMARK    7  A    between atoms: C9_17  and  C10_22 
REMARK    8  A    between atoms: C10_22  and  C11_23 
REMARK    9  A    between atoms: C11_23  and  C12_24 
REMARK   10  A    between atoms: C12_24  and  N4_25 
REMARK   11  A    between atoms: C16_32  and  O3_33 
REMARK   12  A    between atoms: O3_33  and  C17_34 
REMARK   13  A    between atoms: C17_34  and  C18_35 
REMARK   14  A    between atoms: C18_35  and  C19_36 
REMARK   15  A    between atoms: C18_35  and  C20_41 
REMARK   16  A    between atoms: C19_36  and  N7_37 
REMARK   17  A    between atoms: C20_41  and  C21_42 
ROOT
HETATM    1  C5  UNL     1     -14.906 -10.555  23.133  1.00  0.00     0.117 C 
HETATM    2  C6  UNL     1     -14.296  -9.737  22.082  1.00  0.00     0.158 C 
HETATM    3  O1  UNL     1     -13.132  -9.837  21.688  1.00  0.00    -0.295 OA
HETATM    4  C7  UNL     1     -15.097  -8.676  21.404  1.00  0.00     0.154 C 
HETATM    5  C14 UNL     1     -16.515  -9.173  21.377  1.00  0.00     0.035 C 
HETATM    6  C15 UNL     1     -17.018  -9.249  22.766  1.00  0.00     0.035 C 
HETATM    7  C16 UNL     1     -16.032  -9.724  23.819  1.00  0.00     0.134 C 
ENDROOT
BRANCH   7   8
HETATM    8  O3  UNL     1     -15.654  -8.786  24.566  1.00  0.00    -0.385 OA
BRANCH   8   9
HETATM    9  C17 UNL     1     -15.285  -7.884  25.324  1.00  0.00     0.174 C 
BRANCH   9  10
HETATM   10  C18 UNL     1     -14.017  -8.167  26.172  1.00  0.00     0.039 C 
BRANCH  10  11
HETATM   11  C19 UNL     1     -12.993  -7.087  25.962  1.00  0.00     0.236 C 
BRANCH  11  12
HETATM   12  N7  UNL     1     -11.881  -7.443  25.144  1.00  0.00    -0.079 N 
ATOM     13  H73 UNL     1     -12.155  -7.436  24.161  1.00  0.00     0.274 HD
ATOM     14  H72 UNL     1     -11.192  -6.692  25.145  1.00  0.00     0.274 HD
ATOM     15  H71 UNL     1     -11.431  -8.329  25.374  1.00  0.00     0.274 HD
ENDBRANCH  11  12
ENDBRANCH  10  11
BRANCH  10  16
HETATM   16  C20 UNL     1     -14.405  -8.288  27.630  1.00  0.00     0.049 C 
BRANCH  16  17
HETATM   17  C21 UNL     1     -15.161  -9.542  27.877  1.00  0.00    -0.030 A 
HETATM   18  C22 UNL     1     -14.570 -10.798  27.743  1.00  0.00     0.096 A 
HETATM   19  N8  UNL     1     -15.471 -11.756  28.015  1.00  0.00    -0.365 N 
HETATM   20  C23 UNL     1     -16.654 -11.156  28.329  1.00  0.00     0.042 A 
ATOM     21  H8  UNL     1     -15.300 -12.761  27.991  1.00  0.00     0.165 HD
HETATM   22  C24 UNL     1     -17.877 -11.697  28.682  1.00  0.00     0.030 A 
HETATM   23  C28 UNL     1     -16.449  -9.781  28.239  1.00  0.00    -0.002 A 
HETATM   24  C25 UNL     1     -18.897 -10.819  28.944  1.00  0.00     0.002 A 
HETATM   25  C26 UNL     1     -18.710  -9.453  28.859  1.00  0.00     0.001 A 
HETATM   26  C27 UNL     1     -17.481  -8.908  28.505  1.00  0.00     0.014 A 
ENDBRANCH  16  17
ENDBRANCH  10  16
ENDBRANCH   9  10
ENDBRANCH   8   9
ENDBRANCH   7   8
BRANCH   1  27
HETATM   27  C4  UNL     1     -15.411 -11.865  22.708  1.00  0.00     0.200 C 
BRANCH  27  28
HETATM   28  C2  UNL     1     -14.716 -12.670  21.680  1.00  0.00     0.009 C 
HETATM   29  C1  UNL     1     -13.530 -13.463  22.032  1.00  0.00     0.011 C 
HETATM   30  C3  UNL     1     -15.716 -13.649  21.007  1.00  0.00     0.011 C 
ENDBRANCH  27  28
BRANCH  27  31
HETATM   31  N1  UNL     1     -15.305 -12.798  23.922  1.00  0.00    -0.074 N 
ATOM     32  H13 UNL     1     -15.345 -13.795  23.715  1.00  0.00     0.274 HD
ATOM     33  H12 UNL     1     -14.387 -12.838  24.367  1.00  0.00     0.274 HD
ATOM     34  H11 UNL     1     -16.061 -12.438  24.505  1.00  0.00     0.274 HD
ENDBRANCH  27  31
ENDBRANCH   1  27
BRANCH   4  35
HETATM   35  N2  UNL     1     -14.577  -8.372  20.099  1.00  0.00    -0.348 N 
HETATM   36  C8  UNL     1     -14.172  -7.071  19.702  1.00  0.00     0.248 C 
HETATM   37  O2  UNL     1     -14.294  -6.156  20.580  1.00  0.00    -0.271 OA
ATOM     38  H2  UNL     1     -14.494  -9.132  19.422  1.00  0.00     0.163 HD
BRANCH  36  39
HETATM   39  C9  UNL     1     -13.637  -6.704  18.386  1.00  0.00     0.274 C 
BRANCH  39  40
HETATM   40  N3  UNL     1     -14.326  -7.259  17.262  1.00  0.00    -0.067 N 
ATOM     41  H33 UNL     1     -13.676  -7.396  16.488  1.00  0.00     0.275 HD
ATOM     42  H32 UNL     1     -14.584  -8.227  17.455  1.00  0.00     0.275 HD
ATOM     43  H31 UNL     1     -15.142  -6.737  16.944  1.00  0.00     0.275 HD
ENDBRANCH  39  40
BRANCH  39  44
HETATM   44  C10 UNL     1     -13.425  -5.221  18.275  1.00  0.00     0.044 C 
BRANCH  44  45
HETATM   45  C11 UNL     1     -12.113  -4.797  17.723  1.00  0.00     0.022 C 
BRANCH  45  46
HETATM   46  C12 UNL     1     -10.979  -5.752  17.894  1.00  0.00     0.122 C 
BRANCH  46  47
HETATM   47  N4  UNL     1     -10.200  -5.951  16.699  1.00  0.00    -0.367 N 
HETATM   48  C13 UNL     1     -10.264  -7.033  15.986  1.00  0.00     0.196 C 
HETATM   49  N5  UNL     1      -9.466  -7.139  14.835  1.00  0.00    -0.067 NA
HETATM   50  N6  UNL     1     -11.133  -8.083  16.381  1.00  0.00    -0.067 NA
ATOM     51  H4  UNL     1      -9.570  -5.207  16.400  1.00  0.00     0.161 HD
ENDBRANCH  46  47
ENDBRANCH  45  46
ENDBRANCH  44  45
ENDBRANCH  39  44
ENDBRANCH  36  39
ENDBRANCH   4  35
TORSDOF 17
ENDMDL
MODEL 3
REMARK VINA RESULT: -9.033480319      0.986      1.469
REMARK  17 active torsions:
REMARK  status: ('A' for Active; 'I' for Inactive)
REMARK    1  A    between atoms: C2_2  and  C4_4 
REMARK    2  A    between atoms: C4_4  and  N1_5 
REMARK    3  A    between atoms: C4_4  and  C5_9 
REMARK    4  A    between atoms: C7_12  and  N2_13 
REMARK       I    between atoms: N2_13  and  C8_15 
REMARK    5  A    between atoms: C8_15  and  C9_17 
REMARK    6  A    between atoms: C9_17  and  N3_18 
REMARK    7  A    between atoms: C9_17  and  C10_22 
REMARK    8  A    between atoms: C10_22  and  C11_23 
REMARK    9  A    between atoms: C11_23  and  C12_24 
REMARK   10  A    between atoms: C12_24  and  N4_25 
REMARK   11  A    between atoms: C16_32  and  O3_33 
REMARK   12  A    between atoms: O3_33  and  C17_34 
REMARK   13  A    between atoms: C17_34  and  C18_35 
REMARK   14  A    between atoms: C18_35  and  C19_36 
REMARK   15  A    between atoms: C18_35  and  C20_41 
REMARK   16  A    between atoms: C19_36  and  N7_37 
REMARK   17  A    between atoms: C20_41  and  C21_42 
ROOT
HETATM    1  C5  UNL     1     -14.875 -10.577  23.089  1.00  0.00     0.117 C 
HETATM    2  C6  UNL     1     -14.244  -9.768  22.043  1.00  0.00     0.158 C 
HETATM    3  O1  UNL     1     -13.078  -9.883  21.660  1.00  0.00    -0.295 OA
HETATM    4  C7  UNL     1     -15.025  -8.699  21.355  1.00  0.00     0.154 C 
HETATM    5  C14 UNL     1     -16.448  -9.179  21.314  1.00  0.00     0.035 C 
HETATM    6  C15 UNL     1     -16.967  -9.246  22.698  1.00  0.00     0.035 C 
HETATM    7  C16 UNL     1     -15.997  -9.730  23.762  1.00  0.00     0.134 C 
ENDROOT
BRANCH   7   8
HETATM    8  O3  UNL     1     -15.615  -8.796  24.511  1.00  0.00    -0.385 OA
BRANCH   8   9
HETATM    9  C17 UNL     1     -15.249  -7.895  25.271  1.00  0.00     0.174 C 
BRANCH   9  10
HETATM   10  C18 UNL     1     -13.987  -8.181  26.127  1.00  0.00     0.039 C 
BRANCH  10  11
HETATM   11  C19 UNL     1     -12.951  -7.115  25.909  1.00  0.00     0.236 C 
BRANCH  11  12
HETATM   12  N7  UNL     1     -11.862  -7.478  25.063  1.00  0.00    -0.079 N 
ATOM     13  H73 UNL     1     -11.598  -8.449  25.232  1.00  0.00     0.274 HD
ATOM     14  H72 UNL     1     -12.179  -7.542  24.096  1.00  0.00     0.274 HD
ATOM     15  H71 UNL     1     -11.040  -6.878  25.121  1.00  0.00     0.274 HD
ENDBRANCH  11  12
ENDBRANCH  10  11
BRANCH  10  16
HETATM   16  C20 UNL     1     -14.382  -8.280  27.585  1.00  0.00     0.049 C 
BRANCH  16  17
HETATM   17  C21 UNL     1     -15.124  -9.539  27.851  1.00  0.00    -0.030 A 
HETATM   18  C22 UNL     1     -14.521 -10.790  27.724  1.00  0.00     0.096 A 
HETATM   19  N8  UNL     1     -15.410 -11.754  28.013  1.00  0.00    -0.365 N 
HETATM   20  C23 UNL     1     -16.596 -11.163  28.332  1.00  0.00     0.042 A 
ATOM     21  H8  UNL     1     -15.229 -12.758  27.997  1.00  0.00     0.165 HD
HETATM   22  C24 UNL     1     -17.811 -11.713  28.701  1.00  0.00     0.030 A 
HETATM   23  C28 UNL     1     -16.406  -9.787  28.227  1.00  0.00    -0.002 A 
HETATM   24  C25 UNL     1     -18.837 -10.842  28.964  1.00  0.00     0.002 A 
HETATM   25  C26 UNL     1     -18.664  -9.475  28.865  1.00  0.00     0.001 A 
HETATM   26  C27 UNL     1     -17.444  -8.922  28.494  1.00  0.00     0.014 A 
ENDBRANCH  16  17
ENDBRANCH  10  16
ENDBRANCH   9  10
ENDBRANCH   8   9
ENDBRANCH   7   8
BRANCH   1  27
HETATM   27  C4  UNL     1     -15.391 -11.881  22.661  1.00  0.00     0.200 C 
BRANCH  27  28
HETATM   28  C2  UNL     1     -14.704 -12.689  21.631  1.00  0.00     0.009 C 
HETATM   29  C1  UNL     1     -13.511 -13.475  21.974  1.00  0.00     0.011 C 
HETATM   30  C3  UNL     1     -15.707 -13.677  20.974  1.00  0.00     0.011 C 
ENDBRANCH  27  28
BRANCH  27  31
HETATM   31  N1  UNL     1     -15.291 -12.818  23.873  1.00  0.00    -0.074 N 
ATOM     32  H13 UNL     1     -15.183 -13.808  23.656  1.00  0.00     0.274 HD
ATOM     33  H12 UNL     1     -14.426 -12.752  24.410  1.00  0.00     0.274 HD
ATOM     34  H11 UNL     1     -16.142 -12.567  24.378  1.00  0.00     0.274 HD
ENDBRANCH  27  31
ENDBRANCH   1  27
BRANCH   4  35
HETATM   35  N2  UNL     1     -14.488  -8.404  20.054  1.00  0.00    -0.348 N 
HETATM   36  C8  UNL     1     -14.118  -7.098  19.638  1.00  0.00     0.248 C 
HETATM   37  O2  UNL     1     -14.289  -6.170  20.495  1.00  0.00    -0.271 OA
ATOM     38  H2  UNL     1     -14.366  -9.174  19.395  1.00  0.00     0.163 HD
BRANCH  36  39
HETATM   39  C9  UNL     1     -13.568  -6.740  18.327  1.00  0.00     0.274 C 
BRANCH  39  40
HETATM   40  N3  UNL     1     -12.651  -7.682  17.764  1.00  0.00    -0.067 N 
ATOM     41  H33 UNL     1     -12.801  -7.757  16.757  1.00  0.00     0.275 HD
ATOM     42  H32 UNL     1     -11.705  -7.299  17.778  1.00  0.00     0.275 HD
ATOM     43  H31 UNL     1     -12.657  -8.611  18.187  1.00  0.00     0.275 HD
ENDBRANCH  39  40
BRANCH  39  44
HETATM   44  C10 UNL     1     -14.652  -6.329  17.371  1.00  0.00     0.044 C 
BRANCH  44  45
HETATM   45  C11 UNL     1     -14.295  -5.247  16.419  1.00  0.00     0.022 C 
BRANCH  45  46
HETATM   46  C12 UNL     1     -13.662  -4.028  17.003  1.00  0.00     0.122 C 
BRANCH  46  47
HETATM   47  N4  UNL     1     -12.415  -3.665  16.381  1.00  0.00    -0.367 N 
HETATM   48  C13 UNL     1     -11.332  -3.427  17.055  1.00  0.00     0.196 C 
HETATM   49  N5  UNL     1     -10.161  -3.078  16.362  1.00  0.00    -0.067 NA
HETATM   50  N6  UNL     1     -11.352  -3.523  18.470  1.00  0.00    -0.067 NA
ATOM     51  H4  UNL     1     -12.381  -3.590  15.364  1.00  0.00     0.161 HD
ENDBRANCH  46  47
ENDBRANCH  45  46
ENDBRANCH  44  45
ENDBRANCH  39  44
ENDBRANCH  36  39
ENDBRANCH   4  35
TORSDOF 17
ENDMDL
MODEL 4
REMARK VINA RESULT: -8.956212546      1.352      1.751
REMARK  17 active torsions:
REMARK  status: ('A' for Active; 'I' for Inactive)
REMARK    1  A    between atoms: C2_2  and  C4_4 
REMARK    2  A    between atoms: C4_4  and  N1_5 
REMARK    3  A    between atoms: C4_4  and  C5_9 
REMARK    4  A    between atoms: C7_12  and  N2_13 
REMARK       I    between atoms: N2_13  and  C8_15 
REMARK    5  A    between atoms: C8_15  and  C9_17 
REMARK    6  A    between atoms: C9_17  and  N3_18 
REMARK    7  A    between atoms: C9_17  and  C10_22 
REMARK    8  A    between atoms: C10_22  and  C11_23 
REMARK    9  A    between atoms: C11_23  and  C12_24 
REMARK   10  A    between atoms: C12_24  and  N4_25 
REMARK   11  A    between atoms: C16_32  and  O3_33 
REMARK   12  A    between atoms: O3_33  and  C17_34 
REMARK   13  A    between atoms: C17_34  and  C18_35 
REMARK   14  A    between atoms: C18_35  and  C19_36 
REMARK   15  A    between atoms: C18_35  and  C20_41 
REMARK   16  A    between atoms: C19_36  and  N7_37 
REMARK   17  A    between atoms: C20_41  and  C21_42 
ROOT
HETATM    1  C5  UNL     1     -14.813 -10.651  23.222  1.00  0.00     0.117 C 
HETATM    2  C6  UNL     1     -14.267  -9.809  22.155  1.00  0.00     0.158 C 
HETATM    3  O1  UNL     1     -13.148  -9.934  21.652  1.00  0.00    -0.295 OA
HETATM    4  C7  UNL     1     -15.081  -8.691  21.597  1.00  0.00     0.154 C 
HETATM    5  C14 UNL     1     -16.515  -9.134  21.678  1.00  0.00     0.035 C 
HETATM    6  C15 UNL     1     -16.895  -9.254  23.103  1.00  0.00     0.035 C 
HETATM    7  C16 UNL     1     -15.839  -9.811  24.041  1.00  0.00     0.134 C 
ENDROOT
BRANCH   7   8
HETATM    8  O3  UNL     1     -15.358  -8.922  24.789  1.00  0.00    -0.385 OA
BRANCH   8   9
HETATM    9  C17 UNL     1     -14.859  -8.067  25.527  1.00  0.00     0.174 C 
BRANCH   9  10
HETATM   10  C18 UNL     1     -15.561  -7.836  26.891  1.00  0.00     0.039 C 
BRANCH  10  11
HETATM   11  C19 UNL     1     -17.025  -7.560  26.690  1.00  0.00     0.236 C 
BRANCH  11  12
HETATM   12  N7  UNL     1     -17.336  -6.580  25.702  1.00  0.00    -0.079 N 
ATOM     13  H73 UNL     1     -16.673  -6.642  24.929  1.00  0.00     0.274 HD
ATOM     14  H72 UNL     1     -18.199  -6.831  25.222  1.00  0.00     0.274 HD
ATOM     15  H71 UNL     1     -17.391  -5.619  26.038  1.00  0.00     0.274 HD
ENDBRANCH  11  12
ENDBRANCH  10  11
BRANCH  10  16
HETATM   16  C20 UNL     1     -15.342  -9.043  27.779  1.00  0.00     0.049 C 
BRANCH  16  17
HETATM   17  C21 UNL     1     -16.620  -9.500  28.380  1.00  0.00    -0.030 A 
HETATM   18  C22 UNL     1     -17.108  -8.964  29.571  1.00  0.00     0.096 A 
HETATM   19  N8  UNL     1     -18.270  -9.555  29.894  1.00  0.00    -0.365 N 
HETATM   20  C23 UNL     1     -18.564 -10.477  28.934  1.00  0.00     0.042 A 
ATOM     21  H8  UNL     1     -18.836  -9.349  30.717  1.00  0.00     0.165 HD
HETATM   22  C24 UNL     1     -19.639 -11.338  28.806  1.00  0.00     0.030 A 
HETATM   23  C28 UNL     1     -17.532 -10.434  28.000  1.00  0.00    -0.002 A 
HETATM   24  C25 UNL     1     -19.653 -12.161  27.709  1.00  0.00     0.002 A 
HETATM   25  C26 UNL     1     -18.637 -12.130  26.773  1.00  0.00     0.001 A 
HETATM   26  C27 UNL     1     -17.557 -11.265  26.901  1.00  0.00     0.014 A 
ENDBRANCH  16  17
ENDBRANCH  10  16
ENDBRANCH   9  10
ENDBRANCH   8   9
ENDBRANCH   7   8
BRANCH   1  27
HETATM   27  C4  UNL     1     -15.407 -11.921  22.791  1.00  0.00     0.200 C 
BRANCH  27  28
HETATM   28  C2  UNL     1     -14.780 -12.756  21.743  1.00  0.00     0.009 C 
HETATM   29  C1  UNL     1     -13.571 -13.537  22.038  1.00  0.00     0.011 C 
HETATM   30  C3  UNL     1     -15.820 -13.757  21.169  1.00  0.00     0.011 C 
ENDBRANCH  27  28
BRANCH  27  31
HETATM   31  N1  UNL     1     -15.341 -12.873  23.993  1.00  0.00    -0.074 N 
ATOM     32  H13 UNL     1     -15.440 -13.864  23.774  1.00  0.00     0.274 HD
ATOM     33  H12 UNL     1     -14.423 -12.971  24.427  1.00  0.00     0.274 HD
ATOM     34  H11 UNL     1     -16.070 -12.479  24.588  1.00  0.00     0.274 HD
ENDBRANCH  27  31
ENDBRANCH   1  27
BRANCH   4  35
HETATM   35  N2  UNL     1     -14.668  -8.348  20.263  1.00  0.00    -0.348 N 
HETATM   36  C8  UNL     1     -14.268  -7.041  19.880  1.00  0.00     0.248 C 
HETATM   37  O2  UNL     1     -14.293  -6.157  20.799  1.00  0.00    -0.271 OA
ATOM     38  H2  UNL     1     -14.661  -9.082  19.555  1.00  0.00     0.163 HD
BRANCH  36  39
HETATM   39  C9  UNL     1     -13.839  -6.635  18.538  1.00  0.00     0.274 C 
BRANCH  39  40
HETATM   40  N3  UNL     1     -14.672  -7.079  17.463  1.00  0.00    -0.067 N 
ATOM     41  H33 UNL     1     -14.120  -7.171  16.610  1.00  0.00     0.275 HD
ATOM     42  H32 UNL     1     -14.942  -8.051  17.610  1.00  0.00     0.275 HD
ATOM     43  H31 UNL     1     -15.499  -6.509  17.283  1.00  0.00     0.275 HD
ENDBRANCH  39  40
BRANCH  39  44
HETATM   44  C10 UNL     1     -13.535  -5.164  18.481  1.00  0.00     0.044 C 
BRANCH  44  45
HETATM   45  C11 UNL     1     -12.334  -4.785  17.694  1.00  0.00     0.022 C 
BRANCH  45  46
HETATM   46  C12 UNL     1     -12.543  -4.539  16.238  1.00  0.00     0.122 C 
BRANCH  46  47
HETATM   47  N4  UNL     1     -13.382  -3.402  15.954  1.00  0.00    -0.367 N 
HETATM   48  C13 UNL     1     -14.600  -3.514  15.523  1.00  0.00     0.196 C 
HETATM   49  N5  UNL     1     -15.344  -2.349  15.273  1.00  0.00    -0.067 NA
HETATM   50  N6  UNL     1     -15.154  -4.803  15.313  1.00  0.00    -0.067 NA
ATOM     51  H4  UNL     1     -13.000  -2.468  16.099  1.00  0.00     0.161 HD
ENDBRANCH  46  47
ENDBRANCH  45  46
ENDBRANCH  44  45
ENDBRANCH  39  44
ENDBRANCH  36  39
ENDBRANCH   4  35
TORSDOF 17
ENDMDL
MODEL 5
REMARK VINA RESULT: -8.895912934      2.307      4.442
REMARK  17 active torsions:
REMARK  status: ('A' for Active; 'I' for Inactive)
REMARK    1  A    between atoms: C2_2  and  C4_4 
REMARK    2  A    between atoms: C4_4  and  N1_5 
REMARK    3  A    between atoms: C4_4  and  C5_9 
REMARK    4  A    between atoms: C7_12  and  N2_13 
REMARK       I    between atoms: N2_13  and  C8_15 
REMARK    5  A    between atoms: C8_15  and  C9_17 
REMARK    6  A    between atoms: C9_17  and  N3_18 
REMARK    7  A    between atoms: C9_17  and  C10_22 
REMARK    8  A    between atoms: C10_22  and  C11_23 
REMARK    9  A    between atoms: C11_23  and  C12_24 
REMARK   10  A    between atoms: C12_24  and  N4_25 
REMARK   11  A    between atoms: C16_32  and  O3_33 
REMARK   12  A    between atoms: O3_33  and  C17_34 
REMARK   13  A    between atoms: C17_34  and  C18_35 
REMARK   14  A    between atoms: C18_35  and  C19_36 
REMARK   15  A    between atoms: C18_35  and  C20_41 
REMARK   16  A    between atoms: C19_36  and  N7_37 
REMARK   17  A    between atoms: C20_41  and  C21_42 
ROOT
HETATM    1  C5  UNL     1     -13.699 -13.345  25.587  1.00  0.00     0.117 C 
HETATM    2  C6  UNL     1     -13.302 -12.093  24.939  1.00  0.00     0.158 C 
HETATM    3  O1  UNL     1     -12.151 -11.652  24.888  1.00  0.00    -0.295 OA
HETATM    4  C7  UNL     1     -14.329 -11.236  24.278  1.00  0.00     0.154 C 
HETATM    5  C14 UNL     1     -15.375 -12.173  23.743  1.00  0.00     0.035 C 
HETATM    6  C15 UNL     1     -16.053 -12.829  24.883  1.00  0.00     0.035 C 
HETATM    7  C16 UNL     1     -15.177 -13.209  26.064  1.00  0.00     0.134 C 
ENDROOT
BRANCH   7   8
HETATM    8  O3  UNL     1     -15.374 -12.463  27.056  1.00  0.00    -0.385 OA
BRANCH   8   9
HETATM    9  C17 UNL     1     -15.597 -11.726  28.021  1.00  0.00     0.174 C 
BRANCH   9  10
HETATM   10  C18 UNL     1     -17.054 -11.214  28.179  1.00  0.00     0.039 C 
BRANCH  10  11
HETATM   11  C19 UNL     1     -17.878 -12.204  28.954  1.00  0.00     0.236 C 
BRANCH  11  12
HETATM   12  N7  UNL     1     -17.149 -13.057  29.833  1.00  0.00    -0.079 N 
ATOM     13  H73 UNL     1     -17.593 -13.073  30.751  1.00  0.00     0.274 HD
ATOM     14  H72 UNL     1     -17.271 -14.030  29.555  1.00  0.00     0.274 HD
ATOM     15  H71 UNL     1     -16.156 -12.844  29.930  1.00  0.00     0.274 HD
ENDBRANCH  11  12
ENDBRANCH  10  11
BRANCH  10  16
HETATM   16  C20 UNL     1     -17.037  -9.858  28.853  1.00  0.00     0.049 C 
BRANCH  16  17
HETATM   17  C21 UNL     1     -17.113  -8.766  27.850  1.00  0.00    -0.030 A 
HETATM   18  C22 UNL     1     -18.333  -8.242  27.421  1.00  0.00     0.096 A 
HETATM   19  N8  UNL     1     -18.119  -7.276  26.513  1.00  0.00    -0.365 N 
HETATM   20  C23 UNL     1     -16.774  -7.148  26.331  1.00  0.00     0.042 A 
ATOM     21  H8  UNL     1     -18.839  -6.731  26.040  1.00  0.00     0.165 HD
HETATM   22  C24 UNL     1     -16.049  -6.302  25.512  1.00  0.00     0.030 A 
HETATM   23  C28 UNL     1     -16.161  -8.079  27.167  1.00  0.00    -0.002 A 
HETATM   24  C25 UNL     1     -14.682  -6.414  25.552  1.00  0.00     0.002 A 
HETATM   25  C26 UNL     1     -14.059  -7.331  26.375  1.00  0.00     0.001 A 
HETATM   26  C27 UNL     1     -14.787  -8.182  27.199  1.00  0.00     0.014 A 
ENDBRANCH  16  17
ENDBRANCH  10  16
ENDBRANCH   9  10
ENDBRANCH   8   9
ENDBRANCH   7   8
BRANCH   1  27
HETATM   27  C4  UNL     1     -13.520 -14.561  24.787  1.00  0.00     0.200 C 
BRANCH  27  28
HETATM   28  C2  UNL     1     -12.928 -14.520  23.432  1.00  0.00     0.009 C 
HETATM   29  C1  UNL     1     -11.522 -14.893  23.223  1.00  0.00     0.011 C 
HETATM   30  C3  UNL     1     -13.764 -15.397  22.461  1.00  0.00     0.011 C 
ENDBRANCH  27  28
BRANCH  27  31
HETATM   31  N1  UNL     1     -12.490 -15.429  25.523  1.00  0.00    -0.074 N 
ATOM     32  H13 UNL     1     -11.672 -14.935  25.877  1.00  0.00     0.274 HD
ATOM     33  H12 UNL     1     -12.782 -15.779  26.436  1.00  0.00     0.274 HD
ATOM     34  H11 UNL     1     -12.304 -16.142  24.818  1.00  0.00     0.274 HD
ENDBRANCH  27  31
ENDBRANCH   1  27
BRANCH   4  35
HETATM   35  N2  UNL     1     -13.748 -10.398  23.265  1.00  0.00    -0.348 N 
HETATM   36  C8  UNL     1     -14.382  -9.235  22.754  1.00  0.00     0.248 C 
HETATM   37  O2  UNL     1     -15.524  -8.959  23.248  1.00  0.00    -0.271 OA
ATOM     38  H2  UNL     1     -12.832 -10.651  22.893  1.00  0.00     0.163 HD
BRANCH  36  39
HETATM   39  C9  UNL     1     -13.838  -8.345  21.723  1.00  0.00     0.274 C 
BRANCH  39  40
HETATM   40  N3  UNL     1     -12.491  -7.909  21.931  1.00  0.00    -0.067 N 
ATOM     41  H33 UNL     1     -12.479  -6.920  22.181  1.00  0.00     0.275 HD
ATOM     42  H32 UNL     1     -12.121  -8.318  22.790  1.00  0.00     0.275 HD
ATOM     43  H31 UNL     1     -11.848  -8.081  21.157  1.00  0.00     0.275 HD
ENDBRANCH  39  40
BRANCH  39  44
HETATM   44  C10 UNL     1     -14.074  -8.894  20.344  1.00  0.00     0.044 C 
BRANCH  44  45
HETATM   45  C11 UNL     1     -13.513  -8.093  19.227  1.00  0.00     0.022 C 
BRANCH  45  46
HETATM   46  C12 UNL     1     -14.161  -6.775  18.963  1.00  0.00     0.122 C 
BRANCH  46  47
HETATM   47  N4  UNL     1     -14.653  -6.628  17.617  1.00  0.00    -0.367 N 
HETATM   48  C13 UNL     1     -14.576  -5.515  16.955  1.00  0.00     0.196 C 
HETATM   49  N5  UNL     1     -15.083  -5.465  15.645  1.00  0.00    -0.067 NA
HETATM   50  N6  UNL     1     -13.985  -4.377  17.561  1.00  0.00    -0.067 NA
ATOM     51  H4  UNL     1     -15.081  -7.435  17.164  1.00  0.00     0.161 HD
ENDBRANCH  46  47
ENDBRANCH  45  46
ENDBRANCH  44  45
ENDBRANCH  39  44
ENDBRANCH  36  39
ENDBRANCH   4  35
TORSDOF 17
ENDMDL
