MODEL 1
REMARK VINA RESULT: -9.257521646      0.000      0.000
REMARK  19 active torsions:
REMARK  status: ('A' for Active; 'I' for Inactive)
REMARK       I    between atoms: C2_2  and  N1_4 
REMARK    1  A    between atoms: N1_4  and  C3_5 
REMARK    2  A    between atoms: C3_5  and  C4_6 
REMARK    3  A    between atoms: C4_6  and  C5_7 
REMARK    4  A    between atoms: C5_7  and  C6_8 
REMARK    5  A    between atoms: C6_8  and  C7_9 
REMARK    6  A    between atoms: C7_9  and  N2_10 
REMARK    7  A    between atoms: C7_9  and  C8_14 
REMARK    8  A    between atoms: C8_14  and  C9_15 
REMARK       I    between atoms: C9_15  and  N3_17 
REMARK    9  A    between atoms: N3_17  and  C10_19 
REMARK   10  A    between atoms: C10_19  and  C11_20 
REMARK   11  A    between atoms: C11_20  and  C12_21 
REMARK   12  A    between atoms: C12_21  and  C13_22 
REMARK   13  A    between atoms: C13_22  and  C15_24 
REMARK   14  A    between atoms: C16_27  and  O3_28 
REMARK   15  A    between atoms: C17_30  and  C18_31 
REMARK   16  A    between atoms: C19_32  and  C20_33 
REMARK   17  A    between atoms: C20_33  and  C21_34 
REMARK   18  A    between atoms: C21_34  and  N5_35 
REMARK   19  A    between atoms: C25_46  and  C26_47 
ROOT
HETATM    1  C15 UNL     1       5.774 -12.903 -23.671  1.00  0.00     0.204 C 
HETATM    2  N4  UNL     1       6.870 -13.601 -24.421  1.00  0.00    -0.357 N 
ATOM      3  H4  UNL     1       6.962 -13.347 -25.405  1.00  0.00     0.162 HD
HETATM    4  C16 UNL     1       7.770 -14.538 -23.960  1.00  0.00     0.127 C 
HETATM    5  C17 UNL     1       8.001 -15.427 -22.797  1.00  0.00     0.157 C 
HETATM    6  C22 UNL     1       7.495 -16.777 -22.885  1.00  0.00     0.180 C 
HETATM    7  O4  UNL     1       8.127 -17.487 -23.696  1.00  0.00    -0.291 OA
HETATM    8  C23 UNL     1       6.374 -17.453 -22.198  1.00  0.00     0.142 C 
HETATM    9  N6  UNL     1       5.833 -16.951 -20.998  1.00  0.00    -0.332 N 
ATOM     10  H6  UNL     1       6.523 -16.869 -20.251  1.00  0.00     0.168 HD
HETATM   11  C24 UNL     1       4.535 -16.536 -20.603  1.00  0.00     0.244 C 
HETATM   12  O5  UNL     1       3.951 -16.996 -19.601  1.00  0.00    -0.271 OA
HETATM   13  C25 UNL     1       3.721 -15.482 -21.368  1.00  0.00     0.180 C 
HETATM   14  N7  UNL     1       4.594 -14.827 -22.292  1.00  0.00    -0.345 N 
ATOM     15  H7  UNL     1       4.697 -15.440 -23.101  1.00  0.00     0.163 HD
HETATM   16  C29 UNL     1       5.340 -13.720 -22.528  1.00  0.00     0.245 C 
HETATM   17  O6  UNL     1       5.892 -13.110 -21.537  1.00  0.00    -0.271 OA
ENDROOT
BRANCH   1  18
HETATM   18  C13 UNL     1       6.103 -11.497 -23.324  1.00  0.00    -0.056 C 
HETATM   19  C14 UNL     1       5.014 -10.471 -23.395  1.00  0.00     0.046 C 
BRANCH  18  20
HETATM   20  C12 UNL     1       7.338 -10.882 -23.829  1.00  0.00    -0.020 C 
BRANCH  20  21
HETATM   21  C11 UNL     1       7.355  -9.853 -24.877  1.00  0.00     0.047 C 
BRANCH  21  22
HETATM   22  C10 UNL     1       7.470 -10.575 -26.246  1.00  0.00     0.126 C 
BRANCH  22  23
HETATM   23  N3  UNL     1       6.199 -10.939 -26.781  1.00  0.00    -0.361 N 
HETATM   24  C9  UNL     1       6.099 -12.221 -27.427  1.00  0.00     0.219 C 
HETATM   25  O2  UNL     1       7.123 -12.946 -27.467  1.00  0.00    -0.274 OA
ATOM     26  H3  UNL     1       5.395 -10.317 -26.708  1.00  0.00     0.162 HD
BRANCH  24  27
HETATM   27  C8  UNL     1       4.854 -12.704 -28.045  1.00  0.00     0.135 C 
BRANCH  27  28
HETATM   28  C7  UNL     1       4.559 -11.927 -29.303  1.00  0.00     0.192 C 
BRANCH  28  29
HETATM   29  C6  UNL     1       3.107 -11.469 -29.233  1.00  0.00     0.033 C 
BRANCH  29  30
HETATM   30  C5  UNL     1       2.984 -10.174 -28.473  1.00  0.00     0.008 C 
BRANCH  30  31
HETATM   31  C4  UNL     1       2.363  -9.115 -29.279  1.00  0.00     0.060 C 
BRANCH  31  32
HETATM   32  C3  UNL     1       1.481  -8.146 -28.508  1.00  0.00     0.159 C 
BRANCH  32  33
HETATM   33  N1  UNL     1       0.415  -7.703 -29.256  1.00  0.00    -0.388 NA
HETATM   34  C2  UNL     1      -0.633  -7.268 -29.991  1.00  0.00     0.286 C 
HETATM   35  C1  UNL     1      -0.650  -5.796 -30.440  1.00  0.00     0.135 C 
HETATM   36  O1  UNL     1      -1.651  -7.895 -30.389  1.00  0.00    -0.258 OA
ENDBRANCH  32  33
ENDBRANCH  31  32
ENDBRANCH  30  31
ENDBRANCH  29  30
ENDBRANCH  28  29
BRANCH  28  37
HETATM   37  N2  UNL     1       4.647 -12.816 -30.466  1.00  0.00    -0.075 N 
ATOM     38  H23 UNL     1       4.683 -13.805 -30.219  1.00  0.00     0.274 HD
ATOM     39  H22 UNL     1       3.787 -12.855 -31.013  1.00  0.00     0.274 HD
ATOM     40  H21 UNL     1       5.456 -12.500 -31.001  1.00  0.00     0.274 HD
ENDBRANCH  28  37
ENDBRANCH  27  28
ENDBRANCH  24  27
ENDBRANCH  22  23
ENDBRANCH  21  22
ENDBRANCH  20  21
ENDBRANCH  18  20
ENDBRANCH   1  18
BRANCH   4  41
HETATM   41  O3  UNL     1       8.758 -14.742 -24.793  1.00  0.00    -0.349 OA
ATOM     42  H3  UNL     1       8.491 -15.226 -25.566  1.00  0.00     0.219 HD
ENDBRANCH   4  41
BRANCH   5  43
HETATM   43  C18 UNL     1       9.475 -15.471 -22.493  1.00  0.00    -0.010 C 
HETATM   44  C19 UNL     1      10.062 -14.790 -21.358  1.00  0.00    -0.028 C 
BRANCH  44  45
HETATM   45  C20 UNL     1       9.758 -15.130 -19.949  1.00  0.00     0.054 C 
BRANCH  45  46
HETATM   46  C21 UNL     1       8.977 -13.909 -19.360  1.00  0.00     0.233 C 
BRANCH  46  47
HETATM   47  N5  UNL     1       7.570 -14.163 -19.455  1.00  0.00    -0.079 N 
ATOM     48  H53 UNL     1       7.170 -13.810 -20.325  1.00  0.00     0.274 HD
ATOM     49  H52 UNL     1       7.363 -15.152 -19.592  1.00  0.00     0.274 HD
ATOM     50  H51 UNL     1       7.105 -13.780 -18.632  1.00  0.00     0.274 HD
ENDBRANCH  46  47
ENDBRANCH  45  46
ENDBRANCH  44  45
ENDBRANCH   5  43
BRANCH  13  51
HETATM   51  C26 UNL     1       2.793 -14.710 -20.523  1.00  0.00     0.009 C 
HETATM   52  C27 UNL     1       3.656 -13.956 -19.524  1.00  0.00     0.012 C 
HETATM   53  C28 UNL     1       2.135 -13.639 -21.373  1.00  0.00     0.012 C 
ENDBRANCH  13  51
TORSDOF 19
ENDMDL
MODEL 2
REMARK VINA RESULT: -9.219839009      2.530      3.715
REMARK  19 active torsions:
REMARK  status: ('A' for Active; 'I' for Inactive)
REMARK       I    between atoms: C2_2  and  N1_4 
REMARK    1  A    between atoms: N1_4  and  C3_5 
REMARK    2  A    between atoms: C3_5  and  C4_6 
REMARK    3  A    between atoms: C4_6  and  C5_7 
REMARK    4  A    between atoms: C5_7  and  C6_8 
REMARK    5  A    between atoms: C6_8  and  C7_9 
REMARK    6  A    between atoms: C7_9  and  N2_10 
REMARK    7  A    between atoms: C7_9  and  C8_14 
REMARK    8  A    between atoms: C8_14  and  C9_15 
REMARK       I    between atoms: C9_15  and  N3_17 
REMARK    9  A    between atoms: N3_17  and  C10_19 
REMARK   10  A    between atoms: C10_19  and  C11_20 
REMARK   11  A    between atoms: C11_20  and  C12_21 
REMARK   12  A    between atoms: C12_21  and  C13_22 
REMARK   13  A    between atoms: C13_22  and  C15_24 
REMARK   14  A    between atoms: C16_27  and  O3_28 
REMARK   15  A    between atoms: C17_30  and  C18_31 
REMARK   16  A    between atoms: C19_32  and  C20_33 
REMARK   17  A    between atoms: C20_33  and  C21_34 
REMARK   18  A    between atoms: C21_34  and  N5_35 
REMARK   19  A    between atoms: C25_46  and  C26_47 
ROOT
HETATM    1  C15 UNL     1       5.807 -12.834 -23.781  1.00  0.00     0.204 C 
HETATM    2  N4  UNL     1       6.854 -13.580 -24.554  1.00  0.00    -0.357 N 
ATOM      3  H4  UNL     1       6.903 -13.366 -25.551  1.00  0.00     0.162 HD
HETATM    4  C16 UNL     1       7.758 -14.516 -24.100  1.00  0.00     0.127 C 
HETATM    5  C17 UNL     1       8.030 -15.365 -22.916  1.00  0.00     0.157 C 
HETATM    6  C22 UNL     1       7.497 -16.707 -22.928  1.00  0.00     0.180 C 
HETATM    7  O4  UNL     1       8.077 -17.460 -23.740  1.00  0.00    -0.291 OA
HETATM    8  C23 UNL     1       6.399 -17.336 -22.164  1.00  0.00     0.142 C 
HETATM    9  N6  UNL     1       5.924 -16.779 -20.959  1.00  0.00    -0.332 N 
ATOM     10  H6  UNL     1       6.651 -16.682 -20.250  1.00  0.00     0.168 HD
HETATM   11  C24 UNL     1       4.654 -16.325 -20.520  1.00  0.00     0.244 C 
HETATM   12  O5  UNL     1       4.111 -16.736 -19.475  1.00  0.00    -0.271 OA
HETATM   13  C25 UNL     1       3.823 -15.285 -21.286  1.00  0.00     0.180 C 
HETATM   14  N7  UNL     1       4.662 -14.681 -22.274  1.00  0.00    -0.345 N 
ATOM     15  H7  UNL     1       4.716 -15.327 -23.063  1.00  0.00     0.163 HD
HETATM   16  C29 UNL     1       5.414 -13.599 -22.587  1.00  0.00     0.245 C 
HETATM   17  O6  UNL     1       6.025 -12.963 -21.648  1.00  0.00    -0.271 OA
ENDROOT
BRANCH   1  18
HETATM   18  C13 UNL     1       6.177 -11.422 -23.504  1.00  0.00    -0.056 C 
HETATM   19  C14 UNL     1       5.096 -10.386 -23.520  1.00  0.00     0.046 C 
BRANCH  18  20
HETATM   20  C12 UNL     1       7.374 -10.838 -24.124  1.00  0.00    -0.020 C 
BRANCH  20  21
HETATM   21  C11 UNL     1       7.328  -9.694 -25.044  1.00  0.00     0.047 C 
BRANCH  21  22
HETATM   22  C10 UNL     1       7.535 -10.239 -26.483  1.00  0.00     0.126 C 
BRANCH  22  23
HETATM   23  N3  UNL     1       6.318 -10.686 -27.079  1.00  0.00    -0.361 N 
HETATM   24  C9  UNL     1       6.315 -12.000 -27.665  1.00  0.00     0.219 C 
HETATM   25  O2  UNL     1       7.369 -12.678 -27.602  1.00  0.00    -0.274 OA
ATOM     26  H3  UNL     1       5.485 -10.098 -27.089  1.00  0.00     0.162 HD
BRANCH  24  27
HETATM   27  C8  UNL     1       5.135 -12.569 -28.335  1.00  0.00     0.135 C 
BRANCH  27  28
HETATM   28  C7  UNL     1       3.986 -11.594 -28.285  1.00  0.00     0.192 C 
BRANCH  28  29
HETATM   29  C6  UNL     1       3.078 -12.011 -27.133  1.00  0.00     0.033 C 
BRANCH  29  30
HETATM   30  C5  UNL     1       3.398 -13.408 -26.670  1.00  0.00     0.008 C 
BRANCH  30  31
HETATM   31  C4  UNL     1       2.731 -13.740 -25.405  1.00  0.00     0.060 C 
BRANCH  31  32
HETATM   32  C3  UNL     1       1.649 -14.803 -25.501  1.00  0.00     0.159 C 
BRANCH  32  33
HETATM   33  N1  UNL     1       0.933 -14.925 -24.333  1.00  0.00    -0.388 NA
HETATM   34  C2  UNL     1       0.229 -15.045 -23.185  1.00  0.00     0.286 C 
HETATM   35  C1  UNL     1       0.335 -16.362 -22.397  1.00  0.00     0.135 C 
HETATM   36  O1  UNL     1      -0.539 -14.219 -22.623  1.00  0.00    -0.258 OA
ENDBRANCH  32  33
ENDBRANCH  31  32
ENDBRANCH  30  31
ENDBRANCH  29  30
ENDBRANCH  28  29
BRANCH  28  37
HETATM   37  N2  UNL     1       3.179 -11.718 -29.502  1.00  0.00    -0.075 N 
ATOM     38  H23 UNL     1       2.889 -12.676 -29.703  1.00  0.00     0.274 HD
ATOM     39  H22 UNL     1       2.243 -11.322 -29.412  1.00  0.00     0.274 HD
ATOM     40  H21 UNL     1       3.729 -11.294 -30.249  1.00  0.00     0.274 HD
ENDBRANCH  28  37
ENDBRANCH  27  28
ENDBRANCH  24  27
ENDBRANCH  22  23
ENDBRANCH  21  22
ENDBRANCH  20  21
ENDBRANCH  18  20
ENDBRANCH   1  18
BRANCH   4  41
HETATM   41  O3  UNL     1       8.702 -14.771 -24.971  1.00  0.00    -0.349 OA
ATOM     42  H3  UNL     1       8.422 -15.376 -25.648  1.00  0.00     0.219 HD
ENDBRANCH   4  41
BRANCH   5  43
HETATM   43  C18 UNL     1       9.515 -15.426 -22.680  1.00  0.00    -0.010 C 
HETATM   44  C19 UNL     1      10.153 -14.816 -21.533  1.00  0.00    -0.028 C 
BRANCH  44  45
HETATM   45  C20 UNL     1       9.911 -15.244 -20.135  1.00  0.00     0.054 C 
BRANCH  45  46
HETATM   46  C21 UNL     1       9.224 -14.035 -19.418  1.00  0.00     0.233 C 
BRANCH  46  47
HETATM   47  N5  UNL     1       7.803 -14.159 -19.547  1.00  0.00    -0.079 N 
ATOM     48  H53 UNL     1       7.528 -14.558 -20.446  1.00  0.00     0.274 HD
ATOM     49  H52 UNL     1       7.420 -14.886 -18.944  1.00  0.00     0.274 HD
ATOM     50  H51 UNL     1       7.371 -13.250 -19.379  1.00  0.00     0.274 HD
ENDBRANCH  46  47
ENDBRANCH  45  46
ENDBRANCH  44  45
ENDBRANCH   5  43
BRANCH  13  51
HETATM   51  C26 UNL     1       2.950 -14.464 -20.429  1.00  0.00     0.009 C 
HETATM   52  C27 UNL     1       3.839 -13.903 -19.330  1.00  0.00     0.012 C 
HETATM   53  C28 UNL     1       2.482 -13.257 -21.220  1.00  0.00     0.012 C 
ENDBRANCH  13  51
TORSDOF 19
ENDMDL
MODEL 3
REMARK VINA RESULT: -8.963391158      2.053      4.722
REMARK  19 active torsions:
REMARK  status: ('A' for Active; 'I' for Inactive)
REMARK       I    between atoms: C2_2  and  N1_4 
REMARK    1  A    between atoms: N1_4  and  C3_5 
REMARK    2  A    between atoms: C3_5  and  C4_6 
REMARK    3  A    between atoms: C4_6  and  C5_7 
REMARK    4  A    between atoms: C5_7  and  C6_8 
REMARK    5  A    between atoms: C6_8  and  C7_9 
REMARK    6  A    between atoms: C7_9  and  N2_10 
REMARK    7  A    between atoms: C7_9  and  C8_14 
REMARK    8  A    between atoms: C8_14  and  C9_15 
REMARK       I    between atoms: C9_15  and  N3_17 
REMARK    9  A    between atoms: N3_17  and  C10_19 
REMARK   10  A    between atoms: C10_19  and  C11_20 
REMARK   11  A    between atoms: C11_20  and  C12_21 
REMARK   12  A    between atoms: C12_21  and  C13_22 
REMARK   13  A    between atoms: C13_22  and  C15_24 
REMARK   14  A    between atoms: C16_27  and  O3_28 
REMARK   15  A    between atoms: C17_30  and  C18_31 
REMARK   16  A    between atoms: C19_32  and  C20_33 
REMARK   17  A    between atoms: C20_33  and  C21_34 
REMARK   18  A    between atoms: C21_34  and  N5_35 
REMARK   19  A    between atoms: C25_46  and  C26_47 
ROOT
HETATM    1  C15 UNL     1       6.763 -13.028 -24.035  1.00  0.00     0.204 C 
HETATM    2  N4  UNL     1       5.817 -12.111 -23.317  1.00  0.00    -0.357 N 
ATOM      3  H4  UNL     1       5.943 -11.115 -23.500  1.00  0.00     0.162 HD
HETATM    4  C16 UNL     1       4.801 -12.433 -22.443  1.00  0.00     0.127 C 
HETATM    5  C17 UNL     1       4.293 -13.576 -21.649  1.00  0.00     0.157 C 
HETATM    6  C22 UNL     1       4.746 -13.685 -20.282  1.00  0.00     0.180 C 
HETATM    7  O4  UNL     1       4.267 -12.807 -19.532  1.00  0.00    -0.291 OA
HETATM    8  C23 UNL     1       5.669 -14.636 -19.625  1.00  0.00     0.142 C 
HETATM    9  N6  UNL     1       5.969 -15.888 -20.197  1.00  0.00    -0.332 N 
ATOM     10  H6  UNL     1       5.143 -16.465 -20.354  1.00  0.00     0.168 HD
HETATM   11  C24 UNL     1       7.174 -16.520 -20.602  1.00  0.00     0.244 C 
HETATM   12  O5  UNL     1       7.515 -17.650 -20.199  1.00  0.00    -0.271 OA
HETATM   13  C25 UNL     1       8.174 -15.876 -21.572  1.00  0.00     0.180 C 
HETATM   14  N7  UNL     1       7.543 -14.748 -22.184  1.00  0.00    -0.345 N 
ATOM     15  H7  UNL     1       7.584 -13.978 -21.516  1.00  0.00     0.163 HD
HETATM   16  C29 UNL     1       6.912 -14.289 -23.292  1.00  0.00     0.245 C 
HETATM   17  O6  UNL     1       6.193 -15.098 -23.989  1.00  0.00    -0.271 OA
ENDROOT
BRANCH   1  18
HETATM   18  C13 UNL     1       6.430 -13.205 -25.472  1.00  0.00    -0.056 C 
HETATM   19  C14 UNL     1       7.431 -12.763 -26.495  1.00  0.00     0.046 C 
BRANCH  18  20
HETATM   20  C12 UNL     1       5.092 -12.859 -25.968  1.00  0.00    -0.020 C 
BRANCH  20  21
HETATM   21  C11 UNL     1       4.267 -13.774 -26.768  1.00  0.00     0.047 C 
BRANCH  21  22
HETATM   22  C10 UNL     1       3.975 -13.081 -28.125  1.00  0.00     0.126 C 
BRANCH  22  23
HETATM   23  N3  UNL     1       4.286 -11.689 -28.107  1.00  0.00    -0.361 N 
HETATM   24  C9  UNL     1       5.288 -11.225 -29.030  1.00  0.00     0.219 C 
HETATM   25  O2  UNL     1       5.813 -12.062 -29.804  1.00  0.00    -0.274 OA
ATOM     26  H3  UNL     1       3.817 -11.048 -27.466  1.00  0.00     0.162 HD
BRANCH  24  27
HETATM   27  C8  UNL     1       5.720  -9.819 -29.094  1.00  0.00     0.135 C 
BRANCH  27  28
HETATM   28  C7  UNL     1       5.620  -9.180 -27.732  1.00  0.00     0.192 C 
BRANCH  28  29
HETATM   29  C6  UNL     1       4.662  -8.000 -27.846  1.00  0.00     0.033 C 
BRANCH  29  30
HETATM   30  C5  UNL     1       3.266  -8.397 -27.443  1.00  0.00     0.008 C 
BRANCH  30  31
HETATM   31  C4  UNL     1       2.338  -8.392 -28.581  1.00  0.00     0.060 C 
BRANCH  31  32
HETATM   32  C3  UNL     1       0.919  -7.953 -28.260  1.00  0.00     0.159 C 
BRANCH  32  33
HETATM   33  N1  UNL     1       0.225  -7.568 -29.383  1.00  0.00    -0.388 NA
HETATM   34  C2  UNL     1      -0.458  -7.189 -30.487  1.00  0.00     0.286 C 
HETATM   35  C1  UNL     1       0.202  -6.179 -31.443  1.00  0.00     0.135 C 
HETATM   36  O1  UNL     1      -1.600  -7.540 -30.886  1.00  0.00    -0.258 OA
ENDBRANCH  32  33
ENDBRANCH  31  32
ENDBRANCH  30  31
ENDBRANCH  29  30
ENDBRANCH  28  29
BRANCH  28  37
HETATM   37  N2  UNL     1       6.919  -8.612 -27.356  1.00  0.00    -0.075 N 
ATOM     38  H23 UNL     1       6.844  -7.742 -26.829  1.00  0.00     0.274 HD
ATOM     39  H22 UNL     1       7.406  -9.151 -26.640  1.00  0.00     0.274 HD
ATOM     40  H21 UNL     1       7.447  -8.519 -28.224  1.00  0.00     0.274 HD
ENDBRANCH  28  37
ENDBRANCH  27  28
ENDBRANCH  24  27
ENDBRANCH  22  23
ENDBRANCH  21  22
ENDBRANCH  20  21
ENDBRANCH  18  20
ENDBRANCH   1  18
BRANCH   4  41
HETATM   41  O3  UNL     1       4.000 -11.425 -22.207  1.00  0.00    -0.349 OA
ATOM     42  H3  UNL     1       3.144 -11.700 -21.902  1.00  0.00     0.219 HD
ENDBRANCH   4  41
BRANCH   5  43
HETATM   43  C18 UNL     1       2.788 -13.565 -21.670  1.00  0.00    -0.010 C 
HETATM   44  C19 UNL     1       2.010 -14.401 -22.559  1.00  0.00    -0.028 C 
BRANCH  44  45
HETATM   45  C20 UNL     1       2.000 -15.881 -22.495  1.00  0.00     0.054 C 
BRANCH  45  46
HETATM   46  C21 UNL     1       0.558 -16.329 -22.905  1.00  0.00     0.233 C 
BRANCH  46  47
HETATM   47  N5  UNL     1       0.265 -15.827 -24.214  1.00  0.00    -0.079 N 
ATOM     48  H53 UNL     1       1.102 -15.507 -24.703  1.00  0.00     0.274 HD
ATOM     49  H52 UNL     1      -0.004 -16.568 -24.862  1.00  0.00     0.274 HD
ATOM     50  H51 UNL     1      -0.445 -15.098 -24.142  1.00  0.00     0.274 HD
ENDBRANCH  46  47
ENDBRANCH  45  46
ENDBRANCH  44  45
ENDBRANCH   5  43
BRANCH  13  51
HETATM   51  C26 UNL     1       8.939 -16.845 -22.377  1.00  0.00     0.009 C 
HETATM   52  C27 UNL     1       7.917 -17.617 -23.197  1.00  0.00     0.012 C 
HETATM   53  C28 UNL     1       9.776 -16.087 -23.390  1.00  0.00     0.012 C 
ENDBRANCH  13  51
TORSDOF 19
ENDMDL
MODEL 4
REMARK VINA RESULT: -8.784531818      2.155      3.622
REMARK  19 active torsions:
REMARK  status: ('A' for Active; 'I' for Inactive)
REMARK       I    between atoms: C2_2  and  N1_4 
REMARK    1  A    between atoms: N1_4  and  C3_5 
REMARK    2  A    between atoms: C3_5  and  C4_6 
REMARK    3  A    between atoms: C4_6  and  C5_7 
REMARK    4  A    between atoms: C5_7  and  C6_8 
REMARK    5  A    between atoms: C6_8  and  C7_9 
REMARK    6  A    between atoms: C7_9  and  N2_10 
REMARK    7  A    between atoms: C7_9  and  C8_14 
REMARK    8  A    between atoms: C8_14  and  C9_15 
REMARK       I    between atoms: C9_15  and  N3_17 
REMARK    9  A    between atoms: N3_17  and  C10_19 
REMARK   10  A    between atoms: C10_19  and  C11_20 
REMARK   11  A    between atoms: C11_20  and  C12_21 
REMARK   12  A    between atoms: C12_21  and  C13_22 
REMARK   13  A    between atoms: C13_22  and  C15_24 
REMARK   14  A    between atoms: C16_27  and  O3_28 
REMARK   15  A    between atoms: C17_30  and  C18_31 
REMARK   16  A    between atoms: C19_32  and  C20_33 
REMARK   17  A    between atoms: C20_33  and  C21_34 
REMARK   18  A    between atoms: C21_34  and  N5_35 
REMARK   19  A    between atoms: C25_46  and  C26_47 
ROOT
HETATM    1  C15 UNL     1       5.723 -12.960 -23.668  1.00  0.00     0.204 C 
HETATM    2  N4  UNL     1       6.807 -13.660 -24.433  1.00  0.00    -0.357 N 
ATOM      3  H4  UNL     1       6.871 -13.424 -25.424  1.00  0.00     0.162 HD
HETATM    4  C16 UNL     1       7.729 -14.578 -23.978  1.00  0.00     0.127 C 
HETATM    5  C17 UNL     1       8.000 -15.443 -22.806  1.00  0.00     0.157 C 
HETATM    6  C22 UNL     1       7.507 -16.799 -22.855  1.00  0.00     0.180 C 
HETATM    7  O4  UNL     1       8.125 -17.518 -23.669  1.00  0.00    -0.291 OA
HETATM    8  C23 UNL     1       6.412 -17.474 -22.126  1.00  0.00     0.142 C 
HETATM    9  N6  UNL     1       5.896 -16.955 -20.922  1.00  0.00    -0.332 N 
ATOM     10  H6  UNL     1       6.605 -16.851 -20.195  1.00  0.00     0.168 HD
HETATM   11  C24 UNL     1       4.605 -16.546 -20.501  1.00  0.00     0.244 C 
HETATM   12  O5  UNL     1       4.052 -16.993 -19.476  1.00  0.00    -0.271 OA
HETATM   13  C25 UNL     1       3.760 -15.516 -21.264  1.00  0.00     0.180 C 
HETATM   14  N7  UNL     1       4.601 -14.869 -22.222  1.00  0.00    -0.345 N 
ATOM     15  H7  UNL     1       4.690 -15.496 -23.022  1.00  0.00     0.163 HD
HETATM   16  C29 UNL     1       5.328 -13.759 -22.498  1.00  0.00     0.245 C 
HETATM   17  O6  UNL     1       5.900 -13.125 -21.534  1.00  0.00    -0.271 OA
ENDROOT
BRANCH   1  18
HETATM   18  C13 UNL     1       6.046 -11.544 -23.356  1.00  0.00    -0.056 C 
HETATM   19  C14 UNL     1       4.950 -10.526 -23.446  1.00  0.00     0.046 C 
BRANCH  18  20
HETATM   20  C12 UNL     1       7.275 -10.934 -23.882  1.00  0.00    -0.020 C 
BRANCH  20  21
HETATM   21  C11 UNL     1       7.280  -9.735 -24.730  1.00  0.00     0.047 C 
BRANCH  21  22
HETATM   22  C10 UNL     1       7.540 -10.192 -26.190  1.00  0.00     0.126 C 
BRANCH  22  23
HETATM   23  N3  UNL     1       6.365 -10.136 -26.998  1.00  0.00    -0.361 N 
HETATM   24  C9  UNL     1       6.014  -8.860 -27.562  1.00  0.00     0.219 C 
HETATM   25  O2  UNL     1       6.765  -7.882 -27.327  1.00  0.00    -0.274 OA
ATOM     26  H3  UNL     1       5.798 -10.967 -27.169  1.00  0.00     0.162 HD
BRANCH  24  27
HETATM   27  C8  UNL     1       4.813  -8.660 -28.390  1.00  0.00     0.135 C 
BRANCH  27  28
HETATM   28  C7  UNL     1       3.607  -9.258 -27.712  1.00  0.00     0.192 C 
BRANCH  28  29
HETATM   29  C6  UNL     1       2.834 -10.050 -28.761  1.00  0.00     0.033 C 
BRANCH  29  30
HETATM   30  C5  UNL     1       3.227 -11.504 -28.737  1.00  0.00     0.008 C 
BRANCH  30  31
HETATM   31  C4  UNL     1       3.209 -12.062 -27.379  1.00  0.00     0.060 C 
BRANCH  31  32
HETATM   32  C3  UNL     1       4.105 -13.270 -27.161  1.00  0.00     0.159 C 
BRANCH  32  33
HETATM   33  N1  UNL     1       3.576 -14.154 -26.250  1.00  0.00    -0.388 NA
HETATM   34  C2  UNL     1       3.056 -15.023 -25.354  1.00  0.00     0.286 C 
HETATM   35  C1  UNL     1       1.575 -14.871 -24.963  1.00  0.00     0.135 C 
HETATM   36  O1  UNL     1       3.606 -15.985 -24.754  1.00  0.00    -0.258 OA
ENDBRANCH  32  33
ENDBRANCH  31  32
ENDBRANCH  30  31
ENDBRANCH  29  30
ENDBRANCH  28  29
BRANCH  28  37
HETATM   37  N2  UNL     1       2.707  -8.188 -27.270  1.00  0.00    -0.075 N 
ATOM     38  H23 UNL     1       2.961  -7.791 -26.365  1.00  0.00     0.274 HD
ATOM     39  H22 UNL     1       2.799  -7.329 -27.813  1.00  0.00     0.274 HD
ATOM     40  H21 UNL     1       1.767  -8.583 -27.291  1.00  0.00     0.274 HD
ENDBRANCH  28  37
ENDBRANCH  27  28
ENDBRANCH  24  27
ENDBRANCH  22  23
ENDBRANCH  21  22
ENDBRANCH  20  21
ENDBRANCH  18  20
ENDBRANCH   1  18
BRANCH   4  41
HETATM   41  O3  UNL     1       8.697 -14.788 -24.833  1.00  0.00    -0.349 OA
ATOM     42  H3  UNL     1       8.491 -15.471 -25.461  1.00  0.00     0.219 HD
ENDBRANCH   4  41
BRANCH   5  43
HETATM   43  C18 UNL     1       9.482 -15.466 -22.539  1.00  0.00    -0.010 C 
HETATM   44  C19 UNL     1      10.085 -14.795 -21.407  1.00  0.00    -0.028 C 
BRANCH  44  45
HETATM   45  C20 UNL     1       9.824 -15.167 -19.998  1.00  0.00     0.054 C 
BRANCH  45  46
HETATM   46  C21 UNL     1       9.074 -13.953 -19.354  1.00  0.00     0.233 C 
BRANCH  46  47
HETATM   47  N5  UNL     1       7.662 -14.145 -19.497  1.00  0.00    -0.079 N 
ATOM     48  H53 UNL     1       7.345 -13.997 -20.456  1.00  0.00     0.274 HD
ATOM     49  H52 UNL     1       7.392 -15.124 -19.406  1.00  0.00     0.274 HD
ATOM     50  H51 UNL     1       7.174 -13.545 -18.831  1.00  0.00     0.274 HD
ENDBRANCH  46  47
ENDBRANCH  45  46
ENDBRANCH  44  45
ENDBRANCH   5  43
BRANCH  13  51
HETATM   51  C26 UNL     1       2.845 -14.738 -20.410  1.00  0.00     0.009 C 
HETATM   52  C27 UNL     1       3.724 -13.977 -19.429  1.00  0.00     0.012 C 
HETATM   53  C28 UNL     1       2.175 -13.671 -21.256  1.00  0.00     0.012 C 
ENDBRANCH  13  51
TORSDOF 19
ENDMDL
MODEL 5
REMARK VINA RESULT: -8.726415903      3.095      7.854
REMARK  19 active torsions:
REMARK  status: ('A' for Active; 'I' for Inactive)
REMARK       I    between atoms: C2_2  and  N1_4 
REMARK    1  A    between atoms: N1_4  and  C3_5 
REMARK    2  A    between atoms: C3_5  and  C4_6 
REMARK    3  A    between atoms: C4_6  and  C5_7 
REMARK    4  A    between atoms: C5_7  and  C6_8 
REMARK    5  A    between atoms: C6_8  and  C7_9 
REMARK    6  A    between atoms: C7_9  and  N2_10 
REMARK    7  A    between atoms: C7_9  and  C8_14 
REMARK    8  A    between atoms: C8_14  and  C9_15 
REMARK       I    between atoms: C9_15  and  N3_17 
REMARK    9  A    between atoms: N3_17  and  C10_19 
REMARK   10  A    between atoms: C10_19  and  C11_20 
REMARK   11  A    between atoms: C11_20  and  C12_21 
REMARK   12  A    between atoms: C12_21  and  C13_22 
REMARK   13  A    between atoms: C13_22  and  C15_24 
REMARK   14  A    between atoms: C16_27  and  O3_28 
REMARK   15  A    between atoms: C17_30  and  C18_31 
REMARK   16  A    between atoms: C19_32  and  C20_33 
REMARK   17  A    between atoms: C20_33  and  C21_34 
REMARK   18  A    between atoms: C21_34  and  N5_35 
REMARK   19  A    between atoms: C25_46  and  C26_47 
ROOT
HETATM    1  C15 UNL     1       4.606 -14.272 -24.203  1.00  0.00     0.204 C 
HETATM    2  N4  UNL     1       5.063 -13.553 -22.969  1.00  0.00    -0.357 N 
ATOM      3  H4  UNL     1       4.473 -13.671 -22.145  1.00  0.00     0.162 HD
HETATM    4  C16 UNL     1       6.174 -12.755 -22.797  1.00  0.00     0.127 C 
HETATM    5  C17 UNL     1       7.216 -12.058 -23.588  1.00  0.00     0.157 C 
HETATM    6  C22 UNL     1       6.970 -10.678 -23.934  1.00  0.00     0.180 C 
HETATM    7  O4  UNL     1       7.038  -9.905 -22.955  1.00  0.00    -0.291 OA
HETATM    8  C23 UNL     1       6.652 -10.029 -25.225  1.00  0.00     0.142 C 
HETATM    9  N6  UNL     1       6.930 -10.658 -26.455  1.00  0.00    -0.332 N 
ATOM     10  H6  UNL     1       7.916 -10.893 -26.570  1.00  0.00     0.168 HD
HETATM   11  C24 UNL     1       6.134 -11.034 -27.568  1.00  0.00     0.244 C 
HETATM   12  O5  UNL     1       6.392 -10.681 -28.736  1.00  0.00    -0.271 OA
HETATM   13  C25 UNL     1       4.879 -11.910 -27.445  1.00  0.00     0.180 C 
HETATM   14  N7  UNL     1       4.862 -12.487 -26.137  1.00  0.00    -0.345 N 
ATOM     15  H7  UNL     1       4.516 -11.774 -25.494  1.00  0.00     0.163 HD
HETATM   16  C29 UNL     1       5.119 -13.598 -25.405  1.00  0.00     0.245 C 
HETATM   17  O6  UNL     1       6.079 -14.379 -25.762  1.00  0.00    -0.271 OA
ENDROOT
BRANCH   1  18
HETATM   18  C13 UNL     1       4.873 -15.733 -24.164  1.00  0.00    -0.056 C 
HETATM   19  C14 UNL     1       3.810 -16.666 -24.657  1.00  0.00     0.046 C 
BRANCH  18  20
HETATM   20  C12 UNL     1       5.493 -16.338 -22.978  1.00  0.00    -0.020 C 
BRANCH  20  21
HETATM   21  C11 UNL     1       6.945 -16.391 -22.765  1.00  0.00     0.047 C 
BRANCH  21  22
HETATM   22  C10 UNL     1       7.210 -16.135 -21.258  1.00  0.00     0.126 C 
BRANCH  22  23
HETATM   23  N3  UNL     1       6.019 -16.188 -20.475  1.00  0.00    -0.361 N 
HETATM   24  C9  UNL     1       5.808 -15.131 -19.522  1.00  0.00     0.219 C 
HETATM   25  O2  UNL     1       6.668 -14.221 -19.448  1.00  0.00    -0.274 OA
ATOM     26  H3  UNL     1       5.344 -16.945 -20.587  1.00  0.00     0.162 HD
BRANCH  24  27
HETATM   27  C8  UNL     1       4.634 -15.083 -18.635  1.00  0.00     0.135 C 
BRANCH  27  28
HETATM   28  C7  UNL     1       3.568 -14.198 -19.227  1.00  0.00     0.192 C 
BRANCH  28  29
HETATM   29  C6  UNL     1       3.108 -14.839 -20.532  1.00  0.00     0.033 C 
BRANCH  29  30
HETATM   30  C5  UNL     1       2.006 -14.036 -21.171  1.00  0.00     0.008 C 
BRANCH  30  31
HETATM   31  C4  UNL     1       1.354 -14.762 -22.267  1.00  0.00     0.060 C 
BRANCH  31  32
HETATM   32  C3  UNL     1       1.263 -16.268 -22.085  1.00  0.00     0.159 C 
BRANCH  32  33
HETATM   33  N1  UNL     1      -0.002 -16.749 -22.334  1.00  0.00    -0.388 NA
HETATM   34  C2  UNL     1      -1.245 -17.220 -22.579  1.00  0.00     0.286 C 
HETATM   35  C1  UNL     1      -1.829 -17.044 -23.992  1.00  0.00     0.135 C 
HETATM   36  O1  UNL     1      -2.048 -17.809 -21.807  1.00  0.00    -0.258 OA
ENDBRANCH  32  33
ENDBRANCH  31  32
ENDBRANCH  30  31
ENDBRANCH  29  30
ENDBRANCH  28  29
BRANCH  28  37
HETATM   37  N2  UNL     1       4.149 -12.903 -19.596  1.00  0.00    -0.075 N 
ATOM     38  H23 UNL     1       3.558 -12.355 -20.221  1.00  0.00     0.274 HD
ATOM     39  H22 UNL     1       4.170 -12.233 -18.827  1.00  0.00     0.274 HD
ATOM     40  H21 UNL     1       5.071 -13.107 -19.982  1.00  0.00     0.274 HD
ENDBRANCH  28  37
ENDBRANCH  27  28
ENDBRANCH  24  27
ENDBRANCH  22  23
ENDBRANCH  21  22
ENDBRANCH  20  21
ENDBRANCH  18  20
ENDBRANCH   1  18
BRANCH   4  41
HETATM   41  O3  UNL     1       6.426 -12.504 -21.538  1.00  0.00    -0.349 OA
ATOM     42  H3  UNL     1       7.323 -12.701 -21.296  1.00  0.00     0.219 HD
ENDBRANCH   4  41
BRANCH   5  43
HETATM   43  C18 UNL     1       8.534 -12.159 -22.869  1.00  0.00    -0.010 C 
HETATM   44  C19 UNL     1       9.278 -13.397 -22.765  1.00  0.00    -0.028 C 
BRANCH  44  45
HETATM   45  C20 UNL     1       9.855 -14.108 -23.929  1.00  0.00     0.054 C 
BRANCH  45  46
HETATM   46  C21 UNL     1      10.622 -15.345 -23.353  1.00  0.00     0.233 C 
BRANCH  46  47
HETATM   47  N5  UNL     1      10.243 -16.515 -24.086  1.00  0.00    -0.079 N 
ATOM     48  H53 UNL     1       9.253 -16.515 -24.333  1.00  0.00     0.274 HD
ATOM     49  H52 UNL     1      10.626 -16.521 -25.031  1.00  0.00     0.274 HD
ATOM     50  H51 UNL     1      10.509 -17.344 -23.555  1.00  0.00     0.274 HD
ENDBRANCH  46  47
ENDBRANCH  45  46
ENDBRANCH  44  45
ENDBRANCH   5  43
BRANCH  13  51
HETATM   51  C26 UNL     1       4.599 -12.728 -28.638  1.00  0.00     0.009 C 
HETATM   52  C27 UNL     1       4.082 -14.063 -28.126  1.00  0.00     0.012 C 
HETATM   53  C28 UNL     1       3.434 -12.111 -29.391  1.00  0.00     0.012 C 
ENDBRANCH  13  51
TORSDOF 19
ENDMDL
