MODEL 1
REMARK VINA RESULT: -7.965705168      0.000      0.000
REMARK  23 active torsions:
REMARK  status: ('A' for Active; 'I' for Inactive)
REMARK    1  A    between atoms: C2_2  and  C3_4 
REMARK    2  A    between atoms: C3_4  and  N1_5 
REMARK    3  A    between atoms: C3_4  and  C19_42 
REMARK    4  A    between atoms: N1_5  and  C4_7 
REMARK    5  A    between atoms: C4_7  and  N2_8 
REMARK    6  A    between atoms: C4_7  and  C11_26 
REMARK       I    between atoms: N2_8  and  C5_10 
REMARK    7  A    between atoms: C5_10  and  C6_12 
REMARK    8  A    between atoms: C6_12  and  C7_13 
REMARK    9  A    between atoms: C7_13  and  C8_14 
REMARK   10  A    between atoms: C8_14  and  N3_15 
REMARK   11  A    between atoms: C9_17  and  N4_19 
REMARK   12  A    between atoms: N4_19  and  N5_21 
REMARK   13  A    between atoms: N5_21  and  N6_23 
REMARK   14  A    between atoms: C11_26  and  N7_27 
REMARK   15  A    between atoms: C11_26  and  C12_31 
REMARK   16  A    between atoms: C12_31  and  C13_32 
REMARK   17  A    between atoms: C13_32  and  N8_33 
REMARK       I    between atoms: N8_33  and  C14_35 
REMARK   18  A    between atoms: C14_35  and  O4_37 
REMARK   19  A    between atoms: O4_37  and  C15_38 
REMARK       I    between atoms: C19_42  and  N9_44 
REMARK   20  A    between atoms: N9_44  and  C20_46 
REMARK   21  A    between atoms: C20_46  and  C21_47 
REMARK   22  A    between atoms: C20_46  and  C25_51 
REMARK   23  A    between atoms: C21_47  and  C22_48 
ROOT
HETATM    1  C4  UNL     1       2.980 -14.304 -23.933  1.00  0.00     0.211 C 
ENDROOT
BRANCH   1   2
HETATM    2  N1  UNL     1       3.966 -13.340 -23.711  1.00  0.00    -0.381 N 
ATOM      3  H1  UNL     1       4.812 -13.438 -24.271  1.00  0.00     0.156 HD
BRANCH   2   4
HETATM    4  C3  UNL     1       3.949 -12.277 -22.840  1.00  0.00     0.241 C 
BRANCH   4   5
HETATM    5  C2  UNL     1       4.779 -11.107 -23.315  1.00  0.00     0.154 C 
HETATM    6  C1  UNL     1       4.174 -10.018 -24.131  1.00  0.00     0.093 C 
HETATM    7  O1  UNL     1       5.961 -11.016 -23.060  1.00  0.00    -0.296 OA
ENDBRANCH   4   5
BRANCH   4   8
HETATM    8  C19 UNL     1       4.138 -12.478 -21.384  1.00  0.00     0.247 C 
HETATM    9  O5  UNL     1       3.535 -11.759 -20.576  1.00  0.00    -0.271 OA
HETATM   10  N9  UNL     1       5.013 -13.502 -20.998  1.00  0.00    -0.354 N 
ATOM     11  H9  UNL     1       5.465 -14.042 -21.736  1.00  0.00     0.162 HD
BRANCH  10  12
HETATM   12  C20 UNL     1       5.326 -13.857 -19.599  1.00  0.00     0.088 C 
BRANCH  12  13
HETATM   13  C21 UNL     1       6.733 -14.385 -19.666  1.00  0.00     0.029 C 
BRANCH  13  14
HETATM   14  C22 UNL     1       7.823 -13.390 -19.768  1.00  0.00    -0.021 C 
HETATM   15  C23 UNL     1       8.302 -13.095 -21.164  1.00  0.00     0.009 C 
HETATM   16  C24 UNL     1       9.036 -14.050 -19.065  1.00  0.00     0.009 C 
ENDBRANCH  13  14
ENDBRANCH  12  13
BRANCH  12  17
HETATM   17  C25 UNL     1       4.284 -14.791 -19.144  1.00  0.00     0.000 C 
HETATM   18  C26 UNL     1       3.496 -15.455 -20.246  1.00  0.00     0.011 C 
HETATM   19  C27 UNL     1       4.631 -15.776 -18.083  1.00  0.00     0.011 C 
ENDBRANCH  12  17
ENDBRANCH  10  12
ENDBRANCH   4   8
ENDBRANCH   2   4
ENDBRANCH   1   2
BRANCH   1  20
HETATM   20  N2  UNL     1       3.495 -15.590 -23.415  1.00  0.00    -0.338 N 
HETATM   21  C5  UNL     1       4.805 -16.020 -23.765  1.00  0.00     0.219 C 
HETATM   22  O2  UNL     1       5.593 -15.404 -24.514  1.00  0.00    -0.274 OA
ATOM     23  H2  UNL     1       2.913 -16.166 -22.807  1.00  0.00     0.164 HD
BRANCH  21  24
HETATM   24  C6  UNL     1       5.319 -17.322 -23.210  1.00  0.00     0.104 C 
BRANCH  24  25
HETATM   25  C7  UNL     1       6.299 -17.037 -22.126  1.00  0.00     0.029 C 
BRANCH  25  26
HETATM   26  C8  UNL     1       7.600 -17.759 -22.437  1.00  0.00     0.121 C 
BRANCH  26  27
HETATM   27  N3  UNL     1       8.179 -17.134 -23.598  1.00  0.00    -0.379 N 
HETATM   28  C9  UNL     1       9.231 -16.420 -23.479  1.00  0.00     0.089 C 
HETATM   29  C10 UNL     1       9.863 -16.226 -22.158  1.00  0.00     0.090 C 
ATOM     30  H3  UNL     1       7.750 -17.263 -24.515  1.00  0.00     0.160 HD
BRANCH  28  31
HETATM   31  N4  UNL     1       9.820 -15.820 -24.615  1.00  0.00    -0.276 N 
ATOM     32  H4  UNL     1      10.744 -16.131 -24.915  1.00  0.00     0.189 HD
BRANCH  31  33
HETATM   33  N5  UNL     1       9.181 -14.823 -25.334  1.00  0.00    -0.248 N 
ATOM     34  H5  UNL     1       8.469 -15.080 -26.019  1.00  0.00     0.207 HD
BRANCH  33  35
HETATM   35  N6  UNL     1       9.466 -13.579 -25.158  1.00  0.00    -0.331 N 
ATOM     36  H62 UNL     1       9.872 -13.299 -24.266  1.00  0.00     0.178 HD
ATOM     37  H61 UNL     1       9.293 -12.885 -25.885  1.00  0.00     0.178 HD
ENDBRANCH  33  35
ENDBRANCH  31  33
ENDBRANCH  28  31
ENDBRANCH  26  27
ENDBRANCH  25  26
ENDBRANCH  24  25
ENDBRANCH  21  24
ENDBRANCH   1  20
BRANCH   1  38
HETATM   38  C11 UNL     1       2.615 -14.517 -25.353  1.00  0.00     0.230 C 
BRANCH  38  39
HETATM   39  N7  UNL     1       1.315 -15.077 -25.549  1.00  0.00    -0.071 N 
ATOM     40  H73 UNL     1       0.629 -14.593 -24.971  1.00  0.00     0.274 HD
ATOM     41  H72 UNL     1       0.961 -14.838 -26.476  1.00  0.00     0.274 HD
ATOM     42  H71 UNL     1       1.263 -16.084 -25.398  1.00  0.00     0.274 HD
ENDBRANCH  38  39
BRANCH  38  43
HETATM   43  C12 UNL     1       2.669 -13.249 -26.205  1.00  0.00     0.081 C 
BRANCH  43  44
HETATM   44  C13 UNL     1       3.942 -13.120 -26.936  1.00  0.00     0.068 C 
BRANCH  44  45
HETATM   45  N8  UNL     1       5.011 -12.329 -26.587  1.00  0.00    -0.316 N 
HETATM   46  C14 UNL     1       6.391 -12.618 -26.610  1.00  0.00     0.365 C 
HETATM   47  O3  UNL     1       6.838 -13.763 -26.993  1.00  0.00    -0.238 OA
ATOM     48  H8  UNL     1       4.770 -11.393 -26.263  1.00  0.00     0.170 HD
BRANCH  46  49
HETATM   49  O4  UNL     1       7.350 -11.722 -26.218  1.00  0.00    -0.294 OA
BRANCH  49  50
HETATM   50  C15 UNL     1       7.704 -10.493 -26.747  1.00  0.00     0.061 C 
HETATM   51  C16 UNL     1       6.900 -10.013 -27.907  1.00  0.00     0.046 C 
HETATM   52  C17 UNL     1       9.169 -10.513 -27.146  1.00  0.00     0.046 C 
HETATM   53  C18 UNL     1       7.595  -9.404 -25.656  1.00  0.00     0.046 C 
ENDBRANCH  49  50
ENDBRANCH  46  49
ENDBRANCH  44  45
ENDBRANCH  43  44
ENDBRANCH  38  43
ENDBRANCH   1  38
TORSDOF 23
ENDMDL
MODEL 2
REMARK VINA RESULT: -7.914155978      3.086      7.332
REMARK  23 active torsions:
REMARK  status: ('A' for Active; 'I' for Inactive)
REMARK    1  A    between atoms: C2_2  and  C3_4 
REMARK    2  A    between atoms: C3_4  and  N1_5 
REMARK    3  A    between atoms: C3_4  and  C19_42 
REMARK    4  A    between atoms: N1_5  and  C4_7 
REMARK    5  A    between atoms: C4_7  and  N2_8 
REMARK    6  A    between atoms: C4_7  and  C11_26 
REMARK       I    between atoms: N2_8  and  C5_10 
REMARK    7  A    between atoms: C5_10  and  C6_12 
REMARK    8  A    between atoms: C6_12  and  C7_13 
REMARK    9  A    between atoms: C7_13  and  C8_14 
REMARK   10  A    between atoms: C8_14  and  N3_15 
REMARK   11  A    between atoms: C9_17  and  N4_19 
REMARK   12  A    between atoms: N4_19  and  N5_21 
REMARK   13  A    between atoms: N5_21  and  N6_23 
REMARK   14  A    between atoms: C11_26  and  N7_27 
REMARK   15  A    between atoms: C11_26  and  C12_31 
REMARK   16  A    between atoms: C12_31  and  C13_32 
REMARK   17  A    between atoms: C13_32  and  N8_33 
REMARK       I    between atoms: N8_33  and  C14_35 
REMARK   18  A    between atoms: C14_35  and  O4_37 
REMARK   19  A    between atoms: O4_37  and  C15_38 
REMARK       I    between atoms: C19_42  and  N9_44 
REMARK   20  A    between atoms: N9_44  and  C20_46 
REMARK   21  A    between atoms: C20_46  and  C21_47 
REMARK   22  A    between atoms: C20_46  and  C25_51 
REMARK   23  A    between atoms: C21_47  and  C22_48 
ROOT
HETATM    1  C4  UNL     1       3.980 -12.967 -23.661  1.00  0.00     0.211 C 
ENDROOT
BRANCH   1   2
HETATM    2  N1  UNL     1       5.349 -13.222 -23.555  1.00  0.00    -0.381 N 
ATOM      3  H1  UNL     1       5.604 -14.193 -23.376  1.00  0.00     0.156 HD
BRANCH   2   4
HETATM    4  C3  UNL     1       6.399 -12.341 -23.659  1.00  0.00     0.241 C 
BRANCH   4   5
HETATM    5  C2  UNL     1       7.368 -12.433 -22.505  1.00  0.00     0.154 C 
HETATM    6  C1  UNL     1       8.755 -11.903 -22.623  1.00  0.00     0.093 C 
HETATM    7  O1  UNL     1       7.061 -12.946 -21.449  1.00  0.00    -0.296 OA
ENDBRANCH   4   5
BRANCH   4   8
HETATM    8  C19 UNL     1       6.174 -10.922 -24.023  1.00  0.00     0.247 C 
HETATM    9  O5  UNL     1       5.868 -10.099 -23.149  1.00  0.00    -0.271 OA
HETATM   10  N9  UNL     1       6.328 -10.586 -25.375  1.00  0.00    -0.354 N 
ATOM     11  H9  UNL     1       6.580 -11.333 -26.022  1.00  0.00     0.162 HD
BRANCH  10  12
HETATM   12  C20 UNL     1       6.152  -9.228 -25.929  1.00  0.00     0.088 C 
BRANCH  12  13
HETATM   13  C21 UNL     1       4.843  -9.306 -26.666  1.00  0.00     0.029 C 
BRANCH  13  14
HETATM   14  C22 UNL     1       4.896  -9.268 -28.143  1.00  0.00    -0.021 C 
HETATM   15  C23 UNL     1       4.249  -8.070 -28.785  1.00  0.00     0.009 C 
HETATM   16  C24 UNL     1       4.040 -10.474 -28.607  1.00  0.00     0.009 C 
ENDBRANCH  13  14
ENDBRANCH  12  13
BRANCH  12  17
HETATM   17  C25 UNL     1       7.350  -8.927 -26.727  1.00  0.00     0.000 C 
HETATM   18  C26 UNL     1       8.013  -7.608 -26.413  1.00  0.00     0.011 C 
HETATM   19  C27 UNL     1       8.371  -9.996 -26.902  1.00  0.00     0.011 C 
ENDBRANCH  12  17
ENDBRANCH  10  12
ENDBRANCH   4   8
ENDBRANCH   2   4
ENDBRANCH   1   2
BRANCH   1  20
HETATM   20  N2  UNL     1       3.333 -13.522 -22.452  1.00  0.00    -0.338 N 
HETATM   21  C5  UNL     1       3.296 -12.755 -21.254  1.00  0.00     0.219 C 
HETATM   22  O2  UNL     1       3.791 -11.617 -21.107  1.00  0.00    -0.274 OA
ATOM     23  H2  UNL     1       2.915 -14.452 -22.477  1.00  0.00     0.164 HD
BRANCH  21  24
HETATM   24  C6  UNL     1       2.615 -13.329 -20.041  1.00  0.00     0.104 C 
BRANCH  24  25
HETATM   25  C7  UNL     1       3.645 -13.693 -19.029  1.00  0.00     0.029 C 
BRANCH  25  26
HETATM   26  C8  UNL     1       4.152 -15.095 -19.326  1.00  0.00     0.121 C 
BRANCH  26  27
HETATM   27  N3  UNL     1       5.521 -14.981 -19.763  1.00  0.00    -0.379 N 
HETATM   28  C9  UNL     1       6.162 -16.024 -20.126  1.00  0.00     0.089 C 
HETATM   29  C10 UNL     1       5.515 -17.352 -20.102  1.00  0.00     0.090 C 
ATOM     30  H3  UNL     1       5.977 -14.069 -19.783  1.00  0.00     0.160 HD
BRANCH  28  31
HETATM   31  N4  UNL     1       7.498 -15.921 -20.576  1.00  0.00    -0.276 N 
ATOM     32  H4  UNL     1       7.797 -16.490 -21.368  1.00  0.00     0.189 HD
BRANCH  31  33
HETATM   33  N5  UNL     1       8.413 -15.071 -19.975  1.00  0.00    -0.248 N 
ATOM     34  H5  UNL     1       8.215 -14.703 -19.045  1.00  0.00     0.207 HD
BRANCH  33  35
HETATM   35  N6  UNL     1       9.508 -14.736 -20.566  1.00  0.00    -0.331 N 
ATOM     36  H62 UNL     1       9.960 -13.866 -20.288  1.00  0.00     0.178 HD
ATOM     37  H61 UNL     1       9.920 -15.320 -21.294  1.00  0.00     0.178 HD
ENDBRANCH  33  35
ENDBRANCH  31  33
ENDBRANCH  28  31
ENDBRANCH  26  27
ENDBRANCH  25  26
ENDBRANCH  24  25
ENDBRANCH  21  24
ENDBRANCH   1  20
BRANCH   1  38
HETATM   38  C11 UNL     1       3.314 -13.576 -24.835  1.00  0.00     0.230 C 
BRANCH  38  39
HETATM   39  N7  UNL     1       4.171 -13.781 -25.959  1.00  0.00    -0.071 N 
ATOM     40  H73 UNL     1       4.223 -12.935 -26.526  1.00  0.00     0.274 HD
ATOM     41  H72 UNL     1       5.144 -13.848 -25.657  1.00  0.00     0.274 HD
ATOM     42  H71 UNL     1       3.922 -14.583 -26.537  1.00  0.00     0.274 HD
ENDBRANCH  38  39
BRANCH  38  43
HETATM   43  C12 UNL     1       2.657 -14.926 -24.545  1.00  0.00     0.081 C 
BRANCH  43  44
HETATM   44  C13 UNL     1       1.268 -14.989 -25.033  1.00  0.00     0.068 C 
BRANCH  44  45
HETATM   45  N8  UNL     1       0.179 -15.471 -24.346  1.00  0.00    -0.316 N 
HETATM   46  C14 UNL     1      -0.385 -15.033 -23.130  1.00  0.00     0.365 C 
HETATM   47  O3  UNL     1       0.109 -14.043 -22.471  1.00  0.00    -0.238 OA
ATOM     48  H8  UNL     1      -0.291 -16.265 -24.780  1.00  0.00     0.170 HD
BRANCH  46  49
HETATM   49  O4  UNL     1      -1.478 -15.626 -22.556  1.00  0.00    -0.294 OA
BRANCH  49  50
HETATM   50  C15 UNL     1      -2.829 -15.386 -22.732  1.00  0.00     0.061 C 
HETATM   51  C16 UNL     1      -3.275 -13.968 -22.608  1.00  0.00     0.046 C 
HETATM   52  C17 UNL     1      -3.629 -16.232 -21.757  1.00  0.00     0.046 C 
HETATM   53  C18 UNL     1      -3.265 -15.862 -24.135  1.00  0.00     0.046 C 
ENDBRANCH  49  50
ENDBRANCH  46  49
ENDBRANCH  44  45
ENDBRANCH  43  44
ENDBRANCH  38  43
ENDBRANCH   1  38
TORSDOF 23
ENDMDL
MODEL 3
REMARK VINA RESULT: -7.869615191      2.096      6.407
REMARK  23 active torsions:
REMARK  status: ('A' for Active; 'I' for Inactive)
REMARK    1  A    between atoms: C2_2  and  C3_4 
REMARK    2  A    between atoms: C3_4  and  N1_5 
REMARK    3  A    between atoms: C3_4  and  C19_42 
REMARK    4  A    between atoms: N1_5  and  C4_7 
REMARK    5  A    between atoms: C4_7  and  N2_8 
REMARK    6  A    between atoms: C4_7  and  C11_26 
REMARK       I    between atoms: N2_8  and  C5_10 
REMARK    7  A    between atoms: C5_10  and  C6_12 
REMARK    8  A    between atoms: C6_12  and  C7_13 
REMARK    9  A    between atoms: C7_13  and  C8_14 
REMARK   10  A    between atoms: C8_14  and  N3_15 
REMARK   11  A    between atoms: C9_17  and  N4_19 
REMARK   12  A    between atoms: N4_19  and  N5_21 
REMARK   13  A    between atoms: N5_21  and  N6_23 
REMARK   14  A    between atoms: C11_26  and  N7_27 
REMARK   15  A    between atoms: C11_26  and  C12_31 
REMARK   16  A    between atoms: C12_31  and  C13_32 
REMARK   17  A    between atoms: C13_32  and  N8_33 
REMARK       I    between atoms: N8_33  and  C14_35 
REMARK   18  A    between atoms: C14_35  and  O4_37 
REMARK   19  A    between atoms: O4_37  and  C15_38 
REMARK       I    between atoms: C19_42  and  N9_44 
REMARK   20  A    between atoms: N9_44  and  C20_46 
REMARK   21  A    between atoms: C20_46  and  C21_47 
REMARK   22  A    between atoms: C20_46  and  C25_51 
REMARK   23  A    between atoms: C21_47  and  C22_48 
ROOT
HETATM    1  C4  UNL     1       5.582 -14.646 -20.762  1.00  0.00     0.211 C 
ENDROOT
BRANCH   1   2
HETATM    2  N1  UNL     1       5.953 -15.342 -21.915  1.00  0.00    -0.381 N 
ATOM      3  H1  UNL     1       6.775 -15.939 -21.824  1.00  0.00     0.156 HD
BRANCH   2   4
HETATM    4  C3  UNL     1       5.361 -15.331 -23.155  1.00  0.00     0.241 C 
BRANCH   4   5
HETATM    5  C2  UNL     1       5.170 -16.713 -23.734  1.00  0.00     0.154 C 
HETATM    6  C1  UNL     1       3.876 -17.113 -24.354  1.00  0.00     0.093 C 
HETATM    7  O1  UNL     1       6.051 -17.546 -23.709  1.00  0.00    -0.296 OA
ENDBRANCH   4   5
BRANCH   4   8
HETATM    8  C19 UNL     1       5.813 -14.394 -24.211  1.00  0.00     0.247 C 
HETATM    9  O5  UNL     1       6.976 -14.452 -24.634  1.00  0.00    -0.271 OA
HETATM   10  N9  UNL     1       4.869 -13.474 -24.683  1.00  0.00    -0.354 N 
ATOM     11  H9  UNL     1       3.935 -13.501 -24.273  1.00  0.00     0.162 HD
BRANCH  10  12
HETATM   12  C20 UNL     1       5.127 -12.467 -25.733  1.00  0.00     0.088 C 
BRANCH  12  13
HETATM   13  C21 UNL     1       4.665 -11.175 -25.117  1.00  0.00     0.029 C 
BRANCH  13  14
HETATM   14  C22 UNL     1       5.508  -9.981 -25.337  1.00  0.00    -0.021 C 
HETATM   15  C23 UNL     1       5.277  -9.255 -26.635  1.00  0.00     0.009 C 
HETATM   16  C24 UNL     1       6.956 -10.525 -25.441  1.00  0.00     0.009 C 
ENDBRANCH  13  14
ENDBRANCH  12  13
BRANCH  12  17
HETATM   17  C25 UNL     1       4.428 -12.916 -26.946  1.00  0.00     0.000 C 
HETATM   18  C26 UNL     1       2.943 -12.649 -26.965  1.00  0.00     0.011 C 
HETATM   19  C27 UNL     1       5.033 -12.599 -28.269  1.00  0.00     0.011 C 
ENDBRANCH  12  17
ENDBRANCH  10  12
ENDBRANCH   4   8
ENDBRANCH   2   4
ENDBRANCH   1   2
BRANCH   1  20
HETATM   20  N2  UNL     1       6.749 -14.645 -19.853  1.00  0.00    -0.338 N 
HETATM   21  C5  UNL     1       7.829 -13.750 -20.089  1.00  0.00     0.219 C 
HETATM   22  O2  UNL     1       7.904 -12.941 -21.038  1.00  0.00    -0.274 OA
ATOM     23  H2  UNL     1       6.778 -15.285 -19.059  1.00  0.00     0.164 HD
BRANCH  21  24
HETATM   24  C6  UNL     1       8.997 -13.750 -19.139  1.00  0.00     0.104 C 
BRANCH  24  25
HETATM   25  C7  UNL     1      10.117 -14.523 -19.744  1.00  0.00     0.029 C 
BRANCH  25  26
HETATM   26  C8  UNL     1       9.709 -15.984 -19.844  1.00  0.00     0.121 C 
BRANCH  26  27
HETATM   27  N3  UNL     1       9.767 -16.360 -21.234  1.00  0.00    -0.379 N 
HETATM   28  C9  UNL     1       9.003 -17.282 -21.676  1.00  0.00     0.089 C 
HETATM   29  C10 UNL     1       8.056 -17.973 -20.776  1.00  0.00     0.090 C 
ATOM     30  H3  UNL     1      10.417 -15.890 -21.864  1.00  0.00     0.160 HD
BRANCH  28  31
HETATM   31  N4  UNL     1       9.036 -17.645 -23.042  1.00  0.00    -0.276 N 
ATOM     32  H4  UNL     1       9.247 -18.611 -23.292  1.00  0.00     0.189 HD
BRANCH  31  33
HETATM   33  N5  UNL     1       8.791 -16.728 -24.052  1.00  0.00    -0.248 N 
ATOM     34  H5  UNL     1       7.860 -16.680 -24.467  1.00  0.00     0.207 HD
BRANCH  33  35
HETATM   35  N6  UNL     1       9.712 -15.933 -24.477  1.00  0.00    -0.331 N 
ATOM     36  H62 UNL     1      10.511 -15.752 -23.870  1.00  0.00     0.178 HD
ATOM     37  H61 UNL     1       9.653 -15.493 -25.395  1.00  0.00     0.178 HD
ENDBRANCH  33  35
ENDBRANCH  31  33
ENDBRANCH  28  31
ENDBRANCH  26  27
ENDBRANCH  25  26
ENDBRANCH  24  25
ENDBRANCH  21  24
ENDBRANCH   1  20
BRANCH   1  38
HETATM   38  C11 UNL     1       4.443 -15.226 -20.015  1.00  0.00     0.230 C 
BRANCH  38  39
HETATM   39  N7  UNL     1       4.755 -16.422 -19.298  1.00  0.00    -0.071 N 
ATOM     40  H73 UNL     1       3.950 -16.731 -18.754  1.00  0.00     0.274 HD
ATOM     41  H72 UNL     1       4.845 -17.209 -19.940  1.00  0.00     0.274 HD
ATOM     42  H71 UNL     1       5.581 -16.351 -18.703  1.00  0.00     0.274 HD
ENDBRANCH  38  39
BRANCH  38  43
HETATM   43  C12 UNL     1       3.814 -14.270 -19.001  1.00  0.00     0.081 C 
BRANCH  43  44
HETATM   44  C13 UNL     1       2.889 -13.312 -19.634  1.00  0.00     0.068 C 
BRANCH  44  45
HETATM   45  N8  UNL     1       1.879 -13.609 -20.518  1.00  0.00    -0.316 N 
HETATM   46  C14 UNL     1       1.838 -13.465 -21.920  1.00  0.00     0.365 C 
HETATM   47  O3  UNL     1       2.834 -12.990 -22.583  1.00  0.00    -0.238 OA
ATOM     48  H8  UNL     1       1.033 -13.992 -20.096  1.00  0.00     0.170 HD
BRANCH  46  49
HETATM   49  O4  UNL     1       0.744 -13.798 -22.674  1.00  0.00    -0.294 OA
BRANCH  49  50
HETATM   50  C15 UNL     1       0.384 -15.002 -23.255  1.00  0.00     0.061 C 
HETATM   51  C16 UNL     1       0.761 -16.238 -22.512  1.00  0.00     0.046 C 
HETATM   52  C17 UNL     1       0.963 -15.084 -24.657  1.00  0.00     0.046 C 
HETATM   53  C18 UNL     1      -1.148 -15.053 -23.445  1.00  0.00     0.046 C 
ENDBRANCH  49  50
ENDBRANCH  46  49
ENDBRANCH  44  45
ENDBRANCH  43  44
ENDBRANCH  38  43
ENDBRANCH   1  38
TORSDOF 23
ENDMDL
MODEL 4
REMARK VINA RESULT: -7.857763217      3.398      6.809
REMARK  23 active torsions:
REMARK  status: ('A' for Active; 'I' for Inactive)
REMARK    1  A    between atoms: C2_2  and  C3_4 
REMARK    2  A    between atoms: C3_4  and  N1_5 
REMARK    3  A    between atoms: C3_4  and  C19_42 
REMARK    4  A    between atoms: N1_5  and  C4_7 
REMARK    5  A    between atoms: C4_7  and  N2_8 
REMARK    6  A    between atoms: C4_7  and  C11_26 
REMARK       I    between atoms: N2_8  and  C5_10 
REMARK    7  A    between atoms: C5_10  and  C6_12 
REMARK    8  A    between atoms: C6_12  and  C7_13 
REMARK    9  A    between atoms: C7_13  and  C8_14 
REMARK   10  A    between atoms: C8_14  and  N3_15 
REMARK   11  A    between atoms: C9_17  and  N4_19 
REMARK   12  A    between atoms: N4_19  and  N5_21 
REMARK   13  A    between atoms: N5_21  and  N6_23 
REMARK   14  A    between atoms: C11_26  and  N7_27 
REMARK   15  A    between atoms: C11_26  and  C12_31 
REMARK   16  A    between atoms: C12_31  and  C13_32 
REMARK   17  A    between atoms: C13_32  and  N8_33 
REMARK       I    between atoms: N8_33  and  C14_35 
REMARK   18  A    between atoms: C14_35  and  O4_37 
REMARK   19  A    between atoms: O4_37  and  C15_38 
REMARK       I    between atoms: C19_42  and  N9_44 
REMARK   20  A    between atoms: N9_44  and  C20_46 
REMARK   21  A    between atoms: C20_46  and  C21_47 
REMARK   22  A    between atoms: C20_46  and  C25_51 
REMARK   23  A    between atoms: C21_47  and  C22_48 
ROOT
HETATM    1  C4  UNL     1       4.315 -14.582 -25.211  1.00  0.00     0.211 C 
ENDROOT
BRANCH   1   2
HETATM    2  N1  UNL     1       5.589 -14.679 -24.648  1.00  0.00    -0.381 N 
ATOM      3  H1  UNL     1       5.989 -15.617 -24.621  1.00  0.00     0.156 HD
BRANCH   2   4
HETATM    4  C3  UNL     1       6.377 -13.682 -24.126  1.00  0.00     0.241 C 
BRANCH   4   5
HETATM    5  C2  UNL     1       7.771 -13.659 -24.708  1.00  0.00     0.154 C 
HETATM    6  C1  UNL     1       8.848 -14.526 -24.155  1.00  0.00     0.093 C 
HETATM    7  O1  UNL     1       8.067 -12.933 -25.634  1.00  0.00    -0.296 OA
ENDBRANCH   4   5
BRANCH   4   8
HETATM    8  C19 UNL     1       6.432 -13.436 -22.665  1.00  0.00     0.247 C 
HETATM    9  O5  UNL     1       6.861 -12.357 -22.233  1.00  0.00    -0.271 OA
HETATM   10  N9  UNL     1       5.980 -14.470 -21.834  1.00  0.00    -0.354 N 
ATOM     11  H9  UNL     1       5.646 -15.324 -22.281  1.00  0.00     0.162 HD
BRANCH  10  12
HETATM   12  C20 UNL     1       5.952 -14.413 -20.359  1.00  0.00     0.088 C 
BRANCH  12  13
HETATM   13  C21 UNL     1       7.056 -15.344 -19.940  1.00  0.00     0.029 C 
BRANCH  13  14
HETATM   14  C22 UNL     1       8.439 -14.950 -20.284  1.00  0.00    -0.021 C 
HETATM   15  C23 UNL     1       9.486 -16.013 -20.079  1.00  0.00     0.009 C 
HETATM   16  C24 UNL     1       8.805 -13.837 -19.270  1.00  0.00     0.009 C 
ENDBRANCH  13  14
ENDBRANCH  12  13
BRANCH  12  17
HETATM   17  C25 UNL     1       4.587 -14.762 -19.937  1.00  0.00     0.000 C 
HETATM   18  C26 UNL     1       4.454 -16.094 -19.241  1.00  0.00     0.011 C 
HETATM   19  C27 UNL     1       3.774 -13.726 -19.242  1.00  0.00     0.011 C 
ENDBRANCH  12  17
ENDBRANCH  10  12
ENDBRANCH   4   8
ENDBRANCH   2   4
ENDBRANCH   1   2
BRANCH   1  20
HETATM   20  N2  UNL     1       4.168 -13.207 -25.737  1.00  0.00    -0.338 N 
HETATM   21  C5  UNL     1       4.693 -12.879 -27.018  1.00  0.00     0.219 C 
HETATM   22  O2  UNL     1       5.307 -13.665 -27.771  1.00  0.00    -0.274 OA
ATOM     23  H2  UNL     1       3.692 -12.496 -25.181  1.00  0.00     0.164 HD
BRANCH  21  24
HETATM   24  C6  UNL     1       4.515 -11.480 -27.543  1.00  0.00     0.104 C 
BRANCH  24  25
HETATM   25  C7  UNL     1       5.532 -11.223 -28.600  1.00  0.00     0.029 C 
BRANCH  25  26
HETATM   26  C8  UNL     1       6.358 -10.010 -28.201  1.00  0.00     0.121 C 
BRANCH  26  27
HETATM   27  N3  UNL     1       7.167 -10.385 -27.070  1.00  0.00    -0.379 N 
HETATM   28  C9  UNL     1       7.698  -9.482 -26.340  1.00  0.00     0.089 C 
HETATM   29  C10 UNL     1       7.493  -8.051 -26.643  1.00  0.00     0.090 C 
ATOM     30  H3  UNL     1       7.315 -11.370 -26.852  1.00  0.00     0.160 HD
BRANCH  28  31
HETATM   31  N4  UNL     1       8.477  -9.838 -25.215  1.00  0.00    -0.276 N 
ATOM     32  H4  UNL     1       9.490  -9.735 -25.262  1.00  0.00     0.189 HD
BRANCH  31  33
HETATM   33  N5  UNL     1       7.904 -10.323 -24.049  1.00  0.00    -0.248 N 
ATOM     34  H5  UNL     1       8.316 -11.136 -23.592  1.00  0.00     0.207 HD
BRANCH  33  35
HETATM   35  N6  UNL     1       6.862  -9.768 -23.531  1.00  0.00    -0.331 N 
ATOM     36  H62 UNL     1       6.401  -9.024 -24.054  1.00  0.00     0.178 HD
ATOM     37  H61 UNL     1       6.501 -10.059 -22.623  1.00  0.00     0.178 HD
ENDBRANCH  33  35
ENDBRANCH  31  33
ENDBRANCH  28  31
ENDBRANCH  26  27
ENDBRANCH  25  26
ENDBRANCH  24  25
ENDBRANCH  21  24
ENDBRANCH   1  20
BRANCH   1  38
HETATM   38  C11 UNL     1       3.192 -14.817 -24.275  1.00  0.00     0.230 C 
BRANCH  38  39
HETATM   39  N7  UNL     1       2.883 -13.704 -23.434  1.00  0.00    -0.071 N 
ATOM     40  H73 UNL     1       3.274 -13.843 -22.502  1.00  0.00     0.274 HD
ATOM     41  H72 UNL     1       3.412 -12.881 -23.723  1.00  0.00     0.274 HD
ATOM     42  H71 UNL     1       1.889 -13.485 -23.374  1.00  0.00     0.274 HD
ENDBRANCH  38  39
BRANCH  38  43
HETATM   43  C12 UNL     1       1.884 -15.212 -24.960  1.00  0.00     0.081 C 
BRANCH  43  44
HETATM   44  C13 UNL     1       0.729 -15.139 -24.047  1.00  0.00     0.068 C 
BRANCH  44  45
HETATM   45  N8  UNL     1      -0.285 -16.060 -23.934  1.00  0.00    -0.316 N 
HETATM   46  C14 UNL     1      -0.597 -16.931 -22.870  1.00  0.00     0.365 C 
HETATM   47  O3  UNL     1       0.105 -16.962 -21.791  1.00  0.00    -0.238 OA
ATOM     48  H8  UNL     1      -0.906 -16.122 -24.741  1.00  0.00     0.170 HD
BRANCH  46  49
HETATM   49  O4  UNL     1      -1.645 -17.811 -22.906  1.00  0.00    -0.294 OA
BRANCH  49  50
HETATM   50  C15 UNL     1      -3.011 -17.585 -22.886  1.00  0.00     0.061 C 
HETATM   51  C16 UNL     1      -3.455 -16.228 -22.455  1.00  0.00     0.046 C 
HETATM   52  C17 UNL     1      -3.685 -18.619 -22.000  1.00  0.00     0.046 C 
HETATM   53  C18 UNL     1      -3.599 -17.813 -24.296  1.00  0.00     0.046 C 
ENDBRANCH  49  50
ENDBRANCH  46  49
ENDBRANCH  44  45
ENDBRANCH  43  44
ENDBRANCH  38  43
ENDBRANCH   1  38
TORSDOF 23
ENDMDL
MODEL 5
REMARK VINA RESULT: -7.850369090      3.090      7.126
REMARK  23 active torsions:
REMARK  status: ('A' for Active; 'I' for Inactive)
REMARK    1  A    between atoms: C2_2  and  C3_4 
REMARK    2  A    between atoms: C3_4  and  N1_5 
REMARK    3  A    between atoms: C3_4  and  C19_42 
REMARK    4  A    between atoms: N1_5  and  C4_7 
REMARK    5  A    between atoms: C4_7  and  N2_8 
REMARK    6  A    between atoms: C4_7  and  C11_26 
REMARK       I    between atoms: N2_8  and  C5_10 
REMARK    7  A    between atoms: C5_10  and  C6_12 
REMARK    8  A    between atoms: C6_12  and  C7_13 
REMARK    9  A    between atoms: C7_13  and  C8_14 
REMARK   10  A    between atoms: C8_14  and  N3_15 
REMARK   11  A    between atoms: C9_17  and  N4_19 
REMARK   12  A    between atoms: N4_19  and  N5_21 
REMARK   13  A    between atoms: N5_21  and  N6_23 
REMARK   14  A    between atoms: C11_26  and  N7_27 
REMARK   15  A    between atoms: C11_26  and  C12_31 
REMARK   16  A    between atoms: C12_31  and  C13_32 
REMARK   17  A    between atoms: C13_32  and  N8_33 
REMARK       I    between atoms: N8_33  and  C14_35 
REMARK   18  A    between atoms: C14_35  and  O4_37 
REMARK   19  A    between atoms: O4_37  and  C15_38 
REMARK       I    between atoms: C19_42  and  N9_44 
REMARK   20  A    between atoms: N9_44  and  C20_46 
REMARK   21  A    between atoms: C20_46  and  C21_47 
REMARK   22  A    between atoms: C20_46  and  C25_51 
REMARK   23  A    between atoms: C21_47  and  C22_48 
ROOT
HETATM    1  C4  UNL     1       3.645 -14.367 -23.026  1.00  0.00     0.211 C 
ENDROOT
BRANCH   1   2
HETATM    2  N1  UNL     1       4.095 -13.051 -22.902  1.00  0.00    -0.381 N 
ATOM      3  H1  UNL     1       3.542 -12.452 -22.289  1.00  0.00     0.156 HD
BRANCH   2   4
HETATM    4  C3  UNL     1       5.181 -12.454 -23.494  1.00  0.00     0.241 C 
BRANCH   4   5
HETATM    5  C2  UNL     1       6.479 -12.734 -22.774  1.00  0.00     0.154 C 
HETATM    6  C1  UNL     1       7.779 -12.720 -23.502  1.00  0.00     0.093 C 
HETATM    7  O1  UNL     1       6.512 -12.988 -21.589  1.00  0.00    -0.296 OA
ENDBRANCH   4   5
BRANCH   4   8
HETATM    8  C19 UNL     1       5.135 -11.036 -23.926  1.00  0.00     0.247 C 
HETATM    9  O5  UNL     1       5.002 -10.136 -23.086  1.00  0.00    -0.271 OA
HETATM   10  N9  UNL     1       5.250 -10.793 -25.301  1.00  0.00    -0.354 N 
ATOM     11  H9  UNL     1       5.354 -11.599 -25.918  1.00  0.00     0.162 HD
BRANCH  10  12
HETATM   12  C20 UNL     1       5.231  -9.453 -25.923  1.00  0.00     0.088 C 
BRANCH  12  13
HETATM   13  C21 UNL     1       3.849  -9.344 -26.506  1.00  0.00     0.029 C 
BRANCH  13  14
HETATM   14  C22 UNL     1       3.725  -9.445 -27.976  1.00  0.00    -0.021 C 
HETATM   15  C23 UNL     1       2.702  -8.539 -28.605  1.00  0.00     0.009 C 
HETATM   16  C24 UNL     1       3.197 -10.879 -28.237  1.00  0.00     0.009 C 
ENDBRANCH  13  14
ENDBRANCH  12  13
BRANCH  12  17
HETATM   17  C25 UNL     1       6.359  -9.395 -26.865  1.00  0.00     0.000 C 
HETATM   18  C26 UNL     1       7.281  -8.214 -26.688  1.00  0.00     0.011 C 
HETATM   19  C27 UNL     1       7.143 -10.638 -27.106  1.00  0.00     0.011 C 
ENDBRANCH  12  17
ENDBRANCH  10  12
ENDBRANCH   4   8
ENDBRANCH   2   4
ENDBRANCH   1   2
BRANCH   1  20
HETATM   20  N2  UNL     1       4.194 -15.131 -21.886  1.00  0.00    -0.338 N 
HETATM   21  C5  UNL     1       3.803 -14.801 -20.558  1.00  0.00     0.219 C 
HETATM   22  O2  UNL     1       3.020 -13.879 -20.243  1.00  0.00    -0.274 OA
ATOM     23  H2  UNL     1       4.852 -15.893 -22.050  1.00  0.00     0.164 HD
BRANCH  21  24
HETATM   24  C6  UNL     1       4.358 -15.604 -19.412  1.00  0.00     0.104 C 
BRANCH  24  25
HETATM   25  C7  UNL     1       4.662 -16.983 -19.885  1.00  0.00     0.029 C 
BRANCH  25  26
HETATM   26  C8  UNL     1       6.168 -17.129 -20.037  1.00  0.00     0.121 C 
BRANCH  26  27
HETATM   27  N3  UNL     1       6.413 -18.256 -20.900  1.00  0.00    -0.379 N 
HETATM   28  C9  UNL     1       7.257 -18.157 -21.852  1.00  0.00     0.089 C 
HETATM   29  C10 UNL     1       7.989 -16.894 -22.081  1.00  0.00     0.090 C 
ATOM     30  H3  UNL     1       5.913 -19.133 -20.749  1.00  0.00     0.160 HD
BRANCH  28  31
HETATM   31  N4  UNL     1       7.522 -19.264 -22.691  1.00  0.00    -0.276 N 
ATOM     32  H4  UNL     1       7.077 -19.306 -23.607  1.00  0.00     0.189 HD
BRANCH  31  33
HETATM   33  N5  UNL     1       8.368 -20.292 -22.306  1.00  0.00    -0.248 N 
ATOM     34  H5  UNL     1       9.260 -20.065 -21.867  1.00  0.00     0.207 HD
BRANCH  33  35
HETATM   35  N6  UNL     1       8.052 -21.527 -22.491  1.00  0.00    -0.331 N 
ATOM     36  H62 UNL     1       7.168 -21.735 -22.956  1.00  0.00     0.178 HD
ATOM     37  H61 UNL     1       8.663 -22.284 -22.185  1.00  0.00     0.178 HD
ENDBRANCH  33  35
ENDBRANCH  31  33
ENDBRANCH  28  31
ENDBRANCH  26  27
ENDBRANCH  25  26
ENDBRANCH  24  25
ENDBRANCH  21  24
ENDBRANCH   1  20
BRANCH   1  38
HETATM   38  C11 UNL     1       4.064 -15.063 -24.265  1.00  0.00     0.230 C 
BRANCH  38  39
HETATM   39  N7  UNL     1       4.986 -16.133 -24.055  1.00  0.00    -0.071 N 
ATOM     40  H73 UNL     1       4.590 -17.013 -24.385  1.00  0.00     0.274 HD
ATOM     41  H72 UNL     1       5.779 -16.050 -24.692  1.00  0.00     0.274 HD
ATOM     42  H71 UNL     1       5.311 -16.227 -23.093  1.00  0.00     0.274 HD
ENDBRANCH  38  39
BRANCH  38  43
HETATM   43  C12 UNL     1       2.905 -15.647 -25.072  1.00  0.00     0.081 C 
BRANCH  43  44
HETATM   44  C13 UNL     1       1.641 -14.925 -24.839  1.00  0.00     0.068 C 
BRANCH  44  45
HETATM   45  N8  UNL     1       0.488 -15.445 -24.300  1.00  0.00    -0.316 N 
HETATM   46  C14 UNL     1      -0.233 -15.042 -23.157  1.00  0.00     0.365 C 
HETATM   47  O3  UNL     1       0.151 -14.053 -22.426  1.00  0.00    -0.238 OA
ATOM     48  H8  UNL     1       0.095 -16.241 -24.801  1.00  0.00     0.170 HD
BRANCH  46  49
HETATM   49  O4  UNL     1      -1.373 -15.670 -22.731  1.00  0.00    -0.294 OA
BRANCH  49  50
HETATM   50  C15 UNL     1      -2.676 -15.576 -23.187  1.00  0.00     0.061 C 
HETATM   51  C16 UNL     1      -3.051 -14.307 -23.873  1.00  0.00     0.046 C 
HETATM   52  C17 UNL     1      -3.637 -15.806 -22.033  1.00  0.00     0.046 C 
HETATM   53  C18 UNL     1      -2.964 -16.718 -24.186  1.00  0.00     0.046 C 
ENDBRANCH  49  50
ENDBRANCH  46  49
ENDBRANCH  44  45
ENDBRANCH  43  44
ENDBRANCH  38  43
ENDBRANCH   1  38
TORSDOF 23
ENDMDL
