MODEL 1
REMARK VINA RESULT: -9.054451563      0.000      0.000
REMARK  17 active torsions:
REMARK  status: ('A' for Active; 'I' for Inactive)
REMARK    1  A    between atoms: C1_4  and  C2_6 
REMARK    2  A    between atoms: C2_6  and  C3_7 
REMARK    3  A    between atoms: C3_7  and  N3_8 
REMARK       I    between atoms: N3_8  and  C4_10 
REMARK       I    between atoms: C4_10  and  N4_12 
REMARK    4  A    between atoms: N4_12  and  C5_14 
REMARK    5  A    between atoms: N5_17  and  C8_18 
REMARK       I    between atoms: N6_20  and  C10_21 
REMARK    6  A    between atoms: C10_21  and  C11_23 
REMARK    7  A    between atoms: C11_23  and  C12_24 
REMARK    8  A    between atoms: C12_24  and  C13_25 
REMARK    9  A    between atoms: C13_25  and  N7_26 
REMARK   10  A    between atoms: C13_25  and  C20_39 
REMARK       I    between atoms: N7_26  and  C14_28 
REMARK   11  A    between atoms: C14_28  and  C15_30 
REMARK   12  A    between atoms: C15_30  and  C16_31 
REMARK   13  A    between atoms: C16_31  and  C17_32 
REMARK   14  A    between atoms: C17_32  and  C18_33 
REMARK   15  A    between atoms: C18_33  and  N8_34 
REMARK   16  A    between atoms: C26_45  and  C27_46 
REMARK   17  A    between atoms: C27_46  and  O4_47 
ROOT
HETATM    1  C8  UNL     1       4.093 -14.930 -23.702  1.00  0.00     0.265 A 
HETATM    2  C9  UNL     1       4.044 -15.199 -25.163  1.00  0.00     0.164 A 
HETATM    3  N6  UNL     1       4.712 -13.925 -25.445  1.00  0.00    -0.341 N 
HETATM    4  C10 UNL     1       5.075 -13.311 -26.673  1.00  0.00     0.220 C 
HETATM    5  O2  UNL     1       4.888 -13.819 -27.803  1.00  0.00    -0.273 OA
HETATM    6  C26 UNL     1       4.823 -13.644 -24.030  1.00  0.00     0.145 A 
ENDROOT
BRANCH   4   7
HETATM    7  C11 UNL     1       5.712 -11.981 -26.601  1.00  0.00     0.105 C 
BRANCH   7   8
HETATM    8  C12 UNL     1       7.172 -11.962 -26.406  1.00  0.00     0.034 C 
BRANCH   8   9
HETATM    9  C13 UNL     1       7.760 -11.086 -25.378  1.00  0.00     0.088 C 
BRANCH   9  10
HETATM   10  N7  UNL     1       8.532 -11.978 -24.484  1.00  0.00    -0.356 N 
HETATM   11  C14 UNL     1       8.277 -12.051 -23.103  1.00  0.00     0.217 C 
HETATM   12  O3  UNL     1       7.373 -11.326 -22.619  1.00  0.00    -0.274 OA
ATOM     13  H7  UNL     1       9.271 -12.557 -24.883  1.00  0.00     0.162 HD
BRANCH  11  14
HETATM   14  C15 UNL     1       9.014 -12.938 -22.178  1.00  0.00     0.103 C 
BRANCH  14  15
HETATM   15  C16 UNL     1       8.315 -13.112 -20.846  1.00  0.00     0.011 C 
BRANCH  15  16
HETATM   16  C17 UNL     1       8.164 -14.582 -20.530  1.00  0.00     0.020 C 
BRANCH  16  17
HETATM   17  C18 UNL     1       6.726 -15.066 -20.639  1.00  0.00     0.122 C 
BRANCH  17  18
HETATM   18  N8  UNL     1       5.819 -13.915 -20.598  1.00  0.00    -0.367 N 
HETATM   19  C19 UNL     1       4.857 -13.886 -19.757  1.00  0.00     0.196 C 
HETATM   20  N9  UNL     1       4.644 -14.959 -18.854  1.00  0.00    -0.067 NA
HETATM   21  N10 UNL     1       3.997 -12.769 -19.700  1.00  0.00    -0.067 NA
ATOM     22  H8  UNL     1       5.956 -13.135 -21.242  1.00  0.00     0.161 HD
ENDBRANCH  17  18
ENDBRANCH  16  17
ENDBRANCH  15  16
ENDBRANCH  14  15
ENDBRANCH  11  14
ENDBRANCH   9  10
BRANCH   9  23
HETATM   23  C20 UNL     1       8.732 -10.041 -25.869  1.00  0.00     0.008 C 
HETATM   24  C21 UNL     1       9.824 -10.557 -26.742  1.00  0.00     0.007 C 
HETATM   25  C22 UNL     1      10.745  -9.401 -27.062  1.00  0.00     0.000 C 
HETATM   26  C23 UNL     1      10.577  -8.226 -26.126  1.00  0.00     0.000 C 
HETATM   27  C24 UNL     1       9.180  -7.677 -26.131  1.00  0.00     0.000 C 
HETATM   28  C25 UNL     1       8.156  -8.799 -26.427  1.00  0.00     0.007 C 
ENDBRANCH   9  23
ENDBRANCH   8   9
ENDBRANCH   7   8
ENDBRANCH   4   7
BRANCH   6  29
HETATM   29  C27 UNL     1       4.089 -12.430 -23.557  1.00  0.00     0.191 C 
BRANCH  29  30
HETATM   30  O4  UNL     1       4.691 -11.725 -22.551  1.00  0.00    -0.399 OA
ATOM     31  H4  UNL     1       4.114 -11.400 -21.870  1.00  0.00     0.209 HD
ENDBRANCH  29  30
ENDBRANCH   6  29
BRANCH   1  32
HETATM   32  N5  UNL     1       2.826 -14.784 -23.088  1.00  0.00     0.099 N 
HETATM   33  C7  UNL     1       2.498 -15.695 -22.046  1.00  0.00     0.275 C 
HETATM   34  C6  UNL     1       1.084 -16.178 -22.229  1.00  0.00     0.057 C 
HETATM   35  C5  UNL     1       0.525 -15.190 -23.241  1.00  0.00     0.116 C 
HETATM   36  C28 UNL     1       1.752 -14.774 -24.040  1.00  0.00     0.298 C 
BRANCH  35  37
HETATM   37  N4  UNL     1      -0.460 -15.900 -24.021  1.00  0.00    -0.337 N 
HETATM   38  C4  UNL     1      -1.813 -16.000 -23.644  1.00  0.00     0.316 C 
HETATM   39  N3  UNL     1      -2.731 -16.712 -24.432  1.00  0.00    -0.343 N 
HETATM   40  O1  UNL     1      -2.235 -15.448 -22.577  1.00  0.00    -0.247 OA
ATOM     41  H3  UNL     1      -2.412 -17.153 -25.295  1.00  0.00     0.164 HD
ATOM     42  H4  UNL     1      -0.162 -16.351 -24.886  1.00  0.00     0.164 HD
BRANCH  39  43
HETATM   43  C3  UNL     1      -4.131 -16.833 -24.044  1.00  0.00     0.131 C 
BRANCH  43  44
HETATM   44  C2  UNL     1      -4.690 -18.182 -24.359  1.00  0.00     0.092 C 
BRANCH  44  45
HETATM   45  C1  UNL     1      -4.292 -19.186 -23.332  1.00  0.00     0.088 C 
HETATM   46  N1  UNL     1      -4.616 -20.402 -23.518  1.00  0.00    -0.391 N 
ATOM     47  H12 UNL     1      -4.343 -21.089 -22.815  1.00  0.00     0.157 HD
ATOM     48  H11 UNL     1      -5.136 -20.663 -24.355  1.00  0.00     0.157 HD
HETATM   49  N2  UNL     1      -3.564 -18.822 -22.160  1.00  0.00    -0.088 NA
ENDBRANCH  44  45
ENDBRANCH  43  44
ENDBRANCH  39  43
ENDBRANCH  35  37
ENDBRANCH   1  32
TORSDOF 17
ENDMDL
MODEL 2
REMARK VINA RESULT: -9.046680642      2.542      4.534
REMARK  17 active torsions:
REMARK  status: ('A' for Active; 'I' for Inactive)
REMARK    1  A    between atoms: C1_4  and  C2_6 
REMARK    2  A    between atoms: C2_6  and  C3_7 
REMARK    3  A    between atoms: C3_7  and  N3_8 
REMARK       I    between atoms: N3_8  and  C4_10 
REMARK       I    between atoms: C4_10  and  N4_12 
REMARK    4  A    between atoms: N4_12  and  C5_14 
REMARK    5  A    between atoms: N5_17  and  C8_18 
REMARK       I    between atoms: N6_20  and  C10_21 
REMARK    6  A    between atoms: C10_21  and  C11_23 
REMARK    7  A    between atoms: C11_23  and  C12_24 
REMARK    8  A    between atoms: C12_24  and  C13_25 
REMARK    9  A    between atoms: C13_25  and  N7_26 
REMARK   10  A    between atoms: C13_25  and  C20_39 
REMARK       I    between atoms: N7_26  and  C14_28 
REMARK   11  A    between atoms: C14_28  and  C15_30 
REMARK   12  A    between atoms: C15_30  and  C16_31 
REMARK   13  A    between atoms: C16_31  and  C17_32 
REMARK   14  A    between atoms: C17_32  and  C18_33 
REMARK   15  A    between atoms: C18_33  and  N8_34 
REMARK   16  A    between atoms: C26_45  and  C27_46 
REMARK   17  A    between atoms: C27_46  and  O4_47 
ROOT
HETATM    1  C8  UNL     1       0.735 -14.843 -22.629  1.00  0.00     0.265 A 
HETATM    2  C9  UNL     1       1.616 -15.796 -21.904  1.00  0.00     0.164 A 
HETATM    3  N6  UNL     1       2.671 -15.621 -22.907  1.00  0.00    -0.341 N 
HETATM    4  C10 UNL     1       3.956 -16.214 -23.026  1.00  0.00     0.220 C 
HETATM    5  O2  UNL     1       4.439 -17.030 -22.208  1.00  0.00    -0.273 OA
HETATM    6  C26 UNL     1       1.866 -14.652 -23.618  1.00  0.00     0.145 A 
ENDROOT
BRANCH   4   7
HETATM    7  C11 UNL     1       4.767 -15.840 -24.201  1.00  0.00     0.105 C 
BRANCH   7   8
HETATM    8  C12 UNL     1       5.709 -14.721 -24.020  1.00  0.00     0.034 C 
BRANCH   8   9
HETATM    9  C13 UNL     1       5.394 -13.650 -23.058  1.00  0.00     0.088 C 
BRANCH   9  10
HETATM   10  N7  UNL     1       6.363 -13.810 -21.951  1.00  0.00    -0.356 N 
HETATM   11  C14 UNL     1       5.950 -14.031 -20.625  1.00  0.00     0.217 C 
HETATM   12  O3  UNL     1       4.719 -14.082 -20.380  1.00  0.00    -0.274 OA
ATOM     13  H7  UNL     1       7.361 -13.757 -22.155  1.00  0.00     0.162 HD
BRANCH  11  14
HETATM   14  C15 UNL     1       6.883 -14.208 -19.492  1.00  0.00     0.103 C 
BRANCH  14  15
HETATM   15  C16 UNL     1       8.184 -13.457 -19.677  1.00  0.00     0.011 C 
BRANCH  15  16
HETATM   16  C17 UNL     1       9.354 -14.371 -19.393  1.00  0.00     0.020 C 
BRANCH  16  17
HETATM   17  C18 UNL     1       9.722 -15.247 -20.581  1.00  0.00     0.122 C 
BRANCH  17  18
HETATM   18  N8  UNL     1      10.720 -14.557 -21.404  1.00  0.00    -0.367 N 
HETATM   19  C19 UNL     1      10.437 -14.221 -22.605  1.00  0.00     0.196 C 
HETATM   20  N9  UNL     1       9.167 -14.508 -23.164  1.00  0.00    -0.067 NA
HETATM   21  N10 UNL     1      11.388 -13.537 -23.392  1.00  0.00    -0.067 NA
ATOM     22  H8  UNL     1      11.640 -14.345 -21.019  1.00  0.00     0.161 HD
ENDBRANCH  17  18
ENDBRANCH  16  17
ENDBRANCH  15  16
ENDBRANCH  14  15
ENDBRANCH  11  14
ENDBRANCH   9  10
BRANCH   9  23
HETATM   23  C20 UNL     1       5.558 -12.236 -23.558  1.00  0.00     0.008 C 
HETATM   24  C21 UNL     1       4.488 -11.289 -23.133  1.00  0.00     0.007 C 
HETATM   25  C22 UNL     1       4.762  -9.957 -23.792  1.00  0.00     0.000 C 
HETATM   26  C23 UNL     1       5.714 -10.053 -24.962  1.00  0.00     0.000 C 
HETATM   27  C24 UNL     1       7.048 -10.624 -24.578  1.00  0.00     0.000 C 
HETATM   28  C25 UNL     1       6.894 -11.622 -23.404  1.00  0.00     0.007 C 
ENDBRANCH   9  23
ENDBRANCH   8   9
ENDBRANCH   7   8
ENDBRANCH   4   7
BRANCH   6  29
HETATM   29  C27 UNL     1       1.480 -15.035 -25.011  1.00  0.00     0.191 C 
BRANCH  29  30
HETATM   30  O4  UNL     1       1.542 -14.036 -25.943  1.00  0.00    -0.399 OA
ATOM     31  H4  UNL     1       2.397 -13.880 -26.327  1.00  0.00     0.209 HD
ENDBRANCH  29  30
ENDBRANCH   6  29
BRANCH   1  32
HETATM   32  N5  UNL     1      -0.451 -15.414 -23.146  1.00  0.00     0.099 N 
HETATM   33  C7  UNL     1      -1.630 -14.617 -23.109  1.00  0.00     0.275 C 
HETATM   34  C6  UNL     1      -2.787 -15.454 -22.635  1.00  0.00     0.057 C 
HETATM   35  C5  UNL     1      -2.245 -16.870 -22.762  1.00  0.00     0.116 C 
HETATM   36  C28 UNL     1      -0.747 -16.690 -22.561  1.00  0.00     0.298 C 
BRANCH  35  37
HETATM   37  N4  UNL     1      -2.878 -17.654 -21.729  1.00  0.00    -0.337 N 
HETATM   38  C4  UNL     1      -3.811 -18.673 -22.000  1.00  0.00     0.316 C 
HETATM   39  N3  UNL     1      -4.407 -19.403 -20.960  1.00  0.00    -0.343 N 
HETATM   40  O1  UNL     1      -4.138 -18.956 -23.199  1.00  0.00    -0.247 OA
ATOM     41  H3  UNL     1      -4.151 -19.195 -19.994  1.00  0.00     0.164 HD
ATOM     42  H4  UNL     1      -2.638 -17.462 -20.756  1.00  0.00     0.164 HD
BRANCH  39  43
HETATM   43  C3  UNL     1      -5.385 -20.450 -21.229  1.00  0.00     0.131 C 
BRANCH  43  44
HETATM   44  C2  UNL     1      -6.785 -19.992 -20.984  1.00  0.00     0.092 C 
BRANCH  44  45
HETATM   45  C1  UNL     1      -7.608 -20.076 -22.224  1.00  0.00     0.088 C 
HETATM   46  N1  UNL     1      -7.050 -19.823 -23.338  1.00  0.00    -0.391 N 
ATOM     47  H12 UNL     1      -7.613 -19.880 -24.187  1.00  0.00     0.157 HD
ATOM     48  H11 UNL     1      -6.062 -19.570 -23.362  1.00  0.00     0.157 HD
HETATM   49  N2  UNL     1      -8.990 -20.429 -22.191  1.00  0.00    -0.088 NA
ENDBRANCH  44  45
ENDBRANCH  43  44
ENDBRANCH  39  43
ENDBRANCH  35  37
ENDBRANCH   1  32
TORSDOF 17
ENDMDL
MODEL 3
REMARK VINA RESULT: -9.033962896      2.576      4.632
REMARK  17 active torsions:
REMARK  status: ('A' for Active; 'I' for Inactive)
REMARK    1  A    between atoms: C1_4  and  C2_6 
REMARK    2  A    between atoms: C2_6  and  C3_7 
REMARK    3  A    between atoms: C3_7  and  N3_8 
REMARK       I    between atoms: N3_8  and  C4_10 
REMARK       I    between atoms: C4_10  and  N4_12 
REMARK    4  A    between atoms: N4_12  and  C5_14 
REMARK    5  A    between atoms: N5_17  and  C8_18 
REMARK       I    between atoms: N6_20  and  C10_21 
REMARK    6  A    between atoms: C10_21  and  C11_23 
REMARK    7  A    between atoms: C11_23  and  C12_24 
REMARK    8  A    between atoms: C12_24  and  C13_25 
REMARK    9  A    between atoms: C13_25  and  N7_26 
REMARK   10  A    between atoms: C13_25  and  C20_39 
REMARK       I    between atoms: N7_26  and  C14_28 
REMARK   11  A    between atoms: C14_28  and  C15_30 
REMARK   12  A    between atoms: C15_30  and  C16_31 
REMARK   13  A    between atoms: C16_31  and  C17_32 
REMARK   14  A    between atoms: C17_32  and  C18_33 
REMARK   15  A    between atoms: C18_33  and  N8_34 
REMARK   16  A    between atoms: C26_45  and  C27_46 
REMARK   17  A    between atoms: C27_46  and  O4_47 
ROOT
HETATM    1  C8  UNL     1       0.804 -14.840 -22.621  1.00  0.00     0.265 A 
HETATM    2  C9  UNL     1       1.691 -15.790 -21.899  1.00  0.00     0.164 A 
HETATM    3  N6  UNL     1       2.739 -15.615 -22.909  1.00  0.00    -0.341 N 
HETATM    4  C10 UNL     1       4.024 -16.207 -23.033  1.00  0.00     0.220 C 
HETATM    5  O2  UNL     1       4.514 -17.020 -22.216  1.00  0.00    -0.273 OA
HETATM    6  C26 UNL     1       1.929 -14.651 -23.618  1.00  0.00     0.145 A 
ENDROOT
BRANCH   4   7
HETATM    7  C11 UNL     1       4.827 -15.835 -24.215  1.00  0.00     0.105 C 
BRANCH   7   8
HETATM    8  C12 UNL     1       5.765 -14.711 -24.045  1.00  0.00     0.034 C 
BRANCH   8   9
HETATM    9  C13 UNL     1       5.452 -13.639 -23.084  1.00  0.00     0.088 C 
BRANCH   9  10
HETATM   10  N7  UNL     1       6.405 -13.813 -21.965  1.00  0.00    -0.356 N 
HETATM   11  C14 UNL     1       5.974 -14.021 -20.644  1.00  0.00     0.217 C 
HETATM   12  O3  UNL     1       4.740 -14.047 -20.412  1.00  0.00    -0.274 OA
ATOM     13  H7  UNL     1       7.406 -13.780 -22.160  1.00  0.00     0.162 HD
BRANCH  11  14
HETATM   14  C15 UNL     1       6.891 -14.212 -19.500  1.00  0.00     0.103 C 
BRANCH  14  15
HETATM   15  C16 UNL     1       8.203 -13.477 -19.668  1.00  0.00     0.011 C 
BRANCH  15  16
HETATM   16  C17 UNL     1       9.359 -14.409 -19.383  1.00  0.00     0.020 C 
BRANCH  16  17
HETATM   17  C18 UNL     1       9.731 -15.272 -20.579  1.00  0.00     0.122 C 
BRANCH  17  18
HETATM   18  N8  UNL     1      10.711 -14.562 -21.406  1.00  0.00    -0.367 N 
HETATM   19  C19 UNL     1      10.432 -14.267 -22.618  1.00  0.00     0.196 C 
HETATM   20  N9  UNL     1       9.181 -14.620 -23.187  1.00  0.00    -0.067 NA
HETATM   21  N10 UNL     1      11.364 -13.564 -23.410  1.00  0.00    -0.067 NA
ATOM     22  H8  UNL     1      11.616 -14.302 -21.014  1.00  0.00     0.161 HD
ENDBRANCH  17  18
ENDBRANCH  16  17
ENDBRANCH  15  16
ENDBRANCH  14  15
ENDBRANCH  11  14
ENDBRANCH   9  10
BRANCH   9  23
HETATM   23  C20 UNL     1       5.639 -12.225 -23.578  1.00  0.00     0.008 C 
HETATM   24  C21 UNL     1       4.559 -11.274 -23.192  1.00  0.00     0.007 C 
HETATM   25  C22 UNL     1       4.860  -9.943 -23.841  1.00  0.00     0.000 C 
HETATM   26  C23 UNL     1       5.854 -10.043 -24.977  1.00  0.00     0.000 C 
HETATM   27  C24 UNL     1       7.171 -10.620 -24.545  1.00  0.00     0.000 C 
HETATM   28  C25 UNL     1       6.971 -11.616 -23.377  1.00  0.00     0.007 C 
ENDBRANCH   9  23
ENDBRANCH   8   9
ENDBRANCH   7   8
ENDBRANCH   4   7
BRANCH   6  29
HETATM   29  C27 UNL     1       1.535 -15.039 -25.007  1.00  0.00     0.191 C 
BRANCH  29  30
HETATM   30  O4  UNL     1       1.508 -14.024 -25.925  1.00  0.00    -0.399 OA
ATOM     31  H4  UNL     1       0.837 -14.089 -26.594  1.00  0.00     0.209 HD
ENDBRANCH  29  30
ENDBRANCH   6  29
BRANCH   1  32
HETATM   32  N5  UNL     1      -0.385 -15.415 -23.129  1.00  0.00     0.099 N 
HETATM   33  C7  UNL     1      -1.538 -14.583 -23.188  1.00  0.00     0.275 C 
HETATM   34  C6  UNL     1      -2.734 -15.348 -22.688  1.00  0.00     0.057 C 
HETATM   35  C5  UNL     1      -2.233 -16.784 -22.689  1.00  0.00     0.116 C 
HETATM   36  C28 UNL     1      -0.736 -16.633 -22.457  1.00  0.00     0.298 C 
BRANCH  35  37
HETATM   37  N4  UNL     1      -2.918 -17.468 -21.620  1.00  0.00    -0.337 N 
HETATM   38  C4  UNL     1      -3.760 -18.577 -21.831  1.00  0.00     0.316 C 
HETATM   39  N3  UNL     1      -4.413 -19.203 -20.757  1.00  0.00    -0.343 N 
HETATM   40  O1  UNL     1      -3.950 -19.038 -23.003  1.00  0.00    -0.247 OA
ATOM     41  H3  UNL     1      -4.266 -18.852 -19.811  1.00  0.00     0.164 HD
ATOM     42  H4  UNL     1      -2.787 -17.133 -20.665  1.00  0.00     0.164 HD
BRANCH  39  43
HETATM   43  C3  UNL     1      -5.297 -20.343 -20.966  1.00  0.00     0.131 C 
BRANCH  43  44
HETATM   44  C2  UNL     1      -5.377 -21.224 -19.764  1.00  0.00     0.092 C 
BRANCH  44  45
HETATM   45  C1  UNL     1      -5.615 -20.431 -18.525  1.00  0.00     0.088 C 
HETATM   46  N1  UNL     1      -4.726 -20.446 -17.616  1.00  0.00    -0.391 N 
ATOM     47  H12 UNL     1      -4.890 -19.903 -16.768  1.00  0.00     0.157 HD
ATOM     48  H11 UNL     1      -3.877 -20.994 -17.750  1.00  0.00     0.157 HD
HETATM   49  N2  UNL     1      -6.803 -19.663 -18.336  1.00  0.00    -0.088 NA
ENDBRANCH  44  45
ENDBRANCH  43  44
ENDBRANCH  39  43
ENDBRANCH  35  37
ENDBRANCH   1  32
TORSDOF 17
ENDMDL
MODEL 4
REMARK VINA RESULT: -9.011501976      2.388      5.392
REMARK  17 active torsions:
REMARK  status: ('A' for Active; 'I' for Inactive)
REMARK    1  A    between atoms: C1_4  and  C2_6 
REMARK    2  A    between atoms: C2_6  and  C3_7 
REMARK    3  A    between atoms: C3_7  and  N3_8 
REMARK       I    between atoms: N3_8  and  C4_10 
REMARK       I    between atoms: C4_10  and  N4_12 
REMARK    4  A    between atoms: N4_12  and  C5_14 
REMARK    5  A    between atoms: N5_17  and  C8_18 
REMARK       I    between atoms: N6_20  and  C10_21 
REMARK    6  A    between atoms: C10_21  and  C11_23 
REMARK    7  A    between atoms: C11_23  and  C12_24 
REMARK    8  A    between atoms: C12_24  and  C13_25 
REMARK    9  A    between atoms: C13_25  and  N7_26 
REMARK   10  A    between atoms: C13_25  and  C20_39 
REMARK       I    between atoms: N7_26  and  C14_28 
REMARK   11  A    between atoms: C14_28  and  C15_30 
REMARK   12  A    between atoms: C15_30  and  C16_31 
REMARK   13  A    between atoms: C16_31  and  C17_32 
REMARK   14  A    between atoms: C17_32  and  C18_33 
REMARK   15  A    between atoms: C18_33  and  N8_34 
REMARK   16  A    between atoms: C26_45  and  C27_46 
REMARK   17  A    between atoms: C27_46  and  O4_47 
ROOT
HETATM    1  C8  UNL     1       3.780 -15.140 -22.113  1.00  0.00     0.265 A 
HETATM    2  C9  UNL     1       4.169 -16.398 -21.421  1.00  0.00     0.164 A 
HETATM    3  N6  UNL     1       5.358 -16.524 -22.269  1.00  0.00    -0.341 N 
HETATM    4  C10 UNL     1       6.370 -17.520 -22.318  1.00  0.00     0.220 C 
HETATM    5  O2  UNL     1       6.422 -18.517 -21.561  1.00  0.00    -0.273 OA
HETATM    6  C26 UNL     1       5.043 -15.281 -22.937  1.00  0.00     0.145 A 
ENDROOT
BRANCH   4   7
HETATM    7  C11 UNL     1       7.425 -17.361 -23.338  1.00  0.00     0.105 C 
BRANCH   7   8
HETATM    8  C12 UNL     1       8.778 -17.056 -22.842  1.00  0.00     0.034 C 
BRANCH   8   9
HETATM    9  C13 UNL     1       9.201 -15.653 -22.691  1.00  0.00     0.088 C 
BRANCH   9  10
HETATM   10  N7  UNL     1       8.561 -14.919 -23.806  1.00  0.00    -0.356 N 
HETATM   11  C14 UNL     1       9.243 -13.928 -24.535  1.00  0.00     0.217 C 
HETATM   12  O3  UNL     1      10.426 -13.654 -24.215  1.00  0.00    -0.274 OA
ATOM     13  H7  UNL     1       7.597 -15.140 -24.054  1.00  0.00     0.162 HD
BRANCH  11  14
HETATM   14  C15 UNL     1       8.646 -13.181 -25.663  1.00  0.00     0.103 C 
BRANCH  14  15
HETATM   15  C16 UNL     1       7.809 -12.003 -25.213  1.00  0.00     0.011 C 
BRANCH  15  16
HETATM   16  C17 UNL     1       7.697 -10.991 -26.330  1.00  0.00     0.020 C 
BRANCH  16  17
HETATM   17  C18 UNL     1       6.261 -10.754 -26.771  1.00  0.00     0.122 C 
BRANCH  17  18
HETATM   18  N8  UNL     1       5.561 -12.038 -26.867  1.00  0.00    -0.367 N 
HETATM   19  C19 UNL     1       5.367 -12.578 -28.010  1.00  0.00     0.196 C 
HETATM   20  N9  UNL     1       5.817 -11.951 -29.200  1.00  0.00    -0.067 NA
HETATM   21  N10 UNL     1       4.715 -13.825 -28.104  1.00  0.00    -0.067 NA
ATOM     22  H8  UNL     1       5.229 -12.502 -26.022  1.00  0.00     0.161 HD
ENDBRANCH  17  18
ENDBRANCH  16  17
ENDBRANCH  15  16
ENDBRANCH  14  15
ENDBRANCH  11  14
ENDBRANCH   9  10
BRANCH   9  23
HETATM   23  C20 UNL     1       8.764 -14.956 -21.426  1.00  0.00     0.008 C 
HETATM   24  C21 UNL     1       9.851 -14.707 -20.436  1.00  0.00     0.007 C 
HETATM   25  C22 UNL     1       9.224 -14.091 -19.207  1.00  0.00     0.000 C 
HETATM   26  C23 UNL     1       7.725 -14.287 -19.138  1.00  0.00     0.000 C 
HETATM   27  C24 UNL     1       7.011 -13.705 -20.323  1.00  0.00     0.000 C 
HETATM   28  C25 UNL     1       7.911 -13.759 -21.581  1.00  0.00     0.007 C 
ENDBRANCH   9  23
ENDBRANCH   8   9
ENDBRANCH   7   8
ENDBRANCH   4   7
BRANCH   6  29
HETATM   29  C27 UNL     1       4.763 -15.390 -24.402  1.00  0.00     0.191 C 
BRANCH  29  30
HETATM   30  O4  UNL     1       5.629 -14.726 -25.226  1.00  0.00    -0.399 OA
ATOM     31  H4  UNL     1       5.952 -15.219 -25.971  1.00  0.00     0.209 HD
ENDBRANCH  29  30
ENDBRANCH   6  29
BRANCH   1  32
HETATM   32  N5  UNL     1       2.561 -15.215 -22.828  1.00  0.00     0.099 N 
HETATM   33  C7  UNL     1       1.717 -14.070 -22.798  1.00  0.00     0.275 C 
HETATM   34  C6  UNL     1       0.293 -14.502 -22.574  1.00  0.00     0.057 C 
HETATM   35  C5  UNL     1       0.354 -15.997 -22.847  1.00  0.00     0.116 C 
HETATM   36  C28 UNL     1       1.782 -16.364 -22.468  1.00  0.00     0.298 C 
BRANCH  35  37
HETATM   37  N4  UNL     1      -0.645 -16.618 -22.010  1.00  0.00    -0.337 N 
HETATM   38  C4  UNL     1      -1.874 -17.092 -22.504  1.00  0.00     0.316 C 
HETATM   39  N3  UNL     1      -2.819 -17.680 -21.647  1.00  0.00    -0.343 N 
HETATM   40  O1  UNL     1      -2.161 -16.998 -23.742  1.00  0.00    -0.247 OA
ATOM     41  H3  UNL     1      -2.603 -17.771 -20.655  1.00  0.00     0.164 HD
ATOM     42  H4  UNL     1      -0.450 -16.717 -21.014  1.00  0.00     0.164 HD
BRANCH  39  43
HETATM   43  C3  UNL     1      -4.101 -18.162 -22.146  1.00  0.00     0.131 C 
BRANCH  43  44
HETATM   44  C2  UNL     1      -4.644 -19.281 -21.320  1.00  0.00     0.092 C 
BRANCH  44  45
HETATM   45  C1  UNL     1      -4.828 -20.516 -22.134  1.00  0.00     0.088 C 
HETATM   46  N1  UNL     1      -4.709 -20.432 -23.397  1.00  0.00    -0.391 N 
ATOM     47  H12 UNL     1      -4.835 -21.277 -23.954  1.00  0.00     0.157 HD
ATOM     48  H11 UNL     1      -4.492 -19.531 -23.824  1.00  0.00     0.157 HD
HETATM   49  N2  UNL     1      -5.131 -21.776 -21.537  1.00  0.00    -0.088 NA
ENDBRANCH  44  45
ENDBRANCH  43  44
ENDBRANCH  39  43
ENDBRANCH  35  37
ENDBRANCH   1  32
TORSDOF 17
ENDMDL
MODEL 5
REMARK VINA RESULT: -8.974783677      1.888      2.519
REMARK  17 active torsions:
REMARK  status: ('A' for Active; 'I' for Inactive)
REMARK    1  A    between atoms: C1_4  and  C2_6 
REMARK    2  A    between atoms: C2_6  and  C3_7 
REMARK    3  A    between atoms: C3_7  and  N3_8 
REMARK       I    between atoms: N3_8  and  C4_10 
REMARK       I    between atoms: C4_10  and  N4_12 
REMARK    4  A    between atoms: N4_12  and  C5_14 
REMARK    5  A    between atoms: N5_17  and  C8_18 
REMARK       I    between atoms: N6_20  and  C10_21 
REMARK    6  A    between atoms: C10_21  and  C11_23 
REMARK    7  A    between atoms: C11_23  and  C12_24 
REMARK    8  A    between atoms: C12_24  and  C13_25 
REMARK    9  A    between atoms: C13_25  and  N7_26 
REMARK   10  A    between atoms: C13_25  and  C20_39 
REMARK       I    between atoms: N7_26  and  C14_28 
REMARK   11  A    between atoms: C14_28  and  C15_30 
REMARK   12  A    between atoms: C15_30  and  C16_31 
REMARK   13  A    between atoms: C16_31  and  C17_32 
REMARK   14  A    between atoms: C17_32  and  C18_33 
REMARK   15  A    between atoms: C18_33  and  N8_34 
REMARK   16  A    between atoms: C26_45  and  C27_46 
REMARK   17  A    between atoms: C27_46  and  O4_47 
ROOT
HETATM    1  C8  UNL     1       3.494 -14.373 -23.736  1.00  0.00     0.265 A 
HETATM    2  C9  UNL     1       3.353 -14.116 -25.193  1.00  0.00     0.164 A 
HETATM    3  N6  UNL     1       3.861 -12.751 -25.025  1.00  0.00    -0.341 N 
HETATM    4  C10 UNL     1       4.056 -11.704 -25.964  1.00  0.00     0.220 C 
HETATM    5  O2  UNL     1       3.830 -11.801 -27.193  1.00  0.00    -0.273 OA
HETATM    6  C26 UNL     1       4.057 -12.973 -23.609  1.00  0.00     0.145 A 
ENDROOT
BRANCH   4   7
HETATM    7  C11 UNL     1       4.556 -10.415 -25.446  1.00  0.00     0.105 C 
BRANCH   7   8
HETATM    8  C12 UNL     1       5.825  -9.927 -26.011  1.00  0.00     0.034 C 
BRANCH   8   9
HETATM    9  C13 UNL     1       6.998  -9.759 -25.136  1.00  0.00     0.088 C 
BRANCH   9  10
HETATM   10  N7  UNL     1       7.495 -11.127 -24.866  1.00  0.00    -0.356 N 
HETATM   11  C14 UNL     1       7.416 -11.710 -23.588  1.00  0.00     0.217 C 
HETATM   12  O3  UNL     1       6.919 -11.038 -22.651  1.00  0.00    -0.274 OA
ATOM     13  H7  UNL     1       7.906 -11.663 -25.629  1.00  0.00     0.162 HD
BRANCH  11  14
HETATM   14  C15 UNL     1       7.887 -13.076 -23.278  1.00  0.00     0.103 C 
BRANCH  14  15
HETATM   15  C16 UNL     1       9.393 -13.212 -23.356  1.00  0.00     0.011 C 
BRANCH  15  16
HETATM   16  C17 UNL     1       9.767 -14.225 -24.414  1.00  0.00     0.020 C 
BRANCH  16  17
HETATM   17  C18 UNL     1      10.243 -15.545 -23.827  1.00  0.00     0.122 C 
BRANCH  17  18
HETATM   18  N8  UNL     1       9.267 -16.595 -24.134  1.00  0.00    -0.367 N 
HETATM   19  C19 UNL     1       8.552 -17.098 -23.202  1.00  0.00     0.196 C 
HETATM   20  N9  UNL     1       8.686 -16.659 -21.860  1.00  0.00    -0.067 NA
HETATM   21  N10 UNL     1       7.596 -18.093 -23.499  1.00  0.00    -0.067 NA
ATOM     22  H8  UNL     1       9.159 -16.925 -25.093  1.00  0.00     0.161 HD
ENDBRANCH  17  18
ENDBRANCH  16  17
ENDBRANCH  15  16
ENDBRANCH  14  15
ENDBRANCH  11  14
ENDBRANCH   9  10
BRANCH   9  23
HETATM   23  C20 UNL     1       8.163  -8.998 -25.721  1.00  0.00     0.008 C 
HETATM   24  C21 UNL     1       9.213  -9.844 -26.357  1.00  0.00     0.007 C 
HETATM   25  C22 UNL     1      10.333  -8.933 -26.803  1.00  0.00     0.000 C 
HETATM   26  C23 UNL     1      10.298  -7.574 -26.140  1.00  0.00     0.000 C 
HETATM   27  C24 UNL     1       9.016  -6.837 -26.398  1.00  0.00     0.000 C 
HETATM   28  C25 UNL     1       7.843  -7.832 -26.570  1.00  0.00     0.007 C 
ENDBRANCH   9  23
ENDBRANCH   8   9
ENDBRANCH   7   8
ENDBRANCH   4   7
BRANCH   6  29
HETATM   29  C27 UNL     1       3.243 -12.106 -22.703  1.00  0.00     0.191 C 
BRANCH  29  30
HETATM   30  O4  UNL     1       3.940 -11.169 -21.990  1.00  0.00    -0.399 OA
ATOM     31  H4  UNL     1       3.415 -10.554 -21.491  1.00  0.00     0.209 HD
ENDBRANCH  29  30
ENDBRANCH   6  29
BRANCH   1  32
HETATM   32  N5  UNL     1       2.273 -14.613 -23.060  1.00  0.00     0.099 N 
HETATM   33  C7  UNL     1       2.253 -15.667 -22.104  1.00  0.00     0.275 C 
HETATM   34  C6  UNL     1       0.999 -16.480 -22.280  1.00  0.00     0.057 C 
HETATM   35  C5  UNL     1       0.144 -15.583 -23.163  1.00  0.00     0.116 C 
HETATM   36  C28 UNL     1       1.173 -14.797 -23.962  1.00  0.00     0.298 C 
BRANCH  35  37
HETATM   37  N4  UNL     1      -0.677 -16.451 -23.971  1.00  0.00    -0.337 N 
HETATM   38  C4  UNL     1      -1.974 -16.851 -23.597  1.00  0.00     0.316 C 
HETATM   39  N3  UNL     1      -2.731 -17.706 -24.414  1.00  0.00    -0.343 N 
HETATM   40  O1  UNL     1      -2.492 -16.447 -22.505  1.00  0.00    -0.247 OA
ATOM     41  H3  UNL     1      -2.336 -18.032 -25.295  1.00  0.00     0.164 HD
ATOM     42  H4  UNL     1      -0.301 -16.792 -24.856  1.00  0.00     0.164 HD
BRANCH  39  43
HETATM   43  C3  UNL     1      -4.070 -18.136 -24.029  1.00  0.00     0.131 C 
BRANCH  43  44
HETATM   44  C2  UNL     1      -4.129 -19.599 -23.735  1.00  0.00     0.092 C 
BRANCH  44  45
HETATM   45  C1  UNL     1      -4.444 -19.851 -22.300  1.00  0.00     0.088 C 
HETATM   46  N1  UNL     1      -4.138 -18.959 -21.447  1.00  0.00    -0.391 N 
ATOM     47  H12 UNL     1      -4.353 -19.132 -20.465  1.00  0.00     0.157 HD
ATOM     48  H11 UNL     1      -3.690 -18.097 -21.758  1.00  0.00     0.157 HD
HETATM   49  N2  UNL     1      -5.072 -21.057 -21.864  1.00  0.00    -0.088 NA
ENDBRANCH  44  45
ENDBRANCH  43  44
ENDBRANCH  39  43
ENDBRANCH  35  37
ENDBRANCH   1  32
TORSDOF 17
ENDMDL
