MODEL 1
REMARK VINA RESULT: -6.407590036      0.000      0.000
REMARK  8 active torsions:
REMARK  status: ('A' for Active; 'I' for Inactive)
REMARK    1  A    between atoms: C2_2  and  C5_5 
REMARK    2  A    between atoms: C5_5  and  N1_6 
REMARK    3  A    between atoms: N2_9  and  C8_10 
REMARK    4  A    between atoms: C8_10  and  C9_11 
REMARK    5  A    between atoms: C9_11  and  C10_12 
REMARK    6  A    between atoms: C10_12  and  C11_13 
REMARK       I    between atoms: C11_13  and  N3_15 
REMARK    7  A    between atoms: N3_15  and  C12_17 
REMARK    8  A    between atoms: C15_21  and  C16_22 
ROOT
HETATM    1  C11 UNL     1      33.849  97.365  27.669  1.00  0.00     0.222 C 
HETATM    2  O1  UNL     1      33.919  97.701  26.477  1.00  0.00    -0.273 OA
HETATM    3  N3  UNL     1      32.611  97.325  28.341  1.00  0.00    -0.321 N 
ATOM      4  H3  UNL     1      32.563  97.048  29.321  1.00  0.00     0.169 HD
ENDROOT
BRANCH   1   5
HETATM    5  C10 UNL     1      35.089  96.994  28.414  1.00  0.00     0.105 C 
BRANCH   5   6
HETATM    6  C9  UNL     1      35.116  95.533  28.724  1.00  0.00     0.040 C 
BRANCH   6   7
HETATM    7  C8  UNL     1      36.436  94.872  28.677  1.00  0.00     0.275 C 
BRANCH   7   8
HETATM    8  N2  UNL     1      37.618  95.614  28.742  1.00  0.00     0.118 N 
HETATM    9  C7  UNL     1      38.546  95.448  29.780  1.00  0.00     0.304 C 
HETATM   10  C6  UNL     1      39.613  94.560  29.063  1.00  0.00     0.304 C 
HETATM   11  N1  UNL     1      39.655  95.127  27.766  1.00  0.00     0.119 N 
HETATM   12  C20 UNL     1      38.316  95.652  27.496  1.00  0.00     0.542 C 
BRANCH  11  13
HETATM   13  C5  UNL     1      40.144  94.351  26.690  1.00  0.00     0.283 C 
BRANCH  13  14
HETATM   14  C2  UNL     1      41.319  94.969  26.006  1.00  0.00    -0.025 C 
HETATM   15  C1  UNL     1      41.759  96.296  26.496  1.00  0.00     0.016 C 
HETATM   16  C3  UNL     1      42.483  93.964  26.070  1.00  0.00     0.016 C 
HETATM   17  C4  UNL     1      41.045  95.097  24.486  1.00  0.00     0.016 C 
ENDBRANCH  13  14
ENDBRANCH  11  13
ENDBRANCH   7   8
ENDBRANCH   6   7
ENDBRANCH   5   6
ENDBRANCH   1   5
BRANCH   3  18
HETATM   18  C12 UNL     1      31.429  97.678  27.628  1.00  0.00     0.093 A 
HETATM   19  S1  UNL     1      30.979  99.304  27.233  1.00  0.00    -0.075 SA
HETATM   20  C13 UNL     1      29.535  99.001  26.419  1.00  0.00    -0.008 A 
HETATM   21  C14 UNL     1      29.417  97.651  26.462  1.00  0.00    -0.027 A 
HETATM   22  C19 UNL     1      28.372  99.641  25.688  1.00  0.00     0.047 C 
HETATM   23  C15 UNL     1      30.403  96.948  27.092  1.00  0.00     0.070 A 
HETATM   24  C17 UNL     1      28.120  97.325  25.741  1.00  0.00     0.041 C 
HETATM   25  C18 UNL     1      27.330  98.583  25.763  1.00  0.00     0.010 C 
BRANCH  23  26
HETATM   26  C16 UNL     1      30.442  95.462  27.229  1.00  0.00     0.268 C 
HETATM   27  N4  UNL     1      31.602  94.776  26.760  1.00  0.00    -0.057 NA
HETATM   28  O2  UNL     1      29.528  94.802  27.724  1.00  0.00    -0.271 OA
ENDBRANCH  23  26
ENDBRANCH   3  18
TORSDOF 8
ENDMDL
MODEL 2
REMARK VINA RESULT: -6.377228118      2.821      4.565
REMARK  8 active torsions:
REMARK  status: ('A' for Active; 'I' for Inactive)
REMARK    1  A    between atoms: C2_2  and  C5_5 
REMARK    2  A    between atoms: C5_5  and  N1_6 
REMARK    3  A    between atoms: N2_9  and  C8_10 
REMARK    4  A    between atoms: C8_10  and  C9_11 
REMARK    5  A    between atoms: C9_11  and  C10_12 
REMARK    6  A    between atoms: C10_12  and  C11_13 
REMARK       I    between atoms: C11_13  and  N3_15 
REMARK    7  A    between atoms: N3_15  and  C12_17 
REMARK    8  A    between atoms: C15_21  and  C16_22 
ROOT
HETATM    1  C11 UNL     1      30.151  93.377  27.057  1.00  0.00     0.222 C 
HETATM    2  O1  UNL     1      30.623  93.643  25.941  1.00  0.00    -0.273 OA
HETATM    3  N3  UNL     1      29.470  94.354  27.809  1.00  0.00    -0.321 N 
ATOM      4  H3  UNL     1      29.085  94.128  28.726  1.00  0.00     0.169 HD
ENDROOT
BRANCH   1   5
HETATM    5  C10 UNL     1      30.301  92.003  27.623  1.00  0.00     0.105 C 
BRANCH   5   6
HETATM    6  C9  UNL     1      30.740  92.052  29.049  1.00  0.00     0.040 C 
BRANCH   6   7
HETATM    7  C8  UNL     1      32.144  92.441  29.296  1.00  0.00     0.275 C 
BRANCH   7   8
HETATM    8  N2  UNL     1      32.492  93.771  29.540  1.00  0.00     0.118 N 
HETATM    9  C7  UNL     1      32.787  94.238  30.829  1.00  0.00     0.304 C 
HETATM   10  C6  UNL     1      34.348  94.259  30.771  1.00  0.00     0.304 C 
HETATM   11  N1  UNL     1      34.594  94.726  29.456  1.00  0.00     0.119 N 
HETATM   12  C20 UNL     1      33.480  94.260  28.631  1.00  0.00     0.542 C 
BRANCH  11  13
HETATM   13  C5  UNL     1      35.845  94.459  28.853  1.00  0.00     0.283 C 
BRANCH  13  14
HETATM   14  C2  UNL     1      36.733  95.658  28.786  1.00  0.00    -0.025 C 
HETATM   15  C1  UNL     1      36.071  96.984  28.800  1.00  0.00     0.016 C 
HETATM   16  C3  UNL     1      37.749  95.557  29.937  1.00  0.00     0.016 C 
HETATM   17  C4  UNL     1      37.624  95.592  27.519  1.00  0.00     0.016 C 
ENDBRANCH  13  14
ENDBRANCH  11  13
ENDBRANCH   7   8
ENDBRANCH   6   7
ENDBRANCH   5   6
ENDBRANCH   1   5
BRANCH   3  18
HETATM   18  C12 UNL     1      29.327  95.664  27.266  1.00  0.00     0.093 A 
HETATM   19  S1  UNL     1      30.565  96.875  27.307  1.00  0.00    -0.075 SA
HETATM   20  C13 UNL     1      29.755  98.126  26.520  1.00  0.00    -0.008 A 
HETATM   21  C14 UNL     1      28.540  97.595  26.235  1.00  0.00    -0.027 A 
HETATM   22  C19 UNL     1      29.869  99.555  26.030  1.00  0.00     0.047 C 
HETATM   23  C15 UNL     1      28.306  96.307  26.621  1.00  0.00     0.070 A 
HETATM   24  C17 UNL     1      27.765  98.690  25.525  1.00  0.00     0.041 C 
HETATM   25  C18 UNL     1      28.444  99.959  25.897  1.00  0.00     0.010 C 
BRANCH  23  26
HETATM   26  C16 UNL     1      27.034  95.561  26.386  1.00  0.00     0.268 C 
HETATM   27  N4  UNL     1      27.064  94.452  25.488  1.00  0.00    -0.057 NA
HETATM   28  O2  UNL     1      25.966  95.852  26.926  1.00  0.00    -0.271 OA
ENDBRANCH  23  26
ENDBRANCH   3  18
TORSDOF 8
ENDMDL
MODEL 3
REMARK VINA RESULT: -6.374061846      4.034      9.578
REMARK  8 active torsions:
REMARK  status: ('A' for Active; 'I' for Inactive)
REMARK    1  A    between atoms: C2_2  and  C5_5 
REMARK    2  A    between atoms: C5_5  and  N1_6 
REMARK    3  A    between atoms: N2_9  and  C8_10 
REMARK    4  A    between atoms: C8_10  and  C9_11 
REMARK    5  A    between atoms: C9_11  and  C10_12 
REMARK    6  A    between atoms: C10_12  and  C11_13 
REMARK       I    between atoms: C11_13  and  N3_15 
REMARK    7  A    between atoms: N3_15  and  C12_17 
REMARK    8  A    between atoms: C15_21  and  C16_22 
ROOT
HETATM    1  C11 UNL     1      33.547  96.810  27.396  1.00  0.00     0.222 C 
HETATM    2  O1  UNL     1      33.186  95.626  27.479  1.00  0.00    -0.273 OA
HETATM    3  N3  UNL     1      34.449  97.361  28.328  1.00  0.00    -0.321 N 
ATOM      4  H3  UNL     1      34.740  98.336  28.254  1.00  0.00     0.169 HD
ENDROOT
BRANCH   1   5
HETATM    5  C10 UNL     1      33.025  97.675  26.296  1.00  0.00     0.105 C 
BRANCH   5   6
HETATM    6  C9  UNL     1      31.534  97.628  26.235  1.00  0.00     0.040 C 
BRANCH   6   7
HETATM    7  C8  UNL     1      30.809  98.713  26.928  1.00  0.00     0.275 C 
BRANCH   7   8
HETATM    8  N2  UNL     1      29.450  98.597  27.225  1.00  0.00     0.118 N 
HETATM    9  C7  UNL     1      28.466  99.261  26.479  1.00  0.00     0.304 C 
HETATM   10  C6  UNL     1      27.960  98.091  25.576  1.00  0.00     0.304 C 
HETATM   11  N1  UNL     1      27.965  96.994  26.473  1.00  0.00     0.119 N 
HETATM   12  C20 UNL     1      29.042  97.243  27.431  1.00  0.00     0.542 C 
BRANCH  11  13
HETATM   13  C5  UNL     1      28.013  95.680  25.954  1.00  0.00     0.283 C 
BRANCH  13  14
HETATM   14  C2  UNL     1      26.907  94.809  26.455  1.00  0.00    -0.025 C 
HETATM   15  C1  UNL     1      25.774  95.485  27.128  1.00  0.00     0.016 C 
HETATM   16  C3  UNL     1      26.400  93.965  25.272  1.00  0.00     0.016 C 
HETATM   17  C4  UNL     1      27.467  93.746  27.434  1.00  0.00     0.016 C 
ENDBRANCH  13  14
ENDBRANCH  11  13
ENDBRANCH   7   8
ENDBRANCH   6   7
ENDBRANCH   5   6
ENDBRANCH   1   5
BRANCH   3  18
HETATM   18  C12 UNL     1      34.947  96.535  29.376  1.00  0.00     0.093 A 
HETATM   19  S1  UNL     1      36.457  95.687  29.314  1.00  0.00    -0.075 SA
HETATM   20  C13 UNL     1      36.417  94.940  30.824  1.00  0.00    -0.008 A 
HETATM   21  C14 UNL     1      35.241  95.352  31.358  1.00  0.00    -0.027 A 
HETATM   22  C19 UNL     1      37.169  94.024  31.769  1.00  0.00     0.047 C 
HETATM   23  C15 UNL     1      34.464  96.188  30.608  1.00  0.00     0.070 A 
HETATM   24  C17 UNL     1      35.154  94.699  32.726  1.00  0.00     0.041 C 
HETATM   25  C18 UNL     1      36.088  93.545  32.672  1.00  0.00     0.010 C 
BRANCH  23  26
HETATM   26  C16 UNL     1      33.146  96.745  31.037  1.00  0.00     0.268 C 
HETATM   27  N4  UNL     1      33.111  97.555  32.211  1.00  0.00    -0.057 NA
HETATM   28  O2  UNL     1      32.094  96.542  30.431  1.00  0.00    -0.271 OA
ENDBRANCH  23  26
ENDBRANCH   3  18
TORSDOF 8
ENDMDL
MODEL 4
REMARK VINA RESULT: -6.341424616      0.817      1.411
REMARK  8 active torsions:
REMARK  status: ('A' for Active; 'I' for Inactive)
REMARK    1  A    between atoms: C2_2  and  C5_5 
REMARK    2  A    between atoms: C5_5  and  N1_6 
REMARK    3  A    between atoms: N2_9  and  C8_10 
REMARK    4  A    between atoms: C8_10  and  C9_11 
REMARK    5  A    between atoms: C9_11  and  C10_12 
REMARK    6  A    between atoms: C10_12  and  C11_13 
REMARK       I    between atoms: C11_13  and  N3_15 
REMARK    7  A    between atoms: N3_15  and  C12_17 
REMARK    8  A    between atoms: C15_21  and  C16_22 
ROOT
HETATM    1  C11 UNL     1      33.914  97.357  27.530  1.00  0.00     0.222 C 
HETATM    2  O1  UNL     1      33.942  97.670  26.330  1.00  0.00    -0.273 OA
HETATM    3  N3  UNL     1      32.697  97.304  28.239  1.00  0.00    -0.321 N 
ATOM      4  H3  UNL     1      32.683  97.047  29.226  1.00  0.00     0.169 HD
ENDROOT
BRANCH   1   5
HETATM    5  C10 UNL     1      35.183  97.027  28.245  1.00  0.00     0.105 C 
BRANCH   5   6
HETATM    6  C9  UNL     1      34.983  95.904  29.210  1.00  0.00     0.040 C 
BRANCH   6   7
HETATM    7  C8  UNL     1      36.089  95.638  30.153  1.00  0.00     0.275 C 
BRANCH   7   8
HETATM    8  N2  UNL     1      37.036  94.646  29.892  1.00  0.00     0.118 N 
HETATM    9  C7  UNL     1      36.732  93.508  29.132  1.00  0.00     0.304 C 
HETATM   10  C6  UNL     1      37.361  93.909  27.760  1.00  0.00     0.304 C 
HETATM   11  N1  UNL     1      38.557  94.558  28.155  1.00  0.00     0.119 N 
HETATM   12  C20 UNL     1      38.287  95.178  29.453  1.00  0.00     0.542 C 
BRANCH  11  13
HETATM   13  C5  UNL     1      39.182  95.457  27.260  1.00  0.00     0.283 C 
BRANCH  13  14
HETATM   14  C2  UNL     1      40.590  95.079  26.934  1.00  0.00    -0.025 C 
HETATM   15  C1  UNL     1      41.045  93.741  27.380  1.00  0.00     0.016 C 
HETATM   16  C3  UNL     1      40.776  95.227  25.414  1.00  0.00     0.016 C 
HETATM   17  C4  UNL     1      41.572  96.127  27.515  1.00  0.00     0.016 C 
ENDBRANCH  13  14
ENDBRANCH  11  13
ENDBRANCH   7   8
ENDBRANCH   6   7
ENDBRANCH   5   6
ENDBRANCH   1   5
BRANCH   3  18
HETATM   18  C12 UNL     1      31.488  97.618  27.555  1.00  0.00     0.093 A 
HETATM   19  S1  UNL     1      31.018  99.221  27.092  1.00  0.00    -0.075 SA
HETATM   20  C13 UNL     1      29.544  98.874  26.352  1.00  0.00    -0.008 A 
HETATM   21  C14 UNL     1      29.432  97.528  26.470  1.00  0.00    -0.027 A 
HETATM   22  C19 UNL     1      28.352  99.473  25.633  1.00  0.00     0.047 C 
HETATM   23  C15 UNL     1      30.444  96.861  27.098  1.00  0.00     0.070 A 
HETATM   24  C17 UNL     1      28.110  97.163  25.819  1.00  0.00     0.041 C 
HETATM   25  C18 UNL     1      27.317  98.419  25.805  1.00  0.00     0.010 C 
BRANCH  23  26
HETATM   26  C16 UNL     1      30.492  95.383  27.311  1.00  0.00     0.268 C 
HETATM   27  N4  UNL     1      31.674  94.688  26.917  1.00  0.00    -0.057 NA
HETATM   28  O2  UNL     1      29.569  94.739  27.810  1.00  0.00    -0.271 OA
ENDBRANCH  23  26
ENDBRANCH   3  18
TORSDOF 8
ENDMDL
MODEL 5
REMARK VINA RESULT: -6.303294893      3.784      5.206
REMARK  8 active torsions:
REMARK  status: ('A' for Active; 'I' for Inactive)
REMARK    1  A    between atoms: C2_2  and  C5_5 
REMARK    2  A    between atoms: C5_5  and  N1_6 
REMARK    3  A    between atoms: N2_9  and  C8_10 
REMARK    4  A    between atoms: C8_10  and  C9_11 
REMARK    5  A    between atoms: C9_11  and  C10_12 
REMARK    6  A    between atoms: C10_12  and  C11_13 
REMARK       I    between atoms: C11_13  and  N3_15 
REMARK    7  A    between atoms: N3_15  and  C12_17 
REMARK    8  A    between atoms: C15_21  and  C16_22 
ROOT
HETATM    1  C11 UNL     1      30.494  93.524  27.341  1.00  0.00     0.222 C 
HETATM    2  O1  UNL     1      30.974  93.786  26.227  1.00  0.00    -0.273 OA
HETATM    3  N3  UNL     1      29.740  94.481  28.049  1.00  0.00    -0.321 N 
ATOM      4  H3  UNL     1      29.350  94.258  28.965  1.00  0.00     0.169 HD
ENDROOT
BRANCH   1   5
HETATM    5  C10 UNL     1      30.713  92.179  27.951  1.00  0.00     0.105 C 
BRANCH   5   6
HETATM    6  C9  UNL     1      30.851  92.275  29.435  1.00  0.00     0.040 C 
BRANCH   6   7
HETATM    7  C8  UNL     1      31.927  91.473  30.052  1.00  0.00     0.275 C 
BRANCH   7   8
HETATM    8  N2  UNL     1      33.193  92.017  30.279  1.00  0.00     0.118 N 
HETATM    9  C7  UNL     1      34.329  91.573  29.587  1.00  0.00     0.304 C 
HETATM   10  C6  UNL     1      34.471  92.708  28.523  1.00  0.00     0.304 C 
HETATM   11  N1  UNL     1      34.145  93.866  29.272  1.00  0.00     0.119 N 
HETATM   12  C20 UNL     1      33.186  93.445  30.294  1.00  0.00     0.542 C 
BRANCH  11  13
HETATM   13  C5  UNL     1      33.714  95.028  28.591  1.00  0.00     0.283 C 
BRANCH  13  14
HETATM   14  C2  UNL     1      34.471  96.254  28.983  1.00  0.00    -0.025 C 
HETATM   15  C1  UNL     1      35.827  96.053  29.547  1.00  0.00     0.016 C 
HETATM   16  C3  UNL     1      34.535  97.180  27.756  1.00  0.00     0.016 C 
HETATM   17  C4  UNL     1      33.654  97.080  30.009  1.00  0.00     0.016 C 
ENDBRANCH  13  14
ENDBRANCH  11  13
ENDBRANCH   7   8
ENDBRANCH   6   7
ENDBRANCH   5   6
ENDBRANCH   1   5
BRANCH   3  18
HETATM   18  C12 UNL     1      29.531  95.763  27.465  1.00  0.00     0.093 A 
HETATM   19  S1  UNL     1      30.640  97.088  27.601  1.00  0.00    -0.075 SA
HETATM   20  C13 UNL     1      29.801  98.244  26.707  1.00  0.00    -0.008 A 
HETATM   21  C14 UNL     1      28.677  97.596  26.315  1.00  0.00    -0.027 A 
HETATM   22  C19 UNL     1      29.830  99.671  26.198  1.00  0.00     0.047 C 
HETATM   23  C15 UNL     1      28.526  96.296  26.705  1.00  0.00     0.070 A 
HETATM   24  C17 UNL     1      27.879  98.602  25.504  1.00  0.00     0.041 C 
HETATM   25  C18 UNL     1      28.395  99.935  25.912  1.00  0.00     0.010 C 
BRANCH  23  26
HETATM   26  C16 UNL     1      27.360  95.429  26.361  1.00  0.00     0.268 C 
HETATM   27  N4  UNL     1      26.086  95.774  26.904  1.00  0.00    -0.057 NA
HETATM   28  O2  UNL     1      27.441  94.439  25.635  1.00  0.00    -0.271 OA
ENDBRANCH  23  26
ENDBRANCH   3  18
TORSDOF 8
ENDMDL
