MODEL 1
REMARK VINA RESULT: -6.452201126      0.000      0.000
REMARK  9 active torsions:
REMARK  status: ('A' for Active; 'I' for Inactive)
REMARK    1  A    between atoms: C2_2  and  O1_3 
REMARK    2  A    between atoms: O1_3  and  C3_4 
REMARK    3  A    between atoms: C3_4  and  C4_6 
REMARK    4  A    between atoms: C4_6  and  C5_7 
REMARK    5  A    between atoms: C5_7  and  C6_8 
REMARK    6  A    between atoms: C6_8  and  N1_9 
REMARK    7  A    between atoms: N1_9  and  C7_11 
REMARK    8  A    between atoms: C7_11  and  O3_12 
REMARK    9  A    between atoms: C7_11  and  C8_14 
ROOT
HETATM    1  C6  UNL     1      32.978  97.301  26.288  1.00  0.00     0.125 C 
ENDROOT
BRANCH   1   2
HETATM    2  C5  UNL     1      34.173  97.355  27.174  1.00  0.00     0.071 C 
BRANCH   2   3
HETATM    3  C4  UNL     1      33.932  96.696  28.485  1.00  0.00     0.239 C 
HETATM    4  C17 UNL     1      33.283  95.287  28.123  1.00  0.00     0.321 C 
HETATM    5  N2  UNL     1      33.008  94.593  29.321  1.00  0.00     0.088 N 
HETATM    6  C18 UNL     1      32.054  93.533  29.024  1.00  0.00     0.310 C 
HETATM    7  C19 UNL     1      32.641  95.276  30.477  1.00  0.00     0.299 C 
HETATM    8  C20 UNL     1      33.224  96.658  30.668  1.00  0.00     0.264 C 
HETATM    9  N3  UNL     1      33.080  97.322  29.391  1.00  0.00    -0.053 N 
ATOM     10  H32 UNL     1      33.236  98.328  29.449  1.00  0.00     0.278 HD
ATOM     11  H31 UNL     1      32.113  97.352  29.068  1.00  0.00     0.278 HD
BRANCH   3  12
HETATM   12  C3  UNL     1      35.271  96.282  29.081  1.00  0.00     0.297 C 
HETATM   13  O2  UNL     1      35.878  96.902  29.945  1.00  0.00    -0.262 OA
BRANCH  12  14
HETATM   14  O1  UNL     1      35.805  95.102  28.550  1.00  0.00    -0.320 OA
BRANCH  14  15
HETATM   15  C2  UNL     1      37.138  94.752  28.684  1.00  0.00     0.174 C 
HETATM   16  C1  UNL     1      37.853  95.403  27.469  1.00  0.00     0.034 C 
ENDBRANCH  14  15
ENDBRANCH  12  14
ENDBRANCH   3  12
ENDBRANCH   2   3
ENDBRANCH   1   2
BRANCH   1  17
HETATM   17  N1  UNL     1      32.216  98.484  26.144  1.00  0.00    -0.370 N 
ATOM     18  H1  UNL     1      32.517  99.187  25.470  1.00  0.00     0.161 HD
BRANCH  17  19
HETATM   19  C7  UNL     1      31.067  98.718  26.894  1.00  0.00     0.147 C 
BRANCH  19  20
HETATM   20  O3  UNL     1      31.269  99.412  27.974  1.00  0.00    -0.346 OA
ATOM     21  H3  UNL     1      31.522 100.314  27.815  1.00  0.00     0.219 HD
ENDBRANCH  19  20
BRANCH  19  22
HETATM   22  C8  UNL     1      29.673  98.292  26.600  1.00  0.00     0.028 A 
HETATM   23  C9  UNL     1      28.923  99.261  25.912  1.00  0.00     0.066 A 
HETATM   24  S1  UNL     1      27.467  98.518  25.547  1.00  0.00    -0.105 SA
HETATM   25  C10 UNL     1      27.768  96.982  26.244  1.00  0.00    -0.010 A 
HETATM   26  C11 UNL     1      29.037  97.110  26.760  1.00  0.00    -0.030 A 
HETATM   27  C16 UNL     1      26.778  95.840  26.208  1.00  0.00     0.046 C 
HETATM   28  C12 UNL     1      29.691  95.988  27.580  1.00  0.00     0.040 C 
HETATM   29  C13 UNL     1      28.689  94.870  27.814  1.00  0.00     0.005 C 
HETATM   30  C14 UNL     1      28.509  94.046  26.550  1.00  0.00     0.001 C 
HETATM   31  C15 UNL     1      27.342  94.552  25.754  1.00  0.00     0.005 C 
ENDBRANCH  19  22
ENDBRANCH  17  19
ENDBRANCH   1  17
TORSDOF 9
ENDMDL
MODEL 2
REMARK VINA RESULT: -6.069616472      1.935      3.950
REMARK  9 active torsions:
REMARK  status: ('A' for Active; 'I' for Inactive)
REMARK    1  A    between atoms: C2_2  and  O1_3 
REMARK    2  A    between atoms: O1_3  and  C3_4 
REMARK    3  A    between atoms: C3_4  and  C4_6 
REMARK    4  A    between atoms: C4_6  and  C5_7 
REMARK    5  A    between atoms: C5_7  and  C6_8 
REMARK    6  A    between atoms: C6_8  and  N1_9 
REMARK    7  A    between atoms: N1_9  and  C7_11 
REMARK    8  A    between atoms: C7_11  and  O3_12 
REMARK    9  A    between atoms: C7_11  and  C8_14 
ROOT
HETATM    1  C6  UNL     1      31.948  94.103  28.926  1.00  0.00     0.125 C 
ENDROOT
BRANCH   1   2
HETATM    2  C5  UNL     1      33.088  94.099  29.884  1.00  0.00     0.071 C 
BRANCH   2   3
HETATM    3  C4  UNL     1      33.995  95.261  29.684  1.00  0.00     0.239 C 
HETATM    4  C17 UNL     1      33.482  95.957  28.346  1.00  0.00     0.321 C 
HETATM    5  N2  UNL     1      34.302  97.074  28.073  1.00  0.00     0.088 N 
HETATM    6  C18 UNL     1      34.119  97.441  26.675  1.00  0.00     0.310 C 
HETATM    7  C19 UNL     1      35.653  97.069  28.408  1.00  0.00     0.299 C 
HETATM    8  C20 UNL     1      36.051  96.280  29.635  1.00  0.00     0.264 C 
HETATM    9  N3  UNL     1      35.356  95.016  29.527  1.00  0.00    -0.053 N 
ATOM     10  H32 UNL     1      35.709  94.314  30.178  1.00  0.00     0.278 HD
ATOM     11  H31 UNL     1      35.571  94.520  28.662  1.00  0.00     0.278 HD
BRANCH   3  12
HETATM   12  C3  UNL     1      33.674  96.320  30.732  1.00  0.00     0.297 C 
HETATM   13  O2  UNL     1      32.860  97.223  30.592  1.00  0.00    -0.262 OA
BRANCH  12  14
HETATM   14  O1  UNL     1      34.409  96.207  31.918  1.00  0.00    -0.320 OA
BRANCH  14  15
HETATM   15  C2  UNL     1      33.858  95.753  33.104  1.00  0.00     0.174 C 
HETATM   16  C1  UNL     1      34.552  94.392  33.380  1.00  0.00     0.034 C 
ENDBRANCH  14  15
ENDBRANCH  12  14
ENDBRANCH   3  12
ENDBRANCH   2   3
ENDBRANCH   1   2
BRANCH   1  17
HETATM   17  N1  UNL     1      30.646  94.246  29.459  1.00  0.00    -0.370 N 
ATOM     18  H1  UNL     1      30.221  93.455  29.943  1.00  0.00     0.161 HD
BRANCH  17  19
HETATM   19  C7  UNL     1      29.927  95.432  29.345  1.00  0.00     0.147 C 
BRANCH  19  20
HETATM   20  O3  UNL     1      30.043  96.226  30.367  1.00  0.00    -0.346 OA
ATOM     21  H3  UNL     1      29.284  96.238  30.938  1.00  0.00     0.219 HD
ENDBRANCH  19  20
BRANCH  19  22
HETATM   22  C8  UNL     1      29.078  95.888  28.211  1.00  0.00     0.028 A 
HETATM   23  C9  UNL     1      27.884  95.159  28.077  1.00  0.00     0.066 A 
HETATM   24  S1  UNL     1      27.025  95.937  26.867  1.00  0.00    -0.105 SA
HETATM   25  C10 UNL     1      28.139  97.187  26.509  1.00  0.00    -0.010 A 
HETATM   26  C11 UNL     1      29.182  96.942  27.373  1.00  0.00    -0.030 A 
HETATM   27  C16 UNL     1      27.891  98.255  25.467  1.00  0.00     0.046 C 
HETATM   28  C12 UNL     1      30.474  97.772  27.335  1.00  0.00     0.040 C 
HETATM   29  C13 UNL     1      30.435  98.732  26.158  1.00  0.00     0.005 C 
HETATM   30  C14 UNL     1      29.514  99.903  26.459  1.00  0.00     0.001 C 
HETATM   31  C15 UNL     1      28.134  99.636  25.934  1.00  0.00     0.005 C 
ENDBRANCH  19  22
ENDBRANCH  17  19
ENDBRANCH   1  17
TORSDOF 9
ENDMDL
MODEL 3
REMARK VINA RESULT: -6.015091434      4.349      7.256
REMARK  9 active torsions:
REMARK  status: ('A' for Active; 'I' for Inactive)
REMARK    1  A    between atoms: C2_2  and  O1_3 
REMARK    2  A    between atoms: O1_3  and  C3_4 
REMARK    3  A    between atoms: C3_4  and  C4_6 
REMARK    4  A    between atoms: C4_6  and  C5_7 
REMARK    5  A    between atoms: C5_7  and  C6_8 
REMARK    6  A    between atoms: C6_8  and  N1_9 
REMARK    7  A    between atoms: N1_9  and  C7_11 
REMARK    8  A    between atoms: C7_11  and  O3_12 
REMARK    9  A    between atoms: C7_11  and  C8_14 
ROOT
HETATM    1  C6  UNL     1      26.433  94.031  26.380  1.00  0.00     0.125 C 
ENDROOT
BRANCH   1   2
HETATM    2  C5  UNL     1      26.050  94.904  27.525  1.00  0.00     0.071 C 
BRANCH   2   3
HETATM    3  C4  UNL     1      26.498  94.349  28.829  1.00  0.00     0.239 C 
HETATM    4  C17 UNL     1      27.366  95.508  29.493  1.00  0.00     0.321 C 
HETATM    5  N2  UNL     1      27.845  95.057  30.742  1.00  0.00     0.088 N 
HETATM    6  C18 UNL     1      28.953  95.915  31.140  1.00  0.00     0.310 C 
HETATM    7  C19 UNL     1      28.161  93.717  30.947  1.00  0.00     0.299 C 
HETATM    8  C20 UNL     1      27.350  92.699  30.178  1.00  0.00     0.264 C 
HETATM    9  N3  UNL     1      27.282  93.199  28.822  1.00  0.00    -0.053 N 
ATOM     10  H32 UNL     1      26.949  92.499  28.159  1.00  0.00     0.278 HD
ATOM     11  H31 UNL     1      28.202  93.351  28.410  1.00  0.00     0.278 HD
BRANCH   3  12
HETATM   12  C3  UNL     1      25.301  94.276  29.769  1.00  0.00     0.297 C 
HETATM   13  O2  UNL     1      24.705  93.249  30.070  1.00  0.00    -0.262 OA
BRANCH  12  14
HETATM   14  O1  UNL     1      24.887  95.509  30.285  1.00  0.00    -0.320 OA
BRANCH  14  15
HETATM   15  C2  UNL     1      24.319  95.648  31.539  1.00  0.00     0.174 C 
HETATM   16  C1  UNL     1      25.031  96.872  32.175  1.00  0.00     0.034 C 
ENDBRANCH  14  15
ENDBRANCH  12  14
ENDBRANCH   3  12
ENDBRANCH   2   3
ENDBRANCH   1   2
BRANCH   1  17
HETATM   17  N1  UNL     1      27.500  94.462  25.558  1.00  0.00    -0.370 N 
ATOM     18  H1  UNL     1      27.298  94.773  24.608  1.00  0.00     0.161 HD
BRANCH  17  19
HETATM   19  C7  UNL     1      28.818  94.473  26.005  1.00  0.00     0.147 C 
BRANCH  19  20
HETATM   20  O3  UNL     1      29.472  93.376  25.762  1.00  0.00    -0.346 OA
ATOM     21  H3  UNL     1      29.293  92.673  26.374  1.00  0.00     0.219 HD
ENDBRANCH  19  20
BRANCH  19  22
HETATM   22  C8  UNL     1      29.547  95.571  26.694  1.00  0.00     0.028 A 
HETATM   23  C9  UNL     1      30.648  95.127  27.447  1.00  0.00     0.066 A 
HETATM   24  S1  UNL     1      31.405  96.520  27.988  1.00  0.00    -0.105 SA
HETATM   25  C10 UNL     1      30.363  97.683  27.283  1.00  0.00    -0.010 A 
HETATM   26  C11 UNL     1      29.425  96.915  26.630  1.00  0.00    -0.030 A 
HETATM   27  C16 UNL     1      30.562  99.176  27.418  1.00  0.00     0.046 C 
HETATM   28  C12 UNL     1      28.213  97.547  25.928  1.00  0.00     0.040 C 
HETATM   29  C13 UNL     1      28.180  99.041  26.202  1.00  0.00     0.005 C 
HETATM   30  C14 UNL     1      29.228  99.757  25.365  1.00  0.00     0.001 C 
HETATM   31  C15 UNL     1      30.500  99.921  26.143  1.00  0.00     0.005 C 
ENDBRANCH  19  22
ENDBRANCH  17  19
ENDBRANCH   1  17
TORSDOF 9
ENDMDL
MODEL 4
REMARK VINA RESULT: -6.014184156      1.517      2.937
REMARK  9 active torsions:
REMARK  status: ('A' for Active; 'I' for Inactive)
REMARK    1  A    between atoms: C2_2  and  O1_3 
REMARK    2  A    between atoms: O1_3  and  C3_4 
REMARK    3  A    between atoms: C3_4  and  C4_6 
REMARK    4  A    between atoms: C4_6  and  C5_7 
REMARK    5  A    between atoms: C5_7  and  C6_8 
REMARK    6  A    between atoms: C6_8  and  N1_9 
REMARK    7  A    between atoms: N1_9  and  C7_11 
REMARK    8  A    between atoms: C7_11  and  O3_12 
REMARK    9  A    between atoms: C7_11  and  C8_14 
ROOT
HETATM    1  C6  UNL     1      33.028  97.386  26.419  1.00  0.00     0.125 C 
ENDROOT
BRANCH   1   2
HETATM    2  C5  UNL     1      32.510  96.151  27.070  1.00  0.00     0.071 C 
BRANCH   2   3
HETATM    3  C4  UNL     1      33.353  95.725  28.218  1.00  0.00     0.239 C 
HETATM    4  C17 UNL     1      34.700  96.563  28.073  1.00  0.00     0.321 C 
HETATM    5  N2  UNL     1      35.569  96.208  29.127  1.00  0.00     0.088 N 
HETATM    6  C18 UNL     1      36.916  96.631  28.766  1.00  0.00     0.310 C 
HETATM    7  C19 UNL     1      35.581  94.915  29.642  1.00  0.00     0.299 C 
HETATM    8  C20 UNL     1      34.270  94.162  29.627  1.00  0.00     0.264 C 
HETATM    9  N3  UNL     1      33.710  94.382  28.312  1.00  0.00    -0.053 N 
ATOM     10  H32 UNL     1      32.935  93.752  28.101  1.00  0.00     0.278 HD
ATOM     11  H31 UNL     1      34.334  94.086  27.562  1.00  0.00     0.278 HD
BRANCH   3  12
HETATM   12  C3  UNL     1      32.762  96.298  29.500  1.00  0.00     0.297 C 
HETATM   13  O2  UNL     1      33.001  97.413  29.947  1.00  0.00    -0.262 OA
BRANCH  12  14
HETATM   14  O1  UNL     1      31.898  95.433  30.182  1.00  0.00    -0.320 OA
BRANCH  14  15
HETATM   15  C2  UNL     1      31.494  95.649  31.488  1.00  0.00     0.174 C 
HETATM   16  C1  UNL     1      29.943  95.595  31.447  1.00  0.00     0.034 C 
ENDBRANCH  14  15
ENDBRANCH  12  14
ENDBRANCH   3  12
ENDBRANCH   2   3
ENDBRANCH   1   2
BRANCH   1  17
HETATM   17  N1  UNL     1      32.114  98.444  26.204  1.00  0.00    -0.370 N 
ATOM     18  H1  UNL     1      32.293  99.106  25.449  1.00  0.00     0.161 HD
BRANCH  17  19
HETATM   19  C7  UNL     1      30.980  98.611  26.992  1.00  0.00     0.147 C 
BRANCH  19  20
HETATM   20  O3  UNL     1      31.209  99.164  28.147  1.00  0.00    -0.346 OA
ATOM     21  H3  UNL     1      31.067 100.103  28.163  1.00  0.00     0.219 HD
ENDBRANCH  19  20
BRANCH  19  22
HETATM   22  C8  UNL     1      29.573  98.256  26.667  1.00  0.00     0.028 A 
HETATM   23  C9  UNL     1      28.919  99.220  25.879  1.00  0.00     0.066 A 
HETATM   24  S1  UNL     1      27.431  98.547  25.502  1.00  0.00    -0.105 SA
HETATM   25  C10 UNL     1      27.599  97.051  26.319  1.00  0.00    -0.010 A 
HETATM   26  C11 UNL     1      28.852  97.133  26.881  1.00  0.00    -0.030 A 
HETATM   27  C16 UNL     1      26.535  95.975  26.320  1.00  0.00     0.046 C 
HETATM   28  C12 UNL     1      29.395  96.034  27.806  1.00  0.00     0.040 C 
HETATM   29  C13 UNL     1      28.311  95.004  28.074  1.00  0.00     0.005 C 
HETATM   30  C14 UNL     1      28.126  94.103  26.864  1.00  0.00     0.001 C 
HETATM   31  C15 UNL     1      27.029  94.624  25.983  1.00  0.00     0.005 C 
ENDBRANCH  19  22
ENDBRANCH  17  19
ENDBRANCH   1  17
TORSDOF 9
ENDMDL
MODEL 5
REMARK VINA RESULT: -5.988152767      1.119      1.293
REMARK  9 active torsions:
REMARK  status: ('A' for Active; 'I' for Inactive)
REMARK    1  A    between atoms: C2_2  and  O1_3 
REMARK    2  A    between atoms: O1_3  and  C3_4 
REMARK    3  A    between atoms: C3_4  and  C4_6 
REMARK    4  A    between atoms: C4_6  and  C5_7 
REMARK    5  A    between atoms: C5_7  and  C6_8 
REMARK    6  A    between atoms: C6_8  and  N1_9 
REMARK    7  A    between atoms: N1_9  and  C7_11 
REMARK    8  A    between atoms: C7_11  and  O3_12 
REMARK    9  A    between atoms: C7_11  and  C8_14 
ROOT
HETATM    1  C6  UNL     1      33.208  97.082  27.030  1.00  0.00     0.125 C 
ENDROOT
BRANCH   1   2
HETATM    2  C5  UNL     1      32.683  97.373  28.393  1.00  0.00     0.071 C 
BRANCH   2   3
HETATM    3  C4  UNL     1      32.860  96.225  29.321  1.00  0.00     0.239 C 
HETATM    4  C17 UNL     1      33.237  94.993  28.384  1.00  0.00     0.321 C 
HETATM    5  N2  UNL     1      33.413  93.847  29.190  1.00  0.00     0.088 N 
HETATM    6  C18 UNL     1      33.331  92.672  28.332  1.00  0.00     0.310 C 
HETATM    7  C19 UNL     1      32.664  93.665  30.348  1.00  0.00     0.299 C 
HETATM    8  C20 UNL     1      32.259  94.910  31.104  1.00  0.00     0.264 C 
HETATM    9  N3  UNL     1      31.776  95.834  30.101  1.00  0.00    -0.053 N 
ATOM     10  H32 UNL     1      31.272  96.625  30.502  1.00  0.00     0.278 HD
ATOM     11  H31 UNL     1      31.009  95.451  29.548  1.00  0.00     0.278 HD
BRANCH   3  12
HETATM   12  C3  UNL     1      34.148  96.425  30.110  1.00  0.00     0.297 C 
HETATM   13  O2  UNL     1      34.227  96.976  31.200  1.00  0.00    -0.262 OA
BRANCH  12  14
HETATM   14  O1  UNL     1      35.298  95.933  29.483  1.00  0.00    -0.320 OA
BRANCH  14  15
HETATM   15  C2  UNL     1      36.330  96.750  29.053  1.00  0.00     0.174 C 
HETATM   16  C1  UNL     1      36.996  95.981  27.880  1.00  0.00     0.034 C 
ENDBRANCH  14  15
ENDBRANCH  12  14
ENDBRANCH   3  12
ENDBRANCH   2   3
ENDBRANCH   1   2
BRANCH   1  17
HETATM   17  N1  UNL     1      32.335  97.286  25.936  1.00  0.00    -0.370 N 
ATOM     18  H1  UNL     1      32.455  96.719  25.097  1.00  0.00     0.161 HD
BRANCH  17  19
HETATM   19  C7  UNL     1      31.318  98.235  25.969  1.00  0.00     0.147 C 
BRANCH  19  20
HETATM   20  O3  UNL     1      31.733  99.463  25.867  1.00  0.00    -0.346 OA
ATOM     21  H3  UNL     1      31.601  99.984  26.650  1.00  0.00     0.219 HD
ENDBRANCH  19  20
BRANCH  19  22
HETATM   22  C8  UNL     1      29.853  98.011  26.087  1.00  0.00     0.028 A 
HETATM   23  C9  UNL     1      29.083  99.110  25.668  1.00  0.00     0.066 A 
HETATM   24  S1  UNL     1      27.493  98.584  25.730  1.00  0.00    -0.105 SA
HETATM   25  C10 UNL     1      27.761  96.983  26.277  1.00  0.00    -0.010 A 
HETATM   26  C11 UNL     1      29.130  96.914  26.402  1.00  0.00    -0.030 A 
HETATM   27  C16 UNL     1      26.651  95.982  26.510  1.00  0.00     0.046 C 
HETATM   28  C12 UNL     1      29.826  95.669  26.972  1.00  0.00     0.040 C 
HETATM   29  C13 UNL     1      28.786  94.678  27.466  1.00  0.00     0.005 C 
HETATM   30  C14 UNL     1      28.136  93.962  26.293  1.00  0.00     0.001 C 
HETATM   31  C15 UNL     1      26.874  94.662  25.884  1.00  0.00     0.005 C 
ENDBRANCH  19  22
ENDBRANCH  17  19
ENDBRANCH   1  17
TORSDOF 9
ENDMDL
