MODEL 1
REMARK VINA RESULT: -5.859270907      0.000      0.000
REMARK  7 active torsions:
REMARK  status: ('A' for Active; 'I' for Inactive)
REMARK    1  A    between atoms: C2_2  and  C3_3 
REMARK    2  A    between atoms: C3_3  and  O1_4 
REMARK    3  A    between atoms: C9_11  and  O2_12 
REMARK    4  A    between atoms: C15_19  and  C16_20 
REMARK    5  A    between atoms: C15_19  and  C17_23 
REMARK    6  A    between atoms: C16_20  and  O3_21 
REMARK    7  A    between atoms: C17_23  and  O4_24 
ROOT
HETATM    1  C1  UNL     1       7.670  34.543  11.222  1.00  0.00     0.018 C 
HETATM    2  C2  UNL     1       8.425  33.668  12.210  1.00  0.00    -0.016 C 
HETATM    3  C4  UNL     1       9.776  33.398  11.640  1.00  0.00     0.012 C 
HETATM    4  C5  UNL     1      10.565  34.643  12.003  1.00  0.00     0.011 C 
HETATM    5  C6  UNL     1       9.882  35.307  13.133  1.00  0.00    -0.033 C 
HETATM    6  C7  UNL     1       9.376  36.671  12.713  1.00  0.00     0.016 C 
HETATM    7  C8  UNL     1       8.705  34.388  13.492  1.00  0.00     0.034 C 
HETATM    8  C9  UNL     1       9.287  33.410  14.489  1.00  0.00     0.132 C 
HETATM    9  C10 UNL     1      10.382  34.189  15.220  1.00  0.00    -0.009 C 
HETATM   10  C11 UNL     1       9.895  34.552  16.620  1.00  0.00     0.013 C 
HETATM   11  C12 UNL     1      11.052  34.234  17.560  1.00  0.00     0.006 C 
HETATM   12  C13 UNL     1      12.212  33.920  16.712  1.00  0.00    -0.001 C 
HETATM   13  C14 UNL     1      11.532  33.297  15.511  1.00  0.00     0.018 C 
HETATM   14  C15 UNL     1      13.194  34.958  16.376  1.00  0.00     0.006 C 
HETATM   15  C18 UNL     1      12.634  36.131  15.612  1.00  0.00     0.014 C 
HETATM   16  C19 UNL     1      12.083  35.794  14.263  1.00  0.00     0.007 C 
HETATM   17  C20 UNL     1      10.655  35.406  14.417  1.00  0.00     0.005 C 
ENDROOT
BRANCH  14  18
HETATM   18  C16 UNL     1      14.308  34.292  15.537  1.00  0.00     0.176 C 
BRANCH  18  19
HETATM   19  O3  UNL     1      15.507  34.667  16.137  1.00  0.00    -0.400 OA
ATOM     20  H3  UNL     1      16.190  34.424  15.523  1.00  0.00     0.209 HD
ENDBRANCH  18  19
ENDBRANCH  14  18
BRANCH  14  21
HETATM   21  C17 UNL     1      13.912  35.517  17.564  1.00  0.00     0.176 C 
BRANCH  21  22
HETATM   22  O4  UNL     1      14.004  36.887  17.635  1.00  0.00    -0.400 OA
ATOM     23  H4  UNL     1      13.617  37.298  18.398  1.00  0.00     0.209 HD
ENDBRANCH  21  22
ENDBRANCH  14  21
BRANCH   8  24
HETATM   24  O2  UNL     1       8.274  32.996  15.330  1.00  0.00    -0.394 OA
ATOM     25  H2  UNL     1       8.279  32.046  15.357  1.00  0.00     0.210 HD
ENDBRANCH   8  24
BRANCH   2  26
HETATM   26  C3  UNL     1       7.602  32.419  12.406  1.00  0.00     0.173 C 
BRANCH  26  27
HETATM   27  O1  UNL     1       6.399  32.777  13.012  1.00  0.00    -0.400 OA
ATOM     28  H1  UNL     1       5.696  32.305  12.582  1.00  0.00     0.209 HD
ENDBRANCH  26  27
ENDBRANCH   2  26
TORSDOF 7
ENDMDL
MODEL 2
REMARK VINA RESULT: -5.816576912      3.102      5.134
REMARK  7 active torsions:
REMARK  status: ('A' for Active; 'I' for Inactive)
REMARK    1  A    between atoms: C2_2  and  C3_3 
REMARK    2  A    between atoms: C3_3  and  O1_4 
REMARK    3  A    between atoms: C9_11  and  O2_12 
REMARK    4  A    between atoms: C15_19  and  C16_20 
REMARK    5  A    between atoms: C15_19  and  C17_23 
REMARK    6  A    between atoms: C16_20  and  O3_21 
REMARK    7  A    between atoms: C17_23  and  O4_24 
ROOT
HETATM    1  C1  UNL     1       8.495  36.109  15.004  1.00  0.00     0.018 C 
HETATM    2  C2  UNL     1       9.074  35.670  13.670  1.00  0.00    -0.016 C 
HETATM    3  C4  UNL     1      10.547  35.897  13.715  1.00  0.00     0.012 C 
HETATM    4  C5  UNL     1      11.069  34.674  14.446  1.00  0.00     0.011 C 
HETATM    5  C6  UNL     1      10.052  33.606  14.340  1.00  0.00    -0.033 C 
HETATM    6  C7  UNL     1       9.512  33.259  15.712  1.00  0.00     0.016 C 
HETATM    7  C8  UNL     1       8.938  34.194  13.461  1.00  0.00     0.034 C 
HETATM    8  C9  UNL     1       9.360  33.855  12.049  1.00  0.00     0.132 C 
HETATM    9  C10 UNL     1      10.138  32.543  12.168  1.00  0.00    -0.009 C 
HETATM   10  C11 UNL     1       9.277  31.395  11.650  1.00  0.00     0.013 C 
HETATM   11  C12 UNL     1      10.190  30.555  10.765  1.00  0.00     0.006 C 
HETATM   12  C13 UNL     1      11.554  31.072  10.952  1.00  0.00    -0.001 C 
HETATM   13  C14 UNL     1      11.274  32.537  11.213  1.00  0.00     0.018 C 
HETATM   14  C15 UNL     1      12.461  30.451  11.924  1.00  0.00     0.006 C 
HETATM   15  C18 UNL     1      11.978  30.491  13.352  1.00  0.00     0.014 C 
HETATM   16  C19 UNL     1      11.826  31.865  13.923  1.00  0.00     0.007 C 
HETATM   17  C20 UNL     1      10.460  32.362  13.606  1.00  0.00     0.005 C 
ENDROOT
BRANCH  14  18
HETATM   18  C16 UNL     1      13.819  31.180  11.828  1.00  0.00     0.176 C 
BRANCH  18  19
HETATM   19  O3  UNL     1      14.783  30.228  12.151  1.00  0.00    -0.400 OA
ATOM     20  H3  UNL     1      15.516  30.395  11.569  1.00  0.00     0.209 HD
ENDBRANCH  18  19
ENDBRANCH  14  18
BRANCH  14  21
HETATM   21  C17 UNL     1      12.787  29.022  11.617  1.00  0.00     0.176 C 
BRANCH  21  22
HETATM   22  O4  UNL     1      12.744  28.143  12.674  1.00  0.00    -0.400 OA
ATOM     23  H4  UNL     1      13.518  27.611  12.813  1.00  0.00     0.209 HD
ENDBRANCH  21  22
ENDBRANCH  14  21
BRANCH   8  24
HETATM   24  O2  UNL     1       8.224  33.733  11.275  1.00  0.00    -0.394 OA
ATOM     25  H2  UNL     1       8.285  32.923  10.781  1.00  0.00     0.210 HD
ENDBRANCH   8  24
BRANCH   2  26
HETATM   26  C3  UNL     1       8.379  36.480  12.603  1.00  0.00     0.173 C 
BRANCH  26  27
HETATM   27  O1  UNL     1       7.010  36.238  12.692  1.00  0.00    -0.400 OA
ATOM     28  H1  UNL     1       6.812  35.453  12.195  1.00  0.00     0.209 HD
ENDBRANCH  26  27
ENDBRANCH   2  26
TORSDOF 7
ENDMDL
MODEL 3
REMARK VINA RESULT: -5.782773439      1.592      6.347
REMARK  7 active torsions:
REMARK  status: ('A' for Active; 'I' for Inactive)
REMARK    1  A    between atoms: C2_2  and  C3_3 
REMARK    2  A    between atoms: C3_3  and  O1_4 
REMARK    3  A    between atoms: C9_11  and  O2_12 
REMARK    4  A    between atoms: C15_19  and  C16_20 
REMARK    5  A    between atoms: C15_19  and  C17_23 
REMARK    6  A    between atoms: C16_20  and  O3_21 
REMARK    7  A    between atoms: C17_23  and  O4_24 
ROOT
HETATM    1  C1  UNL     1      12.253  33.940  17.664  1.00  0.00     0.018 C 
HETATM    2  C2  UNL     1      12.240  34.330  16.195  1.00  0.00    -0.016 C 
HETATM    3  C4  UNL     1      12.282  33.075  15.390  1.00  0.00     0.012 C 
HETATM    4  C5  UNL     1      10.834  32.621  15.374  1.00  0.00     0.011 C 
HETATM    5  C6  UNL     1       9.981  33.789  15.678  1.00  0.00    -0.033 C 
HETATM    6  C7  UNL     1       9.243  33.575  16.983  1.00  0.00     0.016 C 
HETATM    7  C8  UNL     1      10.949  34.975  15.801  1.00  0.00     0.034 C 
HETATM    8  C9  UNL     1      11.073  35.503  14.389  1.00  0.00     0.132 C 
HETATM    9  C10 UNL     1       9.725  35.201  13.730  1.00  0.00    -0.009 C 
HETATM   10  C11 UNL     1       8.922  36.493  13.605  1.00  0.00     0.013 C 
HETATM   11  C12 UNL     1       8.346  36.492  12.195  1.00  0.00     0.006 C 
HETATM   12  C13 UNL     1       8.620  35.164  11.626  1.00  0.00    -0.001 C 
HETATM   13  C14 UNL     1       9.927  34.821  12.309  1.00  0.00     0.018 C 
HETATM   14  C15 UNL     1       7.611  34.100  11.693  1.00  0.00     0.006 C 
HETATM   15  C18 UNL     1       7.209  33.699  13.090  1.00  0.00     0.014 C 
HETATM   16  C19 UNL     1       8.312  33.114  13.914  1.00  0.00     0.007 C 
HETATM   17  C20 UNL     1       9.029  34.222  14.601  1.00  0.00     0.005 C 
ENDROOT
BRANCH  14  18
HETATM   18  C16 UNL     1       8.181  32.868  10.955  1.00  0.00     0.176 C 
BRANCH  18  19
HETATM   19  O3  UNL     1       7.093  32.033  10.716  1.00  0.00    -0.400 OA
ATOM     20  H3  UNL     1       7.338  31.183  11.062  1.00  0.00     0.209 HD
ENDBRANCH  18  19
ENDBRANCH  14  18
BRANCH  14  21
HETATM   21  C17 UNL     1       6.349  34.420  10.954  1.00  0.00     0.176 C 
BRANCH  21  22
HETATM   22  O4  UNL     1       5.171  34.181  11.622  1.00  0.00    -0.400 OA
ATOM     23  H4  UNL     1       4.387  34.565  11.248  1.00  0.00     0.209 HD
ENDBRANCH  21  22
ENDBRANCH  14  21
BRANCH   8  24
HETATM   24  O2  UNL     1      11.345  36.854  14.454  1.00  0.00    -0.394 OA
ATOM     25  H2  UNL     1      10.546  37.330  14.256  1.00  0.00     0.210 HD
ENDBRANCH   8  24
BRANCH   2  26
HETATM   26  C3  UNL     1      13.436  35.222  15.969  1.00  0.00     0.173 C 
BRANCH  26  27
HETATM   27  O1  UNL     1      13.381  36.269  16.886  1.00  0.00    -0.400 OA
ATOM     28  H1  UNL     1      12.809  36.943  16.537  1.00  0.00     0.209 HD
ENDBRANCH  26  27
ENDBRANCH   2  26
TORSDOF 7
ENDMDL
MODEL 4
REMARK VINA RESULT: -5.738306111      1.637      2.376
REMARK  7 active torsions:
REMARK  status: ('A' for Active; 'I' for Inactive)
REMARK    1  A    between atoms: C2_2  and  C3_3 
REMARK    2  A    between atoms: C3_3  and  O1_4 
REMARK    3  A    between atoms: C9_11  and  O2_12 
REMARK    4  A    between atoms: C15_19  and  C16_20 
REMARK    5  A    between atoms: C15_19  and  C17_23 
REMARK    6  A    between atoms: C16_20  and  O3_21 
REMARK    7  A    between atoms: C17_23  and  O4_24 
ROOT
HETATM    1  C1  UNL     1       8.127  33.483  10.839  1.00  0.00     0.018 C 
HETATM    2  C2  UNL     1       8.243  33.894  12.297  1.00  0.00    -0.016 C 
HETATM    3  C4  UNL     1       8.473  32.660  13.102  1.00  0.00     0.012 C 
HETATM    4  C5  UNL     1       9.965  32.420  12.958  1.00  0.00     0.011 C 
HETATM    5  C6  UNL     1      10.600  33.695  12.562  1.00  0.00    -0.033 C 
HETATM    6  C7  UNL     1      11.214  33.569  11.184  1.00  0.00     0.016 C 
HETATM    7  C8  UNL     1       9.462  34.726  12.547  1.00  0.00     0.034 C 
HETATM    8  C9  UNL     1       9.418  35.252  13.965  1.00  0.00     0.132 C 
HETATM    9  C10 UNL     1      10.858  35.159  14.471  1.00  0.00    -0.009 C 
HETATM   10  C11 UNL     1      11.473  36.555  14.507  1.00  0.00     0.013 C 
HETATM   11  C12 UNL     1      12.194  36.660  15.845  1.00  0.00     0.006 C 
HETATM   12  C13 UNL     1      12.180  35.314  16.440  1.00  0.00    -0.001 C 
HETATM   13  C14 UNL     1      10.870  34.776  15.905  1.00  0.00     0.018 C 
HETATM   14  C15 UNL     1      13.320  34.408  16.262  1.00  0.00     0.006 C 
HETATM   15  C18 UNL     1      13.621  34.047  14.829  1.00  0.00     0.014 C 
HETATM   16  C19 UNL     1      12.532  33.296  14.131  1.00  0.00     0.007 C 
HETATM   17  C20 UNL     1      11.591  34.278  13.528  1.00  0.00     0.005 C 
ENDROOT
BRANCH  14  18
HETATM   18  C16 UNL     1      13.020  33.118  17.057  1.00  0.00     0.176 C 
BRANCH  18  19
HETATM   19  O3  UNL     1      13.959  33.079  18.084  1.00  0.00    -0.400 OA
ATOM     20  H3  UNL     1      14.808  33.050  17.657  1.00  0.00     0.209 HD
ENDBRANCH  18  19
ENDBRANCH  14  18
BRANCH  14  21
HETATM   21  C17 UNL     1      14.595  34.919  16.858  1.00  0.00     0.176 C 
BRANCH  21  22
HETATM   22  O4  UNL     1      15.744  34.679  16.142  1.00  0.00    -0.400 OA
ATOM     23  H4  UNL     1      16.277  35.437  15.932  1.00  0.00     0.209 HD
ENDBRANCH  21  22
ENDBRANCH  14  21
BRANCH   8  24
HETATM   24  O2  UNL     1       8.946  36.549  13.931  1.00  0.00    -0.394 OA
ATOM     25  H2  UNL     1       8.943  36.888  14.819  1.00  0.00     0.210 HD
ENDBRANCH   8  24
BRANCH   2  26
HETATM   26  C3  UNL     1       6.963  34.607  12.655  1.00  0.00     0.173 C 
BRANCH  26  27
HETATM   27  O1  UNL     1       6.816  35.699  11.802  1.00  0.00    -0.400 OA
ATOM     28  H1  UNL     1       5.890  35.892  11.720  1.00  0.00     0.209 HD
ENDBRANCH  26  27
ENDBRANCH   2  26
TORSDOF 7
ENDMDL
MODEL 5
REMARK VINA RESULT: -5.453529396      2.019      3.517
REMARK  7 active torsions:
REMARK  status: ('A' for Active; 'I' for Inactive)
REMARK    1  A    between atoms: C2_2  and  C3_3 
REMARK    2  A    between atoms: C3_3  and  O1_4 
REMARK    3  A    between atoms: C9_11  and  O2_12 
REMARK    4  A    between atoms: C15_19  and  C16_20 
REMARK    5  A    between atoms: C15_19  and  C17_23 
REMARK    6  A    between atoms: C16_20  and  O3_21 
REMARK    7  A    between atoms: C17_23  and  O4_24 
ROOT
HETATM    1  C1  UNL     1       6.221  34.019  10.362  1.00  0.00     0.018 C 
HETATM    2  C2  UNL     1       6.695  34.944  11.470  1.00  0.00    -0.016 C 
HETATM    3  C4  UNL     1       6.137  34.438  12.757  1.00  0.00     0.012 C 
HETATM    4  C5  UNL     1       7.100  33.332  13.146  1.00  0.00     0.011 C 
HETATM    5  C6  UNL     1       8.374  33.558  12.431  1.00  0.00    -0.033 C 
HETATM    6  C7  UNL     1       8.645  32.420  11.469  1.00  0.00     0.016 C 
HETATM    7  C8  UNL     1       8.177  34.873  11.661  1.00  0.00     0.034 C 
HETATM    8  C9  UNL     1       8.601  35.945  12.640  1.00  0.00     0.132 C 
HETATM    9  C10 UNL     1       9.674  35.289  13.511  1.00  0.00    -0.009 C 
HETATM   10  C11 UNL     1      11.047  35.822  13.108  1.00  0.00     0.013 C 
HETATM   11  C12 UNL     1      11.771  36.136  14.411  1.00  0.00     0.006 C 
HETATM   12  C13 UNL     1      10.939  35.599  15.499  1.00  0.00    -0.001 C 
HETATM   13  C14 UNL     1       9.554  35.765  14.912  1.00  0.00     0.018 C 
HETATM   14  C15 UNL     1      11.203  34.265  16.050  1.00  0.00     0.006 C 
HETATM   15  C18 UNL     1      11.079  33.137  15.057  1.00  0.00     0.014 C 
HETATM   16  C19 UNL     1       9.710  32.956  14.482  1.00  0.00     0.007 C 
HETATM   17  C20 UNL     1       9.582  33.827  13.281  1.00  0.00     0.005 C 
ENDROOT
BRANCH  14  18
HETATM   18  C16 UNL     1      10.206  34.032  17.207  1.00  0.00     0.176 C 
BRANCH  18  19
HETATM   19  O3  UNL     1      10.985  33.782  18.333  1.00  0.00    -0.400 OA
ATOM     20  H3  UNL     1      10.399  33.863  19.077  1.00  0.00     0.209 HD
ENDBRANCH  18  19
ENDBRANCH  14  18
BRANCH  14  21
HETATM   21  C17 UNL     1      12.549  34.132  16.692  1.00  0.00     0.176 C 
BRANCH  21  22
HETATM   22  O4  UNL     1      13.251  32.984  16.409  1.00  0.00    -0.400 OA
ATOM     23  H4  UNL     1      14.164  33.095  16.171  1.00  0.00     0.209 HD
ENDBRANCH  21  22
ENDBRANCH  14  21
BRANCH   8  24
HETATM   24  O2  UNL     1       9.080  37.022  11.923  1.00  0.00    -0.394 OA
ATOM     25  H2  UNL     1       9.254  36.735  11.034  1.00  0.00     0.210 HD
ENDBRANCH   8  24
BRANCH   2  26
HETATM   26  C3  UNL     1       6.215  36.331  11.118  1.00  0.00     0.173 C 
BRANCH  26  27
HETATM   27  O1  UNL     1       5.152  36.653  11.959  1.00  0.00    -0.400 OA
ATOM     28  H1  UNL     1       4.703  35.850  12.195  1.00  0.00     0.209 HD
ENDBRANCH  26  27
ENDBRANCH   2  26
TORSDOF 7
ENDMDL
