MODEL 1
REMARK VINA RESULT: -7.409534541      0.000      0.000
REMARK  5 active torsions:
REMARK  status: ('A' for Active; 'I' for Inactive)
REMARK    1  A    between atoms: C5_5  and  C6_6 
REMARK    2  A    between atoms: C7_7  and  C8_8 
REMARK    3  A    between atoms: C10_10  and  O1_11 
REMARK    4  A    between atoms: C11_13  and  O2_14 
REMARK    5  A    between atoms: C12_16  and  O3_17 
ROOT
HETATM    1  C8  UNL     1       9.220  33.563  14.855  1.00  0.00     0.021 C 
HETATM    2  C9  UNL     1       8.662  34.812  15.446  1.00  0.00     0.043 C 
HETATM    3  C10 UNL     1       8.940  36.049  14.646  1.00  0.00     0.150 C 
HETATM    4  C11 UNL     1       8.410  35.854  13.260  1.00  0.00     0.176 C 
HETATM    5  C12 UNL     1       9.152  34.707  12.624  1.00  0.00     0.157 C 
HETATM    6  C13 UNL     1       8.967  33.415  13.381  1.00  0.00    -0.012 C 
HETATM    7  C14 UNL     1       7.576  32.853  13.165  1.00  0.00     0.018 C 
HETATM    8  C15 UNL     1       9.942  32.416  12.794  1.00  0.00     0.018 C 
ENDROOT
BRANCH   1   9
HETATM    9  C7  UNL     1      10.660  33.412  15.145  1.00  0.00    -0.024 C 
HETATM   10  C6  UNL     1      11.209  33.650  16.360  1.00  0.00    -0.021 C 
BRANCH  10  11
HETATM   11  C5  UNL     1      12.636  33.471  16.538  1.00  0.00     0.043 C 
HETATM   12  C4  UNL     1      13.055  34.069  17.838  1.00  0.00    -0.042 C 
HETATM   13  C3  UNL     1      12.922  34.181  19.141  1.00  0.00     0.034 C 
HETATM   14  C19 UNL     1      13.956  35.197  17.423  1.00  0.00     0.051 C 
HETATM   15  C2  UNL     1      13.894  35.101  19.703  1.00  0.00     0.019 C 
HETATM   16  C1  UNL     1      14.040  35.462  20.983  1.00  0.00     0.042 C 
HETATM   17  N1  UNL     1      14.663  35.535  18.589  1.00  0.00    -0.378 N 
ATOM     18  H1  UNL     1      15.566  36.008  18.630  1.00  0.00     0.160 HD
HETATM   19  C18 UNL     1      14.700  34.622  16.265  1.00  0.00     0.040 C 
HETATM   20  C20 UNL     1      13.165  36.435  17.014  1.00  0.00     0.043 C 
HETATM   21  C16 UNL     1      13.563  33.945  15.503  1.00  0.00    -0.004 C 
HETATM   22  C17 UNL     1      12.998  34.853  14.454  1.00  0.00     0.011 C 
ENDBRANCH  10  11
ENDBRANCH   1   9
BRANCH   3  23
HETATM   23  O1  UNL     1      10.281  36.364  14.572  1.00  0.00    -0.393 OA
ATOM     24  H1  UNL     1      10.750  35.863  13.915  1.00  0.00     0.210 HD
ENDBRANCH   3  23
BRANCH   5  25
HETATM   25  O3  UNL     1      10.477  35.040  12.464  1.00  0.00    -0.392 OA
ATOM     26  H3  UNL     1      10.569  35.660  11.750  1.00  0.00     0.210 HD
ENDBRANCH   5  25
BRANCH   4  27
HETATM   27  O2  UNL     1       7.051  35.561  13.227  1.00  0.00    -0.390 OA
ATOM     28  H2  UNL     1       6.695  35.531  12.347  1.00  0.00     0.210 HD
ENDBRANCH   4  27
TORSDOF 5
ENDMDL
MODEL 2
REMARK VINA RESULT: -7.099521644      3.379      5.227
REMARK  5 active torsions:
REMARK  status: ('A' for Active; 'I' for Inactive)
REMARK    1  A    between atoms: C5_5  and  C6_6 
REMARK    2  A    between atoms: C7_7  and  C8_8 
REMARK    3  A    between atoms: C10_10  and  O1_11 
REMARK    4  A    between atoms: C11_13  and  O2_14 
REMARK    5  A    between atoms: C12_16  and  O3_17 
ROOT
HETATM    1  C8  UNL     1      12.217  36.045  11.102  1.00  0.00     0.021 C 
HETATM    2  C9  UNL     1      11.471  36.791  10.049  1.00  0.00     0.043 C 
HETATM    3  C10 UNL     1      11.873  38.229   9.912  1.00  0.00     0.150 C 
HETATM    4  C11 UNL     1      13.344  38.293   9.644  1.00  0.00     0.176 C 
HETATM    5  C12 UNL     1      14.070  37.714  10.830  1.00  0.00     0.157 C 
HETATM    6  C13 UNL     1      13.702  36.272  11.079  1.00  0.00    -0.012 C 
HETATM    7  C14 UNL     1      14.332  35.364  10.041  1.00  0.00     0.018 C 
HETATM    8  C15 UNL     1      14.298  35.889  12.418  1.00  0.00     0.018 C 
ENDROOT
BRANCH   1   9
HETATM    9  C7  UNL     1      11.679  36.311  12.451  1.00  0.00    -0.024 C 
HETATM   10  C6  UNL     1      10.787  35.506  13.075  1.00  0.00    -0.021 C 
BRANCH  10  11
HETATM   11  C5  UNL     1      10.322  35.860  14.401  1.00  0.00     0.043 C 
HETATM   12  C4  UNL     1      11.244  35.284  15.422  1.00  0.00    -0.042 C 
HETATM   13  C3  UNL     1      12.455  35.120  15.907  1.00  0.00     0.034 C 
HETATM   14  C19 UNL     1      10.378  34.292  16.145  1.00  0.00     0.051 C 
HETATM   15  C2  UNL     1      12.446  34.316  17.115  1.00  0.00     0.019 C 
HETATM   16  C1  UNL     1      13.490  33.941  17.861  1.00  0.00     0.042 C 
HETATM   17  N1  UNL     1      11.074  34.014  17.334  1.00  0.00    -0.378 N 
ATOM     18  H1  UNL     1      10.667  33.658  18.200  1.00  0.00     0.160 HD
HETATM   19  C18 UNL     1       9.062  34.988  16.221  1.00  0.00     0.040 C 
HETATM   20  C20 UNL     1      10.266  32.975  15.384  1.00  0.00     0.043 C 
HETATM   21  C16 UNL     1       8.947  35.536  14.800  1.00  0.00    -0.004 C 
HETATM   22  C17 UNL     1       8.191  34.594  13.915  1.00  0.00     0.011 C 
ENDBRANCH  10  11
ENDBRANCH   1   9
BRANCH   3  23
HETATM   23  O1  UNL     1      11.589  38.986  11.028  1.00  0.00    -0.393 OA
ATOM     24  H1  UNL     1      12.332  39.094  11.611  1.00  0.00     0.210 HD
ENDBRANCH   3  23
BRANCH   5  25
HETATM   25  O3  UNL     1      13.865  38.509  11.935  1.00  0.00    -0.392 OA
ATOM     26  H3  UNL     1      14.681  38.615  12.410  1.00  0.00     0.210 HD
ENDBRANCH   5  25
BRANCH   4  27
HETATM   27  O2  UNL     1      13.729  37.581   8.513  1.00  0.00    -0.390 OA
ATOM     28  H2  UNL     1      14.280  36.833   8.710  1.00  0.00     0.210 HD
ENDBRANCH   4  27
TORSDOF 5
ENDMDL
MODEL 3
REMARK VINA RESULT: -6.976094863      3.740      6.647
REMARK  5 active torsions:
REMARK  status: ('A' for Active; 'I' for Inactive)
REMARK    1  A    between atoms: C5_5  and  C6_6 
REMARK    2  A    between atoms: C7_7  and  C8_8 
REMARK    3  A    between atoms: C10_10  and  O1_11 
REMARK    4  A    between atoms: C11_13  and  O2_14 
REMARK    5  A    between atoms: C12_16  and  O3_17 
ROOT
HETATM    1  C8  UNL     1      12.108  33.088  15.640  1.00  0.00     0.021 C 
HETATM    2  C9  UNL     1      13.381  33.752  15.241  1.00  0.00     0.043 C 
HETATM    3  C10 UNL     1      13.204  35.117  14.646  1.00  0.00     0.150 C 
HETATM    4  C11 UNL     1      12.461  35.974  15.621  1.00  0.00     0.176 C 
HETATM    5  C12 UNL     1      11.095  35.375  15.837  1.00  0.00     0.157 C 
HETATM    6  C13 UNL     1      11.165  33.977  16.401  1.00  0.00    -0.012 C 
HETATM    7  C14 UNL     1      11.567  34.001  17.862  1.00  0.00     0.018 C 
HETATM    8  C15 UNL     1       9.763  33.406  16.339  1.00  0.00     0.018 C 
ENDROOT
BRANCH   1   9
HETATM    9  C7  UNL     1      11.418  32.481  14.484  1.00  0.00    -0.024 C 
HETATM   10  C6  UNL     1      12.019  31.640  13.610  1.00  0.00    -0.021 C 
BRANCH  10  11
HETATM   11  C5  UNL     1      11.250  31.099  12.507  1.00  0.00     0.043 C 
HETATM   12  C4  UNL     1      11.539  29.642  12.366  1.00  0.00    -0.042 C 
HETATM   13  C3  UNL     1      11.617  28.436  12.883  1.00  0.00     0.034 C 
HETATM   14  C19 UNL     1      12.210  29.554  11.024  1.00  0.00     0.051 C 
HETATM   15  C2  UNL     1      12.012  27.451  11.892  1.00  0.00     0.019 C 
HETATM   16  C1  UNL     1      12.201  26.139  12.068  1.00  0.00     0.042 C 
HETATM   17  N1  UNL     1      12.151  28.191  10.687  1.00  0.00    -0.378 N 
ATOM     18  H1  UNL     1      12.200  27.802   9.745  1.00  0.00     0.160 HD
HETATM   19  C18 UNL     1      11.448  30.539  10.204  1.00  0.00     0.040 C 
HETATM   20  C20 UNL     1      13.687  29.924  11.104  1.00  0.00     0.043 C 
HETATM   21  C16 UNL     1      11.355  31.711  11.177  1.00  0.00    -0.004 C 
HETATM   22  C17 UNL     1      12.477  32.681  10.967  1.00  0.00     0.011 C 
ENDBRANCH  10  11
ENDBRANCH   1   9
BRANCH   3  23
HETATM   23  O1  UNL     1      12.522  35.108  13.448  1.00  0.00    -0.393 OA
ATOM     24  H1  UNL     1      12.550  35.940  12.990  1.00  0.00     0.210 HD
ENDBRANCH   3  23
BRANCH   5  25
HETATM   25  O3  UNL     1      10.369  35.438  14.669  1.00  0.00    -0.392 OA
ATOM     26  H3  UNL     1      10.327  34.577  14.270  1.00  0.00     0.210 HD
ENDBRANCH   5  25
BRANCH   4  27
HETATM   27  O2  UNL     1      13.089  36.072  16.858  1.00  0.00    -0.390 OA
ATOM     28  H2  UNL     1      12.598  35.664  17.562  1.00  0.00     0.210 HD
ENDBRANCH   4  27
TORSDOF 5
ENDMDL
MODEL 4
REMARK VINA RESULT: -6.786811541      2.763      4.538
REMARK  5 active torsions:
REMARK  status: ('A' for Active; 'I' for Inactive)
REMARK    1  A    between atoms: C5_5  and  C6_6 
REMARK    2  A    between atoms: C7_7  and  C8_8 
REMARK    3  A    between atoms: C10_10  and  O1_11 
REMARK    4  A    between atoms: C11_13  and  O2_14 
REMARK    5  A    between atoms: C12_16  and  O3_17 
ROOT
HETATM    1  C8  UNL     1      11.566  35.171  11.544  1.00  0.00     0.021 C 
HETATM    2  C9  UNL     1      11.371  36.502  10.904  1.00  0.00     0.043 C 
HETATM    3  C10 UNL     1      12.512  37.455  11.104  1.00  0.00     0.150 C 
HETATM    4  C11 UNL     1      13.766  36.817  10.595  1.00  0.00     0.176 C 
HETATM    5  C12 UNL     1      14.038  35.581  11.412  1.00  0.00     0.157 C 
HETATM    6  C13 UNL     1      12.923  34.569  11.308  1.00  0.00    -0.012 C 
HETATM    7  C14 UNL     1      12.937  33.881   9.958  1.00  0.00     0.018 C 
HETATM    8  C15 UNL     1      13.196  33.502  12.349  1.00  0.00     0.018 C 
ENDROOT
BRANCH   1   9
HETATM    9  C7  UNL     1      11.266  35.206  12.990  1.00  0.00    -0.024 C 
HETATM   10  C6  UNL     1      10.059  35.550  13.497  1.00  0.00    -0.021 C 
BRANCH  10  11
HETATM   11  C5  UNL     1       9.870  35.552  14.934  1.00  0.00     0.043 C 
HETATM   12  C4  UNL     1      11.194  35.430  15.611  1.00  0.00    -0.042 C 
HETATM   13  C3  UNL     1      12.430  35.840  15.788  1.00  0.00     0.034 C 
HETATM   14  C19 UNL     1      11.103  34.099  16.304  1.00  0.00     0.051 C 
HETATM   15  C2  UNL     1      13.116  35.057  16.800  1.00  0.00     0.019 C 
HETATM   16  C1  UNL     1      14.377  35.187  17.224  1.00  0.00     0.042 C 
HETATM   17  N1  UNL     1      12.146  34.118  17.245  1.00  0.00    -0.378 N 
ATOM     18  H1  UNL     1      12.199  33.557  18.096  1.00  0.00     0.160 HD
HETATM   19  C18 UNL     1       9.692  34.068  16.785  1.00  0.00     0.040 C 
HETATM   20  C20 UNL     1      11.390  32.943  15.352  1.00  0.00     0.043 C 
HETATM   21  C16 UNL     1       8.957  34.580  15.548  1.00  0.00    -0.004 C 
HETATM   22  C17 UNL     1       8.495  33.447  14.684  1.00  0.00     0.011 C 
ENDBRANCH  10  11
ENDBRANCH   1   9
BRANCH   3  23
HETATM   23  O1  UNL     1      12.699  37.817  12.422  1.00  0.00    -0.393 OA
ATOM     24  H1  UNL     1      12.718  38.757  12.556  1.00  0.00     0.210 HD
ENDBRANCH   3  23
BRANCH   5  25
HETATM   25  O3  UNL     1      14.311  35.933  12.713  1.00  0.00    -0.392 OA
ATOM     26  H3  UNL     1      14.068  36.840  12.859  1.00  0.00     0.210 HD
ENDBRANCH   5  25
BRANCH   4  27
HETATM   27  O2  UNL     1      13.688  36.442   9.258  1.00  0.00    -0.390 OA
ATOM     28  H2  UNL     1      14.538  36.316   8.853  1.00  0.00     0.210 HD
ENDBRANCH   4  27
TORSDOF 5
ENDMDL
MODEL 5
REMARK VINA RESULT: -6.786400295      4.212      6.657
REMARK  5 active torsions:
REMARK  status: ('A' for Active; 'I' for Inactive)
REMARK    1  A    between atoms: C5_5  and  C6_6 
REMARK    2  A    between atoms: C7_7  and  C8_8 
REMARK    3  A    between atoms: C10_10  and  O1_11 
REMARK    4  A    between atoms: C11_13  and  O2_14 
REMARK    5  A    between atoms: C12_16  and  O3_17 
ROOT
HETATM    1  C8  UNL     1      12.598  34.418  14.501  1.00  0.00     0.021 C 
HETATM    2  C9  UNL     1      13.419  33.451  15.282  1.00  0.00     0.043 C 
HETATM    3  C10 UNL     1      14.037  34.028  16.521  1.00  0.00     0.150 C 
HETATM    4  C11 UNL     1      12.950  34.594  17.381  1.00  0.00     0.176 C 
HETATM    5  C12 UNL     1      12.280  35.713  16.626  1.00  0.00     0.157 C 
HETATM    6  C13 UNL     1      11.657  35.240  15.336  1.00  0.00    -0.012 C 
HETATM    7  C14 UNL     1      10.397  34.442  15.602  1.00  0.00     0.018 C 
HETATM    8  C15 UNL     1      11.241  36.477  14.567  1.00  0.00     0.018 C 
ENDROOT
BRANCH   1   9
HETATM    9  C7  UNL     1      13.436  35.297  13.659  1.00  0.00    -0.024 C 
HETATM   10  C6  UNL     1      13.845  34.970  12.411  1.00  0.00    -0.021 C 
BRANCH  10  11
HETATM   11  C5  UNL     1      14.666  35.906  11.669  1.00  0.00     0.043 C 
HETATM   12  C4  UNL     1      13.820  37.032  11.180  1.00  0.00    -0.042 C 
HETATM   13  C3  UNL     1      12.954  37.996  11.407  1.00  0.00     0.034 C 
HETATM   14  C19 UNL     1      13.875  36.879   9.686  1.00  0.00     0.051 C 
HETATM   15  C2  UNL     1      12.635  38.728  10.195  1.00  0.00     0.019 C 
HETATM   16  C1  UNL     1      11.789  39.754  10.055  1.00  0.00     0.042 C 
HETATM   17  N1  UNL     1      13.424  38.113   9.186  1.00  0.00    -0.378 N 
ATOM     18  H1  UNL     1      13.626  38.498   8.263  1.00  0.00     0.160 HD
HETATM   19  C18 UNL     1      15.288  36.471   9.443  1.00  0.00     0.040 C 
HETATM   20  C20 UNL     1      12.898  35.820   9.188  1.00  0.00     0.043 C 
HETATM   21  C16 UNL     1      15.477  35.428  10.543  1.00  0.00    -0.004 C 
HETATM   22  C17 UNL     1      15.184  34.049  10.037  1.00  0.00     0.011 C 
ENDBRANCH  10  11
ENDBRANCH   1   9
BRANCH   3  23
HETATM   23  O1  UNL     1      14.963  35.016  16.263  1.00  0.00    -0.393 OA
ATOM     24  H1  UNL     1      15.480  35.257  17.023  1.00  0.00     0.210 HD
ENDBRANCH   3  23
BRANCH   5  25
HETATM   25  O3  UNL     1      13.170  36.745  16.436  1.00  0.00    -0.392 OA
ATOM     26  H3  UNL     1      12.701  37.531  16.183  1.00  0.00     0.210 HD
ENDBRANCH   5  25
BRANCH   4  27
HETATM   27  O2  UNL     1      11.978  33.661  17.724  1.00  0.00    -0.390 OA
ATOM     28  H2  UNL     1      11.443  33.930  18.462  1.00  0.00     0.210 HD
ENDBRANCH   4  27
TORSDOF 5
ENDMDL
