MODEL 1
REMARK VINA RESULT: -6.543678038      0.000      0.000
REMARK  6 active torsions:
REMARK  status: ('A' for Active; 'I' for Inactive)
REMARK    1  A    between atoms: C7_8  and  C8_9 
REMARK    2  A    between atoms: C8_9  and  O2_10 
REMARK    3  A    between atoms: C8_9  and  C9_12 
REMARK    4  A    between atoms: C9_12  and  O3_13 
REMARK    5  A    between atoms: C9_12  and  C10_15 
REMARK    6  A    between atoms: C10_15  and  O4_16 
ROOT
HETATM    1  C1  UNL     1      14.711  34.414   8.558  1.00  0.00     0.010 C 
HETATM    2  C2  UNL     1      15.047  34.437  10.034  1.00  0.00    -0.014 C 
HETATM    3  C3  UNL     1      15.130  35.876  10.462  1.00  0.00     0.034 C 
HETATM    4  C4  UNL     1      14.770  36.060  11.891  1.00  0.00     0.006 C 
HETATM    5  C5  UNL     1      13.870  35.316  12.511  1.00  0.00     0.051 C 
HETATM    6  O1  UNL     1      13.531  35.480  13.834  1.00  0.00    -0.348 OA
HETATM    7  C6  UNL     1      13.189  34.360  14.668  1.00  0.00     0.143 C 
HETATM    8  C7  UNL     1      12.813  34.886  15.991  1.00  0.00     0.048 C 
HETATM    9  C11 UNL     1      11.469  34.414  16.499  1.00  0.00     0.014 C 
HETATM   10  C12 UNL     1      10.391  34.461  15.491  1.00  0.00    -0.017 C 
HETATM   11  C13 UNL     1       9.236  33.590  16.003  1.00  0.00     0.010 C 
HETATM   12  C14 UNL     1      10.765  34.033  14.122  1.00  0.00     0.016 C 
HETATM   13  C15 UNL     1      12.176  33.502  13.986  1.00  0.00    -0.015 C 
HETATM   14  C16 UNL     1      12.191  32.145  14.662  1.00  0.00     0.018 C 
HETATM   15  C17 UNL     1      12.407  33.286  12.529  1.00  0.00     0.027 C 
HETATM   16  C18 UNL     1      13.194  34.263  11.760  1.00  0.00     0.006 C 
HETATM   17  C19 UNL     1      12.257  34.982  10.773  1.00  0.00     0.022 C 
HETATM   18  C20 UNL     1      14.221  33.571  10.890  1.00  0.00     0.020 C 
ENDROOT
BRANCH   8  19
HETATM   19  C8  UNL     1      13.785  34.545  17.098  1.00  0.00     0.155 C 
BRANCH  19  20
HETATM   20  O2  UNL     1      13.568  33.220  17.444  1.00  0.00    -0.392 OA
ATOM     21  H2  UNL     1      14.351  32.735  17.212  1.00  0.00     0.210 HD
ENDBRANCH  19  20
BRANCH  19  22
HETATM   22  C9  UNL     1      13.756  35.472  18.270  1.00  0.00     0.170 C 
BRANCH  22  23
HETATM   23  O3  UNL     1      14.953  36.228  18.181  1.00  0.00    -0.391 OA
ATOM     24  H3  UNL     1      15.423  35.870  17.438  1.00  0.00     0.210 HD
ENDBRANCH  22  23
BRANCH  22  25
HETATM   25  C10 UNL     1      13.801  34.779  19.591  1.00  0.00     0.198 C 
BRANCH  25  26
HETATM   26  O4  UNL     1      12.636  34.081  19.892  1.00  0.00    -0.398 OA
ATOM     27  H4  UNL     1      11.842  34.562  19.692  1.00  0.00     0.209 HD
ENDBRANCH  25  26
ENDBRANCH  22  25
ENDBRANCH  19  22
ENDBRANCH   8  19
TORSDOF 6
ENDMDL
MODEL 2
REMARK VINA RESULT: -6.371311777      2.368      3.420
REMARK  6 active torsions:
REMARK  status: ('A' for Active; 'I' for Inactive)
REMARK    1  A    between atoms: C7_8  and  C8_9 
REMARK    2  A    between atoms: C8_9  and  O2_10 
REMARK    3  A    between atoms: C8_9  and  C9_12 
REMARK    4  A    between atoms: C9_12  and  O3_13 
REMARK    5  A    between atoms: C9_12  and  C10_15 
REMARK    6  A    between atoms: C10_15  and  O4_16 
ROOT
HETATM    1  C1  UNL     1      11.992  28.085  11.221  1.00  0.00     0.010 C 
HETATM    2  C2  UNL     1      12.740  29.033  12.133  1.00  0.00    -0.014 C 
HETATM    3  C3  UNL     1      13.665  29.855  11.278  1.00  0.00     0.034 C 
HETATM    4  C4  UNL     1      13.919  31.200  11.855  1.00  0.00     0.006 C 
HETATM    5  C5  UNL     1      13.017  31.869  12.553  1.00  0.00     0.051 C 
HETATM    6  O1  UNL     1      13.244  33.114  13.092  1.00  0.00    -0.348 OA
HETATM    7  C6  UNL     1      12.671  33.506  14.351  1.00  0.00     0.143 C 
HETATM    8  C7  UNL     1      13.051  34.907  14.597  1.00  0.00     0.048 C 
HETATM    9  C11 UNL     1      11.892  35.830  14.904  1.00  0.00     0.014 C 
HETATM   10  C12 UNL     1      10.729  35.658  14.011  1.00  0.00    -0.017 C 
HETATM   11  C13 UNL     1       9.524  36.333  14.679  1.00  0.00     0.010 C 
HETATM   12  C14 UNL     1      10.383  34.259  13.660  1.00  0.00     0.016 C 
HETATM   13  C15 UNL     1      11.209  33.205  14.365  1.00  0.00    -0.015 C 
HETATM   14  C16 UNL     1      10.755  33.199  15.811  1.00  0.00     0.018 C 
HETATM   15  C17 UNL     1      10.826  31.896  13.762  1.00  0.00     0.027 C 
HETATM   16  C18 UNL     1      11.707  31.262  12.769  1.00  0.00     0.006 C 
HETATM   17  C19 UNL     1      11.001  31.284  11.401  1.00  0.00     0.022 C 
HETATM   18  C20 UNL     1      11.912  29.796  13.079  1.00  0.00     0.020 C 
ENDROOT
BRANCH   8  19
HETATM   19  C8  UNL     1      14.012  35.101  15.748  1.00  0.00     0.155 C 
BRANCH  19  20
HETATM   20  O2  UNL     1      14.898  34.035  15.730  1.00  0.00    -0.392 OA
ATOM     21  H2  UNL     1      14.670  33.465  16.455  1.00  0.00     0.210 HD
ENDBRANCH  19  20
BRANCH  19  22
HETATM   22  C9  UNL     1      13.366  35.307  17.080  1.00  0.00     0.170 C 
BRANCH  22  23
HETATM   23  O3  UNL     1      13.848  36.559  17.543  1.00  0.00    -0.391 OA
ATOM     24  H3  UNL     1      14.264  36.376  18.376  1.00  0.00     0.210 HD
ENDBRANCH  22  23
BRANCH  22  25
HETATM   25  C10 UNL     1      13.767  34.303  18.109  1.00  0.00     0.198 C 
BRANCH  25  26
HETATM   26  O4  UNL     1      13.448  32.994  17.763  1.00  0.00    -0.398 OA
ATOM     27  H4  UNL     1      13.369  32.857  16.826  1.00  0.00     0.209 HD
ENDBRANCH  25  26
ENDBRANCH  22  25
ENDBRANCH  19  22
ENDBRANCH   8  19
TORSDOF 6
ENDMDL
MODEL 3
REMARK VINA RESULT: -6.340146904      1.417      1.591
REMARK  6 active torsions:
REMARK  status: ('A' for Active; 'I' for Inactive)
REMARK    1  A    between atoms: C7_8  and  C8_9 
REMARK    2  A    between atoms: C8_9  and  O2_10 
REMARK    3  A    between atoms: C8_9  and  C9_12 
REMARK    4  A    between atoms: C9_12  and  O3_13 
REMARK    5  A    between atoms: C9_12  and  C10_15 
REMARK    6  A    between atoms: C10_15  and  O4_16 
ROOT
HETATM    1  C1  UNL     1      12.199  36.391   8.702  1.00  0.00     0.010 C 
HETATM    2  C2  UNL     1      12.900  36.159  10.023  1.00  0.00    -0.014 C 
HETATM    3  C3  UNL     1      12.981  37.479  10.737  1.00  0.00     0.034 C 
HETATM    4  C4  UNL     1      12.988  37.322  12.214  1.00  0.00     0.006 C 
HETATM    5  C5  UNL     1      12.337  36.357  12.841  1.00  0.00     0.051 C 
HETATM    6  O1  UNL     1      12.337  36.204  14.207  1.00  0.00    -0.348 OA
HETATM    7  C6  UNL     1      12.308  34.903  14.820  1.00  0.00     0.143 C 
HETATM    8  C7  UNL     1      12.246  35.098  16.278  1.00  0.00     0.048 C 
HETATM    9  C11 UNL     1      11.118  34.361  16.965  1.00  0.00     0.014 C 
HETATM   10  C12 UNL     1       9.817  34.470  16.276  1.00  0.00    -0.017 C 
HETATM   11  C13 UNL     1       8.901  33.370  16.831  1.00  0.00     0.010 C 
HETATM   12  C14 UNL     1       9.857  34.380  14.797  1.00  0.00     0.016 C 
HETATM   13  C15 UNL     1      11.221  34.077  14.216  1.00  0.00    -0.015 C 
HETATM   14  C16 UNL     1      11.513  32.625  14.542  1.00  0.00     0.018 C 
HETATM   15  C17 UNL     1      11.086  34.192  12.736  1.00  0.00     0.027 C 
HETATM   16  C18 UNL     1      11.572  35.398  12.048  1.00  0.00     0.006 C 
HETATM   17  C19 UNL     1      10.361  36.173  11.500  1.00  0.00     0.022 C 
HETATM   18  C20 UNL     1      12.390  35.037  10.828  1.00  0.00     0.020 C 
ENDROOT
BRANCH   8  19
HETATM   19  C8  UNL     1      13.493  34.670  17.018  1.00  0.00     0.155 C 
BRANCH  19  20
HETATM   20  O2  UNL     1      13.366  33.317  17.292  1.00  0.00    -0.392 OA
ATOM     21  H2  UNL     1      13.400  33.215  18.236  1.00  0.00     0.210 HD
ENDBRANCH  19  20
BRANCH  19  22
HETATM   22  C9  UNL     1      13.820  35.487  18.226  1.00  0.00     0.170 C 
BRANCH  22  23
HETATM   23  O3  UNL     1      15.076  36.084  17.948  1.00  0.00    -0.391 OA
ATOM     24  H3  UNL     1      14.972  37.003  18.163  1.00  0.00     0.210 HD
ENDBRANCH  22  23
BRANCH  22  25
HETATM   25  C10 UNL     1      14.011  34.682  19.468  1.00  0.00     0.198 C 
BRANCH  25  26
HETATM   26  O4  UNL     1      12.820  34.225  20.023  1.00  0.00    -0.398 OA
ATOM     27  H4  UNL     1      12.920  33.434  20.540  1.00  0.00     0.209 HD
ENDBRANCH  25  26
ENDBRANCH  22  25
ENDBRANCH  19  22
ENDBRANCH   8  19
TORSDOF 6
ENDMDL
MODEL 4
REMARK VINA RESULT: -6.261432393      2.180      2.529
REMARK  6 active torsions:
REMARK  status: ('A' for Active; 'I' for Inactive)
REMARK    1  A    between atoms: C7_8  and  C8_9 
REMARK    2  A    between atoms: C8_9  and  O2_10 
REMARK    3  A    between atoms: C8_9  and  C9_12 
REMARK    4  A    between atoms: C9_12  and  O3_13 
REMARK    5  A    between atoms: C9_12  and  C10_15 
REMARK    6  A    between atoms: C10_15  and  O4_16 
ROOT
HETATM    1  C1  UNL     1      10.735  37.236   8.529  1.00  0.00     0.010 C 
HETATM    2  C2  UNL     1      11.668  36.712   9.600  1.00  0.00    -0.014 C 
HETATM    3  C3  UNL     1      12.141  37.888  10.409  1.00  0.00     0.034 C 
HETATM    4  C4  UNL     1      12.458  37.515  11.811  1.00  0.00     0.006 C 
HETATM    5  C5  UNL     1      11.809  36.573  12.473  1.00  0.00     0.051 C 
HETATM    6  O1  UNL     1      12.096  36.221  13.771  1.00  0.00    -0.348 OA
HETATM    7  C6  UNL     1      11.979  34.862  14.228  1.00  0.00     0.143 C 
HETATM    8  C7  UNL     1      12.288  34.847  15.667  1.00  0.00     0.048 C 
HETATM    9  C11 UNL     1      11.236  34.187  16.531  1.00  0.00     0.014 C 
HETATM   10  C12 UNL     1       9.852  34.583  16.205  1.00  0.00    -0.017 C 
HETATM   11  C13 UNL     1       8.909  33.557  16.849  1.00  0.00     0.010 C 
HETATM   12  C14 UNL     1       9.536  34.708  14.761  1.00  0.00     0.016 C 
HETATM   13  C15 UNL     1      10.656  34.299  13.829  1.00  0.00    -0.015 C 
HETATM   14  C16 UNL     1      10.754  32.789  13.913  1.00  0.00     0.018 C 
HETATM   15  C17 UNL     1      10.207  34.650  12.451  1.00  0.00     0.027 C 
HETATM   16  C18 UNL     1      10.727  35.861  11.798  1.00  0.00     0.006 C 
HETATM   17  C19 UNL     1       9.578  36.875  11.657  1.00  0.00     0.022 C 
HETATM   18  C20 UNL     1      11.167  35.570  10.380  1.00  0.00     0.020 C 
ENDROOT
BRANCH   8  19
HETATM   19  C8  UNL     1      13.576  34.138  16.021  1.00  0.00     0.155 C 
BRANCH  19  20
HETATM   20  O2  UNL     1      13.259  33.131  16.919  1.00  0.00    -0.392 OA
ATOM     21  H2  UNL     1      13.856  32.409  16.756  1.00  0.00     0.210 HD
ENDBRANCH  19  20
BRANCH  19  22
HETATM   22  C9  UNL     1      14.675  35.031  16.501  1.00  0.00     0.170 C 
BRANCH  22  23
HETATM   23  O3  UNL     1      15.844  34.228  16.490  1.00  0.00    -0.391 OA
ATOM     24  H3  UNL     1      16.360  34.523  17.231  1.00  0.00     0.210 HD
ENDBRANCH  22  23
BRANCH  22  25
HETATM   25  C10 UNL     1      14.505  35.497  17.908  1.00  0.00     0.198 C 
BRANCH  25  26
HETATM   26  O4  UNL     1      14.215  36.854  18.013  1.00  0.00    -0.398 OA
ATOM     27  H4  UNL     1      14.866  37.415  17.608  1.00  0.00     0.209 HD
ENDBRANCH  25  26
ENDBRANCH  22  25
ENDBRANCH  19  22
ENDBRANCH   8  19
TORSDOF 6
ENDMDL
MODEL 5
REMARK VINA RESULT: -6.145873031      1.304      1.546
REMARK  6 active torsions:
REMARK  status: ('A' for Active; 'I' for Inactive)
REMARK    1  A    between atoms: C7_8  and  C8_9 
REMARK    2  A    between atoms: C8_9  and  O2_10 
REMARK    3  A    between atoms: C8_9  and  C9_12 
REMARK    4  A    between atoms: C9_12  and  O3_13 
REMARK    5  A    between atoms: C9_12  and  C10_15 
REMARK    6  A    between atoms: C10_15  and  O4_16 
ROOT
HETATM    1  C1  UNL     1      15.008  34.578   8.144  1.00  0.00     0.010 C 
HETATM    2  C2  UNL     1      15.019  34.325   9.636  1.00  0.00    -0.014 C 
HETATM    3  C3  UNL     1      15.661  35.513  10.297  1.00  0.00     0.034 C 
HETATM    4  C4  UNL     1      15.149  35.736  11.673  1.00  0.00     0.006 C 
HETATM    5  C5  UNL     1      13.906  35.466  12.035  1.00  0.00     0.051 C 
HETATM    6  O1  UNL     1      13.425  35.669  13.307  1.00  0.00    -0.348 OA
HETATM    7  C6  UNL     1      12.454  34.787  13.895  1.00  0.00     0.143 C 
HETATM    8  C7  UNL     1      12.105  35.326  15.220  1.00  0.00     0.048 C 
HETATM    9  C11 UNL     1      10.622  35.513  15.455  1.00  0.00     0.014 C 
HETATM   10  C12 UNL     1       9.907  36.145  14.328  1.00  0.00    -0.017 C 
HETATM   11  C13 UNL     1       8.407  35.893  14.529  1.00  0.00     0.010 C 
HETATM   12  C14 UNL     1      10.308  35.697  12.973  1.00  0.00     0.016 C 
HETATM   13  C15 UNL     1      11.318  34.571  12.950  1.00  0.00    -0.015 C 
HETATM   14  C16 UNL     1      10.581  33.323  13.395  1.00  0.00     0.018 C 
HETATM   15  C17 UNL     1      11.709  34.383  11.523  1.00  0.00     0.027 C 
HETATM   16  C18 UNL     1      12.989  34.922  11.038  1.00  0.00     0.006 C 
HETATM   17  C19 UNL     1      12.698  36.074  10.060  1.00  0.00     0.022 C 
HETATM   18  C20 UNL     1      13.738  33.895  10.219  1.00  0.00     0.020 C 
ENDROOT
BRANCH   8  19
HETATM   19  C8  UNL     1      12.574  34.479  16.381  1.00  0.00     0.155 C 
BRANCH  19  20
HETATM   20  O2  UNL     1      11.445  34.014  17.037  1.00  0.00    -0.392 OA
ATOM     21  H2  UNL     1      10.765  33.902  16.383  1.00  0.00     0.210 HD
ENDBRANCH  19  20
BRANCH  19  22
HETATM   22  C9  UNL     1      13.552  35.147  17.294  1.00  0.00     0.170 C 
BRANCH  22  23
HETATM   23  O3  UNL     1      14.786  35.138  16.595  1.00  0.00    -0.391 OA
ATOM     24  H3  UNL     1      15.298  35.840  16.979  1.00  0.00     0.210 HD
ENDBRANCH  22  23
BRANCH  22  25
HETATM   25  C10 UNL     1      13.792  34.408  18.568  1.00  0.00     0.198 C 
BRANCH  25  26
HETATM   26  O4  UNL     1      13.865  33.028  18.406  1.00  0.00    -0.398 OA
ATOM     27  H4  UNL     1      13.090  32.650  18.008  1.00  0.00     0.209 HD
ENDBRANCH  25  26
ENDBRANCH  22  25
ENDBRANCH  19  22
ENDBRANCH   8  19
TORSDOF 6
ENDMDL
