MODEL 1
REMARK VINA RESULT: -7.931042280      0.000      0.000
REMARK  7 active torsions:
REMARK  status: ('A' for Active; 'I' for Inactive)
REMARK    1  A    between atoms: C4_4  and  O1_5 
REMARK    2  A    between atoms: C8_10  and  O2_11 
REMARK    3  A    between atoms: C8_10  and  C9_13 
REMARK    4  A    between atoms: C9_13  and  C11_15 
REMARK    5  A    between atoms: C12_16  and  C13_17 
REMARK    6  A    between atoms: C13_17  and  O3_19 
REMARK    7  A    between atoms: C16_22  and  O4_23 
ROOT
HETATM    1  C1  UNL     1      10.460  34.705  11.764  1.00  0.00     0.043 C 
HETATM    2  C2  UNL     1      11.032  33.941  12.908  1.00  0.00    -0.081 C 
HETATM    3  C3  UNL     1      12.024  33.138  12.528  1.00  0.00     0.007 C 
HETATM    4  C4  UNL     1      12.827  32.235  13.366  1.00  0.00     0.141 C 
HETATM    5  C5  UNL     1      13.311  32.991  14.589  1.00  0.00     0.041 C 
HETATM    6  C6  UNL     1      12.238  33.195  15.605  1.00  0.00     0.002 C 
HETATM    7  C7  UNL     1      12.953  33.437  16.940  1.00  0.00     0.044 C 
HETATM    8  C8  UNL     1      13.738  34.696  16.942  1.00  0.00     0.067 C 
HETATM    9  C15 UNL     1      13.096  35.877  16.343  1.00  0.00     0.071 C 
HETATM   10  C16 UNL     1      12.172  35.604  15.182  1.00  0.00     0.130 C 
HETATM   11  C17 UNL     1      11.343  34.366  15.356  1.00  0.00    -0.007 C 
HETATM   12  C18 UNL     1      10.483  34.588  16.597  1.00  0.00     0.019 C 
HETATM   13  C19 UNL     1      10.408  34.212  14.201  1.00  0.00     0.021 C 
HETATM   14  C20 UNL     1       9.324  33.176  14.533  1.00  0.00     0.015 C 
ENDROOT
BRANCH   8  15
HETATM   15  O2  UNL     1      15.005  34.492  16.369  1.00  0.00    -0.389 OA
ATOM     16  H2  UNL     1      14.923  34.198  15.470  1.00  0.00     0.210 HD
ENDBRANCH   8  15
BRANCH   8  17
HETATM   17  C9  UNL     1      14.054  35.049  18.421  1.00  0.00     0.038 C 
HETATM   18  C10 UNL     1      13.142  34.329  19.335  1.00  0.00     0.017 C 
BRANCH  17  19
HETATM   19  C11 UNL     1      14.205  36.478  18.540  1.00  0.00    -0.021 C 
HETATM   20  C12 UNL     1      14.460  37.276  19.520  1.00  0.00     0.001 C 
BRANCH  20  21
HETATM   21  C13 UNL     1      14.698  36.981  20.929  1.00  0.00     0.136 C 
HETATM   22  C14 UNL     1      13.381  36.535  21.589  1.00  0.00     0.043 C 
BRANCH  21  23
HETATM   23  O3  UNL     1      15.506  35.826  21.007  1.00  0.00    -0.392 OA
ATOM     24  H3  UNL     1      14.951  35.090  21.237  1.00  0.00     0.210 HD
ENDBRANCH  21  23
ENDBRANCH  20  21
ENDBRANCH  17  19
ENDBRANCH   8  17
BRANCH  10  25
HETATM   25  O4  UNL     1      11.290  36.686  15.100  1.00  0.00    -0.395 OA
ATOM     26  H4  UNL     1      10.726  36.643  15.864  1.00  0.00     0.210 HD
ENDBRANCH  10  25
BRANCH   4  27
HETATM   27  O1  UNL     1      12.161  31.085  13.755  1.00  0.00    -0.392 OA
ATOM     28  H1  UNL     1      12.419  30.758  14.609  1.00  0.00     0.210 HD
ENDBRANCH   4  27
TORSDOF 7
ENDMDL
MODEL 2
REMARK VINA RESULT: -7.857802832      1.548      3.079
REMARK  7 active torsions:
REMARK  status: ('A' for Active; 'I' for Inactive)
REMARK    1  A    between atoms: C4_4  and  O1_5 
REMARK    2  A    between atoms: C8_10  and  O2_11 
REMARK    3  A    between atoms: C8_10  and  C9_13 
REMARK    4  A    between atoms: C9_13  and  C11_15 
REMARK    5  A    between atoms: C12_16  and  C13_17 
REMARK    6  A    between atoms: C13_17  and  O3_19 
REMARK    7  A    between atoms: C16_22  and  O4_23 
ROOT
HETATM    1  C1  UNL     1       9.567  31.930  11.870  1.00  0.00     0.043 C 
HETATM    2  C2  UNL     1       9.761  33.092  12.783  1.00  0.00    -0.081 C 
HETATM    3  C3  UNL     1       8.687  33.320  13.538  1.00  0.00     0.007 C 
HETATM    4  C4  UNL     1       8.502  34.371  14.550  1.00  0.00     0.141 C 
HETATM    5  C5  UNL     1       9.707  34.391  15.472  1.00  0.00     0.041 C 
HETATM    6  C6  UNL     1      10.904  35.021  14.845  1.00  0.00     0.002 C 
HETATM    7  C7  UNL     1      11.806  35.470  16.001  1.00  0.00     0.044 C 
HETATM    8  C8  UNL     1      12.332  34.326  16.786  1.00  0.00     0.067 C 
HETATM    9  C15 UNL     1      12.812  33.164  16.022  1.00  0.00     0.071 C 
HETATM   10  C16 UNL     1      12.083  32.880  14.732  1.00  0.00     0.130 C 
HETATM   11  C17 UNL     1      11.712  34.118  13.970  1.00  0.00    -0.007 C 
HETATM   12  C18 UNL     1      13.019  34.825  13.623  1.00  0.00     0.019 C 
HETATM   13  C19 UNL     1      11.063  33.746  12.677  1.00  0.00     0.021 C 
HETATM   14  C20 UNL     1      11.009  34.963  11.742  1.00  0.00     0.015 C 
ENDROOT
BRANCH   8  15
HETATM   15  O2  UNL     1      11.398  33.916  17.753  1.00  0.00    -0.389 OA
ATOM     16  H2  UNL     1      11.826  33.761  18.587  1.00  0.00     0.210 HD
ENDBRANCH   8  15
BRANCH   8  17
HETATM   17  C9  UNL     1      13.530  34.846  17.627  1.00  0.00     0.038 C 
HETATM   18  C10 UNL     1      14.786  34.767  16.851  1.00  0.00     0.017 C 
BRANCH  17  19
HETATM   19  C11 UNL     1      13.466  34.262  18.944  1.00  0.00    -0.021 C 
HETATM   20  C12 UNL     1      13.729  34.692  20.131  1.00  0.00     0.001 C 
BRANCH  20  21
HETATM   21  C13 UNL     1      14.210  35.998  20.568  1.00  0.00     0.136 C 
HETATM   22  C14 UNL     1      13.199  36.613  21.553  1.00  0.00     0.043 C 
BRANCH  21  23
HETATM   23  O3  UNL     1      15.359  35.802  21.363  1.00  0.00    -0.392 OA
ATOM     24  H3  UNL     1      15.442  36.542  21.952  1.00  0.00     0.210 HD
ENDBRANCH  21  23
ENDBRANCH  20  21
ENDBRANCH  17  19
ENDBRANCH   8  17
BRANCH  10  25
HETATM   25  O4  UNL     1      12.954  32.142  13.925  1.00  0.00    -0.395 OA
ATOM     26  H4  UNL     1      13.154  31.339  14.393  1.00  0.00     0.210 HD
ENDBRANCH  10  25
BRANCH   4  27
HETATM   27  O1  UNL     1       8.291  35.632  14.021  1.00  0.00    -0.392 OA
ATOM     28  H1  UNL     1       8.671  36.336  14.534  1.00  0.00     0.210 HD
ENDBRANCH   4  27
TORSDOF 7
ENDMDL
MODEL 3
REMARK VINA RESULT: -7.395001217      1.683      2.848
REMARK  7 active torsions:
REMARK  status: ('A' for Active; 'I' for Inactive)
REMARK    1  A    between atoms: C4_4  and  O1_5 
REMARK    2  A    between atoms: C8_10  and  O2_11 
REMARK    3  A    between atoms: C8_10  and  C9_13 
REMARK    4  A    between atoms: C9_13  and  C11_15 
REMARK    5  A    between atoms: C12_16  and  C13_17 
REMARK    6  A    between atoms: C13_17  and  O3_19 
REMARK    7  A    between atoms: C16_22  and  O4_23 
ROOT
HETATM    1  C1  UNL     1       7.510  33.800  13.370  1.00  0.00     0.043 C 
HETATM    2  C2  UNL     1       8.936  34.222  13.279  1.00  0.00    -0.081 C 
HETATM    3  C3  UNL     1       9.063  35.458  12.800  1.00  0.00     0.007 C 
HETATM    4  C4  UNL     1      10.303  36.214  12.567  1.00  0.00     0.141 C 
HETATM    5  C5  UNL     1      11.179  36.124  13.803  1.00  0.00     0.041 C 
HETATM    6  C6  UNL     1      11.853  34.801  13.939  1.00  0.00     0.002 C 
HETATM    7  C7  UNL     1      13.071  35.033  14.843  1.00  0.00     0.044 C 
HETATM    8  C8  UNL     1      12.686  35.419  16.223  1.00  0.00     0.067 C 
HETATM    9  C15 UNL     1      11.576  34.672  16.834  1.00  0.00     0.071 C 
HETATM   10  C16 UNL     1      10.497  34.208  15.887  1.00  0.00     0.130 C 
HETATM   11  C17 UNL     1      11.025  33.728  14.567  1.00  0.00    -0.007 C 
HETATM   12  C18 UNL     1      11.929  32.535  14.868  1.00  0.00     0.019 C 
HETATM   13  C19 UNL     1       9.902  33.220  13.723  1.00  0.00     0.021 C 
HETATM   14  C20 UNL     1      10.453  32.407  12.543  1.00  0.00     0.015 C 
ENDROOT
BRANCH   8  15
HETATM   15  O2  UNL     1      12.441  36.800  16.301  1.00  0.00    -0.389 OA
ATOM     16  H2  UNL     1      12.410  37.084  17.207  1.00  0.00     0.210 HD
ENDBRANCH   8  15
BRANCH   8  17
HETATM   17  C9  UNL     1      13.929  35.213  17.131  1.00  0.00     0.038 C 
HETATM   18  C10 UNL     1      15.055  34.650  16.354  1.00  0.00     0.017 C 
BRANCH  17  19
HETATM   19  C11 UNL     1      13.515  34.573  18.354  1.00  0.00    -0.021 C 
HETATM   20  C12 UNL     1      13.656  34.851  19.606  1.00  0.00     0.001 C 
BRANCH  20  21
HETATM   21  C13 UNL     1      14.324  35.980  20.244  1.00  0.00     0.136 C 
HETATM   22  C14 UNL     1      13.404  36.576  21.325  1.00  0.00     0.043 C 
BRANCH  21  23
HETATM   23  O3  UNL     1      15.417  35.483  20.988  1.00  0.00    -0.392 OA
ATOM     24  H3  UNL     1      15.494  35.998  21.782  1.00  0.00     0.210 HD
ENDBRANCH  21  23
ENDBRANCH  20  21
ENDBRANCH  17  19
ENDBRANCH   8  17
BRANCH  10  25
HETATM   25  O4  UNL     1       9.857  33.125  16.497  1.00  0.00    -0.395 OA
ATOM     26  H4  UNL     1       9.937  32.386  15.905  1.00  0.00     0.210 HD
ENDBRANCH  10  25
BRANCH   4  27
HETATM   27  O1  UNL     1      11.015  35.802  11.454  1.00  0.00    -0.392 OA
ATOM     28  H1  UNL     1      11.423  36.511  10.971  1.00  0.00     0.210 HD
ENDBRANCH   4  27
TORSDOF 7
ENDMDL
MODEL 4
REMARK VINA RESULT: -7.362859401      1.616      1.988
REMARK  7 active torsions:
REMARK  status: ('A' for Active; 'I' for Inactive)
REMARK    1  A    between atoms: C4_4  and  O1_5 
REMARK    2  A    between atoms: C8_10  and  O2_11 
REMARK    3  A    between atoms: C8_10  and  C9_13 
REMARK    4  A    between atoms: C9_13  and  C11_15 
REMARK    5  A    between atoms: C12_16  and  C13_17 
REMARK    6  A    between atoms: C13_17  and  O3_19 
REMARK    7  A    between atoms: C16_22  and  O4_23 
ROOT
HETATM    1  C1  UNL     1      12.150  34.629  10.866  1.00  0.00     0.043 C 
HETATM    2  C2  UNL     1      11.595  34.371  12.224  1.00  0.00    -0.081 C 
HETATM    3  C3  UNL     1      11.142  33.125  12.352  1.00  0.00     0.007 C 
HETATM    4  C4  UNL     1      10.528  32.504  13.536  1.00  0.00     0.141 C 
HETATM    5  C5  UNL     1      11.391  32.790  14.750  1.00  0.00     0.041 C 
HETATM    6  C6  UNL     1      11.247  34.189  15.246  1.00  0.00     0.002 C 
HETATM    7  C7  UNL     1      11.692  34.172  16.713  1.00  0.00     0.044 C 
HETATM    8  C8  UNL     1      13.132  33.850  16.864  1.00  0.00     0.067 C 
HETATM    9  C15 UNL     1      14.058  34.507  15.928  1.00  0.00     0.071 C 
HETATM   10  C16 UNL     1      13.518  34.767  14.544  1.00  0.00     0.130 C 
HETATM   11  C17 UNL     1      12.082  35.203  14.535  1.00  0.00    -0.007 C 
HETATM   12  C18 UNL     1      12.020  36.513  15.316  1.00  0.00     0.019 C 
HETATM   13  C19 UNL     1      11.652  35.510  13.138  1.00  0.00     0.021 C 
HETATM   14  C20 UNL     1      10.329  36.289  13.150  1.00  0.00     0.015 C 
ENDROOT
BRANCH   8  15
HETATM   15  O2  UNL     1      13.334  32.460  16.849  1.00  0.00    -0.389 OA
ATOM     16  H2  UNL     1      12.543  32.009  16.580  1.00  0.00     0.210 HD
ENDBRANCH   8  15
BRANCH   8  17
HETATM   17  C9  UNL     1      13.558  34.269  18.298  1.00  0.00     0.038 C 
HETATM   18  C10 UNL     1      12.459  34.030  19.259  1.00  0.00     0.017 C 
BRANCH  17  19
HETATM   19  C11 UNL     1      14.187  35.565  18.240  1.00  0.00    -0.021 C 
HETATM   20  C12 UNL     1      14.412  36.494  19.106  1.00  0.00     0.001 C 
BRANCH  20  21
HETATM   21  C13 UNL     1      14.085  36.548  20.527  1.00  0.00     0.136 C 
HETATM   22  C14 UNL     1      14.984  35.564  21.297  1.00  0.00     0.043 C 
BRANCH  21  23
HETATM   23  O3  UNL     1      14.484  37.808  21.024  1.00  0.00    -0.392 OA
ATOM     24  H3  UNL     1      13.727  38.381  21.020  1.00  0.00     0.210 HD
ENDBRANCH  21  23
ENDBRANCH  20  21
ENDBRANCH  17  19
ENDBRANCH   8  17
BRANCH  10  25
HETATM   25  O4  UNL     1      14.273  35.812  14.002  1.00  0.00    -0.395 OA
ATOM     26  H4  UNL     1      14.737  35.458  13.251  1.00  0.00     0.210 HD
ENDBRANCH  10  25
BRANCH   4  27
HETATM   27  O1  UNL     1       9.227  32.909  13.775  1.00  0.00    -0.392 OA
ATOM     28  H1  UNL     1       8.582  32.219  13.677  1.00  0.00     0.210 HD
ENDBRANCH   4  27
TORSDOF 7
ENDMDL
MODEL 5
REMARK VINA RESULT: -7.067181519      1.706      2.374
REMARK  7 active torsions:
REMARK  status: ('A' for Active; 'I' for Inactive)
REMARK    1  A    between atoms: C4_4  and  O1_5 
REMARK    2  A    between atoms: C8_10  and  O2_11 
REMARK    3  A    between atoms: C8_10  and  C9_13 
REMARK    4  A    between atoms: C9_13  and  C11_15 
REMARK    5  A    between atoms: C12_16  and  C13_17 
REMARK    6  A    between atoms: C13_17  and  O3_19 
REMARK    7  A    between atoms: C16_22  and  O4_23 
ROOT
HETATM    1  C1  UNL     1      10.399  33.997  10.757  1.00  0.00     0.043 C 
HETATM    2  C2  UNL     1      10.261  34.107  12.237  1.00  0.00    -0.081 C 
HETATM    3  C3  UNL     1       9.773  32.993  12.778  1.00  0.00     0.007 C 
HETATM    4  C4  UNL     1       9.498  32.725  14.198  1.00  0.00     0.141 C 
HETATM    5  C5  UNL     1      10.706  33.128  15.023  1.00  0.00     0.041 C 
HETATM    6  C6  UNL     1      10.826  34.605  15.189  1.00  0.00     0.002 C 
HETATM    7  C7  UNL     1      11.690  34.827  16.436  1.00  0.00     0.044 C 
HETATM    8  C8  UNL     1      13.079  34.340  16.257  1.00  0.00     0.067 C 
HETATM    9  C15 UNL     1      13.728  34.649  14.973  1.00  0.00     0.071 C 
HETATM   10  C16 UNL     1      12.818  34.693  13.771  1.00  0.00     0.130 C 
HETATM   11  C17 UNL     1      11.485  35.320  14.054  1.00  0.00    -0.007 C 
HETATM   12  C18 UNL     1      11.762  36.757  14.485  1.00  0.00     0.019 C 
HETATM   13  C19 UNL     1      10.678  35.390  12.798  1.00  0.00     0.021 C 
HETATM   14  C20 UNL     1       9.485  36.338  12.988  1.00  0.00     0.015 C 
ENDROOT
BRANCH   8  15
HETATM   15  O2  UNL     1      13.160  32.961  16.520  1.00  0.00    -0.389 OA
ATOM     16  H2  UNL     1      13.359  32.806  17.436  1.00  0.00     0.210 HD
ENDBRANCH   8  15
BRANCH   8  17
HETATM   17  C9  UNL     1      13.948  34.979  17.374  1.00  0.00     0.038 C 
HETATM   18  C10 UNL     1      15.367  35.042  16.960  1.00  0.00     0.017 C 
BRANCH  17  19
HETATM   19  C11 UNL     1      13.599  34.383  18.639  1.00  0.00    -0.021 C 
HETATM   20  C12 UNL     1      13.736  34.741  19.870  1.00  0.00     0.001 C 
BRANCH  20  21
HETATM   21  C13 UNL     1      14.330  35.950  20.432  1.00  0.00     0.136 C 
HETATM   22  C14 UNL     1      13.343  36.593  21.423  1.00  0.00     0.043 C 
BRANCH  21  23
HETATM   23  O3  UNL     1      15.412  35.569  21.255  1.00  0.00    -0.392 OA
ATOM     24  H3  UNL     1      15.755  36.349  21.674  1.00  0.00     0.210 HD
ENDBRANCH  21  23
ENDBRANCH  20  21
ENDBRANCH  17  19
ENDBRANCH   8  17
BRANCH  10  25
HETATM   25  O4  UNL     1      13.453  35.483  12.808  1.00  0.00    -0.395 OA
ATOM     26  H4  UNL     1      14.268  35.787  13.191  1.00  0.00     0.210 HD
ENDBRANCH  10  25
BRANCH   4  27
HETATM   27  O1  UNL     1       8.365  33.354  14.682  1.00  0.00    -0.392 OA
ATOM     28  H1  UNL     1       7.616  32.778  14.784  1.00  0.00     0.210 HD
ENDBRANCH   4  27
TORSDOF 7
ENDMDL
