MODEL 1
REMARK VINA RESULT: -6.250401871      0.000      0.000
REMARK  5 active torsions:
REMARK  status: ('A' for Active; 'I' for Inactive)
REMARK    1  A    between atoms: C2_2  and  C4_4 
REMARK    2  A    between atoms: C14_17  and  O1_19 
REMARK    3  A    between atoms: C16_21  and  C17_22 
REMARK    4  A    between atoms: C17_22  and  C18_23 
REMARK    5  A    between atoms: C19_26  and  O4_27 
ROOT
HETATM    1  C4  UNL     1      10.328  34.316  15.004  1.00  0.00     0.014 C 
HETATM    2  C5  UNL     1      10.667  35.784  14.902  1.00  0.00     0.009 C 
HETATM    3  C6  UNL     1      12.073  36.117  14.620  1.00  0.00     0.001 C 
HETATM    4  C7  UNL     1      12.573  35.884  13.242  1.00  0.00     0.003 C 
HETATM    5  C8  UNL     1      11.605  35.510  12.203  1.00  0.00     0.043 C 
HETATM    6  C9  UNL     1      11.337  34.100  11.919  1.00  0.00     0.164 A 
HETATM    7  N1  UNL     1       9.926  33.968  11.504  1.00  0.00    -0.058 N 
ATOM      8  H11 UNL     1       9.681  33.867  10.519  1.00  0.00     0.278 HD
ATOM      9  H12 UNL     1       9.288  34.762  11.567  1.00  0.00     0.278 HD
HETATM   10  C10 UNL     1       9.803  32.830  12.428  1.00  0.00     0.197 A 
HETATM   11  C11 UNL     1       9.292  31.683  11.669  1.00  0.00     0.041 C 
HETATM   12  C12 UNL     1      11.156  33.075  12.889  1.00  0.00     0.055 A 
HETATM   13  C13 UNL     1      11.214  33.378  14.348  1.00  0.00     0.026 C 
HETATM   14  C14 UNL     1      12.272  32.049  12.609  1.00  0.00     0.073 C 
HETATM   15  C15 UNL     1      11.757  30.620  12.874  1.00  0.00     0.047 C 
HETATM   16  C16 UNL     1      12.698  32.201  11.220  1.00  0.00     0.062 C 
HETATM   17  C19 UNL     1      12.209  33.558  10.776  1.00  0.00     0.162 C 
ENDROOT
BRANCH  16  18
HETATM   18  C17 UNL     1      14.036  31.853  10.747  1.00  0.00     0.123 C 
BRANCH  18  19
HETATM   19  C18 UNL     1      14.610  30.547  10.867  1.00  0.00     0.173 C 
HETATM   20  O2  UNL     1      14.689  29.642  10.008  1.00  0.00    -0.648 OA
HETATM   21  O3  UNL     1      15.181  30.180  12.110  1.00  0.00    -0.648 OA
ENDBRANCH  18  19
ENDBRANCH  16  18
BRANCH  14  22
HETATM   22  O1  UNL     1      13.266  32.201  13.584  1.00  0.00    -0.389 OA
ATOM     23  H1  UNL     1      14.065  31.803  13.261  1.00  0.00     0.210 HD
ENDBRANCH  14  22
BRANCH  17  24
HETATM   24  O4  UNL     1      13.244  34.454  10.496  1.00  0.00    -0.393 OA
ATOM     25  H4  UNL     1      13.765  34.604  11.276  1.00  0.00     0.210 HD
ENDBRANCH  17  24
BRANCH   1  26
HETATM   26  C2  UNL     1      10.357  33.945  16.482  1.00  0.00    -0.089 C 
HETATM   27  C1  UNL     1       9.252  33.667  17.160  1.00  0.00     0.014 C 
HETATM   28  C3  UNL     1      11.652  33.888  17.210  1.00  0.00     0.043 C 
ENDBRANCH   1  26
TORSDOF 5
ENDMDL
MODEL 2
REMARK VINA RESULT: -6.155860124      2.958      4.398
REMARK  5 active torsions:
REMARK  status: ('A' for Active; 'I' for Inactive)
REMARK    1  A    between atoms: C2_2  and  C4_4 
REMARK    2  A    between atoms: C14_17  and  O1_19 
REMARK    3  A    between atoms: C16_21  and  C17_22 
REMARK    4  A    between atoms: C17_22  and  C18_23 
REMARK    5  A    between atoms: C19_26  and  O4_27 
ROOT
HETATM    1  C4  UNL     1      11.171  33.663  16.446  1.00  0.00     0.014 C 
HETATM    2  C5  UNL     1       9.699  33.746  16.772  1.00  0.00     0.009 C 
HETATM    3  C6  UNL     1       9.048  35.049  16.555  1.00  0.00     0.001 C 
HETATM    4  C7  UNL     1       8.783  35.462  15.155  1.00  0.00     0.003 C 
HETATM    5  C8  UNL     1       9.015  34.485  14.084  1.00  0.00     0.043 C 
HETATM    6  C9  UNL     1      10.310  34.430  13.405  1.00  0.00     0.164 A 
HETATM    7  N1  UNL     1      10.574  33.030  13.015  1.00  0.00    -0.058 N 
ATOM      8  H11 UNL     1      10.432  32.722  12.053  1.00  0.00     0.278 HD
ATOM      9  H12 UNL     1       9.962  32.277  13.330  1.00  0.00     0.278 HD
HETATM   10  C10 UNL     1      11.930  33.175  13.565  1.00  0.00     0.197 A 
HETATM   11  C11 UNL     1      12.887  32.798  12.518  1.00  0.00     0.041 C 
HETATM   12  C12 UNL     1      11.584  34.503  14.033  1.00  0.00     0.055 A 
HETATM   13  C13 UNL     1      11.704  34.634  15.514  1.00  0.00     0.026 C 
HETATM   14  C14 UNL     1      12.267  35.745  13.427  1.00  0.00     0.073 C 
HETATM   15  C15 UNL     1      13.780  35.497  13.274  1.00  0.00     0.047 C 
HETATM   16  C16 UNL     1      11.649  36.021  12.131  1.00  0.00     0.062 C 
HETATM   17  C19 UNL     1      10.335  35.279  12.125  1.00  0.00     0.162 C 
ENDROOT
BRANCH  16  18
HETATM   18  C17 UNL     1      11.597  37.353  11.533  1.00  0.00     0.123 C 
BRANCH  18  19
HETATM   19  C18 UNL     1      12.641  37.906  10.723  1.00  0.00     0.173 C 
HETATM   20  O2  UNL     1      13.649  37.340  10.248  1.00  0.00    -0.648 OA
HETATM   21  O3  UNL     1      12.569  39.280  10.389  1.00  0.00    -0.648 OA
ENDBRANCH  18  19
ENDBRANCH  16  18
BRANCH  14  22
HETATM   22  O1  UNL     1      12.219  36.780  14.370  1.00  0.00    -0.389 OA
ATOM     23  H1  UNL     1      13.007  37.302  14.281  1.00  0.00     0.210 HD
ENDBRANCH  14  22
BRANCH  17  24
HETATM   24  O4  UNL     1       9.224  36.125  12.088  1.00  0.00    -0.393 OA
ATOM     25  H4  UNL     1       9.503  37.032  12.117  1.00  0.00     0.210 HD
ENDBRANCH  17  24
BRANCH   1  26
HETATM   26  C2  UNL     1      11.936  33.879  17.747  1.00  0.00    -0.089 C 
HETATM   27  C1  UNL     1      11.398  33.618  18.931  1.00  0.00     0.014 C 
HETATM   28  C3  UNL     1      13.329  34.397  17.716  1.00  0.00     0.043 C 
ENDBRANCH   1  26
TORSDOF 5
ENDMDL
MODEL 3
REMARK VINA RESULT: -6.115759638      2.867      4.418
REMARK  5 active torsions:
REMARK  status: ('A' for Active; 'I' for Inactive)
REMARK    1  A    between atoms: C2_2  and  C4_4 
REMARK    2  A    between atoms: C14_17  and  O1_19 
REMARK    3  A    between atoms: C16_21  and  C17_22 
REMARK    4  A    between atoms: C17_22  and  C18_23 
REMARK    5  A    between atoms: C19_26  and  O4_27 
ROOT
HETATM    1  C4  UNL     1      11.527  33.637  16.742  1.00  0.00     0.014 C 
HETATM    2  C5  UNL     1      10.070  33.600  17.139  1.00  0.00     0.009 C 
HETATM    3  C6  UNL     1       9.281  34.811  16.860  1.00  0.00     0.001 C 
HETATM    4  C7  UNL     1       8.911  35.083  15.449  1.00  0.00     0.003 C 
HETATM    5  C8  UNL     1       9.194  34.051  14.443  1.00  0.00     0.043 C 
HETATM    6  C9  UNL     1      10.455  34.070  13.702  1.00  0.00     0.164 A 
HETATM    7  N1  UNL     1      10.843  32.677  13.404  1.00  0.00    -0.058 N 
ATOM      8  H11 UNL     1      10.691  32.281  12.477  1.00  0.00     0.278 HD
ATOM      9  H12 UNL     1      10.326  31.894  13.807  1.00  0.00     0.278 HD
HETATM   10  C10 UNL     1      12.201  32.999  13.869  1.00  0.00     0.197 A 
HETATM   11  C11 UNL     1      13.143  32.636  12.804  1.00  0.00     0.041 C 
HETATM   12  C12 UNL     1      11.742  34.319  14.255  1.00  0.00     0.055 A 
HETATM   13  C13 UNL     1      11.915  34.579  15.713  1.00  0.00     0.026 C 
HETATM   14  C14 UNL     1      12.265  35.570  13.521  1.00  0.00     0.073 C 
HETATM   15  C15 UNL     1      13.788  35.462  13.307  1.00  0.00     0.047 C 
HETATM   16  C16 UNL     1      11.564  35.680  12.244  1.00  0.00     0.062 C 
HETATM   17  C19 UNL     1      10.334  34.814  12.363  1.00  0.00     0.162 C 
ENDROOT
BRANCH  16  18
HETATM   18  C17 UNL     1      11.349  36.948  11.551  1.00  0.00     0.123 C 
BRANCH  18  19
HETATM   19  C18 UNL     1      12.320  37.569  10.702  1.00  0.00     0.173 C 
HETATM   20  O2  UNL     1      12.492  38.784  10.463  1.00  0.00    -0.648 OA
HETATM   21  O3  UNL     1      13.235  36.736  10.013  1.00  0.00    -0.648 OA
ENDBRANCH  18  19
ENDBRANCH  16  18
BRANCH  14  22
HETATM   22  O1  UNL     1      12.154  36.667  14.386  1.00  0.00    -0.389 OA
ATOM     23  H1  UNL     1      12.229  36.353  15.279  1.00  0.00     0.210 HD
ENDBRANCH  14  22
BRANCH  17  24
HETATM   24  O4  UNL     1       9.142  35.539  12.322  1.00  0.00    -0.393 OA
ATOM     25  H4  UNL     1       9.188  36.206  11.647  1.00  0.00     0.210 HD
ENDBRANCH  17  24
BRANCH   1  26
HETATM   26  C2  UNL     1      12.324  34.030  17.981  1.00  0.00    -0.089 C 
HETATM   27  C1  UNL     1      13.473  34.687  17.899  1.00  0.00     0.014 C 
HETATM   28  C3  UNL     1      11.819  33.678  19.334  1.00  0.00     0.043 C 
ENDBRANCH   1  26
TORSDOF 5
ENDMDL
MODEL 4
REMARK VINA RESULT: -6.086479159      2.650      5.134
REMARK  5 active torsions:
REMARK  status: ('A' for Active; 'I' for Inactive)
REMARK    1  A    between atoms: C2_2  and  C4_4 
REMARK    2  A    between atoms: C14_17  and  O1_19 
REMARK    3  A    between atoms: C16_21  and  C17_22 
REMARK    4  A    between atoms: C17_22  and  C18_23 
REMARK    5  A    between atoms: C19_26  and  O4_27 
ROOT
HETATM    1  C4  UNL     1       8.865  35.290  12.382  1.00  0.00     0.014 C 
HETATM    2  C5  UNL     1       8.857  34.190  11.347  1.00  0.00     0.009 C 
HETATM    3  C6  UNL     1      10.163  33.801  10.789  1.00  0.00     0.001 C 
HETATM    4  C7  UNL     1      11.074  33.011  11.653  1.00  0.00     0.003 C 
HETATM    5  C8  UNL     1      10.561  32.511  12.934  1.00  0.00     0.043 C 
HETATM    6  C9  UNL     1      10.730  33.300  14.154  1.00  0.00     0.164 A 
HETATM    7  N1  UNL     1       9.570  33.054  15.035  1.00  0.00    -0.058 N 
ATOM      8  H11 UNL     1       9.646  32.423  15.832  1.00  0.00     0.278 HD
ATOM      9  H12 UNL     1       8.769  32.516  14.703  1.00  0.00     0.278 HD
HETATM   10  C10 UNL     1       9.466  34.508  15.235  1.00  0.00     0.197 A 
HETATM   11  C11 UNL     1       9.483  34.768  16.679  1.00  0.00     0.041 C 
HETATM   12  C12 UNL     1      10.532  34.704  14.273  1.00  0.00     0.055 A 
HETATM   13  C13 UNL     1      10.100  35.520  13.102  1.00  0.00     0.026 C 
HETATM   14  C14 UNL     1      11.894  35.270  14.723  1.00  0.00     0.073 C 
HETATM   15  C15 UNL     1      11.683  36.451  15.690  1.00  0.00     0.047 C 
HETATM   16  C16 UNL     1      12.648  34.196  15.366  1.00  0.00     0.062 C 
HETATM   17  C19 UNL     1      11.994  32.907  14.934  1.00  0.00     0.162 C 
ENDROOT
BRANCH  16  18
HETATM   18  C17 UNL     1      14.107  34.153  15.409  1.00  0.00     0.123 C 
BRANCH  18  19
HETATM   19  C18 UNL     1      14.899  34.864  16.368  1.00  0.00     0.173 C 
HETATM   20  O2  UNL     1      14.524  35.538  17.350  1.00  0.00    -0.648 OA
HETATM   21  O3  UNL     1      16.308  34.829  16.227  1.00  0.00    -0.648 OA
ENDBRANCH  18  19
ENDBRANCH  16  18
BRANCH  14  22
HETATM   22  O1  UNL     1      12.504  35.882  13.620  1.00  0.00    -0.389 OA
ATOM     23  H1  UNL     1      11.947  36.594  13.327  1.00  0.00     0.210 HD
ENDBRANCH  14  22
BRANCH  17  24
HETATM   24  O4  UNL     1      12.820  32.109  14.138  1.00  0.00    -0.393 OA
ATOM     25  H4  UNL     1      12.434  31.997  13.277  1.00  0.00     0.210 HD
ENDBRANCH  17  24
BRANCH   1  26
HETATM   26  C2  UNL     1       8.562  36.596  11.657  1.00  0.00    -0.089 C 
HETATM   27  C1  UNL     1       9.518  37.344  11.124  1.00  0.00     0.014 C 
HETATM   28  C3  UNL     1       7.158  37.069  11.529  1.00  0.00     0.043 C 
ENDBRANCH   1  26
TORSDOF 5
ENDMDL
MODEL 5
REMARK VINA RESULT: -5.962020805      2.086      3.451
REMARK  5 active torsions:
REMARK  status: ('A' for Active; 'I' for Inactive)
REMARK    1  A    between atoms: C2_2  and  C4_4 
REMARK    2  A    between atoms: C14_17  and  O1_19 
REMARK    3  A    between atoms: C16_21  and  C17_22 
REMARK    4  A    between atoms: C17_22  and  C18_23 
REMARK    5  A    between atoms: C19_26  and  O4_27 
ROOT
HETATM    1  C4  UNL     1       9.104  35.661  13.290  1.00  0.00     0.014 C 
HETATM    2  C5  UNL     1       9.047  35.828  14.789  1.00  0.00     0.009 C 
HETATM    3  C6  UNL     1       9.003  34.591  15.587  1.00  0.00     0.001 C 
HETATM    4  C7  UNL     1      10.252  33.799  15.701  1.00  0.00     0.003 C 
HETATM    5  C8  UNL     1      11.494  34.375  15.170  1.00  0.00     0.043 C 
HETATM    6  C9  UNL     1      11.908  34.093  13.795  1.00  0.00     0.164 A 
HETATM    7  N1  UNL     1      12.622  35.275  13.271  1.00  0.00    -0.058 N 
ATOM      8  H11 UNL     1      13.641  35.286  13.221  1.00  0.00     0.278 HD
ATOM      9  H12 UNL     1      12.653  36.144  13.804  1.00  0.00     0.278 HD
HETATM   10  C10 UNL     1      11.812  35.171  12.048  1.00  0.00     0.197 A 
HETATM   11  C11 UNL     1      12.726  35.114  10.901  1.00  0.00     0.041 C 
HETATM   12  C12 UNL     1      11.059  34.090  12.653  1.00  0.00     0.055 A 
HETATM   13  C13 UNL     1       9.607  34.405  12.775  1.00  0.00     0.026 C 
HETATM   14  C14 UNL     1      11.151  32.661  12.082  1.00  0.00     0.073 C 
HETATM   15  C15 UNL     1      11.084  32.700  10.543  1.00  0.00     0.047 C 
HETATM   16  C16 UNL     1      12.406  32.065  12.535  1.00  0.00     0.062 C 
HETATM   17  C19 UNL     1      12.866  32.896  13.708  1.00  0.00     0.162 C 
ENDROOT
BRANCH  16  18
HETATM   18  C17 UNL     1      12.601  30.626  12.696  1.00  0.00     0.123 C 
BRANCH  18  19
HETATM   19  C18 UNL     1      13.533  29.856  11.929  1.00  0.00     0.173 C 
HETATM   20  O2  UNL     1      13.321  28.852  11.215  1.00  0.00    -0.648 OA
HETATM   21  O3  UNL     1      14.895  30.243  11.948  1.00  0.00    -0.648 OA
ENDBRANCH  18  19
ENDBRANCH  16  18
BRANCH  14  22
HETATM   22  O1  UNL     1       9.979  31.973  12.422  1.00  0.00    -0.389 OA
ATOM     23  H1  UNL     1      10.070  31.070  12.143  1.00  0.00     0.210 HD
ENDBRANCH  14  22
BRANCH  17  24
HETATM   24  O4  UNL     1      12.868  32.193  14.915  1.00  0.00    -0.393 OA
ATOM     25  H4  UNL     1      13.321  31.365  14.811  1.00  0.00     0.210 HD
ENDBRANCH  17  24
BRANCH   1  26
HETATM   26  C2  UNL     1       7.677  35.779  12.766  1.00  0.00    -0.089 C 
HETATM   27  C1  UNL     1       7.205  36.908  12.255  1.00  0.00     0.014 C 
HETATM   28  C3  UNL     1       6.764  34.606  12.820  1.00  0.00     0.043 C 
ENDBRANCH   1  26
TORSDOF 5
ENDMDL
