MODEL 1
REMARK VINA RESULT: -6.750267204      0.000      0.000
REMARK  7 active torsions:
REMARK  status: ('A' for Active; 'I' for Inactive)
REMARK    1  A    between atoms: C2_2  and  C3_3 
REMARK    2  A    between atoms: C3_3  and  O1_4 
REMARK    3  A    between atoms: C3_3  and  C4_6 
REMARK    4  A    between atoms: C4_6  and  C5_7 
REMARK    5  A    between atoms: C11_13  and  O2_14 
REMARK    6  A    between atoms: C15_19  and  O3_20 
REMARK    7  A    between atoms: C20_26  and  O4_27 
ROOT
HETATM    1  C5  UNL     1      12.828  34.061  17.469  1.00  0.00    -0.015 C 
HETATM    2  C6  UNL     1      13.663  32.920  18.017  1.00  0.00     0.018 C 
HETATM    3  C7  UNL     1      11.395  33.694  17.640  1.00  0.00     0.012 C 
HETATM    4  C8  UNL     1      10.454  34.607  16.871  1.00  0.00     0.007 C 
HETATM    5  C9  UNL     1      10.914  34.799  15.453  1.00  0.00     0.003 C 
HETATM    6  C10 UNL     1      11.940  33.734  15.152  1.00  0.00     0.049 C 
HETATM    7  C11 UNL     1      12.319  33.716  13.683  1.00  0.00     0.125 C 
HETATM    8  C12 UNL     1      11.737  34.919  12.979  1.00  0.00     0.037 C 
HETATM    9  C13 UNL     1      10.224  34.901  13.080  1.00  0.00    -0.001 C 
HETATM   10  C14 UNL     1       9.725  36.153  12.396  1.00  0.00     0.037 C 
HETATM   11  C15 UNL     1       8.213  36.119  12.459  1.00  0.00     0.118 C 
HETATM   12  C16 UNL     1       7.795  36.241  13.893  1.00  0.00     0.032 C 
HETATM   13  C17 UNL     1       8.899  36.006  14.874  1.00  0.00     0.012 C 
HETATM   14  C18 UNL     1       9.753  34.789  14.504  1.00  0.00    -0.036 C 
HETATM   15  C19 UNL     1       8.907  33.545  14.668  1.00  0.00     0.016 C 
HETATM   16  C20 UNL     1      13.162  34.106  15.968  1.00  0.00     0.133 C 
ENDROOT
BRANCH   1  17
HETATM   17  C4  UNL     1      13.189  35.382  18.010  1.00  0.00     0.043 C 
BRANCH  17  18
HETATM   18  C3  UNL     1      14.023  35.483  19.214  1.00  0.00     0.118 C 
BRANCH  18  19
HETATM   19  C2  UNL     1      14.451  36.960  19.334  1.00  0.00     0.027 C 
HETATM   20  C1  UNL     1      14.580  37.226  20.825  1.00  0.00     0.007 C 
ENDBRANCH  18  19
BRANCH  18  21
HETATM   21  O1  UNL     1      13.461  35.185  20.424  1.00  0.00    -0.396 OA
ATOM     22  H1  UNL     1      13.402  36.020  20.874  1.00  0.00     0.210 HD
ENDBRANCH  18  21
ENDBRANCH  17  18
ENDBRANCH   1  17
BRANCH  16  23
HETATM   23  O4  UNL     1      14.227  33.289  15.642  1.00  0.00    -0.394 OA
ATOM     24  H4  UNL     1      14.920  33.323  16.290  1.00  0.00     0.210 HD
ENDBRANCH  16  23
BRANCH   7  25
HETATM   25  O2  UNL     1      11.837  32.587  13.023  1.00  0.00    -0.395 OA
ATOM     26  H2  UNL     1      10.918  32.664  12.797  1.00  0.00     0.210 HD
ENDBRANCH   7  25
BRANCH  11  27
HETATM   27  O3  UNL     1       7.668  37.146  11.684  1.00  0.00    -0.396 OA
ATOM     28  H3  UNL     1       6.723  37.158  11.766  1.00  0.00     0.210 HD
ENDBRANCH  11  27
TORSDOF 7
ENDMDL
MODEL 2
REMARK VINA RESULT: -6.686702900      1.033      1.144
REMARK  7 active torsions:
REMARK  status: ('A' for Active; 'I' for Inactive)
REMARK    1  A    between atoms: C2_2  and  C3_3 
REMARK    2  A    between atoms: C3_3  and  O1_4 
REMARK    3  A    between atoms: C3_3  and  C4_6 
REMARK    4  A    between atoms: C4_6  and  C5_7 
REMARK    5  A    between atoms: C11_13  and  O2_14 
REMARK    6  A    between atoms: C15_19  and  O3_20 
REMARK    7  A    between atoms: C20_26  and  O4_27 
ROOT
HETATM    1  C5  UNL     1      13.245  34.268  18.359  1.00  0.00    -0.015 C 
HETATM    2  C6  UNL     1      14.240  33.271  18.922  1.00  0.00     0.018 C 
HETATM    3  C7  UNL     1      11.918  33.594  18.297  1.00  0.00     0.012 C 
HETATM    4  C8  UNL     1      10.898  34.371  17.484  1.00  0.00     0.007 C 
HETATM    5  C9  UNL     1      11.469  34.812  16.165  1.00  0.00     0.003 C 
HETATM    6  C10 UNL     1      12.733  34.024  15.922  1.00  0.00     0.049 C 
HETATM    7  C11 UNL     1      13.278  34.250  14.525  1.00  0.00     0.125 C 
HETATM    8  C12 UNL     1      12.531  35.377  13.849  1.00  0.00     0.037 C 
HETATM    9  C13 UNL     1      11.060  35.033  13.735  1.00  0.00    -0.001 C 
HETATM   10  C14 UNL     1      10.380  36.222  13.095  1.00  0.00     0.037 C 
HETATM   11  C15 UNL     1       8.917  35.868  12.944  1.00  0.00     0.118 C 
HETATM   12  C16 UNL     1       8.315  35.739  14.309  1.00  0.00     0.032 C 
HETATM   13  C17 UNL     1       9.320  35.630  15.412  1.00  0.00     0.012 C 
HETATM   14  C18 UNL     1      10.459  34.667  15.065  1.00  0.00    -0.036 C 
HETATM   15  C19 UNL     1       9.896  33.264  15.004  1.00  0.00     0.016 C 
HETATM   16  C20 UNL     1      13.737  34.549  16.929  1.00  0.00     0.133 C 
ENDROOT
BRANCH   1  17
HETATM   17  C4  UNL     1      13.238  35.566  19.055  1.00  0.00     0.043 C 
BRANCH  17  18
HETATM   18  C3  UNL     1      14.115  35.788  20.211  1.00  0.00     0.118 C 
BRANCH  18  19
HETATM   19  C2  UNL     1      14.990  37.013  19.876  1.00  0.00     0.027 C 
HETATM   20  C1  UNL     1      14.241  37.764  18.788  1.00  0.00     0.007 C 
ENDBRANCH  18  19
BRANCH  18  21
HETATM   21  O1  UNL     1      13.542  36.090  21.415  1.00  0.00    -0.396 OA
ATOM     22  H1  UNL     1      13.213  35.260  21.741  1.00  0.00     0.210 HD
ENDBRANCH  18  21
ENDBRANCH  17  18
ENDBRANCH   1  17
BRANCH  16  23
HETATM   23  O4  UNL     1      14.987  34.014  16.689  1.00  0.00    -0.394 OA
ATOM     24  H4  UNL     1      15.680  34.510  17.107  1.00  0.00     0.210 HD
ENDBRANCH  16  23
BRANCH   7  25
HETATM   25  O2  UNL     1      13.139  33.127  13.712  1.00  0.00    -0.395 OA
ATOM     26  H2  UNL     1      13.368  33.304  12.807  1.00  0.00     0.210 HD
ENDBRANCH   7  25
BRANCH  11  27
HETATM   27  O3  UNL     1       8.255  36.838  12.188  1.00  0.00    -0.396 OA
ATOM     28  H3  UNL     1       7.530  37.205  12.680  1.00  0.00     0.210 HD
ENDBRANCH  11  27
TORSDOF 7
ENDMDL
MODEL 3
REMARK VINA RESULT: -6.464517146      1.965      2.866
REMARK  7 active torsions:
REMARK  status: ('A' for Active; 'I' for Inactive)
REMARK    1  A    between atoms: C2_2  and  C3_3 
REMARK    2  A    between atoms: C3_3  and  O1_4 
REMARK    3  A    between atoms: C3_3  and  C4_6 
REMARK    4  A    between atoms: C4_6  and  C5_7 
REMARK    5  A    between atoms: C11_13  and  O2_14 
REMARK    6  A    between atoms: C15_19  and  O3_20 
REMARK    7  A    between atoms: C20_26  and  O4_27 
ROOT
HETATM    1  C5  UNL     1      12.676  33.826  15.634  1.00  0.00    -0.015 C 
HETATM    2  C6  UNL     1      14.171  34.036  15.476  1.00  0.00     0.018 C 
HETATM    3  C7  UNL     1      12.276  32.728  14.712  1.00  0.00     0.012 C 
HETATM    4  C8  UNL     1      10.770  32.612  14.549  1.00  0.00     0.007 C 
HETATM    5  C9  UNL     1      10.143  33.951  14.282  1.00  0.00     0.003 C 
HETATM    6  C10 UNL     1      11.244  34.907  13.891  1.00  0.00     0.049 C 
HETATM    7  C11 UNL     1      10.692  36.234  13.405  1.00  0.00     0.125 C 
HETATM    8  C12 UNL     1       9.206  36.308  13.667  1.00  0.00     0.037 C 
HETATM    9  C13 UNL     1       8.489  35.196  12.927  1.00  0.00    -0.001 C 
HETATM   10  C14 UNL     1       7.023  35.312  13.275  1.00  0.00     0.037 C 
HETATM   11  C15 UNL     1       6.298  34.228  12.508  1.00  0.00     0.118 C 
HETATM   12  C16 UNL     1       6.740  32.896  13.033  1.00  0.00     0.032 C 
HETATM   13  C17 UNL     1       7.979  32.951  13.871  1.00  0.00     0.012 C 
HETATM   14  C18 UNL     1       9.058  33.842  13.250  1.00  0.00    -0.036 C 
HETATM   15  C19 UNL     1       9.556  33.179  11.984  1.00  0.00     0.016 C 
HETATM   16  C20 UNL     1      12.043  35.144  15.157  1.00  0.00     0.133 C 
ENDROOT
BRANCH   1  17
HETATM   17  C4  UNL     1      12.242  33.642  17.029  1.00  0.00     0.043 C 
BRANCH  17  18
HETATM   18  C3  UNL     1      13.229  33.639  18.115  1.00  0.00     0.118 C 
BRANCH  18  19
HETATM   19  C2  UNL     1      12.470  34.014  19.405  1.00  0.00     0.027 C 
HETATM   20  C1  UNL     1      13.490  34.712  20.289  1.00  0.00     0.007 C 
ENDBRANCH  18  19
BRANCH  18  21
HETATM   21  O1  UNL     1      13.865  32.467  18.415  1.00  0.00    -0.396 OA
ATOM     22  H1  UNL     1      13.934  32.010  17.584  1.00  0.00     0.210 HD
ENDBRANCH  18  21
ENDBRANCH  17  18
ENDBRANCH   1  17
BRANCH  16  23
HETATM   23  O4  UNL     1      12.982  36.136  14.957  1.00  0.00    -0.394 OA
ATOM     24  H4  UNL     1      12.814  36.639  14.169  1.00  0.00     0.210 HD
ENDBRANCH  16  23
BRANCH   7  25
HETATM   25  O2  UNL     1      10.872  36.415  12.035  1.00  0.00    -0.395 OA
ATOM     26  H2  UNL     1      10.049  36.498  11.569  1.00  0.00     0.210 HD
ENDBRANCH   7  25
BRANCH  11  27
HETATM   27  O3  UNL     1       4.916  34.385  12.627  1.00  0.00    -0.396 OA
ATOM     28  H3  UNL     1       4.473  34.025  11.868  1.00  0.00     0.210 HD
ENDBRANCH  11  27
TORSDOF 7
ENDMDL
MODEL 4
REMARK VINA RESULT: -6.334027441      2.637      6.621
REMARK  7 active torsions:
REMARK  status: ('A' for Active; 'I' for Inactive)
REMARK    1  A    between atoms: C2_2  and  C3_3 
REMARK    2  A    between atoms: C3_3  and  O1_4 
REMARK    3  A    between atoms: C3_3  and  C4_6 
REMARK    4  A    between atoms: C4_6  and  C5_7 
REMARK    5  A    between atoms: C11_13  and  O2_14 
REMARK    6  A    between atoms: C15_19  and  O3_20 
REMARK    7  A    between atoms: C20_26  and  O4_27 
ROOT
HETATM    1  C5  UNL     1      12.020  32.520  11.984  1.00  0.00    -0.015 C 
HETATM    2  C6  UNL     1      11.052  32.433  10.819  1.00  0.00     0.018 C 
HETATM    3  C7  UNL     1      11.393  31.825  13.143  1.00  0.00     0.012 C 
HETATM    4  C8  UNL     1      12.115  32.089  14.452  1.00  0.00     0.007 C 
HETATM    5  C9  UNL     1      12.391  33.554  14.641  1.00  0.00     0.003 C 
HETATM    6  C10 UNL     1      11.535  34.315  13.658  1.00  0.00     0.049 C 
HETATM    7  C11 UNL     1      11.589  35.811  13.904  1.00  0.00     0.125 C 
HETATM    8  C12 UNL     1      12.664  36.135  14.915  1.00  0.00     0.037 C 
HETATM    9  C13 UNL     1      12.365  35.448  16.233  1.00  0.00    -0.001 C 
HETATM   10  C14 UNL     1      13.503  35.782  17.170  1.00  0.00     0.037 C 
HETATM   11  C15 UNL     1      13.190  35.130  18.498  1.00  0.00     0.118 C 
HETATM   12  C16 UNL     1      13.230  33.643  18.320  1.00  0.00     0.032 C 
HETATM   13  C17 UNL     1      13.203  33.198  16.892  1.00  0.00     0.012 C 
HETATM   14  C18 UNL     1      12.167  33.966  16.066  1.00  0.00    -0.036 C 
HETATM   15  C19 UNL     1      10.787  33.576  16.550  1.00  0.00     0.016 C 
HETATM   16  C20 UNL     1      12.127  34.023  12.294  1.00  0.00     0.133 C 
ENDROOT
BRANCH   1  17
HETATM   17  C4  UNL     1      13.384  32.067  11.666  1.00  0.00     0.043 C 
BRANCH  17  18
HETATM   18  C3  UNL     1      13.665  30.636  11.496  1.00  0.00     0.118 C 
BRANCH  18  19
HETATM   19  C2  UNL     1      14.085  30.437  10.025  1.00  0.00     0.027 C 
HETATM   20  C1  UNL     1      15.602  30.519  10.019  1.00  0.00     0.007 C 
ENDBRANCH  18  19
BRANCH  18  21
HETATM   21  O1  UNL     1      14.681  30.081  12.224  1.00  0.00    -0.396 OA
ATOM     22  H1  UNL     1      14.368  29.213  12.452  1.00  0.00     0.210 HD
ENDBRANCH  18  21
ENDBRANCH  17  18
ENDBRANCH   1  17
BRANCH  16  23
HETATM   23  O4  UNL     1      11.522  34.803  11.328  1.00  0.00    -0.394 OA
ATOM     24  H4  UNL     1      12.151  35.303  10.821  1.00  0.00     0.210 HD
ENDBRANCH  16  23
BRANCH   7  25
HETATM   25  O2  UNL     1      10.391  36.311  14.411  1.00  0.00    -0.395 OA
ATOM     26  H2  UNL     1      10.098  37.088  13.950  1.00  0.00     0.210 HD
ENDBRANCH   7  25
BRANCH  11  27
HETATM   27  O3  UNL     1      14.097  35.547  19.475  1.00  0.00    -0.396 OA
ATOM     28  H3  UNL     1      14.981  35.294  19.237  1.00  0.00     0.210 HD
ENDBRANCH  11  27
TORSDOF 7
ENDMDL
MODEL 5
REMARK VINA RESULT: -6.301480783      2.090      6.947
REMARK  7 active torsions:
REMARK  status: ('A' for Active; 'I' for Inactive)
REMARK    1  A    between atoms: C2_2  and  C3_3 
REMARK    2  A    between atoms: C3_3  and  O1_4 
REMARK    3  A    between atoms: C3_3  and  C4_6 
REMARK    4  A    between atoms: C4_6  and  C5_7 
REMARK    5  A    between atoms: C11_13  and  O2_14 
REMARK    6  A    between atoms: C15_19  and  O3_20 
REMARK    7  A    between atoms: C20_26  and  O4_27 
ROOT
HETATM    1  C5  UNL     1       8.149  35.578  12.709  1.00  0.00    -0.015 C 
HETATM    2  C6  UNL     1       7.785  36.502  11.562  1.00  0.00     0.018 C 
HETATM    3  C7  UNL     1       8.396  36.424  13.909  1.00  0.00     0.012 C 
HETATM    4  C8  UNL     1       9.053  35.660  15.046  1.00  0.00     0.007 C 
HETATM    5  C9  UNL     1      10.226  34.855  14.560  1.00  0.00     0.003 C 
HETATM    6  C10 UNL     1      10.596  35.360  13.187  1.00  0.00     0.049 C 
HETATM    7  C11 UNL     1      11.893  34.750  12.692  1.00  0.00     0.125 C 
HETATM    8  C12 UNL     1      12.330  33.636  13.614  1.00  0.00     0.037 C 
HETATM    9  C13 UNL     1      12.562  34.175  15.012  1.00  0.00    -0.001 C 
HETATM   10  C14 UNL     1      12.949  32.999  15.877  1.00  0.00     0.037 C 
HETATM   11  C15 UNL     1      13.219  33.539  17.265  1.00  0.00     0.118 C 
HETATM   12  C16 UNL     1      11.933  34.058  17.831  1.00  0.00     0.032 C 
HETATM   13  C17 UNL     1      10.849  34.245  16.817  1.00  0.00     0.012 C 
HETATM   14  C18 UNL     1      11.363  34.914  15.539  1.00  0.00    -0.036 C 
HETATM   15  C19 UNL     1      11.744  36.342  15.867  1.00  0.00     0.016 C 
HETATM   16  C20 UNL     1       9.468  34.916  12.276  1.00  0.00     0.133 C 
ENDROOT
BRANCH   1  17
HETATM   17  C4  UNL     1       7.189  34.482  12.922  1.00  0.00     0.043 C 
BRANCH  17  18
HETATM   18  C3  UNL     1       6.037  34.326  12.026  1.00  0.00     0.118 C 
BRANCH  18  19
HETATM   19  C2  UNL     1       6.177  32.941  11.361  1.00  0.00     0.027 C 
HETATM   20  C1  UNL     1       6.932  32.083  12.362  1.00  0.00     0.007 C 
ENDBRANCH  18  19
BRANCH  18  21
HETATM   21  O1  UNL     1       4.783  34.324  12.570  1.00  0.00    -0.396 OA
ATOM     22  H1  UNL     1       4.465  35.211  12.445  1.00  0.00     0.210 HD
ENDBRANCH  18  21
ENDBRANCH  17  18
ENDBRANCH   1  17
BRANCH  16  23
HETATM   23  O4  UNL     1       9.780  35.180  10.957  1.00  0.00    -0.394 OA
ATOM     24  H4  UNL     1       9.445  34.517  10.366  1.00  0.00     0.210 HD
ENDBRANCH  16  23
BRANCH   7  25
HETATM   25  O2  UNL     1      12.934  35.675  12.651  1.00  0.00    -0.395 OA
ATOM     26  H2  UNL     1      12.775  36.426  13.211  1.00  0.00     0.210 HD
ENDBRANCH   7  25
BRANCH  11  27
HETATM   27  O3  UNL     1      13.766  32.544  18.079  1.00  0.00    -0.396 OA
ATOM     28  H3  UNL     1      13.835  32.849  18.975  1.00  0.00     0.210 HD
ENDBRANCH  11  27
TORSDOF 7
ENDMDL
