MODEL 1
REMARK VINA RESULT: -7.192203520      0.000      0.000
REMARK  6 active torsions:
REMARK  status: ('A' for Active; 'I' for Inactive)
REMARK    1  A    between atoms: C2_2  and  N1_4 
REMARK    2  A    between atoms: N1_4  and  C4_6 
REMARK    3  A    between atoms: C4_6  and  O1_7 
REMARK    4  A    between atoms: C9_13  and  O2_14 
REMARK    5  A    between atoms: C10_16  and  C11_17 
REMARK    6  A    between atoms: C19_25  and  N2_26 
ROOT
HETATM    1  C4  UNL     1      12.240  33.133  13.967  1.00  0.00     0.128 C 
HETATM    2  C5  UNL     1      13.354  34.064  13.920  1.00  0.00     0.061 C 
HETATM    3  C6  UNL     1      13.665  34.874  15.145  1.00  0.00     0.010 C 
HETATM    4  C7  UNL     1      13.531  34.167  16.427  1.00  0.00    -0.003 C 
HETATM    5  C8  UNL     1      14.405  34.582  17.552  1.00  0.00     0.024 A 
HETATM    6  C9  UNL     1      14.405  36.008  17.957  1.00  0.00     0.127 A 
HETATM    7  C10 UNL     1      13.617  35.658  19.171  1.00  0.00     0.022 A 
HETATM    8  C14 UNL     1      13.588  34.195  18.782  1.00  0.00    -0.000 A 
HETATM    9  C15 UNL     1      12.205  33.807  18.272  1.00  0.00     0.011 C 
HETATM   10  C16 UNL     1      12.159  34.561  16.992  1.00  0.00     0.001 C 
HETATM   11  C17 UNL     1      11.151  34.179  15.996  1.00  0.00    -0.002 A 
HETATM   12  C18 UNL     1      10.306  35.222  15.401  1.00  0.00     0.045 A 
HETATM   13  C19 UNL     1       9.695  34.391  16.456  1.00  0.00     0.193 A 
HETATM   14  C20 UNL     1      11.488  32.939  15.244  1.00  0.00     0.072 C 
ENDROOT
BRANCH   1  15
HETATM   15  N1  UNL     1      11.312  33.303  12.923  1.00  0.00    -0.388 N 
ATOM     16  H1  UNL     1      11.486  34.052  12.253  1.00  0.00     0.156 HD
BRANCH  15  17
HETATM   17  C2  UNL     1      10.192  32.535  12.738  1.00  0.00     0.071 C 
HETATM   18  C1  UNL     1       8.988  33.426  12.509  1.00  0.00     0.031 C 
HETATM   19  C3  UNL     1      10.149  31.489  11.676  1.00  0.00     0.031 C 
ENDBRANCH  15  17
ENDBRANCH   1  15
BRANCH   1  20
HETATM   20  O1  UNL     1      12.790  31.822  13.748  1.00  0.00    -0.371 OA
ATOM     21  H1  UNL     1      12.971  31.493  14.621  1.00  0.00     0.212 HD
ENDBRANCH   1  20
BRANCH  13  22
HETATM   22  N2  UNL     1       8.847  33.265  16.152  1.00  0.00    -0.074 N 
ATOM     23  H23 UNL     1       9.338  32.385  16.309  1.00  0.00     0.274 HD
ATOM     24  H22 UNL     1       8.106  33.167  16.846  1.00  0.00     0.274 HD
ATOM     25  H21 UNL     1       8.461  33.307  15.209  1.00  0.00     0.274 HD
ENDBRANCH  13  22
BRANCH   6  26
HETATM   26  O2  UNL     1      15.675  36.519  18.287  1.00  0.00    -0.395 OA
ATOM     27  H2  UNL     1      15.980  36.279  19.154  1.00  0.00     0.210 HD
ENDBRANCH   6  26
BRANCH   7  28
HETATM   28  C11 UNL     1      14.273  35.851  20.508  1.00  0.00    -0.016 C 
HETATM   29  C12 UNL     1      13.453  36.693  21.454  1.00  0.00     0.010 C 
HETATM   30  C13 UNL     1      14.614  34.515  21.158  1.00  0.00     0.010 C 
ENDBRANCH   7  28
TORSDOF 6
ENDMDL
MODEL 2
REMARK VINA RESULT: -6.212312505      1.852      2.654
REMARK  6 active torsions:
REMARK  status: ('A' for Active; 'I' for Inactive)
REMARK    1  A    between atoms: C2_2  and  N1_4 
REMARK    2  A    between atoms: N1_4  and  C4_6 
REMARK    3  A    between atoms: C4_6  and  O1_7 
REMARK    4  A    between atoms: C9_13  and  O2_14 
REMARK    5  A    between atoms: C10_16  and  C11_17 
REMARK    6  A    between atoms: C19_25  and  N2_26 
ROOT
HETATM    1  C4  UNL     1      10.277  33.147  12.278  1.00  0.00     0.128 C 
HETATM    2  C5  UNL     1      11.723  33.110  12.149  1.00  0.00     0.061 C 
HETATM    3  C6  UNL     1      12.557  33.719  13.238  1.00  0.00     0.010 C 
HETATM    4  C7  UNL     1      12.075  33.498  14.609  1.00  0.00    -0.003 C 
HETATM    5  C8  UNL     1      13.075  33.431  15.702  1.00  0.00     0.024 A 
HETATM    6  C9  UNL     1      14.023  34.561  15.861  1.00  0.00     0.127 A 
HETATM    7  C10 UNL     1      13.271  35.017  17.063  1.00  0.00     0.022 A 
HETATM    8  C14 UNL     1      12.278  33.883  16.924  1.00  0.00    -0.000 A 
HETATM    9  C15 UNL     1      10.946  34.402  16.397  1.00  0.00     0.011 C 
HETATM   10  C16 UNL     1      11.322  34.775  15.008  1.00  0.00     0.001 C 
HETATM   11  C17 UNL     1      10.250  34.974  14.027  1.00  0.00    -0.002 A 
HETATM   12  C18 UNL     1      10.247  36.195  13.211  1.00  0.00     0.045 A 
HETATM   13  C19 UNL     1       9.308  36.153  14.348  1.00  0.00     0.193 A 
HETATM   14  C20 UNL     1       9.656  33.707  13.518  1.00  0.00     0.072 C 
ENDROOT
BRANCH   1  15
HETATM   15  N1  UNL     1       9.619  33.696  11.162  1.00  0.00    -0.388 N 
ATOM     16  H1  UNL     1      10.195  34.000  10.377  1.00  0.00     0.156 HD
BRANCH  15  17
HETATM   17  C2  UNL     1       8.262  33.853  11.052  1.00  0.00     0.071 C 
HETATM   18  C1  UNL     1       7.944  35.245  10.542  1.00  0.00     0.031 C 
HETATM   19  C3  UNL     1       7.448  32.909  10.233  1.00  0.00     0.031 C 
ENDBRANCH  15  17
ENDBRANCH   1  15
BRANCH   1  20
HETATM   20  O1  UNL     1       9.831  31.779  12.320  1.00  0.00    -0.371 OA
ATOM     21  H1  UNL     1       9.604  31.578  11.420  1.00  0.00     0.212 HD
ENDBRANCH   1  20
BRANCH  13  22
HETATM   22  N2  UNL     1       7.917  35.814  14.183  1.00  0.00    -0.074 N 
ATOM     23  H23 UNL     1       7.718  34.890  14.568  1.00  0.00     0.274 HD
ATOM     24  H22 UNL     1       7.328  36.379  14.794  1.00  0.00     0.274 HD
ATOM     25  H21 UNL     1       7.608  35.881  13.213  1.00  0.00     0.274 HD
ENDBRANCH  13  22
BRANCH   6  26
HETATM   26  O2  UNL     1      15.338  34.174  16.183  1.00  0.00    -0.395 OA
ATOM     27  H2  UNL     1      15.644  34.490  17.026  1.00  0.00     0.210 HD
ENDBRANCH   6  26
BRANCH   7  28
HETATM   28  C11 UNL     1      13.975  34.962  18.388  1.00  0.00    -0.016 C 
HETATM   29  C12 UNL     1      14.399  36.322  18.889  1.00  0.00     0.010 C 
HETATM   30  C13 UNL     1      13.126  34.259  19.440  1.00  0.00     0.010 C 
ENDBRANCH   7  28
TORSDOF 6
ENDMDL
MODEL 3
REMARK VINA RESULT: -6.062909547      1.888      2.478
REMARK  6 active torsions:
REMARK  status: ('A' for Active; 'I' for Inactive)
REMARK    1  A    between atoms: C2_2  and  N1_4 
REMARK    2  A    between atoms: N1_4  and  C4_6 
REMARK    3  A    between atoms: C4_6  and  O1_7 
REMARK    4  A    between atoms: C9_13  and  O2_14 
REMARK    5  A    between atoms: C10_16  and  C11_17 
REMARK    6  A    between atoms: C19_25  and  N2_26 
ROOT
HETATM    1  C4  UNL     1      10.831  33.098  12.454  1.00  0.00     0.128 C 
HETATM    2  C5  UNL     1      12.279  33.161  12.364  1.00  0.00     0.061 C 
HETATM    3  C6  UNL     1      13.039  33.843  13.464  1.00  0.00     0.010 C 
HETATM    4  C7  UNL     1      12.535  33.610  14.826  1.00  0.00    -0.003 C 
HETATM    5  C8  UNL     1      13.507  33.630  15.946  1.00  0.00     0.024 A 
HETATM    6  C9  UNL     1      14.369  34.826  16.110  1.00  0.00     0.127 A 
HETATM    7  C10 UNL     1      13.554  35.247  17.284  1.00  0.00     0.022 A 
HETATM    8  C14 UNL     1      12.647  34.043  17.138  1.00  0.00    -0.000 A 
HETATM    9  C15 UNL     1      11.297  34.459  16.567  1.00  0.00     0.011 C 
HETATM   10  C16 UNL     1      11.685  34.837  15.183  1.00  0.00     0.001 C 
HETATM   11  C17 UNL     1      10.628  34.945  14.170  1.00  0.00    -0.002 A 
HETATM   12  C18 UNL     1      10.563  36.150  13.334  1.00  0.00     0.045 A 
HETATM   13  C19 UNL     1       9.598  36.059  14.447  1.00  0.00     0.193 A 
HETATM   14  C20 UNL     1      10.139  33.632  13.667  1.00  0.00     0.072 C 
ENDROOT
BRANCH   1  15
HETATM   15  N1  UNL     1      10.168  33.583  11.312  1.00  0.00    -0.388 N 
ATOM     16  H1  UNL     1       9.148  33.575  11.319  1.00  0.00     0.156 HD
BRANCH  15  17
HETATM   17  C2  UNL     1      10.790  34.063  10.190  1.00  0.00     0.071 C 
HETATM   18  C1  UNL     1      10.547  33.127   9.023  1.00  0.00     0.031 C 
HETATM   19  C3  UNL     1      10.507  35.440   9.689  1.00  0.00     0.031 C 
ENDBRANCH  15  17
ENDBRANCH   1  15
BRANCH   1  20
HETATM   20  O1  UNL     1      10.481  31.703  12.507  1.00  0.00    -0.371 OA
ATOM     21  H1  UNL     1      10.874  31.392  13.314  1.00  0.00     0.212 HD
ENDBRANCH   1  20
BRANCH  13  22
HETATM   22  N2  UNL     1       8.239  35.620  14.251  1.00  0.00    -0.074 N 
ATOM     23  H23 UNL     1       7.795  36.135  13.490  1.00  0.00     0.274 HD
ATOM     24  H22 UNL     1       8.211  34.681  13.854  1.00  0.00     0.274 HD
ATOM     25  H21 UNL     1       7.681  35.674  15.103  1.00  0.00     0.274 HD
ENDBRANCH  13  22
BRANCH   6  26
HETATM   26  O2  UNL     1      15.699  34.538  16.474  1.00  0.00    -0.395 OA
ATOM     27  H2  UNL     1      15.814  33.700  16.905  1.00  0.00     0.210 HD
ENDBRANCH   6  26
BRANCH   7  28
HETATM   28  C11 UNL     1      14.223  35.261  18.628  1.00  0.00    -0.016 C 
HETATM   29  C12 UNL     1      14.535  36.654  19.118  1.00  0.00     0.010 C 
HETATM   30  C13 UNL     1      13.398  34.514  19.669  1.00  0.00     0.010 C 
ENDBRANCH   7  28
TORSDOF 6
ENDMDL
MODEL 4
REMARK VINA RESULT: -5.969760148      2.964      7.335
REMARK  6 active torsions:
REMARK  status: ('A' for Active; 'I' for Inactive)
REMARK    1  A    between atoms: C2_2  and  N1_4 
REMARK    2  A    between atoms: N1_4  and  C4_6 
REMARK    3  A    between atoms: C4_6  and  O1_7 
REMARK    4  A    between atoms: C9_13  and  O2_14 
REMARK    5  A    between atoms: C10_16  and  C11_17 
REMARK    6  A    between atoms: C19_25  and  N2_26 
ROOT
HETATM    1  C4  UNL     1      12.157  35.930  15.199  1.00  0.00     0.128 C 
HETATM    2  C5  UNL     1      12.384  35.989  13.766  1.00  0.00     0.061 C 
HETATM    3  C6  UNL     1      11.254  35.637  12.844  1.00  0.00     0.010 C 
HETATM    4  C7  UNL     1       9.924  36.110  13.257  1.00  0.00    -0.003 C 
HETATM    5  C8  UNL     1       8.932  36.425  12.200  1.00  0.00     0.024 A 
HETATM    6  C9  UNL     1       8.617  35.383  11.194  1.00  0.00     0.127 A 
HETATM    7  C10 UNL     1       7.303  35.148  11.855  1.00  0.00     0.022 A 
HETATM    8  C14 UNL     1       7.597  36.199  12.905  1.00  0.00    -0.000 A 
HETATM    9  C15 UNL     1       7.924  35.540  14.240  1.00  0.00     0.011 C 
HETATM   10  C16 UNL     1       9.235  34.912  13.926  1.00  0.00     0.001 C 
HETATM   11  C17 UNL     1      10.086  34.486  15.043  1.00  0.00    -0.002 A 
HETATM   12  C18 UNL     1      10.645  33.128  15.036  1.00  0.00     0.045 A 
HETATM   13  C19 UNL     1       9.479  33.364  15.910  1.00  0.00     0.193 A 
HETATM   14  C20 UNL     1      10.794  35.606  15.722  1.00  0.00     0.072 C 
ENDROOT
BRANCH   1  15
HETATM   15  N1  UNL     1      13.099  35.148  15.894  1.00  0.00    -0.388 N 
ATOM     16  H1  UNL     1      13.798  34.650  15.342  1.00  0.00     0.156 HD
BRANCH  15  17
HETATM   17  C2  UNL     1      13.147  35.006  17.256  1.00  0.00     0.071 C 
HETATM   18  C1  UNL     1      13.286  33.541  17.617  1.00  0.00     0.031 C 
HETATM   19  C3  UNL     1      14.164  35.738  18.065  1.00  0.00     0.031 C 
ENDBRANCH  15  17
ENDBRANCH   1  15
BRANCH   1  20
HETATM   20  O1  UNL     1      12.356  37.262  15.704  1.00  0.00    -0.371 OA
ATOM     21  H1  UNL     1      11.788  37.805  15.169  1.00  0.00     0.212 HD
ENDBRANCH   1  20
BRANCH  13  22
HETATM   22  N2  UNL     1       9.617  33.616  17.322  1.00  0.00    -0.074 N 
ATOM     23  H23 UNL     1      10.250  32.943  17.754  1.00  0.00     0.274 HD
ATOM     24  H22 UNL     1      10.145  34.472  17.491  1.00  0.00     0.274 HD
ATOM     25  H21 UNL     1       8.720  33.639  17.807  1.00  0.00     0.274 HD
ENDBRANCH  13  22
BRANCH   6  26
HETATM   26  O2  UNL     1       8.463  35.869   9.882  1.00  0.00    -0.395 OA
ATOM     27  H2  UNL     1       7.756  36.495   9.776  1.00  0.00     0.210 HD
ENDBRANCH   6  26
BRANCH   7  28
HETATM   28  C11 UNL     1       6.063  35.489  11.080  1.00  0.00    -0.016 C 
HETATM   29  C12 UNL     1       5.476  34.304  10.352  1.00  0.00     0.010 C 
HETATM   30  C13 UNL     1       5.007  36.129  11.973  1.00  0.00     0.010 C 
ENDBRANCH   7  28
TORSDOF 6
ENDMDL
MODEL 5
REMARK VINA RESULT: -5.967632843      2.225      2.839
REMARK  6 active torsions:
REMARK  status: ('A' for Active; 'I' for Inactive)
REMARK    1  A    between atoms: C2_2  and  N1_4 
REMARK    2  A    between atoms: N1_4  and  C4_6 
REMARK    3  A    between atoms: C4_6  and  O1_7 
REMARK    4  A    between atoms: C9_13  and  O2_14 
REMARK    5  A    between atoms: C10_16  and  C11_17 
REMARK    6  A    between atoms: C19_25  and  N2_26 
ROOT
HETATM    1  C4  UNL     1      10.753  35.782  12.258  1.00  0.00     0.128 C 
HETATM    2  C5  UNL     1      11.604  36.805  12.841  1.00  0.00     0.061 C 
HETATM    3  C6  UNL     1      12.034  36.654  14.271  1.00  0.00     0.010 C 
HETATM    4  C7  UNL     1      12.370  35.287  14.694  1.00  0.00    -0.003 C 
HETATM    5  C8  UNL     1      13.389  35.112  15.757  1.00  0.00     0.024 A 
HETATM    6  C9  UNL     1      13.194  35.821  17.045  1.00  0.00     0.127 A 
HETATM    7  C10 UNL     1      12.820  34.532  17.692  1.00  0.00     0.022 A 
HETATM    8  C14 UNL     1      12.999  33.779  16.390  1.00  0.00    -0.000 A 
HETATM    9  C15 UNL     1      11.644  33.406  15.800  1.00  0.00     0.011 C 
HETATM   10  C16 UNL     1      11.129  34.747  15.418  1.00  0.00     0.001 C 
HETATM   11  C17 UNL     1      10.008  34.816  14.474  1.00  0.00    -0.002 A 
HETATM   12  C18 UNL     1       8.845  35.648  14.808  1.00  0.00     0.045 A 
HETATM   13  C19 UNL     1       8.698  34.192  14.998  1.00  0.00     0.193 A 
HETATM   14  C20 UNL     1      10.397  34.570  13.058  1.00  0.00     0.072 C 
ENDROOT
BRANCH   1  15
HETATM   15  N1  UNL     1       9.582  36.286  11.664  1.00  0.00    -0.388 N 
ATOM     16  H1  UNL     1       9.463  37.299  11.639  1.00  0.00     0.156 HD
BRANCH  15  17
HETATM   17  C2  UNL     1       8.589  35.517  11.116  1.00  0.00     0.071 C 
HETATM   18  C1  UNL     1       7.235  36.012  11.584  1.00  0.00     0.031 C 
HETATM   19  C3  UNL     1       8.485  35.344   9.638  1.00  0.00     0.031 C 
ENDBRANCH  15  17
ENDBRANCH   1  15
BRANCH   1  20
HETATM   20  O1  UNL     1      11.491  35.206  11.166  1.00  0.00    -0.371 OA
ATOM     21  H1  UNL     1      12.361  35.577  11.246  1.00  0.00     0.212 HD
ENDBRANCH   1  20
BRANCH  13  22
HETATM   22  N2  UNL     1       8.053  33.351  14.021  1.00  0.00    -0.074 N 
ATOM     23  H23 UNL     1       8.254  33.671  13.074  1.00  0.00     0.274 HD
ATOM     24  H22 UNL     1       8.493  32.432  13.982  1.00  0.00     0.274 HD
ATOM     25  H21 UNL     1       7.048  33.270  14.175  1.00  0.00     0.274 HD
ENDBRANCH  13  22
BRANCH   6  26
HETATM   26  O2  UNL     1      14.373  36.359  17.596  1.00  0.00    -0.395 OA
ATOM     27  H2  UNL     1      15.172  36.060  17.180  1.00  0.00     0.210 HD
ENDBRANCH   6  26
BRANCH   7  28
HETATM   28  C11 UNL     1      13.732  33.997  18.757  1.00  0.00    -0.016 C 
HETATM   29  C12 UNL     1      13.346  34.445  20.146  1.00  0.00     0.010 C 
HETATM   30  C13 UNL     1      13.818  32.476  18.704  1.00  0.00     0.010 C 
ENDBRANCH   7  28
TORSDOF 6
ENDMDL
