MODEL 1
REMARK VINA RESULT: -5.934333920      0.000      0.000
REMARK  0 active torsions:
REMARK  status: ('A' for Active; 'I' for Inactive)
ROOT
HETATM    1  C1  UNL     1      65.338  59.746-124.921  1.00  0.00     0.010 C 
HETATM    2  C2  UNL     1      65.298  61.270-124.719  1.00  0.00    -0.013 C 
HETATM    3  C3  UNL     1      63.947  61.763-124.361  1.00  0.00     0.028 C 
HETATM    4  C4  UNL     1      63.761  62.282-122.988  1.00  0.00     0.074 C 
HETATM    5  C5  UNL     1      63.213  61.176-122.072  1.00  0.00     0.032 C 
HETATM    6  N1  UNL     1      64.849  62.879-122.345  1.00  0.00    -0.398 N 
ATOM      7  H1  UNL     1      64.701  63.409-121.487  1.00  0.00     0.155 HD
HETATM    8  C6  UNL     1      66.134  62.755-122.869  1.00  0.00     0.113 C 
HETATM    9  C7  UNL     1      67.100  62.601-121.680  1.00  0.00     0.055 C 
HETATM   10  C8  UNL     1      66.514  64.025-123.524  1.00  0.00     0.090 C 
HETATM   11  N2  UNL     1      66.813  65.030-124.021  1.00  0.00    -0.195 NA
HETATM   12  C9  UNL     1      66.393  61.621-123.788  1.00  0.00     0.050 C 
ENDROOT
TORSDOF 0
ENDMDL
MODEL 2
REMARK VINA RESULT: -5.826146361      1.776      2.321
REMARK  0 active torsions:
REMARK  status: ('A' for Active; 'I' for Inactive)
ROOT
HETATM    1  C1  UNL     1      65.822  60.826-124.539  1.00  0.00     0.010 C 
HETATM    2  C2  UNL     1      66.717  62.060-124.338  1.00  0.00    -0.013 C 
HETATM    3  C3  UNL     1      66.139  63.288-124.935  1.00  0.00     0.028 C 
HETATM    4  C4  UNL     1      65.679  64.340-124.002  1.00  0.00     0.074 C 
HETATM    5  C5  UNL     1      64.175  64.189-123.731  1.00  0.00     0.032 C 
HETATM    6  N1  UNL     1      66.330  64.475-122.773  1.00  0.00    -0.398 N 
ATOM      7  H1  UNL     1      66.164  65.302-122.200  1.00  0.00     0.155 HD
HETATM    8  C6  UNL     1      67.206  63.487-122.324  1.00  0.00     0.113 C 
HETATM    9  C7  UNL     1      67.007  63.356-120.804  1.00  0.00     0.055 C 
HETATM   10  C8  UNL     1      68.597  63.957-122.502  1.00  0.00     0.090 C 
HETATM   11  N2  UNL     1      69.685  64.338-122.628  1.00  0.00    -0.195 NA
HETATM   12  C9  UNL     1      67.059  62.129-122.900  1.00  0.00     0.050 C 
ENDROOT
TORSDOF 0
ENDMDL
MODEL 3
REMARK VINA RESULT: -5.587837411      1.876      3.029
REMARK  0 active torsions:
REMARK  status: ('A' for Active; 'I' for Inactive)
ROOT
HETATM    1  C1  UNL     1      63.424  62.642-124.033  1.00  0.00     0.010 C 
HETATM    2  C2  UNL     1      64.922  62.907-124.261  1.00  0.00    -0.013 C 
HETATM    3  C3  UNL     1      65.167  64.068-125.149  1.00  0.00     0.028 C 
HETATM    4  C4  UNL     1      65.764  65.273-124.535  1.00  0.00     0.074 C 
HETATM    5  C5  UNL     1      64.664  66.265-124.130  1.00  0.00     0.032 C 
HETATM    6  N1  UNL     1      66.625  65.112-123.445  1.00  0.00    -0.398 N 
ATOM      7  H1  UNL     1      67.194  65.897-123.128  1.00  0.00     0.155 HD
HETATM    8  C6  UNL     1      66.712  63.885-122.789  1.00  0.00     0.113 C 
HETATM    9  C7  UNL     1      66.867  64.180-121.287  1.00  0.00     0.055 C 
HETATM   10  C8  UNL     1      67.965  63.209-123.190  1.00  0.00     0.090 C 
HETATM   11  N2  UNL     1      68.958  62.692-123.495  1.00  0.00    -0.195 NA
HETATM   12  C9  UNL     1      65.571  62.949-122.933  1.00  0.00     0.050 C 
ENDROOT
TORSDOF 0
ENDMDL
MODEL 4
REMARK VINA RESULT: -5.488215188      1.897      3.446
REMARK  0 active torsions:
REMARK  status: ('A' for Active; 'I' for Inactive)
ROOT
HETATM    1  C1  UNL     1      64.529  61.559-123.748  1.00  0.00     0.010 C 
HETATM    2  C2  UNL     1      64.651  63.055-123.416  1.00  0.00    -0.013 C 
HETATM    3  C3  UNL     1      65.624  63.321-122.330  1.00  0.00     0.028 C 
HETATM    4  C4  UNL     1      66.875  64.019-122.700  1.00  0.00     0.074 C 
HETATM    5  C5  UNL     1      67.992  63.001-122.971  1.00  0.00     0.032 C 
HETATM    6  N1  UNL     1      66.845  64.924-123.765  1.00  0.00    -0.398 N 
ATOM      7  H1  UNL     1      67.633  65.553-123.916  1.00  0.00     0.155 HD
HETATM    8  C6  UNL     1      65.746  64.974-124.621  1.00  0.00     0.113 C 
HETATM    9  C7  UNL     1      66.283  65.223-126.041  1.00  0.00     0.055 C 
HETATM   10  C8  UNL     1      64.930  66.162-124.293  1.00  0.00     0.090 C 
HETATM   11  N2  UNL     1      64.304  67.106-124.042  1.00  0.00    -0.195 NA
HETATM   12  C9  UNL     1      64.877  63.774-124.689  1.00  0.00     0.050 C 
ENDROOT
TORSDOF 0
ENDMDL
MODEL 5
REMARK VINA RESULT: -5.379427215      1.599      2.802
REMARK  0 active torsions:
REMARK  status: ('A' for Active; 'I' for Inactive)
ROOT
HETATM    1  C1  UNL     1      66.894  62.022-121.550  1.00  0.00     0.010 C 
HETATM    2  C2  UNL     1      66.816  62.478-123.017  1.00  0.00    -0.013 C 
HETATM    3  C3  UNL     1      66.516  61.363-123.946  1.00  0.00     0.028 C 
HETATM    4  C4  UNL     1      65.192  61.371-124.605  1.00  0.00     0.074 C 
HETATM    5  C5  UNL     1      64.197  60.510-123.812  1.00  0.00     0.032 C 
HETATM    6  N1  UNL     1      64.585  62.602-124.870  1.00  0.00    -0.398 N 
ATOM      7  H1  UNL     1      63.774  62.644-125.487  1.00  0.00     0.155 HD
HETATM    8  C6  UNL     1      65.080  63.772-124.298  1.00  0.00     0.113 C 
HETATM    9  C7  UNL     1      63.871  64.652-123.937  1.00  0.00     0.055 C 
HETATM   10  C8  UNL     1      65.830  64.532-125.321  1.00  0.00     0.090 C 
HETATM   11  N2  UNL     1      66.402  65.131-126.133  1.00  0.00    -0.195 NA
HETATM   12  C9  UNL     1      65.902  63.640-123.071  1.00  0.00     0.050 C 
ENDROOT
TORSDOF 0
ENDMDL
