MODEL 1
REMARK VINA RESULT: -5.149296473      0.000      0.000
REMARK  1 active torsions:
REMARK  status: ('A' for Active; 'I' for Inactive)
REMARK    1  A    between atoms: N1_1  and  C1_5 
ROOT
HETATM    1  C1  UNL     1      66.535  63.730-121.888  1.00  0.00     0.183 C 
HETATM    2  C2  UNL     1      66.626  62.276-121.602  1.00  0.00     0.033 C 
HETATM    3  C3  UNL     1      65.711  61.375-122.360  1.00  0.00     0.002 C 
HETATM    4  C4  UNL     1      64.280  61.518-121.971  1.00  0.00     0.002 C 
HETATM    5  C5  UNL     1      63.307  61.693-123.083  1.00  0.00     0.019 C 
HETATM    6  C6  UNL     1      63.742  62.597-124.197  1.00  0.00     0.113 C 
HETATM    7  N2  UNL     1      64.001  63.889-123.675  1.00  0.00    -0.421 N 
ATOM      8  H2  UNL     1      63.519  64.238-122.846  1.00  0.00     0.153 HD
HETATM    9  C7  UNL     1      64.964  64.672-124.359  1.00  0.00     0.113 C 
HETATM   10  C8  UNL     1      66.346  64.155-124.395  1.00  0.00     0.021 C 
HETATM   11  C9  UNL     1      67.130  64.199-123.148  1.00  0.00     0.034 C 
ENDROOT
BRANCH   1  12
HETATM   12  N1  UNL     1      67.393  64.315-120.819  1.00  0.00    -0.075 N 
ATOM     13  H13 UNL     1      67.805  63.637-120.177  1.00  0.00     0.274 HD
ATOM     14  H12 UNL     1      68.283  64.696-121.141  1.00  0.00     0.274 HD
ATOM     15  H11 UNL     1      66.766  64.993-120.385  1.00  0.00     0.274 HD
ENDBRANCH   1  12
TORSDOF 1
ENDMDL
MODEL 2
REMARK VINA RESULT: -5.118309403      1.558      2.932
REMARK  1 active torsions:
REMARK  status: ('A' for Active; 'I' for Inactive)
REMARK    1  A    between atoms: N1_1  and  C1_5 
ROOT
HETATM    1  C1  UNL     1      65.777  62.252-121.731  1.00  0.00     0.183 C 
HETATM    2  C2  UNL     1      64.645  61.836-122.598  1.00  0.00     0.033 C 
HETATM    3  C3  UNL     1      64.490  62.544-123.901  1.00  0.00     0.002 C 
HETATM    4  C4  UNL     1      64.059  63.963-123.758  1.00  0.00     0.002 C 
HETATM    5  C5  UNL     1      64.849  64.973-124.513  1.00  0.00     0.019 C 
HETATM    6  C6  UNL     1      66.335  64.771-124.517  1.00  0.00     0.113 C 
HETATM    7  N2  UNL     1      66.812  64.793-123.183  1.00  0.00    -0.421 N 
ATOM      8  H2  UNL     1      66.337  65.324-122.453  1.00  0.00     0.153 HD
HETATM    9  C7  UNL     1      67.983  64.042-122.913  1.00  0.00     0.113 C 
HETATM   10  C8  UNL     1      67.900  62.580-123.104  1.00  0.00     0.021 C 
HETATM   11  C9  UNL     1      67.119  61.801-122.129  1.00  0.00     0.034 C 
ENDROOT
BRANCH   1  12
HETATM   12  N1  UNL     1      65.488  61.523-120.464  1.00  0.00    -0.075 N 
ATOM     13  H13 UNL     1      66.056  61.806-119.665  1.00  0.00     0.274 HD
ATOM     14  H12 UNL     1      64.592  61.750-120.032  1.00  0.00     0.274 HD
ATOM     15  H11 UNL     1      65.596  60.548-120.746  1.00  0.00     0.274 HD
ENDBRANCH   1  12
TORSDOF 1
ENDMDL
MODEL 3
REMARK VINA RESULT: -5.057531605      1.902      3.542
REMARK  1 active torsions:
REMARK  status: ('A' for Active; 'I' for Inactive)
REMARK    1  A    between atoms: N1_1  and  C1_5 
ROOT
HETATM    1  C1  UNL     1      66.455  61.757-123.828  1.00  0.00     0.183 C 
HETATM    2  C2  UNL     1      65.210  61.433-123.086  1.00  0.00     0.033 C 
HETATM    3  C3  UNL     1      65.057  62.017-121.724  1.00  0.00     0.002 C 
HETATM    4  C4  UNL     1      65.988  61.433-120.719  1.00  0.00     0.002 C 
HETATM    5  C5  UNL     1      66.759  62.400-119.891  1.00  0.00     0.019 C 
HETATM    6  C6  UNL     1      67.296  63.599-120.615  1.00  0.00     0.113 C 
HETATM    7  N2  UNL     1      68.161  63.169-121.651  1.00  0.00    -0.421 N 
ATOM      8  H2  UNL     1      68.682  62.294-121.585  1.00  0.00     0.153 HD
HETATM    9  C7  UNL     1      68.268  64.013-122.784  1.00  0.00     0.113 C 
HETATM   10  C8  UNL     1      67.043  64.226-123.580  1.00  0.00     0.021 C 
HETATM   11  C9  UNL     1      66.553  63.107-124.403  1.00  0.00     0.034 C 
ENDROOT
BRANCH   1  12
HETATM   12  N1  UNL     1      66.369  60.845-125.003  1.00  0.00    -0.075 N 
ATOM     13  H13 UNL     1      66.693  61.245-125.884  1.00  0.00     0.274 HD
ATOM     14  H12 UNL     1      67.035  60.072-124.997  1.00  0.00     0.274 HD
ATOM     15  H11 UNL     1      65.387  60.568-124.990  1.00  0.00     0.274 HD
ENDBRANCH   1  12
TORSDOF 1
ENDMDL
MODEL 4
REMARK VINA RESULT: -5.040770652      1.542      2.772
REMARK  1 active torsions:
REMARK  status: ('A' for Active; 'I' for Inactive)
REMARK    1  A    between atoms: N1_1  and  C1_5 
ROOT
HETATM    1  C1  UNL     1      66.033  64.523-123.705  1.00  0.00     0.183 C 
HETATM    2  C2  UNL     1      67.388  64.044-123.328  1.00  0.00     0.033 C 
HETATM    3  C3  UNL     1      67.470  62.764-122.568  1.00  0.00     0.002 C 
HETATM    4  C4  UNL     1      66.951  62.865-121.176  1.00  0.00     0.002 C 
HETATM    5  C5  UNL     1      65.978  61.821-120.756  1.00  0.00     0.019 C 
HETATM    6  C6  UNL     1      64.949  61.436-121.777  1.00  0.00     0.113 C 
HETATM    7  N2  UNL     1      64.192  62.581-122.130  1.00  0.00    -0.421 N 
ATOM      8  H2  UNL     1      64.050  63.351-121.476  1.00  0.00     0.153 HD
HETATM    9  C7  UNL     1      63.644  62.603-123.436  1.00  0.00     0.113 C 
HETATM   10  C8  UNL     1      64.596  62.600-124.564  1.00  0.00     0.021 C 
HETATM   11  C9  UNL     1      65.369  63.828-124.817  1.00  0.00     0.034 C 
ENDROOT
BRANCH   1  12
HETATM   12  N1  UNL     1      66.315  65.892-124.222  1.00  0.00    -0.075 N 
ATOM     13  H13 UNL     1      67.252  66.023-124.604  1.00  0.00     0.274 HD
ATOM     14  H12 UNL     1      65.824  66.136-125.082  1.00  0.00     0.274 HD
ATOM     15  H11 UNL     1      66.092  66.477-123.416  1.00  0.00     0.274 HD
ENDBRANCH   1  12
TORSDOF 1
ENDMDL
MODEL 5
REMARK VINA RESULT: -5.039860381      4.518      6.197
REMARK  1 active torsions:
REMARK  status: ('A' for Active; 'I' for Inactive)
REMARK    1  A    between atoms: N1_1  and  C1_5 
ROOT
HETATM    1  C1  UNL     1      63.242  57.237-124.054  1.00  0.00     0.183 C 
HETATM    2  C2  UNL     1      62.238  58.259-123.661  1.00  0.00     0.033 C 
HETATM    3  C3  UNL     1      62.574  59.684-123.942  1.00  0.00     0.002 C 
HETATM    4  C4  UNL     1      63.673  60.215-123.088  1.00  0.00     0.002 C 
HETATM    5  C5  UNL     1      64.776  60.922-123.795  1.00  0.00     0.019 C 
HETATM    6  C6  UNL     1      65.230  60.303-125.083  1.00  0.00     0.113 C 
HETATM    7  N2  UNL     1      65.686  58.986-124.832  1.00  0.00    -0.421 N 
ATOM      8  H2  UNL     1      66.081  58.719-123.930  1.00  0.00     0.153 HD
HETATM    9  C7  UNL     1      65.566  58.056-125.895  1.00  0.00     0.113 C 
HETATM   10  C8  UNL     1      64.201  57.743-126.361  1.00  0.00     0.021 C 
HETATM   11  C9  UNL     1      63.345  56.923-125.486  1.00  0.00     0.034 C 
ENDROOT
BRANCH   1  12
HETATM   12  N1  UNL     1      62.692  56.000-123.430  1.00  0.00    -0.075 N 
ATOM     13  H13 UNL     1      63.143  55.133-123.722  1.00  0.00     0.274 HD
ATOM     14  H12 UNL     1      62.901  55.889-122.437  1.00  0.00     0.274 HD
ATOM     15  H11 UNL     1      61.699  56.067-123.656  1.00  0.00     0.274 HD
ENDBRANCH   1  12
TORSDOF 1
ENDMDL
