MODEL 1
REMARK VINA RESULT: -5.616422327      0.000      0.000
REMARK  0 active torsions:
REMARK  status: ('A' for Active; 'I' for Inactive)
ROOT
HETATM    1  N1  UNL     1      65.920  59.693-125.026  1.00  0.00    -0.404 N 
ATOM      2  H11 UNL     1      65.971  60.199-124.142  1.00  0.00     0.155 HD
ATOM      3  H12 UNL     1      66.642  59.758-125.743  1.00  0.00     0.155 HD
HETATM    4  C1  UNL     1      64.928  58.935-125.285  1.00  0.00     0.005 C 
HETATM    5  C2  UNL     1      64.854  58.202-126.565  1.00  0.00     0.054 C 
HETATM    6  C3  UNL     1      65.406  56.818-126.514  1.00  0.00     0.006 C 
HETATM    7  C4  UNL     1      65.810  56.343-125.166  1.00  0.00     0.000 C 
HETATM    8  C5  UNL     1      64.913  55.303-124.570  1.00  0.00     0.000 C 
HETATM    9  C6  UNL     1      63.466  55.494-124.823  1.00  0.00     0.002 C 
HETATM   10  C7  UNL     1      62.711  55.897-123.552  1.00  0.00     0.027 C 
HETATM   11  C8  UNL     1      62.181  57.304-123.645  1.00  0.00     0.232 C 
HETATM   12  N2  UNL     1      62.754  58.071-124.706  1.00  0.00    -0.070 N 
ATOM     13  H21 UNL     1      62.059  58.658-125.167  1.00  0.00     0.277 HD
ATOM     14  H22 UNL     1      63.011  57.486-125.501  1.00  0.00     0.277 HD
HETATM   15  C9  UNL     1      63.867  58.840-124.231  1.00  0.00     0.284 C 
ENDROOT
TORSDOF 0
ENDMDL
MODEL 2
REMARK VINA RESULT: -5.594751853      5.323      6.766
REMARK  0 active torsions:
REMARK  status: ('A' for Active; 'I' for Inactive)
ROOT
HETATM    1  N1  UNL     1      65.851  64.775-125.805  1.00  0.00    -0.404 N 
ATOM      2  H11 UNL     1      66.815  64.867-126.126  1.00  0.00     0.155 HD
ATOM      3  H12 UNL     1      65.050  64.838-126.433  1.00  0.00     0.155 HD
HETATM    4  C1  UNL     1      65.592  64.571-124.573  1.00  0.00     0.005 C 
HETATM    5  C2  UNL     1      64.197  64.438-124.108  1.00  0.00     0.054 C 
HETATM    6  C3  UNL     1      63.699  63.034-124.048  1.00  0.00     0.006 C 
HETATM    7  C4  UNL     1      64.715  61.986-124.325  1.00  0.00     0.000 C 
HETATM    8  C5  UNL     1      65.142  61.192-123.129  1.00  0.00     0.000 C 
HETATM    9  C6  UNL     1      65.279  61.964-121.873  1.00  0.00     0.002 C 
HETATM   10  C7  UNL     1      66.743  62.110-121.448  1.00  0.00     0.027 C 
HETATM   11  C8  UNL     1      67.205  63.542-121.534  1.00  0.00     0.232 C 
HETATM   12  N2  UNL     1      66.333  64.388-122.288  1.00  0.00    -0.070 N 
ATOM     13  H21 UNL     1      66.236  65.309-121.860  1.00  0.00     0.277 HD
ATOM     14  H22 UNL     1      65.361  64.086-122.221  1.00  0.00     0.277 HD
HETATM   15  C9  UNL     1      66.769  64.478-123.651  1.00  0.00     0.284 C 
ENDROOT
TORSDOF 0
ENDMDL
MODEL 3
REMARK VINA RESULT: -5.419134090      4.912      5.972
REMARK  0 active torsions:
REMARK  status: ('A' for Active; 'I' for Inactive)
ROOT
HETATM    1  N1  UNL     1      66.878  65.168-123.645  1.00  0.00    -0.404 N 
ATOM      2  H11 UNL     1      66.295  66.004-123.632  1.00  0.00     0.155 HD
ATOM      3  H12 UNL     1      67.873  65.182-123.421  1.00  0.00     0.155 HD
HETATM    4  C1  UNL     1      66.381  64.033-123.949  1.00  0.00     0.005 C 
HETATM    5  C2  UNL     1      67.225  62.821-123.968  1.00  0.00     0.054 C 
HETATM    6  C3  UNL     1      67.222  62.049-122.692  1.00  0.00     0.006 C 
HETATM    7  C4  UNL     1      66.272  62.533-121.658  1.00  0.00     0.000 C 
HETATM    8  C5  UNL     1      65.085  61.648-121.431  1.00  0.00     0.000 C 
HETATM    9  C6  UNL     1      64.515  61.030-122.650  1.00  0.00     0.002 C 
HETATM   10  C7  UNL     1      63.148  61.624-123.007  1.00  0.00     0.027 C 
HETATM   11  C8  UNL     1      63.200  62.402-124.296  1.00  0.00     0.232 C 
HETATM   12  N2  UNL     1      64.526  62.710-124.734  1.00  0.00    -0.070 N 
ATOM     13  H21 UNL     1      64.622  62.618-125.744  1.00  0.00     0.277 HD
ATOM     14  H22 UNL     1      65.195  61.993-124.451  1.00  0.00     0.277 HD
HETATM   15  C9  UNL     1      64.919  64.012-124.279  1.00  0.00     0.284 C 
ENDROOT
TORSDOF 0
ENDMDL
MODEL 4
REMARK VINA RESULT: -5.409535837      5.613      6.650
REMARK  0 active torsions:
REMARK  status: ('A' for Active; 'I' for Inactive)
ROOT
HETATM    1  N1  UNL     1      67.365  61.430-120.269  1.00  0.00    -0.404 N 
ATOM      2  H11 UNL     1      67.019  60.494-120.056  1.00  0.00     0.155 HD
ATOM      3  H12 UNL     1      68.278  61.766-119.964  1.00  0.00     0.155 HD
HETATM    4  C1  UNL     1      66.657  62.246-120.946  1.00  0.00     0.005 C 
HETATM    5  C2  UNL     1      67.158  63.601-121.255  1.00  0.00     0.054 C 
HETATM    6  C3  UNL     1      67.853  63.715-122.569  1.00  0.00     0.006 C 
HETATM    7  C4  UNL     1      67.813  62.498-123.418  1.00  0.00     0.000 C 
HETATM    8  C5  UNL     1      66.926  62.599-124.621  1.00  0.00     0.000 C 
HETATM    9  C6  UNL     1      65.656  63.331-124.412  1.00  0.00     0.002 C 
HETATM   10  C7  UNL     1      64.444  62.395-124.443  1.00  0.00     0.027 C 
HETATM   11  C8  UNL     1      63.779  62.303-123.094  1.00  0.00     0.232 C 
HETATM   12  N2  UNL     1      64.575  62.810-122.020  1.00  0.00    -0.070 N 
ATOM     13  H21 UNL     1      64.012  63.328-121.345  1.00  0.00     0.277 HD
ATOM     14  H22 UNL     1      65.184  63.569-122.325  1.00  0.00     0.277 HD
HETATM   15  C9  UNL     1      65.315  61.753-121.395  1.00  0.00     0.284 C 
ENDROOT
TORSDOF 0
ENDMDL
MODEL 5
REMARK VINA RESULT: -5.323073893      4.291      5.676
REMARK  0 active torsions:
REMARK  status: ('A' for Active; 'I' for Inactive)
ROOT
HETATM    1  N1  UNL     1      67.747  63.044-121.221  1.00  0.00    -0.404 N 
ATOM      2  H11 UNL     1      67.902  62.420-120.430  1.00  0.00     0.155 HD
ATOM      3  H12 UNL     1      68.466  63.673-121.579  1.00  0.00     0.155 HD
HETATM    4  C1  UNL     1      66.622  63.070-121.820  1.00  0.00     0.005 C 
HETATM    5  C2  UNL     1      66.398  63.973-122.967  1.00  0.00     0.054 C 
HETATM    6  C3  UNL     1      66.657  63.353-124.298  1.00  0.00     0.006 C 
HETATM    7  C4  UNL     1      66.959  61.899-124.275  1.00  0.00     0.000 C 
HETATM    8  C5  UNL     1      65.870  61.022-124.811  1.00  0.00     0.000 C 
HETATM    9  C6  UNL     1      64.492  61.441-124.466  1.00  0.00     0.002 C 
HETATM   10  C7  UNL     1      63.837  60.484-123.465  1.00  0.00     0.027 C 
HETATM   11  C8  UNL     1      63.603  61.150-122.133  1.00  0.00     0.232 C 
HETATM   12  N2  UNL     1      64.319  62.376-121.964  1.00  0.00    -0.070 N 
ATOM     13  H21 UNL     1      63.756  63.079-121.485  1.00  0.00     0.277 HD
ATOM     14  H22 UNL     1      64.450  62.863-122.851  1.00  0.00     0.277 HD
HETATM   15  C9  UNL     1      65.566  62.146-121.294  1.00  0.00     0.284 C 
ENDROOT
TORSDOF 0
ENDMDL
