MODEL 1
REMARK VINA RESULT: -5.235966616      0.000      0.000
REMARK  1 active torsions:
REMARK  status: ('A' for Active; 'I' for Inactive)
REMARK    1  A    between atoms: C6_6  and  N1_7 
ROOT
HETATM    1  C1  UNL     1      63.891  59.755-123.830  1.00  0.00     0.015 C 
HETATM    2  C2  UNL     1      63.809  61.137-123.160  1.00  0.00    -0.046 C 
HETATM    3  C3  UNL     1      62.594  61.007-122.224  1.00  0.00     0.015 C 
HETATM    4  C4  UNL     1      63.413  62.097-124.229  1.00  0.00     0.011 C 
HETATM    5  C5  UNL     1      64.649  62.528-124.974  1.00  0.00     0.035 C 
HETATM    6  C6  UNL     1      65.409  63.386-123.966  1.00  0.00     0.202 C 
HETATM    7  C7  UNL     1      65.940  62.483-122.911  1.00  0.00     0.043 C 
HETATM    8  C8  UNL     1      67.229  61.860-123.467  1.00  0.00     0.030 C 
HETATM    9  S1  UNL     1      66.496  63.579-121.541  1.00  0.00    -0.085 SA
HETATM   10  C9  UNL     1      65.020  61.456-122.396  1.00  0.00     0.032 C 
ENDROOT
BRANCH   6  11
HETATM   11  N1  UNL     1      64.532  64.365-123.357  1.00  0.00    -0.073 N 
ATOM     12  H13 UNL     1      63.903  64.785-124.041  1.00  0.00     0.274 HD
ATOM     13  H12 UNL     1      63.835  63.924-122.756  1.00  0.00     0.274 HD
ATOM     14  H11 UNL     1      65.069  65.072-122.855  1.00  0.00     0.274 HD
ENDBRANCH   6  11
TORSDOF 1
ENDMDL
MODEL 2
REMARK VINA RESULT: -5.118129909      1.566      1.980
REMARK  1 active torsions:
REMARK  status: ('A' for Active; 'I' for Inactive)
REMARK    1  A    between atoms: C6_6  and  N1_7 
ROOT
HETATM    1  C1  UNL     1      63.116  60.939-122.724  1.00  0.00     0.015 C 
HETATM    2  C2  UNL     1      63.942  61.965-123.519  1.00  0.00    -0.046 C 
HETATM    3  C3  UNL     1      62.873  62.898-124.116  1.00  0.00     0.015 C 
HETATM    4  C4  UNL     1      64.536  61.223-124.667  1.00  0.00     0.011 C 
HETATM    5  C5  UNL     1      65.805  60.554-124.205  1.00  0.00     0.035 C 
HETATM    6  C6  UNL     1      66.771  61.712-123.970  1.00  0.00     0.202 C 
HETATM    7  C7  UNL     1      66.311  62.449-122.764  1.00  0.00     0.043 C 
HETATM    8  C8  UNL     1      66.828  61.671-121.545  1.00  0.00     0.030 C 
HETATM    9  S1  UNL     1      67.250  64.031-122.750  1.00  0.00    -0.085 SA
HETATM   10  C9  UNL     1      64.867  62.716-122.663  1.00  0.00     0.032 C 
ENDROOT
BRANCH   6  11
HETATM   11  N1  UNL     1      66.779  62.614-125.103  1.00  0.00    -0.073 N 
ATOM     12  H13 UNL     1      66.085  63.355-125.001  1.00  0.00     0.274 HD
ATOM     13  H12 UNL     1      67.620  63.191-125.120  1.00  0.00     0.274 HD
ATOM     14  H11 UNL     1      66.656  62.102-125.976  1.00  0.00     0.274 HD
ENDBRANCH   6  11
TORSDOF 1
ENDMDL
MODEL 3
REMARK VINA RESULT: -5.101357366      2.383      3.657
REMARK  1 active torsions:
REMARK  status: ('A' for Active; 'I' for Inactive)
REMARK    1  A    between atoms: C6_6  and  N1_7 
ROOT
HETATM    1  C1  UNL     1      66.466  63.767-121.584  1.00  0.00     0.015 C 
HETATM    2  C2  UNL     1      66.339  62.301-122.033  1.00  0.00    -0.046 C 
HETATM    3  C3  UNL     1      67.043  61.522-120.908  1.00  0.00     0.015 C 
HETATM    4  C4  UNL     1      67.200  62.159-123.241  1.00  0.00     0.011 C 
HETATM    5  C5  UNL     1      66.415  62.601-124.449  1.00  0.00     0.035 C 
HETATM    6  C6  UNL     1      65.353  61.517-124.618  1.00  0.00     0.202 C 
HETATM    7  C7  UNL     1      64.380  61.658-123.503  1.00  0.00     0.043 C 
HETATM    8  C8  UNL     1      63.408  62.778-123.902  1.00  0.00     0.030 C 
HETATM    9  S1  UNL     1      63.366  60.123-123.521  1.00  0.00    -0.085 SA
HETATM   10  C9  UNL     1      64.940  61.879-122.161  1.00  0.00     0.032 C 
ENDROOT
BRANCH   6  11
HETATM   11  N1  UNL     1      65.950  60.198-124.564  1.00  0.00    -0.073 N 
ATOM     12  H13 UNL     1      65.318  59.515-124.147  1.00  0.00     0.274 HD
ATOM     13  H12 UNL     1      66.034  59.784-125.493  1.00  0.00     0.274 HD
ATOM     14  H11 UNL     1      66.847  60.225-124.081  1.00  0.00     0.274 HD
ENDBRANCH   6  11
TORSDOF 1
ENDMDL
MODEL 4
REMARK VINA RESULT: -5.097302229      2.124      3.734
REMARK  1 active torsions:
REMARK  status: ('A' for Active; 'I' for Inactive)
REMARK    1  A    between atoms: C6_6  and  N1_7 
ROOT
HETATM    1  C1  UNL     1      66.145  65.043-125.814  1.00  0.00     0.015 C 
HETATM    2  C2  UNL     1      65.506  64.836-124.431  1.00  0.00    -0.046 C 
HETATM    3  C3  UNL     1      64.617  66.081-124.259  1.00  0.00     0.015 C 
HETATM    4  C4  UNL     1      66.608  64.970-123.437  1.00  0.00     0.011 C 
HETATM    5  C5  UNL     1      67.312  63.643-123.314  1.00  0.00     0.035 C 
HETATM    6  C6  UNL     1      66.291  62.745-122.619  1.00  0.00     0.202 C 
HETATM    7  C7  UNL     1      65.198  62.467-123.588  1.00  0.00     0.043 C 
HETATM    8  C8  UNL     1      65.690  61.333-124.499  1.00  0.00     0.030 C 
HETATM    9  S1  UNL     1      63.829  61.727-122.607  1.00  0.00    -0.085 SA
HETATM   10  C9  UNL     1      64.701  63.611-124.369  1.00  0.00     0.032 C 
ENDROOT
BRANCH   6  11
HETATM   11  N1  UNL     1      65.737  63.400-121.453  1.00  0.00    -0.073 N 
ATOM     12  H13 UNL     1      66.111  64.342-121.337  1.00  0.00     0.274 HD
ATOM     13  H12 UNL     1      64.754  63.639-121.586  1.00  0.00     0.274 HD
ATOM     14  H11 UNL     1      65.877  62.834-120.617  1.00  0.00     0.274 HD
ENDBRANCH   6  11
TORSDOF 1
ENDMDL
MODEL 5
REMARK VINA RESULT: -5.092589087      1.244      1.488
REMARK  1 active torsions:
REMARK  status: ('A' for Active; 'I' for Inactive)
REMARK    1  A    between atoms: C6_6  and  N1_7 
ROOT
HETATM    1  C1  UNL     1      65.017  60.861-124.624  1.00  0.00     0.015 C 
HETATM    2  C2  UNL     1      64.893  62.025-123.626  1.00  0.00    -0.046 C 
HETATM    3  C3  UNL     1      63.555  61.745-122.918  1.00  0.00     0.015 C 
HETATM    4  C4  UNL     1      64.684  63.254-124.443  1.00  0.00     0.011 C 
HETATM    5  C5  UNL     1      66.027  63.774-124.886  1.00  0.00     0.035 C 
HETATM    6  C6  UNL     1      66.670  64.286-123.599  1.00  0.00     0.202 C 
HETATM    7  C7  UNL     1      67.015  63.105-122.764  1.00  0.00     0.043 C 
HETATM    8  C8  UNL     1      68.345  62.556-123.300  1.00  0.00     0.030 C 
HETATM    9  S1  UNL     1      67.414  63.767-121.095  1.00  0.00    -0.085 SA
HETATM   10  C9  UNL     1      65.996  62.048-122.660  1.00  0.00     0.032 C 
ENDROOT
BRANCH   6  11
HETATM   11  N1  UNL     1      65.752  65.134-122.866  1.00  0.00    -0.073 N 
ATOM     12  H13 UNL     1      66.144  65.429-121.972  1.00  0.00     0.274 HD
ATOM     13  H12 UNL     1      65.655  66.051-123.303  1.00  0.00     0.274 HD
ATOM     14  H11 UNL     1      64.849  64.675-122.749  1.00  0.00     0.274 HD
ENDBRANCH   6  11
TORSDOF 1
ENDMDL
