MODEL 1
REMARK VINA RESULT: -7.578985267      0.000      0.000
REMARK  6 active torsions:
REMARK  status: ('A' for Active; 'I' for Inactive)
REMARK    1  A    between atoms: C2_2  and  N1_4 
REMARK    2  A    between atoms: C4_6  and  C5_8 
REMARK    3  A    between atoms: C7_10  and  O1_11 
REMARK    4  A    between atoms: O1_11  and  C8_12 
REMARK    5  A    between atoms: C11_15  and  N3_16 
REMARK       I    between atoms: N3_16  and  C12_18 
REMARK       I    between atoms: C12_18  and  N5_25 
REMARK    6  A    between atoms: N4_19  and  C13_21 
ROOT
HETATM    1  N3  UNL     1     -21.414  18.189 -93.859  1.00  0.00    -0.191 N 
ATOM      2  H3  UNL     1     -21.018  18.056 -92.928  1.00  0.00     0.184 HD
HETATM    3  C12 UNL     1     -20.869  19.195 -94.696  1.00  0.00     0.694 C 
HETATM    4  N4  UNL     1     -20.036  18.895 -95.633  1.00  0.00    -0.130 N 
ATOM      5  H4  UNL     1     -19.779  17.915 -95.756  1.00  0.00     0.186 HD
HETATM    6  N5  UNL     1     -21.211  20.566 -94.543  1.00  0.00    -0.126 N 
ATOM      7  H5  UNL     1     -20.486  21.223 -94.258  1.00  0.00     0.197 HD
HETATM    8  C14 UNL     1     -22.522  21.052 -94.771  1.00  0.00     0.196 C 
HETATM    9  N6  UNL     1     -23.596  21.446 -94.938  1.00  0.00    -0.171 NA
ENDROOT
BRANCH   1  10
HETATM   10  C11 UNL     1     -22.486  17.362 -94.269  1.00  0.00     0.049 A 
HETATM   11  C10 UNL     1     -22.268  16.067 -94.671  1.00  0.00     0.033 A 
HETATM   12  C9  UNL     1     -23.321  15.245 -95.077  1.00  0.00     0.039 A 
HETATM   13  C8  UNL     1     -24.608  15.744 -95.074  1.00  0.00     0.076 A 
HETATM   14  C16 UNL     1     -24.855  17.040 -94.677  1.00  0.00     0.039 A 
HETATM   15  C15 UNL     1     -23.782  17.840 -94.276  1.00  0.00     0.033 A 
BRANCH  13  16
HETATM   16  O1  UNL     1     -25.647  14.922 -95.479  1.00  0.00    -0.311 OA
BRANCH  16  17
HETATM   17  C7  UNL     1     -26.502  14.298 -94.584  1.00  0.00     0.079 A 
HETATM   18  C6  UNL     1     -26.019  13.502 -93.545  1.00  0.00     0.070 A 
HETATM   19  C5  UNL     1     -26.883  12.886 -92.661  1.00  0.00     0.076 A 
HETATM   20  N7  UNL     1     -28.199  13.093 -92.849  1.00  0.00    -0.363 N 
HETATM   21  C18 UNL     1     -28.688  13.861 -93.849  1.00  0.00     0.091 A 
ATOM     22  H7  UNL     1     -28.857  12.649 -92.209  1.00  0.00     0.165 HD
HETATM   23  C17 UNL     1     -27.860  14.493 -94.754  1.00  0.00     0.054 A 
BRANCH  19  24
HETATM   24  C4  UNL     1     -26.403  12.047 -91.563  1.00  0.00     0.139 C 
HETATM   25  N1  UNL     1     -27.093  11.041 -91.181  1.00  0.00    -0.373 N 
ATOM     26  H1  UNL     1     -27.971  10.860 -91.669  1.00  0.00     0.161 HD
HETATM   27  N2  UNL     1     -25.177  12.363 -90.939  1.00  0.00    -0.081 NA
BRANCH  25  28
HETATM   28  C2  UNL     1     -26.731  10.150 -90.125  1.00  0.00     0.074 C 
HETATM   29  C1  UNL     1     -25.957   8.938 -90.609  1.00  0.00     0.031 C 
HETATM   30  C3  UNL     1     -27.888   9.685 -89.292  1.00  0.00     0.031 C 
ENDBRANCH  25  28
ENDBRANCH  19  24
ENDBRANCH  16  17
ENDBRANCH  13  16
ENDBRANCH   1  10
BRANCH   4  31
HETATM   31  C13 UNL     1     -19.451  19.867 -96.511  1.00  0.00     0.498 C 
HETATM   32  F1  UNL     1     -18.852  20.878 -95.805  1.00  0.00    -0.150 F 
HETATM   33  F2  UNL     1     -20.470  20.348 -97.342  1.00  0.00    -0.150 F 
HETATM   34  F3  UNL     1     -18.509  19.294 -97.358  1.00  0.00    -0.150 F 
ENDBRANCH   4  31
TORSDOF 6
ENDMDL
MODEL 2
REMARK VINA RESULT: -7.558988673      2.632      3.654
REMARK  6 active torsions:
REMARK  status: ('A' for Active; 'I' for Inactive)
REMARK    1  A    between atoms: C2_2  and  N1_4 
REMARK    2  A    between atoms: C4_6  and  C5_8 
REMARK    3  A    between atoms: C7_10  and  O1_11 
REMARK    4  A    between atoms: O1_11  and  C8_12 
REMARK    5  A    between atoms: C11_15  and  N3_16 
REMARK       I    between atoms: N3_16  and  C12_18 
REMARK       I    between atoms: C12_18  and  N5_25 
REMARK    6  A    between atoms: N4_19  and  C13_21 
ROOT
HETATM    1  N3  UNL     1     -24.143  15.829 -95.950  1.00  0.00    -0.191 N 
ATOM      2  H3  UNL     1     -23.381  15.154 -96.023  1.00  0.00     0.184 HD
HETATM    3  C12 UNL     1     -23.908  17.170 -96.345  1.00  0.00     0.694 C 
HETATM    4  N4  UNL     1     -24.299  17.597 -97.496  1.00  0.00    -0.130 N 
ATOM      5  H4  UNL     1     -24.782  16.946 -98.116  1.00  0.00     0.186 HD
HETATM    6  N5  UNL     1     -23.237  18.095 -95.501  1.00  0.00    -0.126 N 
ATOM      7  H5  UNL     1     -22.331  18.460 -95.795  1.00  0.00     0.197 HD
HETATM    8  C14 UNL     1     -23.779  18.528 -94.266  1.00  0.00     0.196 C 
HETATM    9  N6  UNL     1     -24.212  18.868 -93.249  1.00  0.00    -0.171 NA
ENDROOT
BRANCH   1  10
HETATM   10  C11 UNL     1     -25.396  15.393 -95.459  1.00  0.00     0.049 A 
HETATM   11  C10 UNL     1     -25.984  14.248 -95.937  1.00  0.00     0.033 A 
HETATM   12  C9  UNL     1     -27.221  13.811 -95.458  1.00  0.00     0.039 A 
HETATM   13  C8  UNL     1     -27.865  14.546 -94.483  1.00  0.00     0.076 A 
HETATM   14  C16 UNL     1     -27.298  15.699 -93.985  1.00  0.00     0.039 A 
HETATM   15  C15 UNL     1     -26.060  16.112 -94.484  1.00  0.00     0.033 A 
BRANCH  13  16
HETATM   16  O1  UNL     1     -29.092  14.106 -94.012  1.00  0.00    -0.311 OA
BRANCH  16  17
HETATM   17  C7  UNL     1     -29.298  13.726 -92.696  1.00  0.00     0.079 A 
HETATM   18  C6  UNL     1     -28.687  12.593 -92.156  1.00  0.00     0.070 A 
HETATM   19  C5  UNL     1     -28.901  12.226 -90.843  1.00  0.00     0.076 A 
HETATM   20  N7  UNL     1     -29.719  13.009 -90.116  1.00  0.00    -0.363 N 
HETATM   21  C18 UNL     1     -30.321  14.112 -90.618  1.00  0.00     0.091 A 
ATOM     22  H7  UNL     1     -29.893  12.760 -89.142  1.00  0.00     0.165 HD
HETATM   23  C17 UNL     1     -30.134  14.513 -91.925  1.00  0.00     0.054 A 
BRANCH  19  24
HETATM   24  C4  UNL     1     -28.273  11.044 -90.254  1.00  0.00     0.139 C 
HETATM   25  N1  UNL     1     -27.047  10.781 -90.505  1.00  0.00    -0.373 N 
ATOM     26  H1  UNL     1     -26.546  11.421 -91.121  1.00  0.00     0.161 HD
HETATM   27  N2  UNL     1     -29.035  10.206 -89.411  1.00  0.00    -0.081 NA
BRANCH  25  28
HETATM   28  C2  UNL     1     -26.325   9.661 -89.991  1.00  0.00     0.074 C 
HETATM   29  C1  UNL     1     -25.002  10.046 -89.357  1.00  0.00     0.031 C 
HETATM   30  C3  UNL     1     -26.083   8.574 -90.997  1.00  0.00     0.031 C 
ENDBRANCH  25  28
ENDBRANCH  19  24
ENDBRANCH  16  17
ENDBRANCH  13  16
ENDBRANCH   1  10
BRANCH   4  31
HETATM   31  C13 UNL     1     -24.091  18.941 -97.953  1.00  0.00     0.498 C 
HETATM   32  F1  UNL     1     -24.667  19.850 -97.104  1.00  0.00    -0.150 F 
HETATM   33  F2  UNL     1     -24.621  19.031 -99.246  1.00  0.00    -0.150 F 
HETATM   34  F3  UNL     1     -22.738  19.239 -98.076  1.00  0.00    -0.150 F 
ENDBRANCH   4  31
TORSDOF 6
ENDMDL
MODEL 3
REMARK VINA RESULT: -7.530706529      2.557      3.400
REMARK  6 active torsions:
REMARK  status: ('A' for Active; 'I' for Inactive)
REMARK    1  A    between atoms: C2_2  and  N1_4 
REMARK    2  A    between atoms: C4_6  and  C5_8 
REMARK    3  A    between atoms: C7_10  and  O1_11 
REMARK    4  A    between atoms: O1_11  and  C8_12 
REMARK    5  A    between atoms: C11_15  and  N3_16 
REMARK       I    between atoms: N3_16  and  C12_18 
REMARK       I    between atoms: C12_18  and  N5_25 
REMARK    6  A    between atoms: N4_19  and  C13_21 
ROOT
HETATM    1  N3  UNL     1     -22.881  16.465 -95.407  1.00  0.00    -0.191 N 
ATOM      2  H3  UNL     1     -21.944  16.093 -95.246  1.00  0.00     0.184 HD
HETATM    3  C12 UNL     1     -23.016  17.789 -95.894  1.00  0.00     0.694 C 
HETATM    4  N4  UNL     1     -23.251  18.012 -97.142  1.00  0.00    -0.130 N 
ATOM      5  H4  UNL     1     -23.337  17.212 -97.768  1.00  0.00     0.186 HD
HETATM    6  N5  UNL     1     -22.899  18.919 -95.041  1.00  0.00    -0.126 N 
ATOM      7  H5  UNL     1     -22.122  19.564 -95.185  1.00  0.00     0.197 HD
HETATM    8  C14 UNL     1     -23.822  19.183 -93.999  1.00  0.00     0.196 C 
HETATM    9  N6  UNL     1     -24.564  19.389 -93.136  1.00  0.00    -0.171 NA
ENDROOT
BRANCH   1  10
HETATM   10  C11 UNL     1     -23.998  15.642 -95.134  1.00  0.00     0.049 A 
HETATM   11  C10 UNL     1     -24.971  15.432 -96.080  1.00  0.00     0.033 A 
HETATM   12  C9  UNL     1     -26.076  14.620 -95.819  1.00  0.00     0.039 A 
HETATM   13  C8  UNL     1     -26.194  14.016 -94.584  1.00  0.00     0.076 A 
HETATM   14  C16 UNL     1     -25.233  14.209 -93.615  1.00  0.00     0.039 A 
HETATM   15  C15 UNL     1     -24.138  15.026 -93.905  1.00  0.00     0.033 A 
BRANCH  13  16
HETATM   16  O1  UNL     1     -27.294  13.212 -94.332  1.00  0.00    -0.311 OA
BRANCH  16  17
HETATM   17  C7  UNL     1     -28.161  13.436 -93.274  1.00  0.00     0.079 A 
HETATM   18  C6  UNL     1     -28.283  12.527 -92.222  1.00  0.00     0.070 A 
HETATM   19  C5  UNL     1     -29.150  12.763 -91.175  1.00  0.00     0.076 A 
HETATM   20  N7  UNL     1     -29.863  13.904 -91.218  1.00  0.00    -0.363 N 
HETATM   21  C18 UNL     1     -29.760  14.799 -92.227  1.00  0.00     0.091 A 
ATOM     22  H7  UNL     1     -30.510  14.102 -90.455  1.00  0.00     0.165 HD
HETATM   23  C17 UNL     1     -28.906  14.601 -93.292  1.00  0.00     0.054 A 
BRANCH  19  24
HETATM   24  C4  UNL     1     -29.297  11.827 -90.061  1.00  0.00     0.139 C 
HETATM   25  N1  UNL     1     -30.252  11.975 -89.224  1.00  0.00    -0.373 N 
ATOM     26  H1  UNL     1     -30.887  12.760 -89.371  1.00  0.00     0.161 HD
HETATM   27  N2  UNL     1     -28.375  10.766 -89.926  1.00  0.00    -0.081 NA
BRANCH  25  28
HETATM   28  C2  UNL     1     -30.498  11.129 -88.100  1.00  0.00     0.074 C 
HETATM   29  C1  UNL     1     -31.736  10.268 -88.264  1.00  0.00     0.031 C 
HETATM   30  C3  UNL     1     -30.584  11.858 -86.791  1.00  0.00     0.031 C 
ENDBRANCH  25  28
ENDBRANCH  19  24
ENDBRANCH  16  17
ENDBRANCH  13  16
ENDBRANCH   1  10
BRANCH   4  31
HETATM   31  C13 UNL     1     -23.397  19.328 -97.695  1.00  0.00     0.498 C 
HETATM   32  F1  UNL     1     -24.508  19.957 -97.196  1.00  0.00    -0.150 F 
HETATM   33  F2  UNL     1     -23.461  19.192 -99.087  1.00  0.00    -0.150 F 
HETATM   34  F3  UNL     1     -22.282  20.120 -97.441  1.00  0.00    -0.150 F 
ENDBRANCH   4  31
TORSDOF 6
ENDMDL
MODEL 4
REMARK VINA RESULT: -7.512802372      5.103      9.671
REMARK  6 active torsions:
REMARK  status: ('A' for Active; 'I' for Inactive)
REMARK    1  A    between atoms: C2_2  and  N1_4 
REMARK    2  A    between atoms: C4_6  and  C5_8 
REMARK    3  A    between atoms: C7_10  and  O1_11 
REMARK    4  A    between atoms: O1_11  and  C8_12 
REMARK    5  A    between atoms: C11_15  and  N3_16 
REMARK       I    between atoms: N3_16  and  C12_18 
REMARK       I    between atoms: C12_18  and  N5_25 
REMARK    6  A    between atoms: N4_19  and  C13_21 
ROOT
HETATM    1  N3  UNL     1     -28.993  12.428 -92.893  1.00  0.00    -0.191 N 
ATOM      2  H3  UNL     1     -29.160  11.456 -93.152  1.00  0.00     0.184 HD
HETATM    3  C12 UNL     1     -29.765  13.001 -91.851  1.00  0.00     0.694 C 
HETATM    4  N4  UNL     1     -29.283  13.120 -90.662  1.00  0.00    -0.130 N 
ATOM      5  H4  UNL     1     -28.332  12.791 -90.490  1.00  0.00     0.186 HD
HETATM    6  N5  UNL     1     -31.090  13.465 -92.066  1.00  0.00    -0.126 N 
ATOM      7  H5  UNL     1     -31.858  12.993 -91.590  1.00  0.00     0.197 HD
HETATM    8  C14 UNL     1     -31.384  14.559 -92.917  1.00  0.00     0.196 C 
HETATM    9  N6  UNL     1     -31.626  15.439 -93.627  1.00  0.00    -0.171 NA
ENDROOT
BRANCH   1  10
HETATM   10  C11 UNL     1     -28.000  13.157 -93.588  1.00  0.00     0.049 A 
HETATM   11  C10 UNL     1     -28.306  13.866 -94.724  1.00  0.00     0.033 A 
HETATM   12  C9  UNL     1     -27.332  14.588 -95.416  1.00  0.00     0.039 A 
HETATM   13  C8  UNL     1     -26.033  14.590 -94.948  1.00  0.00     0.076 A 
HETATM   14  C16 UNL     1     -25.697  13.887 -93.811  1.00  0.00     0.039 A 
HETATM   15  C15 UNL     1     -26.694  13.174 -93.139  1.00  0.00     0.033 A 
BRANCH  13  16
HETATM   16  O1  UNL     1     -25.072  15.308 -95.640  1.00  0.00    -0.311 OA
BRANCH  16  17
HETATM   17  C7  UNL     1     -24.032  15.972 -95.008  1.00  0.00     0.079 A 
HETATM   18  C6  UNL     1     -24.206  17.238 -94.445  1.00  0.00     0.070 A 
HETATM   19  C5  UNL     1     -23.162  17.887 -93.818  1.00  0.00     0.076 A 
HETATM   20  N7  UNL     1     -21.980  17.244 -93.777  1.00  0.00    -0.363 N 
HETATM   21  C18 UNL     1     -21.790  16.018 -94.316  1.00  0.00     0.091 A 
ATOM     22  H7  UNL     1     -21.193  17.703 -93.319  1.00  0.00     0.165 HD
HETATM   23  C17 UNL     1     -22.807  15.335 -94.951  1.00  0.00     0.054 A 
BRANCH  19  24
HETATM   24  C4  UNL     1     -23.318  19.213 -93.221  1.00  0.00     0.139 C 
HETATM   25  N1  UNL     1     -22.295  19.833 -92.770  1.00  0.00    -0.373 N 
ATOM     26  H1  UNL     1     -21.391  19.367 -92.847  1.00  0.00     0.161 HD
HETATM   27  N2  UNL     1     -24.604  19.790 -93.151  1.00  0.00    -0.081 NA
BRANCH  25  28
HETATM   28  C2  UNL     1     -22.319  21.128 -92.166  1.00  0.00     0.074 C 
HETATM   29  C1  UNL     1     -21.870  22.230 -93.106  1.00  0.00     0.031 C 
HETATM   30  C3  UNL     1     -21.532  21.225 -90.893  1.00  0.00     0.031 C 
ENDBRANCH  25  28
ENDBRANCH  19  24
ENDBRANCH  16  17
ENDBRANCH  13  16
ENDBRANCH   1  10
BRANCH   4  31
HETATM   31  C13 UNL     1     -30.013  13.690 -89.567  1.00  0.00     0.498 C 
HETATM   32  F1  UNL     1     -30.256  15.023 -89.770  1.00  0.00    -0.150 F 
HETATM   33  F2  UNL     1     -29.263  13.471 -88.405  1.00  0.00    -0.150 F 
HETATM   34  F3  UNL     1     -31.226  13.040 -89.364  1.00  0.00    -0.150 F 
ENDBRANCH   4  31
TORSDOF 6
ENDMDL
MODEL 5
REMARK VINA RESULT: -7.459214907      3.082      4.396
REMARK  6 active torsions:
REMARK  status: ('A' for Active; 'I' for Inactive)
REMARK    1  A    between atoms: C2_2  and  N1_4 
REMARK    2  A    between atoms: C4_6  and  C5_8 
REMARK    3  A    between atoms: C7_10  and  O1_11 
REMARK    4  A    between atoms: O1_11  and  C8_12 
REMARK    5  A    between atoms: C11_15  and  N3_16 
REMARK       I    between atoms: N3_16  and  C12_18 
REMARK       I    between atoms: C12_18  and  N5_25 
REMARK    6  A    between atoms: N4_19  and  C13_21 
ROOT
HETATM    1  N3  UNL     1     -24.126  15.840 -96.432  1.00  0.00    -0.191 N 
ATOM      2  H3  UNL     1     -23.472  15.187 -96.865  1.00  0.00     0.184 HD
HETATM    3  C12 UNL     1     -23.871  17.231 -96.532  1.00  0.00     0.694 C 
HETATM    4  N4  UNL     1     -24.492  17.954 -97.399  1.00  0.00    -0.130 N 
ATOM      5  H4  UNL     1     -25.172  17.501 -98.010  1.00  0.00     0.186 HD
HETATM    6  N5  UNL     1     -22.929  17.884 -95.694  1.00  0.00    -0.126 N 
ATOM      7  H5  UNL     1     -22.094  18.289 -96.116  1.00  0.00     0.197 HD
HETATM    8  C14 UNL     1     -23.107  17.994 -94.292  1.00  0.00     0.196 C 
HETATM    9  N6  UNL     1     -23.243  18.068 -93.146  1.00  0.00    -0.171 NA
ENDROOT
BRANCH   1  10
HETATM   10  C11 UNL     1     -25.254  15.325 -95.752  1.00  0.00     0.049 A 
HETATM   11  C10 UNL     1     -25.792  15.982 -94.672  1.00  0.00     0.033 A 
HETATM   12  C9  UNL     1     -26.905  15.481 -93.996  1.00  0.00     0.039 A 
HETATM   13  C8  UNL     1     -27.478  14.299 -94.421  1.00  0.00     0.076 A 
HETATM   14  C16 UNL     1     -26.959  13.618 -95.501  1.00  0.00     0.039 A 
HETATM   15  C15 UNL     1     -25.845  14.144 -96.158  1.00  0.00     0.033 A 
BRANCH  13  16
HETATM   16  O1  UNL     1     -28.583  13.807 -93.744  1.00  0.00    -0.311 OA
BRANCH  16  17
HETATM   17  C7  UNL     1     -28.480  13.080 -92.569  1.00  0.00     0.079 A 
HETATM   18  C6  UNL     1     -29.568  12.920 -91.709  1.00  0.00     0.070 A 
HETATM   19  C5  UNL     1     -29.451  12.193 -90.542  1.00  0.00     0.076 A 
HETATM   20  N7  UNL     1     -28.248  11.651 -90.278  1.00  0.00    -0.363 N 
HETATM   21  C18 UNL     1     -27.181  11.793 -91.097  1.00  0.00     0.091 A 
ATOM     22  H7  UNL     1     -28.136  11.109 -89.422  1.00  0.00     0.165 HD
HETATM   23  C17 UNL     1     -27.255  12.511 -92.273  1.00  0.00     0.054 A 
BRANCH  19  24
HETATM   24  C4  UNL     1     -30.575  12.011 -89.624  1.00  0.00     0.139 C 
HETATM   25  N1  UNL     1     -30.368  11.581 -88.438  1.00  0.00    -0.373 N 
ATOM     26  H1  UNL     1     -29.403  11.378 -88.174  1.00  0.00     0.161 HD
HETATM   27  N2  UNL     1     -31.881  12.314 -90.066  1.00  0.00    -0.081 NA
BRANCH  25  28
HETATM   28  C2  UNL     1     -31.380  11.363 -87.454  1.00  0.00     0.074 C 
HETATM   29  C1  UNL     1     -31.063  12.015 -86.122  1.00  0.00     0.031 C 
HETATM   30  C3  UNL     1     -31.707   9.917 -87.221  1.00  0.00     0.031 C 
ENDBRANCH  25  28
ENDBRANCH  19  24
ENDBRANCH  16  17
ENDBRANCH  13  16
ENDBRANCH   1  10
BRANCH   4  31
HETATM   31  C13 UNL     1     -24.277  19.365 -97.550  1.00  0.00     0.498 C 
HETATM   32  F1  UNL     1     -24.428  20.022 -96.357  1.00  0.00    -0.150 F 
HETATM   33  F2  UNL     1     -25.184  19.825 -98.513  1.00  0.00    -0.150 F 
HETATM   34  F3  UNL     1     -23.012  19.642 -98.056  1.00  0.00    -0.150 F 
ENDBRANCH   4  31
TORSDOF 6
ENDMDL
