MODEL 1
REMARK VINA RESULT: -8.443394776      0.000      0.000
REMARK  8 active torsions:
REMARK  status: ('A' for Active; 'I' for Inactive)
REMARK    1  A    between atoms: C2_2  and  C10_13 
REMARK    2  A    between atoms: C3_3  and  C4_4 
REMARK    3  A    between atoms: C7_7  and  N1_8 
REMARK       I    between atoms: C10_13  and  N2_15 
REMARK    4  A    between atoms: N2_15  and  C11_17 
REMARK    5  A    between atoms: C13_21  and  N4_22 
REMARK    6  A    between atoms: C14_24  and  O4_25 
REMARK    7  A    between atoms: C14_24  and  C15_27 
REMARK    8  A    between atoms: C15_27  and  C16_29 
ROOT
HETATM    1  C11 UNL     1     -25.677  14.854 -94.665  1.00  0.00     0.054 A 
HETATM    2  C12 UNL     1     -25.696  14.777 -96.048  1.00  0.00     0.119 A 
HETATM    3  N3  UNL     1     -24.563  15.299 -96.544  1.00  0.00    -0.350 N 
ATOM      4  H3  UNL     1     -24.341  15.357 -97.538  1.00  0.00     0.166 HD
HETATM    5  C13 UNL     1     -23.765  15.732 -95.567  1.00  0.00     0.109 A 
HETATM    6  C17 UNL     1     -24.489  15.441 -94.373  1.00  0.00     0.079 A 
ENDROOT
BRANCH   1   7
HETATM    7  N2  UNL     1     -26.728  14.398 -93.804  1.00  0.00    -0.322 N 
HETATM    8  C10 UNL     1     -26.718  13.137 -93.223  1.00  0.00     0.251 C 
HETATM    9  O3  UNL     1     -25.796  12.325 -93.417  1.00  0.00    -0.268 OA
ATOM     10  H2  UNL     1     -27.512  15.021 -93.611  1.00  0.00     0.169 HD
BRANCH   8  11
HETATM   11  C2  UNL     1     -27.821  12.698 -92.336  1.00  0.00     0.007 C 
HETATM   12  C1  UNL     1     -29.209  12.638 -92.862  1.00  0.00     0.054 C 
HETATM   13  C3  UNL     1     -27.546  12.366 -91.093  1.00  0.00     0.023 C 
BRANCH  13  14
HETATM   14  C4  UNL     1     -28.485  11.912 -90.102  1.00  0.00    -0.035 A 
HETATM   15  C5  UNL     1     -29.097  12.842 -89.253  1.00  0.00     0.014 A 
HETATM   16  C6  UNL     1     -29.995  12.447 -88.261  1.00  0.00     0.037 A 
HETATM   17  C7  UNL     1     -30.298  11.113 -88.100  1.00  0.00     0.102 A 
HETATM   18  C8  UNL     1     -29.703  10.169 -88.934  1.00  0.00     0.037 A 
HETATM   19  C9  UNL     1     -28.814  10.592 -89.909  1.00  0.00     0.014 A 
BRANCH  17  20
HETATM   20  N1  UNL     1     -31.215  10.695 -87.089  1.00  0.00    -0.116 N 
HETATM   21  O1  UNL     1     -31.318  11.376 -86.052  1.00  0.00    -0.532 OA
HETATM   22  O2  UNL     1     -31.980   9.573 -87.222  1.00  0.00    -0.532 OA
ENDBRANCH  17  20
ENDBRANCH  13  14
ENDBRANCH   8  11
ENDBRANCH   1   7
BRANCH   5  23
HETATM   23  N4  UNL     1     -22.488  16.337 -95.565  1.00  0.00    -0.320 N 
HETATM   24  C14 UNL     1     -22.019  17.492 -96.101  1.00  0.00     0.198 C 
ATOM     25  H4  UNL     1     -21.781  15.801 -95.062  1.00  0.00     0.169 HD
BRANCH  24  26
HETATM   26  O4  UNL     1     -20.703  17.655 -95.843  1.00  0.00    -0.343 OA
ATOM     27  H4  UNL     1     -20.556  17.905 -94.938  1.00  0.00     0.219 HD
ENDBRANCH  24  26
BRANCH  24  28
HETATM   28  C15 UNL     1     -22.510  18.584 -96.857  1.00  0.00     0.305 C 
HETATM   29  O5  UNL     1     -22.004  19.161 -97.829  1.00  0.00    -0.279 OA
BRANCH  28  30
HETATM   30  C16 UNL     1     -23.865  19.193 -96.469  1.00  0.00     0.459 C 
HETATM   31  F1  UNL     1     -24.047  19.095 -95.116  1.00  0.00    -0.163 F 
HETATM   32  F2  UNL     1     -24.830  18.502 -97.150  1.00  0.00    -0.163 F 
HETATM   33  F3  UNL     1     -23.858  20.509 -96.806  1.00  0.00    -0.163 F 
ENDBRANCH  28  30
ENDBRANCH  24  28
ENDBRANCH   5  23
TORSDOF 8
ENDMDL
MODEL 2
REMARK VINA RESULT: -8.283067140      0.097      1.147
REMARK  8 active torsions:
REMARK  status: ('A' for Active; 'I' for Inactive)
REMARK    1  A    between atoms: C2_2  and  C10_13 
REMARK    2  A    between atoms: C3_3  and  C4_4 
REMARK    3  A    between atoms: C7_7  and  N1_8 
REMARK       I    between atoms: C10_13  and  N2_15 
REMARK    4  A    between atoms: N2_15  and  C11_17 
REMARK    5  A    between atoms: C13_21  and  N4_22 
REMARK    6  A    between atoms: C14_24  and  O4_25 
REMARK    7  A    between atoms: C14_24  and  C15_27 
REMARK    8  A    between atoms: C15_27  and  C16_29 
ROOT
HETATM    1  C11 UNL     1     -25.671  14.880 -94.657  1.00  0.00     0.054 A 
HETATM    2  C12 UNL     1     -25.693  14.788 -96.039  1.00  0.00     0.119 A 
HETATM    3  N3  UNL     1     -24.560  15.304 -96.543  1.00  0.00    -0.350 N 
ATOM      4  H3  UNL     1     -24.340  15.350 -97.538  1.00  0.00     0.166 HD
HETATM    5  C13 UNL     1     -23.761  15.748 -95.573  1.00  0.00     0.109 A 
HETATM    6  C17 UNL     1     -24.483  15.471 -94.374  1.00  0.00     0.079 A 
ENDROOT
BRANCH   1   7
HETATM    7  N2  UNL     1     -26.722  14.434 -93.789  1.00  0.00    -0.322 N 
HETATM    8  C10 UNL     1     -26.734  13.163 -93.231  1.00  0.00     0.251 C 
HETATM    9  O3  UNL     1     -25.835  12.333 -93.452  1.00  0.00    -0.268 OA
ATOM     10  H2  UNL     1     -27.487  15.073 -93.574  1.00  0.00     0.169 HD
BRANCH   8  11
HETATM   11  C2  UNL     1     -27.834  12.735 -92.336  1.00  0.00     0.007 C 
HETATM   12  C1  UNL     1     -29.222  12.656 -92.861  1.00  0.00     0.054 C 
HETATM   13  C3  UNL     1     -27.558  12.429 -91.086  1.00  0.00     0.023 C 
BRANCH  13  14
HETATM   14  C4  UNL     1     -28.495  11.989 -90.087  1.00  0.00    -0.035 A 
HETATM   15  C5  UNL     1     -28.779  10.625 -89.958  1.00  0.00     0.014 A 
HETATM   16  C6  UNL     1     -29.699  10.154 -89.021  1.00  0.00     0.037 A 
HETATM   17  C7  UNL     1     -30.351  11.042 -88.193  1.00  0.00     0.102 A 
HETATM   18  C8  UNL     1     -30.084  12.404 -88.301  1.00  0.00     0.037 A 
HETATM   19  C9  UNL     1     -29.166  12.841 -89.243  1.00  0.00     0.014 A 
BRANCH  17  20
HETATM   20  N1  UNL     1     -31.294  10.573 -87.230  1.00  0.00    -0.116 N 
HETATM   21  O1  UNL     1     -31.366  11.149 -86.128  1.00  0.00    -0.532 OA
HETATM   22  O2  UNL     1     -32.119   9.514 -87.477  1.00  0.00    -0.532 OA
ENDBRANCH  17  20
ENDBRANCH  13  14
ENDBRANCH   8  11
ENDBRANCH   1   7
BRANCH   5  23
HETATM   23  N4  UNL     1     -22.484  16.354 -95.579  1.00  0.00    -0.320 N 
HETATM   24  C14 UNL     1     -22.019  17.509 -96.118  1.00  0.00     0.198 C 
ATOM     25  H4  UNL     1     -21.774  15.818 -95.081  1.00  0.00     0.169 HD
BRANCH  24  26
HETATM   26  O4  UNL     1     -20.702  17.672 -95.870  1.00  0.00    -0.343 OA
ATOM     27  H4  UNL     1     -20.224  17.891 -96.662  1.00  0.00     0.219 HD
ENDBRANCH  24  26
BRANCH  24  28
HETATM   28  C15 UNL     1     -22.515  18.601 -96.871  1.00  0.00     0.305 C 
HETATM   29  O5  UNL     1     -22.010  19.188 -97.838  1.00  0.00    -0.279 OA
BRANCH  28  30
HETATM   30  C16 UNL     1     -23.878  19.196 -96.486  1.00  0.00     0.459 C 
HETATM   31  F1  UNL     1     -23.941  20.504 -96.884  1.00  0.00    -0.163 F 
HETATM   32  F2  UNL     1     -24.000  19.084 -95.128  1.00  0.00    -0.163 F 
HETATM   33  F3  UNL     1     -24.849  18.503 -97.137  1.00  0.00    -0.163 F 
ENDBRANCH  28  30
ENDBRANCH  24  28
ENDBRANCH   5  23
TORSDOF 8
ENDMDL
MODEL 3
REMARK VINA RESULT: -8.264010574      0.900      1.368
REMARK  8 active torsions:
REMARK  status: ('A' for Active; 'I' for Inactive)
REMARK    1  A    between atoms: C2_2  and  C10_13 
REMARK    2  A    between atoms: C3_3  and  C4_4 
REMARK    3  A    between atoms: C7_7  and  N1_8 
REMARK       I    between atoms: C10_13  and  N2_15 
REMARK    4  A    between atoms: N2_15  and  C11_17 
REMARK    5  A    between atoms: C13_21  and  N4_22 
REMARK    6  A    between atoms: C14_24  and  O4_25 
REMARK    7  A    between atoms: C14_24  and  C15_27 
REMARK    8  A    between atoms: C15_27  and  C16_29 
ROOT
HETATM    1  C11 UNL     1     -26.033  14.765 -94.819  1.00  0.00     0.054 A 
HETATM    2  C12 UNL     1     -25.963  14.380 -96.148  1.00  0.00     0.119 A 
HETATM    3  N3  UNL     1     -24.906  14.966 -96.732  1.00  0.00    -0.350 N 
ATOM      4  H3  UNL     1     -24.642  14.839 -97.710  1.00  0.00     0.166 HD
HETATM    5  C13 UNL     1     -24.245  15.738 -95.868  1.00  0.00     0.109 A 
HETATM    6  C17 UNL     1     -24.977  15.599 -94.651  1.00  0.00     0.079 A 
ENDROOT
BRANCH   1   7
HETATM    7  N2  UNL     1     -27.041  14.337 -93.894  1.00  0.00    -0.322 N 
HETATM    8  C10 UNL     1     -26.957  13.131 -93.211  1.00  0.00     0.251 C 
HETATM    9  O3  UNL     1     -26.004  12.347 -93.363  1.00  0.00    -0.268 OA
ATOM     10  H2  UNL     1     -27.847  14.939 -93.731  1.00  0.00     0.169 HD
BRANCH   8  11
HETATM   11  C2  UNL     1     -28.017  12.720 -92.260  1.00  0.00     0.007 C 
HETATM   12  C1  UNL     1     -29.429  12.652 -92.715  1.00  0.00     0.054 C 
HETATM   13  C3  UNL     1     -27.682  12.418 -91.023  1.00  0.00     0.023 C 
BRANCH  13  14
HETATM   14  C4  UNL     1     -28.572  11.995 -89.976  1.00  0.00    -0.035 A 
HETATM   15  C5  UNL     1     -28.892  10.639 -89.847  1.00  0.00     0.014 A 
HETATM   16  C6  UNL     1     -29.770  10.184 -88.862  1.00  0.00     0.037 A 
HETATM   17  C7  UNL     1     -30.343  11.080 -87.987  1.00  0.00     0.102 A 
HETATM   18  C8  UNL     1     -30.040  12.435 -88.095  1.00  0.00     0.037 A 
HETATM   19  C9  UNL     1     -29.165  12.855 -89.083  1.00  0.00     0.014 A 
BRANCH  17  20
HETATM   20  N1  UNL     1     -31.243  10.628 -86.975  1.00  0.00    -0.116 N 
HETATM   21  O1  UNL     1     -31.447  11.352 -85.983  1.00  0.00    -0.532 OA
HETATM   22  O2  UNL     1     -31.887   9.428 -87.061  1.00  0.00    -0.532 OA
ENDBRANCH  17  20
ENDBRANCH  13  14
ENDBRANCH   8  11
ENDBRANCH   1   7
BRANCH   5  23
HETATM   23  N4  UNL     1     -23.089  16.541 -95.984  1.00  0.00    -0.320 N 
HETATM   24  C14 UNL     1     -22.910  17.880 -96.113  1.00  0.00     0.198 C 
ATOM     25  H4  UNL     1     -22.218  16.010 -95.966  1.00  0.00     0.169 HD
BRANCH  24  26
HETATM   26  O4  UNL     1     -21.599  18.195 -96.199  1.00  0.00    -0.343 OA
ATOM     27  H4  UNL     1     -21.245  17.977 -97.053  1.00  0.00     0.219 HD
ENDBRANCH  24  26
BRANCH  24  28
HETATM   28  C15 UNL     1     -23.702  19.051 -96.186  1.00  0.00     0.305 C 
HETATM   29  O5  UNL     1     -24.099  19.793 -95.278  1.00  0.00    -0.279 OA
BRANCH  28  30
HETATM   30  C16 UNL     1     -24.176  19.529 -97.567  1.00  0.00     0.459 C 
HETATM   31  F1  UNL     1     -25.202  20.424 -97.421  1.00  0.00    -0.163 F 
HETATM   32  F2  UNL     1     -24.578  18.423 -98.263  1.00  0.00    -0.163 F 
HETATM   33  F3  UNL     1     -23.142  20.161 -98.182  1.00  0.00    -0.163 F 
ENDBRANCH  28  30
ENDBRANCH  24  28
ENDBRANCH   5  23
TORSDOF 8
ENDMDL
MODEL 4
REMARK VINA RESULT: -8.252210740      1.149      1.430
REMARK  8 active torsions:
REMARK  status: ('A' for Active; 'I' for Inactive)
REMARK    1  A    between atoms: C2_2  and  C10_13 
REMARK    2  A    between atoms: C3_3  and  C4_4 
REMARK    3  A    between atoms: C7_7  and  N1_8 
REMARK       I    between atoms: C10_13  and  N2_15 
REMARK    4  A    between atoms: N2_15  and  C11_17 
REMARK    5  A    between atoms: C13_21  and  N4_22 
REMARK    6  A    between atoms: C14_24  and  O4_25 
REMARK    7  A    between atoms: C14_24  and  C15_27 
REMARK    8  A    between atoms: C15_27  and  C16_29 
ROOT
HETATM    1  C11 UNL     1     -25.636  14.845 -94.648  1.00  0.00     0.054 A 
HETATM    2  C12 UNL     1     -25.674  14.831 -96.032  1.00  0.00     0.119 A 
HETATM    3  N3  UNL     1     -24.525  15.327 -96.520  1.00  0.00    -0.350 N 
ATOM      4  H3  UNL     1     -24.312  15.420 -97.513  1.00  0.00     0.166 HD
HETATM    5  C13 UNL     1     -23.700  15.684 -95.535  1.00  0.00     0.109 A 
HETATM    6  C17 UNL     1     -24.423  15.370 -94.346  1.00  0.00     0.079 A 
ENDROOT
BRANCH   1   7
HETATM    7  N2  UNL     1     -26.697  14.395 -93.795  1.00  0.00    -0.322 N 
HETATM    8  C10 UNL     1     -26.691  13.139 -93.202  1.00  0.00     0.251 C 
HETATM    9  O3  UNL     1     -25.765  12.328 -93.379  1.00  0.00    -0.268 OA
ATOM     10  H2  UNL     1     -27.483  15.019 -93.616  1.00  0.00     0.169 HD
BRANCH   8  11
HETATM   11  C2  UNL     1     -27.803  12.707 -92.324  1.00  0.00     0.007 C 
HETATM   12  C1  UNL     1     -29.191  12.686 -92.850  1.00  0.00     0.054 C 
HETATM   13  C3  UNL     1     -27.535  12.344 -91.087  1.00  0.00     0.023 C 
BRANCH  13  14
HETATM   14  C4  UNL     1     -28.483  11.891 -90.105  1.00  0.00    -0.035 A 
HETATM   15  C5  UNL     1     -29.103  12.820 -89.263  1.00  0.00     0.014 A 
HETATM   16  C6  UNL     1     -30.010  12.426 -88.279  1.00  0.00     0.037 A 
HETATM   17  C7  UNL     1     -30.314  11.092 -88.121  1.00  0.00     0.102 A 
HETATM   18  C8  UNL     1     -29.711  10.147 -88.948  1.00  0.00     0.037 A 
HETATM   19  C9  UNL     1     -28.814  10.571 -89.915  1.00  0.00     0.014 A 
BRANCH  17  20
HETATM   20  N1  UNL     1     -31.240  10.674 -87.118  1.00  0.00    -0.116 N 
HETATM   21  O1  UNL     1     -31.330  11.337 -86.067  1.00  0.00    -0.532 OA
HETATM   22  O2  UNL     1     -32.030   9.572 -87.273  1.00  0.00    -0.532 OA
ENDBRANCH  17  20
ENDBRANCH  13  14
ENDBRANCH   8  11
ENDBRANCH   1   7
BRANCH   5  23
HETATM   23  N4  UNL     1     -22.399  16.236 -95.522  1.00  0.00    -0.320 N 
HETATM   24  C14 UNL     1     -21.937  17.491 -95.292  1.00  0.00     0.198 C 
ATOM     25  H4  UNL     1     -21.664  15.559 -95.726  1.00  0.00     0.169 HD
BRANCH  24  26
HETATM   26  O4  UNL     1     -20.592  17.547 -95.398  1.00  0.00    -0.343 OA
ATOM     27  H4  UNL     1     -20.264  18.416 -95.198  1.00  0.00     0.219 HD
ENDBRANCH  24  26
BRANCH  24  28
HETATM   28  C15 UNL     1     -22.457  18.768 -94.972  1.00  0.00     0.305 C 
HETATM   29  O5  UNL     1     -22.364  19.836 -95.592  1.00  0.00    -0.279 OA
BRANCH  28  30
HETATM   30  C16 UNL     1     -23.268  18.925 -93.677  1.00  0.00     0.459 C 
HETATM   31  F1  UNL     1     -23.120  20.195 -93.188  1.00  0.00    -0.163 F 
HETATM   32  F2  UNL     1     -22.799  17.994 -92.791  1.00  0.00    -0.163 F 
HETATM   33  F3  UNL     1     -24.581  18.727 -93.965  1.00  0.00    -0.163 F 
ENDBRANCH  28  30
ENDBRANCH  24  28
ENDBRANCH   5  23
TORSDOF 8
ENDMDL
MODEL 5
REMARK VINA RESULT: -8.228686072      1.302      1.745
REMARK  8 active torsions:
REMARK  status: ('A' for Active; 'I' for Inactive)
REMARK    1  A    between atoms: C2_2  and  C10_13 
REMARK    2  A    between atoms: C3_3  and  C4_4 
REMARK    3  A    between atoms: C7_7  and  N1_8 
REMARK       I    between atoms: C10_13  and  N2_15 
REMARK    4  A    between atoms: N2_15  and  C11_17 
REMARK    5  A    between atoms: C13_21  and  N4_22 
REMARK    6  A    between atoms: C14_24  and  O4_25 
REMARK    7  A    between atoms: C14_24  and  C15_27 
REMARK    8  A    between atoms: C15_27  and  C16_29 
ROOT
HETATM    1  C11 UNL     1     -25.984  14.778 -94.791  1.00  0.00     0.054 A 
HETATM    2  C12 UNL     1     -25.932  14.443 -96.134  1.00  0.00     0.119 A 
HETATM    3  N3  UNL     1     -24.864  15.025 -96.703  1.00  0.00    -0.350 N 
ATOM      4  H3  UNL     1     -24.610  14.929 -97.686  1.00  0.00     0.166 HD
HETATM    5  C13 UNL     1     -24.180  15.747 -95.814  1.00  0.00     0.109 A 
HETATM    6  C17 UNL     1     -24.907  15.580 -94.598  1.00  0.00     0.079 A 
ENDROOT
BRANCH   1   7
HETATM    7  N2  UNL     1     -26.997  14.340 -93.876  1.00  0.00    -0.322 N 
HETATM    8  C10 UNL     1     -26.927  13.117 -93.222  1.00  0.00     0.251 C 
HETATM    9  O3  UNL     1     -25.982  12.327 -93.393  1.00  0.00    -0.268 OA
ATOM     10  H2  UNL     1     -27.796  14.947 -93.699  1.00  0.00     0.169 HD
BRANCH   8  11
HETATM   11  C2  UNL     1     -27.990  12.696 -92.280  1.00  0.00     0.007 C 
HETATM   12  C1  UNL     1     -29.394  12.592 -92.754  1.00  0.00     0.054 C 
HETATM   13  C3  UNL     1     -27.666  12.416 -91.035  1.00  0.00     0.023 C 
BRANCH  13  14
HETATM   14  C4  UNL     1     -28.562  11.987 -89.995  1.00  0.00    -0.035 A 
HETATM   15  C5  UNL     1     -28.856  10.626 -89.854  1.00  0.00     0.014 A 
HETATM   16  C6  UNL     1     -29.738  10.165 -88.876  1.00  0.00     0.037 A 
HETATM   17  C7  UNL     1     -30.342  11.059 -88.019  1.00  0.00     0.102 A 
HETATM   18  C8  UNL     1     -30.064  12.419 -88.139  1.00  0.00     0.037 A 
HETATM   19  C9  UNL     1     -29.185  12.845 -89.121  1.00  0.00     0.014 A 
BRANCH  17  20
HETATM   20  N1  UNL     1     -31.246  10.601 -87.015  1.00  0.00    -0.116 N 
HETATM   21  O1  UNL     1     -31.341  11.243 -85.952  1.00  0.00    -0.532 OA
HETATM   22  O2  UNL     1     -32.009   9.481 -87.181  1.00  0.00    -0.532 OA
ENDBRANCH  17  20
ENDBRANCH  13  14
ENDBRANCH   8  11
ENDBRANCH   1   7
BRANCH   5  23
HETATM   23  N4  UNL     1     -23.005  16.526 -95.908  1.00  0.00    -0.320 N 
HETATM   24  C14 UNL     1     -22.732  17.818 -95.595  1.00  0.00     0.198 C 
ATOM     25  H4  UNL     1     -22.205  16.017 -96.284  1.00  0.00     0.169 HD
BRANCH  24  26
HETATM   26  O4  UNL     1     -21.447  18.130 -95.869  1.00  0.00    -0.343 OA
ATOM     27  H4  UNL     1     -20.909  18.099 -95.086  1.00  0.00     0.219 HD
ENDBRANCH  24  26
BRANCH  24  28
HETATM   28  C15 UNL     1     -23.407  18.943 -95.062  1.00  0.00     0.305 C 
HETATM   29  O5  UNL     1     -24.086  19.803 -95.641  1.00  0.00    -0.279 OA
BRANCH  28  30
HETATM   30  C16 UNL     1     -23.329  19.195 -93.550  1.00  0.00     0.459 C 
HETATM   31  F1  UNL     1     -23.182  18.006 -92.888  1.00  0.00    -0.163 F 
HETATM   32  F2  UNL     1     -24.485  19.827 -93.184  1.00  0.00    -0.163 F 
HETATM   33  F3  UNL     1     -22.236  19.963 -93.298  1.00  0.00    -0.163 F 
ENDBRANCH  28  30
ENDBRANCH  24  28
ENDBRANCH   5  23
TORSDOF 8
ENDMDL
