MODEL 1
REMARK VINA RESULT: -7.307606290      0.000      0.000
REMARK  10 active torsions:
REMARK  status: ('A' for Active; 'I' for Inactive)
REMARK    1  A    between atoms: C3_3  and  C6_6 
REMARK    2  A    between atoms: C6_6  and  C7_7 
REMARK    3  A    between atoms: C7_7  and  O1_8 
REMARK    4  A    between atoms: C7_7  and  C19_29 
REMARK    5  A    between atoms: O1_8  and  C8_9 
REMARK    6  A    between atoms: C11_12  and  N1_13 
REMARK    7  A    between atoms: N1_13  and  C12_15 
REMARK    8  A    between atoms: C13_18  and  C14_19 
REMARK    9  A    between atoms: C19_29  and  O2_30 
REMARK   10  A    between atoms: N4_32  and  O3_34 
ROOT
HETATM    1  C1  UNL     1     -29.293  16.236 -93.169  1.00  0.00     0.013 C 
HETATM    2  C2  UNL     1     -29.807  15.342 -92.529  1.00  0.00    -0.108 C 
HETATM    3  C3  UNL     1     -30.389  14.292 -91.728  1.00  0.00     0.018 C 
HETATM    4  C4  UNL     1     -31.884  14.354 -91.932  1.00  0.00     0.029 C 
HETATM    5  C5  UNL     1     -30.186  14.640 -90.236  1.00  0.00     0.029 C 
ENDROOT
BRANCH   3   6
HETATM    6  C6  UNL     1     -29.830  12.938 -91.926  1.00  0.00     0.062 C 
BRANCH   6   7
HETATM    7  C7  UNL     1     -28.464  12.606 -91.484  1.00  0.00     0.206 C 
BRANCH   7   8
HETATM    8  O1  UNL     1     -27.718  12.330 -92.654  1.00  0.00    -0.338 OA
BRANCH   8   9
HETATM    9  C8  UNL     1     -26.932  13.099 -93.417  1.00  0.00     0.070 A 
HETATM   10  C9  UNL     1     -25.675  13.566 -93.134  1.00  0.00     0.039 A 
HETATM   11  C10 UNL     1     -24.969  14.353 -94.045  1.00  0.00     0.033 A 
HETATM   12  C11 UNL     1     -25.486  14.706 -95.274  1.00  0.00     0.049 A 
HETATM   13  C17 UNL     1     -26.794  14.232 -95.581  1.00  0.00     0.033 A 
HETATM   14  C18 UNL     1     -27.461  13.462 -94.666  1.00  0.00     0.039 A 
BRANCH  12  15
HETATM   15  N1  UNL     1     -24.834  15.430 -96.255  1.00  0.00    -0.192 N 
ATOM     16  H1  UNL     1     -24.898  14.975 -97.166  1.00  0.00     0.184 HD
BRANCH  15  17
HETATM   17  C12 UNL     1     -24.193  16.488 -96.315  1.00  0.00     0.683 A 
HETATM   18  N2  UNL     1     -24.544  17.654 -96.881  1.00  0.00    -0.186 N 
HETATM   19  C13 UNL     1     -23.803  18.737 -96.924  1.00  0.00     0.133 A 
ATOM     20  H2  UNL     1     -25.465  17.702 -97.314  1.00  0.00     0.184 HD
HETATM   21  C15 UNL     1     -22.543  18.705 -96.348  1.00  0.00     0.052 A 
HETATM   22  C16 UNL     1     -22.134  17.533 -95.753  1.00  0.00     0.108 A 
HETATM   23  N3  UNL     1     -22.944  16.472 -95.745  1.00  0.00    -0.202 N 
ATOM     24  H3  UNL     1     -22.622  15.615 -95.298  1.00  0.00     0.183 HD
BRANCH  19  25
HETATM   25  C14 UNL     1     -24.231  19.998 -97.556  1.00  0.00     0.433 C 
HETATM   26  F1  UNL     1     -24.547  20.970 -96.598  1.00  0.00    -0.165 F 
HETATM   27  F2  UNL     1     -23.160  20.507 -98.318  1.00  0.00    -0.165 F 
HETATM   28  F3  UNL     1     -25.293  19.844 -98.428  1.00  0.00    -0.165 F 
ENDBRANCH  19  25
ENDBRANCH  15  17
ENDBRANCH  12  15
ENDBRANCH   8   9
ENDBRANCH   7   8
BRANCH   7  29
HETATM   29  C19 UNL     1     -28.344  11.314 -90.711  1.00  0.00     0.165 C 
HETATM   30  N4  UNL     1     -27.224  11.028 -90.167  1.00  0.00    -0.249 N 
ATOM     31  H4  UNL     1     -27.167  10.149 -89.653  1.00  0.00     0.196 HD
BRANCH  29  32
HETATM   32  O2  UNL     1     -29.426  10.488 -90.614  1.00  0.00    -0.346 OA
ATOM     33  H2  UNL     1     -29.651   9.926 -91.346  1.00  0.00     0.219 HD
ENDBRANCH  29  32
BRANCH  30  34
HETATM   34  O3  UNL     1     -26.107  11.792 -90.213  1.00  0.00    -0.288 OA
ATOM     35  H3  UNL     1     -25.482  11.902 -89.506  1.00  0.00     0.244 HD
ENDBRANCH  30  34
ENDBRANCH   7  29
ENDBRANCH   6   7
ENDBRANCH   3   6
TORSDOF 10
ENDMDL
MODEL 2
REMARK VINA RESULT: -7.297998621      4.866      8.950
REMARK  10 active torsions:
REMARK  status: ('A' for Active; 'I' for Inactive)
REMARK    1  A    between atoms: C3_3  and  C6_6 
REMARK    2  A    between atoms: C6_6  and  C7_7 
REMARK    3  A    between atoms: C7_7  and  O1_8 
REMARK    4  A    between atoms: C7_7  and  C19_29 
REMARK    5  A    between atoms: O1_8  and  C8_9 
REMARK    6  A    between atoms: C11_12  and  N1_13 
REMARK    7  A    between atoms: N1_13  and  C12_15 
REMARK    8  A    between atoms: C13_18  and  C14_19 
REMARK    9  A    between atoms: C19_29  and  O2_30 
REMARK   10  A    between atoms: N4_32  and  O3_34 
ROOT
HETATM    1  C1  UNL     1     -22.668  18.741 -92.463  1.00  0.00     0.013 C 
HETATM    2  C2  UNL     1     -21.607  19.072 -92.951  1.00  0.00    -0.108 C 
HETATM    3  C3  UNL     1     -20.369  19.505 -93.552  1.00  0.00     0.018 C 
HETATM    4  C4  UNL     1     -19.305  19.433 -92.483  1.00  0.00     0.029 C 
HETATM    5  C5  UNL     1     -20.482  21.009 -93.887  1.00  0.00     0.029 C 
ENDROOT
BRANCH   3   6
HETATM    6  C6  UNL     1     -19.982  18.822 -94.805  1.00  0.00     0.062 C 
BRANCH   6   7
HETATM    7  C7  UNL     1     -20.870  18.823 -95.979  1.00  0.00     0.206 C 
BRANCH   7   8
HETATM    8  O1  UNL     1     -21.334  17.496 -96.137  1.00  0.00    -0.338 OA
BRANCH   8   9
HETATM    9  C8  UNL     1     -22.454  16.885 -95.734  1.00  0.00     0.070 A 
HETATM   10  C9  UNL     1     -23.738  17.110 -96.155  1.00  0.00     0.039 A 
HETATM   11  C10 UNL     1     -24.811  16.376 -95.648  1.00  0.00     0.033 A 
HETATM   12  C11 UNL     1     -24.648  15.388 -94.700  1.00  0.00     0.049 A 
HETATM   13  C17 UNL     1     -23.319  15.144 -94.248  1.00  0.00     0.033 A 
HETATM   14  C18 UNL     1     -22.288  15.882 -94.766  1.00  0.00     0.039 A 
BRANCH  12  15
HETATM   15  N1  UNL     1     -25.644  14.575 -94.190  1.00  0.00    -0.192 N 
ATOM     16  H1  UNL     1     -25.258  13.782 -93.677  1.00  0.00     0.184 HD
BRANCH  15  17
HETATM   17  C12 UNL     1     -26.882  14.561 -94.193  1.00  0.00     0.683 A 
HETATM   18  N2  UNL     1     -27.735  15.507 -93.770  1.00  0.00    -0.186 N 
HETATM   19  C13 UNL     1     -29.045  15.420 -93.787  1.00  0.00     0.133 A 
ATOM     20  H2  UNL     1     -27.331  16.369 -93.404  1.00  0.00     0.184 HD
HETATM   21  C15 UNL     1     -29.628  14.261 -94.274  1.00  0.00     0.052 A 
HETATM   22  C16 UNL     1     -28.798  13.259 -94.723  1.00  0.00     0.108 A 
HETATM   23  N3  UNL     1     -27.474  13.421 -94.677  1.00  0.00    -0.202 N 
ATOM     24  H3  UNL     1     -26.877  12.667 -95.016  1.00  0.00     0.183 HD
BRANCH  19  25
HETATM   25  C14 UNL     1     -29.945  16.486 -93.312  1.00  0.00     0.433 C 
HETATM   26  F1  UNL     1     -30.851  16.873 -94.307  1.00  0.00    -0.165 F 
HETATM   27  F2  UNL     1     -30.705  15.989 -92.235  1.00  0.00    -0.165 F 
HETATM   28  F3  UNL     1     -29.275  17.600 -92.838  1.00  0.00    -0.165 F 
ENDBRANCH  19  25
ENDBRANCH  15  17
ENDBRANCH  12  15
ENDBRANCH   8   9
ENDBRANCH   7   8
BRANCH   7  29
HETATM   29  C19 UNL     1     -20.180  19.083 -97.297  1.00  0.00     0.165 C 
HETATM   30  N4  UNL     1     -20.894  19.375 -98.316  1.00  0.00    -0.249 N 
ATOM     31  H4  UNL     1     -20.405  19.543 -99.195  1.00  0.00     0.196 HD
BRANCH  29  32
HETATM   32  O2  UNL     1     -18.820  19.001 -97.369  1.00  0.00    -0.346 OA
ATOM     33  H2  UNL     1     -18.420  18.248 -97.786  1.00  0.00     0.219 HD
ENDBRANCH  29  32
BRANCH  30  34
HETATM   34  O3  UNL     1     -22.244  19.479 -98.328  1.00  0.00    -0.288 OA
ATOM     35  H3  UNL     1     -22.742  20.164 -98.759  1.00  0.00     0.244 HD
ENDBRANCH  30  34
ENDBRANCH   7  29
ENDBRANCH   6   7
ENDBRANCH   3   6
TORSDOF 10
ENDMDL
MODEL 3
REMARK VINA RESULT: -7.294652123      1.706      2.186
REMARK  10 active torsions:
REMARK  status: ('A' for Active; 'I' for Inactive)
REMARK    1  A    between atoms: C3_3  and  C6_6 
REMARK    2  A    between atoms: C6_6  and  C7_7 
REMARK    3  A    between atoms: C7_7  and  O1_8 
REMARK    4  A    between atoms: C7_7  and  C19_29 
REMARK    5  A    between atoms: O1_8  and  C8_9 
REMARK    6  A    between atoms: C11_12  and  N1_13 
REMARK    7  A    between atoms: N1_13  and  C12_15 
REMARK    8  A    between atoms: C13_18  and  C14_19 
REMARK    9  A    between atoms: C19_29  and  O2_30 
REMARK   10  A    between atoms: N4_32  and  O3_34 
ROOT
HETATM    1  C1  UNL     1     -29.422  16.288 -93.122  1.00  0.00     0.013 C 
HETATM    2  C2  UNL     1     -29.864  15.338 -92.508  1.00  0.00    -0.108 C 
HETATM    3  C3  UNL     1     -30.361  14.223 -91.740  1.00  0.00     0.018 C 
HETATM    4  C4  UNL     1     -31.860  14.191 -91.920  1.00  0.00     0.029 C 
HETATM    5  C5  UNL     1     -30.157  14.528 -90.239  1.00  0.00     0.029 C 
ENDROOT
BRANCH   3   6
HETATM    6  C6  UNL     1     -29.716  12.918 -91.996  1.00  0.00     0.062 C 
BRANCH   6   7
HETATM    7  C7  UNL     1     -28.343  12.644 -91.539  1.00  0.00     0.206 C 
BRANCH   7   8
HETATM    8  O1  UNL     1     -27.568  12.414 -92.699  1.00  0.00    -0.338 OA
BRANCH   8   9
HETATM    9  C8  UNL     1     -26.815  13.227 -93.449  1.00  0.00     0.070 A 
HETATM   10  C9  UNL     1     -25.554  13.693 -93.184  1.00  0.00     0.039 A 
HETATM   11  C10 UNL     1     -24.885  14.531 -94.078  1.00  0.00     0.033 A 
HETATM   12  C11 UNL     1     -25.445  14.938 -95.270  1.00  0.00     0.049 A 
HETATM   13  C17 UNL     1     -26.757  14.466 -95.558  1.00  0.00     0.033 A 
HETATM   14  C18 UNL     1     -27.387  13.645 -94.661  1.00  0.00     0.039 A 
BRANCH  12  15
HETATM   15  N1  UNL     1     -24.831  15.715 -96.236  1.00  0.00    -0.192 N 
ATOM     16  H1  UNL     1     -25.034  15.378 -97.177  1.00  0.00     0.184 HD
BRANCH  15  17
HETATM   17  C12 UNL     1     -24.100  16.715 -96.254  1.00  0.00     0.683 A 
HETATM   18  N2  UNL     1     -22.984  16.953 -95.548  1.00  0.00    -0.186 N 
HETATM   19  C13 UNL     1     -22.262  18.048 -95.603  1.00  0.00     0.133 A 
ATOM     20  H2  UNL     1     -22.669  16.219 -94.913  1.00  0.00     0.184 HD
HETATM   21  C15 UNL     1     -22.663  19.067 -96.451  1.00  0.00     0.052 A 
HETATM   22  C16 UNL     1     -23.802  18.874 -97.201  1.00  0.00     0.108 A 
HETATM   23  N3  UNL     1     -24.483  17.731 -97.094  1.00  0.00    -0.202 N 
ATOM     24  H3  UNL     1     -25.322  17.607 -97.659  1.00  0.00     0.183 HD
BRANCH  19  25
HETATM   25  C14 UNL     1     -21.040  18.267 -94.808  1.00  0.00     0.433 C 
HETATM   26  F1  UNL     1     -21.237  19.241 -93.822  1.00  0.00    -0.165 F 
HETATM   27  F2  UNL     1     -20.715  17.068 -94.142  1.00  0.00    -0.165 F 
HETATM   28  F3  UNL     1     -19.938  18.599 -95.574  1.00  0.00    -0.165 F 
ENDBRANCH  19  25
ENDBRANCH  15  17
ENDBRANCH  12  15
ENDBRANCH   8   9
ENDBRANCH   7   8
BRANCH   7  29
HETATM   29  C19 UNL     1     -28.175  11.351 -90.776  1.00  0.00     0.165 C 
HETATM   30  N4  UNL     1     -27.051  11.110 -90.219  1.00  0.00    -0.249 N 
ATOM     31  H4  UNL     1     -26.960  10.229 -89.713  1.00  0.00     0.196 HD
BRANCH  29  32
HETATM   32  O2  UNL     1     -29.220  10.477 -90.701  1.00  0.00    -0.346 OA
ATOM     33  H2  UNL     1     -29.993  10.716 -90.203  1.00  0.00     0.219 HD
ENDBRANCH  29  32
BRANCH  30  34
HETATM   34  O3  UNL     1     -25.968  11.924 -90.243  1.00  0.00    -0.288 OA
ATOM     35  H3  UNL     1     -25.064  11.645 -90.158  1.00  0.00     0.244 HD
ENDBRANCH  30  34
ENDBRANCH   7  29
ENDBRANCH   6   7
ENDBRANCH   3   6
TORSDOF 10
ENDMDL
MODEL 4
REMARK VINA RESULT: -7.263284675      5.649      9.202
REMARK  10 active torsions:
REMARK  status: ('A' for Active; 'I' for Inactive)
REMARK    1  A    between atoms: C3_3  and  C6_6 
REMARK    2  A    between atoms: C6_6  and  C7_7 
REMARK    3  A    between atoms: C7_7  and  O1_8 
REMARK    4  A    between atoms: C7_7  and  C19_29 
REMARK    5  A    between atoms: O1_8  and  C8_9 
REMARK    6  A    between atoms: C11_12  and  N1_13 
REMARK    7  A    between atoms: N1_13  and  C12_15 
REMARK    8  A    between atoms: C13_18  and  C14_19 
REMARK    9  A    between atoms: C19_29  and  O2_30 
REMARK   10  A    between atoms: N4_32  and  O3_34 
ROOT
HETATM    1  C1  UNL     1     -20.870  18.678 -89.813  1.00  0.00     0.013 C 
HETATM    2  C2  UNL     1     -21.030  18.973 -90.980  1.00  0.00    -0.108 C 
HETATM    3  C3  UNL     1     -21.264  19.295 -92.367  1.00  0.00     0.018 C 
HETATM    4  C4  UNL     1     -21.027  20.779 -92.524  1.00  0.00     0.029 C 
HETATM    5  C5  UNL     1     -22.767  19.107 -92.670  1.00  0.00     0.029 C 
ENDROOT
BRANCH   3   6
HETATM    6  C6  UNL     1     -20.528  18.480 -93.356  1.00  0.00     0.062 C 
BRANCH   6   7
HETATM    7  C7  UNL     1     -20.767  18.637 -94.801  1.00  0.00     0.206 C 
BRANCH   7   8
HETATM    8  O1  UNL     1     -21.202  17.378 -95.277  1.00  0.00    -0.338 OA
BRANCH   8   9
HETATM    9  C8  UNL     1     -22.404  16.790 -95.285  1.00  0.00     0.070 A 
HETATM   10  C9  UNL     1     -23.514  17.144 -96.007  1.00  0.00     0.039 A 
HETATM   11  C10 UNL     1     -24.702  16.419 -95.919  1.00  0.00     0.033 A 
HETATM   12  C11 UNL     1     -24.834  15.311 -95.108  1.00  0.00     0.049 A 
HETATM   13  C17 UNL     1     -23.691  14.932 -94.348  1.00  0.00     0.033 A 
HETATM   14  C18 UNL     1     -22.539  15.665 -94.456  1.00  0.00     0.039 A 
BRANCH  12  15
HETATM   15  N1  UNL     1     -25.952  14.502 -95.007  1.00  0.00    -0.192 N 
ATOM     16  H1  UNL     1     -26.397  14.358 -95.913  1.00  0.00     0.184 HD
BRANCH  15  17
HETATM   17  C12 UNL     1     -26.552  13.908 -94.101  1.00  0.00     0.683 A 
HETATM   18  N2  UNL     1     -26.052  13.117 -93.139  1.00  0.00    -0.186 N 
HETATM   19  C13 UNL     1     -26.752  12.500 -92.214  1.00  0.00     0.133 A 
ATOM     20  H2  UNL     1     -25.042  12.984 -93.124  1.00  0.00     0.184 HD
HETATM   21  C15 UNL     1     -28.129  12.657 -92.207  1.00  0.00     0.052 A 
HETATM   22  C16 UNL     1     -28.693  13.460 -93.173  1.00  0.00     0.108 A 
HETATM   23  N3  UNL     1     -27.916  14.058 -94.079  1.00  0.00    -0.202 N 
ATOM     24  H3  UNL     1     -28.354  14.649 -94.784  1.00  0.00     0.183 HD
BRANCH  19  25
HETATM   25  C14 UNL     1     -26.160  11.641 -91.174  1.00  0.00     0.433 C 
HETATM   26  F1  UNL     1     -25.801  12.381 -90.040  1.00  0.00    -0.165 F 
HETATM   27  F2  UNL     1     -27.125  10.700 -90.762  1.00  0.00    -0.165 F 
HETATM   28  F3  UNL     1     -25.069  10.913 -91.617  1.00  0.00    -0.165 F 
ENDBRANCH  19  25
ENDBRANCH  15  17
ENDBRANCH  12  15
ENDBRANCH   8   9
ENDBRANCH   7   8
BRANCH   7  29
HETATM   29  C19 UNL     1     -19.526  18.883 -95.626  1.00  0.00     0.165 C 
HETATM   30  N4  UNL     1     -19.639  18.948 -96.897  1.00  0.00    -0.249 N 
ATOM     31  H4  UNL     1     -18.787  19.112 -97.433  1.00  0.00     0.196 HD
BRANCH  29  32
HETATM   32  O2  UNL     1     -18.323  19.030 -95.000  1.00  0.00    -0.346 OA
ATOM     33  H2  UNL     1     -17.560  19.280 -95.508  1.00  0.00     0.219 HD
ENDBRANCH  29  32
BRANCH  30  34
HETATM   34  O3  UNL     1     -20.793  18.817 -97.594  1.00  0.00    -0.288 OA
ATOM     35  H3  UNL     1     -20.899  18.328 -98.402  1.00  0.00     0.244 HD
ENDBRANCH  30  34
ENDBRANCH   7  29
ENDBRANCH   6   7
ENDBRANCH   3   6
TORSDOF 10
ENDMDL
MODEL 5
REMARK VINA RESULT: -7.189781696      2.149      2.998
REMARK  10 active torsions:
REMARK  status: ('A' for Active; 'I' for Inactive)
REMARK    1  A    between atoms: C3_3  and  C6_6 
REMARK    2  A    between atoms: C6_6  and  C7_7 
REMARK    3  A    between atoms: C7_7  and  O1_8 
REMARK    4  A    between atoms: C7_7  and  C19_29 
REMARK    5  A    between atoms: O1_8  and  C8_9 
REMARK    6  A    between atoms: C11_12  and  N1_13 
REMARK    7  A    between atoms: N1_13  and  C12_15 
REMARK    8  A    between atoms: C13_18  and  C14_19 
REMARK    9  A    between atoms: C19_29  and  O2_30 
REMARK   10  A    between atoms: N4_32  and  O3_34 
ROOT
HETATM    1  C1  UNL     1     -28.974  18.680 -91.754  1.00  0.00     0.013 C 
HETATM    2  C2  UNL     1     -29.280  17.628 -92.277  1.00  0.00    -0.108 C 
HETATM    3  C3  UNL     1     -29.640  16.355 -92.853  1.00  0.00     0.018 C 
HETATM    4  C4  UNL     1     -30.816  16.598 -93.770  1.00  0.00     0.029 C 
HETATM    5  C5  UNL     1     -30.201  15.449 -91.735  1.00  0.00     0.029 C 
ENDROOT
BRANCH   3   6
HETATM    6  C6  UNL     1     -28.545  15.601 -93.499  1.00  0.00     0.062 C 
BRANCH   6   7
HETATM    7  C7  UNL     1     -28.614  14.138 -93.651  1.00  0.00     0.206 C 
BRANCH   7   8
HETATM    8  O1  UNL     1     -27.305  13.702 -93.964  1.00  0.00    -0.338 OA
BRANCH   8   9
HETATM    9  C8  UNL     1     -26.242  14.344 -94.460  1.00  0.00     0.070 A 
HETATM   10  C9  UNL     1     -26.066  14.836 -95.726  1.00  0.00     0.039 A 
HETATM   11  C10 UNL     1     -24.896  15.501 -96.094  1.00  0.00     0.033 A 
HETATM   12  C11 UNL     1     -23.853  15.704 -95.214  1.00  0.00     0.049 A 
HETATM   13  C17 UNL     1     -24.018  15.195 -93.894  1.00  0.00     0.033 A 
HETATM   14  C18 UNL     1     -25.179  14.546 -93.565  1.00  0.00     0.039 A 
BRANCH  12  15
HETATM   15  N1  UNL     1     -22.688  16.402 -95.476  1.00  0.00    -0.192 N 
ATOM     16  H1  UNL     1     -21.885  15.985 -95.007  1.00  0.00     0.184 HD
BRANCH  15  17
HETATM   17  C12 UNL     1     -22.368  17.401 -96.134  1.00  0.00     0.683 A 
HETATM   18  N2  UNL     1     -23.125  18.144 -96.957  1.00  0.00    -0.186 N 
HETATM   19  C13 UNL     1     -22.714  19.187 -97.642  1.00  0.00     0.133 A 
ATOM     20  H2  UNL     1     -24.103  17.876 -97.059  1.00  0.00     0.184 HD
HETATM   21  C15 UNL     1     -21.390  19.577 -97.529  1.00  0.00     0.052 A 
HETATM   22  C16 UNL     1     -20.570  18.849 -96.696  1.00  0.00     0.108 A 
HETATM   23  N3  UNL     1     -21.060  17.802 -96.029  1.00  0.00    -0.202 N 
ATOM     24  H3  UNL     1     -20.436  17.278 -95.416  1.00  0.00     0.183 HD
BRANCH  19  25
HETATM   25  C14 UNL     1     -23.582  19.976 -98.534  1.00  0.00     0.433 C 
HETATM   26  F1  UNL     1     -23.248  21.336 -98.505  1.00  0.00    -0.165 F 
HETATM   27  F2  UNL     1     -23.389  19.533 -99.858  1.00  0.00    -0.165 F 
HETATM   28  F3  UNL     1     -24.931  19.825 -98.264  1.00  0.00    -0.165 F 
ENDBRANCH  19  25
ENDBRANCH  15  17
ENDBRANCH  12  15
ENDBRANCH   8   9
ENDBRANCH   7   8
BRANCH   7  29
HETATM   29  C19 UNL     1     -29.408  13.662 -94.845  1.00  0.00     0.165 C 
HETATM   30  N4  UNL     1     -30.092  12.588 -94.737  1.00  0.00    -0.249 N 
ATOM     31  H4  UNL     1     -30.617  12.285 -95.558  1.00  0.00     0.196 HD
BRANCH  29  32
HETATM   32  O2  UNL     1     -29.375  14.384 -96.003  1.00  0.00    -0.346 OA
ATOM     33  H2  UNL     1     -30.151  14.423 -96.550  1.00  0.00     0.219 HD
ENDBRANCH  29  32
BRANCH  30  34
HETATM   34  O3  UNL     1     -30.180  11.818 -93.626  1.00  0.00    -0.288 OA
ATOM     35  H3  UNL     1     -30.937  11.757 -93.054  1.00  0.00     0.244 HD
ENDBRANCH  30  34
ENDBRANCH   7  29
ENDBRANCH   6   7
ENDBRANCH   3   6
TORSDOF 10
ENDMDL
