MODEL 1
REMARK VINA RESULT: -7.124794369      0.000      0.000
REMARK  10 active torsions:
REMARK  status: ('A' for Active; 'I' for Inactive)
REMARK    1  A    between atoms: O1_2  and  C2_3 
REMARK    2  A    between atoms: C4_5  and  N1_6 
REMARK    3  A    between atoms: N1_6  and  C5_8 
REMARK    4  A    between atoms: C8_11  and  C9_12 
REMARK    5  A    between atoms: C11_21  and  N4_22 
REMARK    6  A    between atoms: N4_22  and  C12_24 
REMARK    7  A    between atoms: C12_24  and  C13_25 
REMARK    8  A    between atoms: C13_25  and  C14_26 
REMARK    9  A    between atoms: C14_26  and  N5_27 
REMARK   10  A    between atoms: N5_27  and  C15_29 
ROOT
HETATM    1  C15 UNL     1      12.670 -26.399 -58.239  1.00  0.00     0.100 A 
HETATM    2  C16 UNL     1      12.711 -25.424 -57.265  1.00  0.00     0.050 A 
HETATM    3  C17 UNL     1      13.905 -24.773 -56.956  1.00  0.00     0.028 A 
HETATM    4  C18 UNL     1      15.027 -25.131 -57.641  1.00  0.00     0.060 A 
HETATM    5  C19 UNL     1      16.302 -24.505 -57.380  1.00  0.00     0.101 C 
HETATM    6  N6  UNL     1      17.316 -23.997 -57.184  1.00  0.00    -0.191 NA
HETATM    7  C20 UNL     1      14.942 -26.110 -58.604  1.00  0.00     0.112 A 
HETATM    8  N7  UNL     1      13.802 -26.740 -58.909  1.00  0.00    -0.351 N 
ATOM      9  H7  UNL     1      13.783 -27.461 -59.630  1.00  0.00     0.166 HD
ENDROOT
BRANCH   1  10
HETATM   10  N5  UNL     1      11.555 -26.987 -58.523  1.00  0.00    -0.376 N 
ATOM     11  H5  UNL     1      11.111 -27.547 -57.796  1.00  0.00     0.161 HD
BRANCH  10  12
HETATM   12  C14 UNL     1      10.910 -26.901 -59.786  1.00  0.00     0.123 C 
BRANCH  12  13
HETATM   13  C13 UNL     1       9.767 -27.877 -59.935  1.00  0.00     0.040 C 
BRANCH  13  14
HETATM   14  C12 UNL     1      10.098 -28.726 -61.159  1.00  0.00     0.139 C 
BRANCH  14  15
HETATM   15  N4  UNL     1      10.744 -29.931 -60.705  1.00  0.00    -0.226 N 
ATOM     16  H4  UNL     1      10.189 -30.750 -60.458  1.00  0.00     0.177 HD
BRANCH  15  17
HETATM   17  C11 UNL     1      12.027 -29.964 -60.613  1.00  0.00     0.681 A 
HETATM   18  N3  UNL     1      12.607 -30.266 -59.413  1.00  0.00    -0.177 N 
HETATM   19  C4  UNL     1      13.929 -30.320 -59.209  1.00  0.00     0.126 A 
ATOM     20  H3  UNL     1      11.994 -30.464 -58.622  1.00  0.00     0.186 HD
HETATM   21  C3  UNL     1      14.746 -30.052 -60.283  1.00  0.00     0.105 A 
HETATM   22  C2  UNL     1      14.204 -29.739 -61.536  1.00  0.00     0.160 A 
HETATM   23  N8  UNL     1      12.877 -29.711 -61.635  1.00  0.00    -0.171 N 
ATOM     24  H8  UNL     1      12.472 -29.484 -62.544  1.00  0.00     0.186 HD
BRANCH  19  25
HETATM   25  N1  UNL     1      14.473 -30.631 -57.927  1.00  0.00    -0.328 N 
ATOM     26  H1  UNL     1      14.707 -31.601 -57.715  1.00  0.00     0.169 HD
BRANCH  25  27
HETATM   27  C5  UNL     1      14.679 -29.742 -57.036  1.00  0.00     0.106 A 
HETATM   28  C6  UNL     1      13.706 -29.239 -56.206  1.00  0.00     0.049 A 
HETATM   29  C7  UNL     1      14.031 -28.276 -55.280  1.00  0.00     0.021 A 
HETATM   30  C8  UNL     1      15.326 -27.840 -55.211  1.00  0.00     0.063 A 
HETATM   31  C10 UNL     1      16.280 -28.361 -56.055  1.00  0.00     0.106 A 
HETATM   32  N2  UNL     1      15.969 -29.294 -56.953  1.00  0.00    -0.351 N 
ATOM     33  H2  UNL     1      16.686 -29.673 -57.572  1.00  0.00     0.166 HD
BRANCH  30  34
HETATM   34  C9  UNL     1      15.736 -26.791 -54.219  1.00  0.00     0.418 C 
HETATM   35  F1  UNL     1      16.759 -26.017 -54.697  1.00  0.00    -0.166 F 
HETATM   36  F2  UNL     1      14.684 -25.955 -53.929  1.00  0.00    -0.166 F 
HETATM   37  F3  UNL     1      16.184 -27.434 -53.076  1.00  0.00    -0.166 F 
ENDBRANCH  30  34
ENDBRANCH  25  27
ENDBRANCH  19  25
BRANCH  22  38
HETATM   38  O1  UNL     1      15.065 -29.487 -62.539  1.00  0.00    -0.340 OA
HETATM   39  C1  UNL     1      15.967 -30.267 -63.230  1.00  0.00     0.211 C 
ENDBRANCH  22  38
ENDBRANCH  15  17
ENDBRANCH  14  15
ENDBRANCH  13  14
ENDBRANCH  12  13
ENDBRANCH  10  12
ENDBRANCH   1  10
TORSDOF 10
ENDMDL
MODEL 2
REMARK VINA RESULT: -7.118547296      1.148      1.602
REMARK  10 active torsions:
REMARK  status: ('A' for Active; 'I' for Inactive)
REMARK    1  A    between atoms: O1_2  and  C2_3 
REMARK    2  A    between atoms: C4_5  and  N1_6 
REMARK    3  A    between atoms: N1_6  and  C5_8 
REMARK    4  A    between atoms: C8_11  and  C9_12 
REMARK    5  A    between atoms: C11_21  and  N4_22 
REMARK    6  A    between atoms: N4_22  and  C12_24 
REMARK    7  A    between atoms: C12_24  and  C13_25 
REMARK    8  A    between atoms: C13_25  and  C14_26 
REMARK    9  A    between atoms: C14_26  and  N5_27 
REMARK   10  A    between atoms: N5_27  and  C15_29 
ROOT
HETATM    1  C15 UNL     1      11.423 -27.206 -57.997  1.00  0.00     0.100 A 
HETATM    2  C16 UNL     1      11.339 -26.589 -56.768  1.00  0.00     0.050 A 
HETATM    3  C17 UNL     1      12.335 -25.712 -56.338  1.00  0.00     0.028 A 
HETATM    4  C18 UNL     1      13.393 -25.487 -57.168  1.00  0.00     0.060 A 
HETATM    5  C19 UNL     1      14.465 -24.594 -56.797  1.00  0.00     0.101 C 
HETATM    6  N6  UNL     1      15.314 -23.871 -56.510  1.00  0.00    -0.191 NA
HETATM    7  C20 UNL     1      13.437 -26.124 -58.387  1.00  0.00     0.112 A 
HETATM    8  N7  UNL     1      12.487 -26.965 -58.808  1.00  0.00    -0.351 N 
ATOM      9  H7  UNL     1      12.559 -27.417 -59.720  1.00  0.00     0.166 HD
ENDROOT
BRANCH   1  10
HETATM   10  N5  UNL     1      10.487 -28.006 -58.388  1.00  0.00    -0.376 N 
ATOM     11  H5  UNL     1      10.558 -28.989 -58.123  1.00  0.00     0.161 HD
BRANCH  10  12
HETATM   12  C14 UNL     1       9.367 -27.604 -59.163  1.00  0.00     0.123 C 
BRANCH  12  13
HETATM   13  C13 UNL     1       9.628 -27.649 -60.650  1.00  0.00     0.040 C 
BRANCH  13  14
HETATM   14  C12 UNL     1      10.053 -29.083 -60.958  1.00  0.00     0.139 C 
BRANCH  14  15
HETATM   15  N4  UNL     1      11.205 -29.031 -61.821  1.00  0.00    -0.226 N 
ATOM     16  H4  UNL     1      11.159 -28.535 -62.711  1.00  0.00     0.177 HD
BRANCH  15  17
HETATM   17  C11 UNL     1      12.292 -29.614 -61.459  1.00  0.00     0.681 A 
HETATM   18  N3  UNL     1      12.487 -29.912 -60.139  1.00  0.00    -0.177 N 
HETATM   19  C4  UNL     1      13.583 -30.510 -59.657  1.00  0.00     0.126 A 
ATOM     20  H3  UNL     1      11.751 -29.662 -59.479  1.00  0.00     0.186 HD
HETATM   21  C3  UNL     1      14.570 -30.843 -60.557  1.00  0.00     0.105 A 
HETATM   22  C2  UNL     1      14.421 -30.563 -61.921  1.00  0.00     0.160 A 
HETATM   23  N8  UNL     1      13.293 -29.965 -62.300  1.00  0.00    -0.171 N 
ATOM     24  H8  UNL     1      13.175 -29.757 -63.291  1.00  0.00     0.186 HD
BRANCH  19  25
HETATM   25  N1  UNL     1      13.732 -30.785 -58.264  1.00  0.00    -0.328 N 
ATOM     26  H1  UNL     1      13.406 -31.682 -57.903  1.00  0.00     0.169 HD
BRANCH  25  27
HETATM   27  C5  UNL     1      14.256 -29.951 -57.454  1.00  0.00     0.106 A 
HETATM   28  C6  UNL     1      15.439 -29.290 -57.683  1.00  0.00     0.049 A 
HETATM   29  C7  UNL     1      15.922 -28.413 -56.741  1.00  0.00     0.021 A 
HETATM   30  C8  UNL     1      15.207 -28.222 -55.591  1.00  0.00     0.063 A 
HETATM   31  C10 UNL     1      14.026 -28.898 -55.388  1.00  0.00     0.106 A 
HETATM   32  N2  UNL     1      13.554 -29.747 -56.299  1.00  0.00    -0.351 N 
ATOM     33  H2  UNL     1      12.676 -30.241 -56.136  1.00  0.00     0.166 HD
BRANCH  30  34
HETATM   34  C9  UNL     1      15.688 -27.276 -54.530  1.00  0.00     0.418 C 
HETATM   35  F1  UNL     1      16.236 -27.944 -53.468  1.00  0.00    -0.166 F 
HETATM   36  F2  UNL     1      16.650 -26.430 -55.029  1.00  0.00    -0.166 F 
HETATM   37  F3  UNL     1      14.596 -26.560 -54.067  1.00  0.00    -0.166 F 
ENDBRANCH  30  34
ENDBRANCH  25  27
ENDBRANCH  19  25
BRANCH  22  38
HETATM   38  O1  UNL     1      15.428 -30.916 -62.741  1.00  0.00    -0.340 OA
HETATM   39  C1  UNL     1      15.477 -31.570 -63.953  1.00  0.00     0.211 C 
ENDBRANCH  22  38
ENDBRANCH  15  17
ENDBRANCH  14  15
ENDBRANCH  13  14
ENDBRANCH  12  13
ENDBRANCH  10  12
ENDBRANCH   1  10
TORSDOF 10
ENDMDL
MODEL 3
REMARK VINA RESULT: -7.050360827      3.633      6.423
REMARK  10 active torsions:
REMARK  status: ('A' for Active; 'I' for Inactive)
REMARK    1  A    between atoms: O1_2  and  C2_3 
REMARK    2  A    between atoms: C4_5  and  N1_6 
REMARK    3  A    between atoms: N1_6  and  C5_8 
REMARK    4  A    between atoms: C8_11  and  C9_12 
REMARK    5  A    between atoms: C11_21  and  N4_22 
REMARK    6  A    between atoms: N4_22  and  C12_24 
REMARK    7  A    between atoms: C12_24  and  C13_25 
REMARK    8  A    between atoms: C13_25  and  C14_26 
REMARK    9  A    between atoms: C14_26  and  N5_27 
REMARK   10  A    between atoms: N5_27  and  C15_29 
ROOT
HETATM    1  C15 UNL     1      13.709 -26.594 -55.352  1.00  0.00     0.100 A 
HETATM    2  C16 UNL     1      12.731 -25.624 -55.397  1.00  0.00     0.050 A 
HETATM    3  C17 UNL     1      11.392 -25.967 -55.587  1.00  0.00     0.028 A 
HETATM    4  C18 UNL     1      11.082 -27.287 -55.730  1.00  0.00     0.060 A 
HETATM    5  C19 UNL     1       9.721 -27.725 -55.931  1.00  0.00     0.101 C 
HETATM    6  N6  UNL     1       8.635 -28.077 -56.077  1.00  0.00    -0.191 NA
HETATM    7  C20 UNL     1      12.090 -28.223 -55.680  1.00  0.00     0.112 A 
HETATM    8  N7  UNL     1      13.376 -27.904 -55.496  1.00  0.00    -0.351 N 
ATOM      9  H7  UNL     1      14.092 -28.630 -55.466  1.00  0.00     0.166 HD
ENDROOT
BRANCH   1  10
HETATM   10  N5  UNL     1      14.944 -26.264 -55.163  1.00  0.00    -0.376 N 
ATOM     11  H5  UNL     1      15.665 -26.848 -55.585  1.00  0.00     0.161 HD
BRANCH  10  12
HETATM   12  C14 UNL     1      15.359 -25.137 -54.404  1.00  0.00     0.123 C 
BRANCH  12  13
HETATM   13  C13 UNL     1      16.494 -24.376 -55.046  1.00  0.00     0.040 C 
BRANCH  13  14
HETATM   14  C12 UNL     1      15.923 -23.771 -56.326  1.00  0.00     0.139 C 
BRANCH  14  15
HETATM   15  N4  UNL     1      16.918 -23.894 -57.360  1.00  0.00    -0.226 N 
ATOM     16  H4  UNL     1      17.768 -23.333 -57.325  1.00  0.00     0.177 HD
BRANCH  15  17
HETATM   17  C11 UNL     1      16.724 -24.719 -58.328  1.00  0.00     0.681 A 
HETATM   18  N3  UNL     1      15.888 -25.785 -58.145  1.00  0.00    -0.177 N 
HETATM   19  C4  UNL     1      15.624 -26.703 -59.082  1.00  0.00     0.126 A 
ATOM     20  H3  UNL     1      15.436 -25.887 -57.236  1.00  0.00     0.186 HD
HETATM   21  C3  UNL     1      16.238 -26.554 -60.304  1.00  0.00     0.105 A 
HETATM   22  C2  UNL     1      17.103 -25.480 -60.546  1.00  0.00     0.160 A 
HETATM   23  N8  UNL     1      17.299 -24.620 -59.549  1.00  0.00    -0.171 N 
ATOM     24  H8  UNL     1      17.927 -23.834 -59.715  1.00  0.00     0.186 HD
BRANCH  19  25
HETATM   25  N1  UNL     1      14.748 -27.801 -58.825  1.00  0.00    -0.328 N 
ATOM     26  H1  UNL     1      15.121 -28.629 -58.360  1.00  0.00     0.169 HD
BRANCH  25  27
HETATM   27  C5  UNL     1      13.516 -27.786 -59.155  1.00  0.00     0.106 A 
HETATM   28  C6  UNL     1      12.697 -26.689 -59.034  1.00  0.00     0.049 A 
HETATM   29  C7  UNL     1      11.379 -26.779 -59.414  1.00  0.00     0.021 A 
HETATM   30  C8  UNL     1      10.914 -27.968 -59.905  1.00  0.00     0.063 A 
HETATM   31  C10 UNL     1      11.757 -29.050 -60.014  1.00  0.00     0.106 A 
HETATM   32  N2  UNL     1      13.035 -28.967 -59.648  1.00  0.00    -0.351 N 
ATOM     33  H2  UNL     1      13.649 -29.777 -59.735  1.00  0.00     0.166 HD
BRANCH  30  34
HETATM   34  C9  UNL     1       9.484 -28.121 -60.335  1.00  0.00     0.418 C 
HETATM   35  F1  UNL     1       8.625 -28.016 -59.275  1.00  0.00    -0.166 F 
HETATM   36  F2  UNL     1       9.142 -27.150 -61.245  1.00  0.00    -0.166 F 
HETATM   37  F3  UNL     1       9.335 -29.385 -60.883  1.00  0.00    -0.166 F 
ENDBRANCH  30  34
ENDBRANCH  25  27
ENDBRANCH  19  25
BRANCH  22  38
HETATM   38  O1  UNL     1      17.668 -25.400 -61.765  1.00  0.00    -0.340 OA
HETATM   39  C1  UNL     1      18.695 -26.085 -62.378  1.00  0.00     0.211 C 
ENDBRANCH  22  38
ENDBRANCH  15  17
ENDBRANCH  14  15
ENDBRANCH  13  14
ENDBRANCH  12  13
ENDBRANCH  10  12
ENDBRANCH   1  10
TORSDOF 10
ENDMDL
MODEL 4
REMARK VINA RESULT: -7.037666461      3.765      6.295
REMARK  10 active torsions:
REMARK  status: ('A' for Active; 'I' for Inactive)
REMARK    1  A    between atoms: O1_2  and  C2_3 
REMARK    2  A    between atoms: C4_5  and  N1_6 
REMARK    3  A    between atoms: N1_6  and  C5_8 
REMARK    4  A    between atoms: C8_11  and  C9_12 
REMARK    5  A    between atoms: C11_21  and  N4_22 
REMARK    6  A    between atoms: N4_22  and  C12_24 
REMARK    7  A    between atoms: C12_24  and  C13_25 
REMARK    8  A    between atoms: C13_25  and  C14_26 
REMARK    9  A    between atoms: C14_26  and  N5_27 
REMARK   10  A    between atoms: N5_27  and  C15_29 
ROOT
HETATM    1  C15 UNL     1      12.670 -27.478 -55.755  1.00  0.00     0.100 A 
HETATM    2  C16 UNL     1      12.342 -26.153 -55.942  1.00  0.00     0.050 A 
HETATM    3  C17 UNL     1      11.015 -25.728 -55.880  1.00  0.00     0.028 A 
HETATM    4  C18 UNL     1      10.054 -26.662 -55.633  1.00  0.00     0.060 A 
HETATM    5  C19 UNL     1       8.657 -26.305 -55.554  1.00  0.00     0.101 C 
HETATM    6  N6  UNL     1       7.545 -26.019 -55.476  1.00  0.00    -0.191 NA
HETATM    7  C20 UNL     1      10.424 -27.976 -55.453  1.00  0.00     0.112 A 
HETATM    8  N7  UNL     1      11.694 -28.392 -55.509  1.00  0.00    -0.351 N 
ATOM      9  H7  UNL     1      11.925 -29.376 -55.371  1.00  0.00     0.166 HD
ENDROOT
BRANCH   1  10
HETATM   10  N5  UNL     1      13.904 -27.856 -55.803  1.00  0.00    -0.376 N 
ATOM     11  H5  UNL     1      14.146 -28.617 -56.437  1.00  0.00     0.161 HD
BRANCH  10  12
HETATM   12  C14 UNL     1      14.945 -27.278 -55.028  1.00  0.00     0.123 C 
BRANCH  12  13
HETATM   13  C13 UNL     1      15.994 -28.277 -54.605  1.00  0.00     0.040 C 
BRANCH  13  14
HETATM   14  C12 UNL     1      16.667 -28.749 -55.890  1.00  0.00     0.139 C 
BRANCH  14  15
HETATM   15  N4  UNL     1      16.601 -30.188 -55.926  1.00  0.00    -0.226 N 
ATOM     16  H4  UNL     1      16.928 -30.738 -55.132  1.00  0.00     0.177 HD
BRANCH  15  17
HETATM   17  C11 UNL     1      16.125 -30.773 -56.968  1.00  0.00     0.681 A 
HETATM   18  N3  UNL     1      15.603 -30.019 -57.982  1.00  0.00    -0.177 N 
HETATM   19  C4  UNL     1      15.077 -30.526 -59.103  1.00  0.00     0.126 A 
ATOM     20  H3  UNL     1      15.616 -29.004 -57.877  1.00  0.00     0.186 HD
HETATM   21  C3  UNL     1      15.067 -31.896 -59.233  1.00  0.00     0.105 A 
HETATM   22  C2  UNL     1      15.590 -32.716 -58.225  1.00  0.00     0.160 A 
HETATM   23  N8  UNL     1      16.090 -32.113 -57.149  1.00  0.00    -0.171 N 
ATOM     24  H8  UNL     1      16.474 -32.702 -56.409  1.00  0.00     0.186 HD
BRANCH  19  25
HETATM   25  N1  UNL     1      14.538 -29.684 -60.122  1.00  0.00    -0.328 N 
ATOM     26  H1  UNL     1      15.136 -29.412 -60.902  1.00  0.00     0.169 HD
BRANCH  25  27
HETATM   27  C5  UNL     1      13.336 -29.258 -60.093  1.00  0.00     0.106 A 
HETATM   28  C6  UNL     1      12.915 -28.183 -59.347  1.00  0.00     0.049 A 
HETATM   29  C7  UNL     1      11.593 -27.807 -59.381  1.00  0.00     0.021 A 
HETATM   30  C8  UNL     1      10.725 -28.520 -60.162  1.00  0.00     0.063 A 
HETATM   31  C10 UNL     1      11.175 -29.592 -60.898  1.00  0.00     0.106 A 
HETATM   32  N2  UNL     1      12.455 -29.959 -60.868  1.00  0.00    -0.351 N 
ATOM     33  H2  UNL     1      12.775 -30.755 -61.420  1.00  0.00     0.166 HD
BRANCH  30  34
HETATM   34  C9  UNL     1       9.272 -28.152 -60.237  1.00  0.00     0.418 C 
HETATM   35  F1  UNL     1       8.526 -29.155 -60.794  1.00  0.00    -0.166 F 
HETATM   36  F2  UNL     1       8.766 -27.905 -58.983  1.00  0.00    -0.166 F 
HETATM   37  F3  UNL     1       9.155 -27.032 -61.044  1.00  0.00    -0.166 F 
ENDBRANCH  30  34
ENDBRANCH  25  27
ENDBRANCH  19  25
BRANCH  22  38
HETATM   38  O1  UNL     1      15.543 -34.047 -58.422  1.00  0.00    -0.340 OA
HETATM   39  C1  UNL     1      15.715 -35.132 -57.591  1.00  0.00     0.211 C 
ENDBRANCH  22  38
ENDBRANCH  15  17
ENDBRANCH  14  15
ENDBRANCH  13  14
ENDBRANCH  12  13
ENDBRANCH  10  12
ENDBRANCH   1  10
TORSDOF 10
ENDMDL
MODEL 5
REMARK VINA RESULT: -6.997874168      3.792      6.494
REMARK  10 active torsions:
REMARK  status: ('A' for Active; 'I' for Inactive)
REMARK    1  A    between atoms: O1_2  and  C2_3 
REMARK    2  A    between atoms: C4_5  and  N1_6 
REMARK    3  A    between atoms: N1_6  and  C5_8 
REMARK    4  A    between atoms: C8_11  and  C9_12 
REMARK    5  A    between atoms: C11_21  and  N4_22 
REMARK    6  A    between atoms: N4_22  and  C12_24 
REMARK    7  A    between atoms: C12_24  and  C13_25 
REMARK    8  A    between atoms: C13_25  and  C14_26 
REMARK    9  A    between atoms: C14_26  and  N5_27 
REMARK   10  A    between atoms: N5_27  and  C15_29 
ROOT
HETATM    1  C15 UNL     1      12.691 -27.023 -55.553  1.00  0.00     0.100 A 
HETATM    2  C16 UNL     1      12.180 -25.747 -55.454  1.00  0.00     0.050 A 
HETATM    3  C17 UNL     1      10.803 -25.526 -55.456  1.00  0.00     0.028 A 
HETATM    4  C18 UNL     1       9.980 -26.608 -55.561  1.00  0.00     0.060 A 
HETATM    5  C19 UNL     1       8.543 -26.465 -55.571  1.00  0.00     0.101 C 
HETATM    6  N6  UNL     1       7.397 -26.354 -55.564  1.00  0.00    -0.191 NA
HETATM    7  C20 UNL     1      10.532 -27.865 -55.658  1.00  0.00     0.112 A 
HETATM    8  N7  UNL     1      11.851 -28.087 -55.656  1.00  0.00    -0.351 N 
ATOM      9  H7  UNL     1      12.219 -29.035 -55.731  1.00  0.00     0.166 HD
ENDROOT
BRANCH   1  10
HETATM   10  N5  UNL     1      13.969 -27.214 -55.538  1.00  0.00    -0.376 N 
ATOM     11  H5  UNL     1      14.340 -28.004 -56.066  1.00  0.00     0.161 HD
BRANCH  10  12
HETATM   12  C14 UNL     1      14.889 -26.394 -54.832  1.00  0.00     0.123 C 
BRANCH  12  13
HETATM   13  C13 UNL     1      16.270 -26.996 -54.740  1.00  0.00     0.040 C 
BRANCH  13  14
HETATM   14  C12 UNL     1      17.162 -26.138 -55.633  1.00  0.00     0.139 C 
BRANCH  14  15
HETATM   15  N4  UNL     1      17.596 -26.950 -56.741  1.00  0.00    -0.226 N 
ATOM     16  H4  UNL     1      18.389 -27.583 -56.636  1.00  0.00     0.177 HD
BRANCH  15  17
HETATM   17  C11 UNL     1      16.974 -26.871 -57.864  1.00  0.00     0.681 A 
HETATM   18  N3  UNL     1      16.154 -27.894 -58.252  1.00  0.00    -0.177 N 
HETATM   19  C4  UNL     1      15.468 -27.914 -59.401  1.00  0.00     0.126 A 
ATOM     20  H3  UNL     1      16.059 -28.694 -57.625  1.00  0.00     0.186 HD
HETATM   21  C3  UNL     1      15.604 -26.831 -60.237  1.00  0.00     0.105 A 
HETATM   22  C2  UNL     1      16.429 -25.754 -59.889  1.00  0.00     0.160 A 
HETATM   23  N8  UNL     1      17.069 -25.830 -58.723  1.00  0.00    -0.171 N 
ATOM     24  H8  UNL     1      17.672 -25.051 -58.460  1.00  0.00     0.186 HD
BRANCH  19  25
HETATM   25  N1  UNL     1      14.636 -29.019 -59.753  1.00  0.00    -0.328 N 
ATOM     26  H1  UNL     1      15.052 -29.949 -59.810  1.00  0.00     0.169 HD
BRANCH  25  27
HETATM   27  C5  UNL     1      13.391 -28.888 -59.999  1.00  0.00     0.106 A 
HETATM   28  C6  UNL     1      12.760 -29.422 -61.097  1.00  0.00     0.049 A 
HETATM   29  C7  UNL     1      11.412 -29.217 -61.273  1.00  0.00     0.021 A 
HETATM   30  C8  UNL     1      10.730 -28.479 -60.344  1.00  0.00     0.063 A 
HETATM   31  C10 UNL     1      11.389 -27.955 -59.255  1.00  0.00     0.106 A 
HETATM   32  N2  UNL     1      12.695 -28.152 -59.080  1.00  0.00    -0.351 N 
ATOM     33  H2  UNL     1      13.171 -27.759 -58.268  1.00  0.00     0.166 HD
BRANCH  30  34
HETATM   34  C9  UNL     1       9.259 -28.224 -60.488  1.00  0.00     0.418 C 
HETATM   35  F1  UNL     1       9.011 -27.058 -61.160  1.00  0.00    -0.166 F 
HETATM   36  F2  UNL     1       8.653 -29.243 -61.184  1.00  0.00    -0.166 F 
HETATM   37  F3  UNL     1       8.718 -28.107 -59.217  1.00  0.00    -0.166 F 
ENDBRANCH  30  34
ENDBRANCH  25  27
ENDBRANCH  19  25
BRANCH  22  38
HETATM   38  O1  UNL     1      16.514 -24.730 -60.758  1.00  0.00    -0.340 OA
HETATM   39  C1  UNL     1      17.390 -23.676 -60.895  1.00  0.00     0.211 C 
ENDBRANCH  22  38
ENDBRANCH  15  17
ENDBRANCH  14  15
ENDBRANCH  13  14
ENDBRANCH  12  13
ENDBRANCH  10  12
ENDBRANCH   1  10
TORSDOF 10
ENDMDL
