MODEL 1
REMARK VINA RESULT: -7.885921413      0.000      0.000
REMARK  10 active torsions:
REMARK  status: ('A' for Active; 'I' for Inactive)
REMARK    1  A    between atoms: C2_2  and  O1_3 
REMARK    2  A    between atoms: C2_2  and  C3_5 
REMARK    3  A    between atoms: C2_2  and  C20_32 
REMARK    4  A    between atoms: N1_9  and  C7_10 
REMARK    5  A    between atoms: C8_12  and  C9_13 
REMARK    6  A    between atoms: C9_13  and  S1_14 
REMARK    7  A    between atoms: S1_14  and  C10_15 
REMARK    8  A    between atoms: C10_15  and  C11_16 
REMARK    9  A    between atoms: C17_22  and  O3_23 
REMARK   10  A    between atoms: C18_25  and  O4_26 
ROOT
HETATM    1  C7  UNL     1      14.709 -26.948 -60.633  1.00  0.00     0.277 C 
HETATM    2  O2  UNL     1      14.275 -26.379 -59.397  1.00  0.00    -0.352 OA
HETATM    3  C8  UNL     1      15.345 -26.381 -58.511  1.00  0.00     0.165 C 
HETATM    4  C17 UNL     1      16.222 -25.213 -58.914  1.00  0.00     0.182 C 
HETATM    5  C18 UNL     1      16.810 -25.555 -60.291  1.00  0.00     0.199 C 
HETATM    6  C19 UNL     1      16.196 -26.843 -60.704  1.00  0.00     0.061 C 
HETATM    7  N2  UNL     1      16.965 -27.822 -61.099  1.00  0.00    -0.400 N 
ATOM      8  H21 UNL     1      17.981 -27.750 -61.148  1.00  0.00     0.155 HD
ATOM      9  H22 UNL     1      16.543 -28.706 -61.383  1.00  0.00     0.155 HD
ENDROOT
BRANCH   1  10
HETATM   10  N1  UNL     1      14.222 -28.298 -60.751  1.00  0.00    -0.325 N 
HETATM   11  C3  UNL     1      12.917 -28.643 -60.849  1.00  0.00     0.057 A 
HETATM   12  C4  UNL     1      12.872 -30.042 -60.932  1.00  0.00     0.030 A 
HETATM   13  C5  UNL     1      14.149 -30.540 -60.884  1.00  0.00     0.019 A 
HETATM   14  C6  UNL     1      14.975 -29.422 -60.771  1.00  0.00     0.094 A 
BRANCH  11  15
HETATM   15  C2  UNL     1      11.688 -27.831 -60.849  1.00  0.00     0.194 C 
HETATM   16  C1  UNL     1      10.665 -28.620 -61.681  1.00  0.00     0.062 C 
BRANCH  15  17
HETATM   17  O1  UNL     1      11.778 -26.596 -61.435  1.00  0.00    -0.375 OA
ATOM     18  H1  UNL     1      12.095 -26.009 -60.760  1.00  0.00     0.211 HD
ENDBRANCH  15  17
BRANCH  15  19
HETATM   19  C20 UNL     1      11.155 -27.661 -59.429  1.00  0.00     0.423 C 
HETATM   20  F1  UNL     1      11.046 -26.311 -59.128  1.00  0.00    -0.167 F 
HETATM   21  F2  UNL     1      12.020 -28.217 -58.521  1.00  0.00    -0.167 F 
HETATM   22  F3  UNL     1       9.910 -28.271 -59.346  1.00  0.00    -0.167 F 
ENDBRANCH  15  19
ENDBRANCH  11  15
ENDBRANCH   1  10
BRANCH   3  23
HETATM   23  C9  UNL     1      14.829 -26.322 -57.105  1.00  0.00     0.109 C 
BRANCH  23  24
HETATM   24  S1  UNL     1      13.323 -25.361 -56.907  1.00  0.00    -0.162 SA
BRANCH  24  25
HETATM   25  C10 UNL     1      12.578 -25.724 -55.307  1.00  0.00     0.112 C 
BRANCH  25  26
HETATM   26  C11 UNL     1      11.130 -25.953 -55.347  1.00  0.00    -0.049 A 
HETATM   27  C12 UNL     1      10.232 -24.995 -54.950  1.00  0.00     0.008 A 
HETATM   28  C13 UNL     1       8.850 -25.239 -55.001  1.00  0.00     0.001 A 
HETATM   29  C14 UNL     1       8.380 -26.454 -55.455  1.00  0.00     0.000 A 
HETATM   30  C15 UNL     1       9.290 -27.413 -55.848  1.00  0.00     0.001 A 
HETATM   31  C16 UNL     1      10.636 -27.146 -55.786  1.00  0.00     0.008 A 
ENDBRANCH  25  26
ENDBRANCH  24  25
ENDBRANCH  23  24
ENDBRANCH   3  23
BRANCH   5  32
HETATM   32  O4  UNL     1      16.440 -24.597 -61.249  1.00  0.00    -0.387 OA
ATOM     33  H4  UNL     1      15.725 -24.057 -60.933  1.00  0.00     0.210 HD
ENDBRANCH   5  32
BRANCH   4  34
HETATM   34  O3  UNL     1      17.220 -24.934 -58.000  1.00  0.00    -0.390 OA
ATOM     35  H3  UNL     1      17.424 -25.665 -57.427  1.00  0.00     0.210 HD
ENDBRANCH   4  34
TORSDOF 10
ENDMDL
MODEL 2
REMARK VINA RESULT: -7.651700225      2.931      5.336
REMARK  10 active torsions:
REMARK  status: ('A' for Active; 'I' for Inactive)
REMARK    1  A    between atoms: C2_2  and  O1_3 
REMARK    2  A    between atoms: C2_2  and  C3_5 
REMARK    3  A    between atoms: C2_2  and  C20_32 
REMARK    4  A    between atoms: N1_9  and  C7_10 
REMARK    5  A    between atoms: C8_12  and  C9_13 
REMARK    6  A    between atoms: C9_13  and  S1_14 
REMARK    7  A    between atoms: S1_14  and  C10_15 
REMARK    8  A    between atoms: C10_15  and  C11_16 
REMARK    9  A    between atoms: C17_22  and  O3_23 
REMARK   10  A    between atoms: C18_25  and  O4_26 
ROOT
HETATM    1  C7  UNL     1      11.935 -28.326 -59.951  1.00  0.00     0.277 C 
HETATM    2  O2  UNL     1      11.545 -28.492 -58.587  1.00  0.00    -0.352 OA
HETATM    3  C8  UNL     1      10.627 -27.500 -58.268  1.00  0.00     0.165 C 
HETATM    4  C17 UNL     1       9.306 -27.948 -58.857  1.00  0.00     0.182 C 
HETATM    5  C18 UNL     1       9.465 -27.904 -60.385  1.00  0.00     0.199 C 
HETATM    6  C19 UNL     1      10.879 -27.538 -60.652  1.00  0.00     0.061 C 
HETATM    7  N2  UNL     1      11.143 -26.553 -61.467  1.00  0.00    -0.400 N 
ATOM      8  H21 UNL     1      10.421 -26.014 -61.946  1.00  0.00     0.155 HD
ATOM      9  H22 UNL     1      12.115 -26.302 -61.651  1.00  0.00     0.155 HD
ENDROOT
BRANCH   1  10
HETATM   10  N1  UNL     1      13.242 -27.724 -60.019  1.00  0.00    -0.325 N 
HETATM   11  C3  UNL     1      14.270 -28.190 -60.764  1.00  0.00     0.057 A 
HETATM   12  C4  UNL     1      15.356 -27.332 -60.540  1.00  0.00     0.030 A 
HETATM   13  C5  UNL     1      14.982 -26.349 -59.660  1.00  0.00     0.019 A 
HETATM   14  C6  UNL     1      13.650 -26.619 -59.351  1.00  0.00     0.094 A 
BRANCH  11  15
HETATM   15  C2  UNL     1      14.384 -29.362 -61.649  1.00  0.00     0.194 C 
HETATM   16  C1  UNL     1      15.595 -29.087 -62.555  1.00  0.00     0.062 C 
BRANCH  15  17
HETATM   17  O1  UNL     1      13.328 -29.591 -62.491  1.00  0.00    -0.375 OA
ATOM     18  H1  UNL     1      13.494 -29.067 -63.265  1.00  0.00     0.211 HD
ENDBRANCH  15  17
BRANCH  15  19
HETATM   19  C20 UNL     1      14.645 -30.627 -60.836  1.00  0.00     0.423 C 
HETATM   20  F1  UNL     1      13.451 -31.301 -60.620  1.00  0.00    -0.167 F 
HETATM   21  F2  UNL     1      15.168 -30.311 -59.608  1.00  0.00    -0.167 F 
HETATM   22  F3  UNL     1      15.527 -31.435 -61.542  1.00  0.00    -0.167 F 
ENDBRANCH  15  19
ENDBRANCH  11  15
ENDBRANCH   1  10
BRANCH   3  23
HETATM   23  C9  UNL     1      10.613 -27.292 -56.783  1.00  0.00     0.109 C 
BRANCH  23  24
HETATM   24  S1  UNL     1      11.745 -26.024 -56.201  1.00  0.00    -0.162 SA
BRANCH  24  25
HETATM   25  C10 UNL     1      13.153 -26.796 -55.385  1.00  0.00     0.112 C 
BRANCH  25  26
HETATM   26  C11 UNL     1      14.292 -25.900 -55.157  1.00  0.00    -0.049 A 
HETATM   27  C12 UNL     1      14.945 -25.850 -53.952  1.00  0.00     0.008 A 
HETATM   28  C13 UNL     1      16.035 -24.985 -53.761  1.00  0.00     0.001 A 
HETATM   29  C14 UNL     1      16.461 -24.173 -54.791  1.00  0.00     0.000 A 
HETATM   30  C15 UNL     1      15.797 -24.228 -55.998  1.00  0.00     0.001 A 
HETATM   31  C16 UNL     1      14.732 -25.083 -56.156  1.00  0.00     0.008 A 
ENDBRANCH  25  26
ENDBRANCH  24  25
ENDBRANCH  23  24
ENDBRANCH   3  23
BRANCH   5  32
HETATM   32  O4  UNL     1       9.255 -29.172 -60.951  1.00  0.00    -0.387 OA
ATOM     33  H4  UNL     1       9.696 -29.847 -60.448  1.00  0.00     0.210 HD
ENDBRANCH   5  32
BRANCH   4  34
HETATM   34  O3  UNL     1       8.231 -27.184 -58.445  1.00  0.00    -0.390 OA
ATOM     35  H3  UNL     1       7.421 -27.395 -58.895  1.00  0.00     0.210 HD
ENDBRANCH   4  34
TORSDOF 10
ENDMDL
MODEL 3
REMARK VINA RESULT: -7.619794300      1.742      2.514
REMARK  10 active torsions:
REMARK  status: ('A' for Active; 'I' for Inactive)
REMARK    1  A    between atoms: C2_2  and  O1_3 
REMARK    2  A    between atoms: C2_2  and  C3_5 
REMARK    3  A    between atoms: C2_2  and  C20_32 
REMARK    4  A    between atoms: N1_9  and  C7_10 
REMARK    5  A    between atoms: C8_12  and  C9_13 
REMARK    6  A    between atoms: C9_13  and  S1_14 
REMARK    7  A    between atoms: S1_14  and  C10_15 
REMARK    8  A    between atoms: C10_15  and  C11_16 
REMARK    9  A    between atoms: C17_22  and  O3_23 
REMARK   10  A    between atoms: C18_25  and  O4_26 
ROOT
HETATM    1  C7  UNL     1      15.628 -25.811 -59.691  1.00  0.00     0.277 C 
HETATM    2  O2  UNL     1      15.833 -25.001 -58.533  1.00  0.00    -0.352 OA
HETATM    3  C8  UNL     1      17.198 -24.800 -58.372  1.00  0.00     0.165 C 
HETATM    4  C17 UNL     1      17.584 -23.732 -59.374  1.00  0.00     0.182 C 
HETATM    5  C18 UNL     1      17.407 -24.349 -60.770  1.00  0.00     0.199 C 
HETATM    6  C19 UNL     1      16.834 -25.703 -60.563  1.00  0.00     0.061 C 
HETATM    7  N2  UNL     1      17.400 -26.733 -61.133  1.00  0.00    -0.400 N 
ATOM      8  H21 UNL     1      18.225 -26.659 -61.729  1.00  0.00     0.155 HD
ATOM      9  H22 UNL     1      17.006 -27.663 -60.991  1.00  0.00     0.155 HD
ENDROOT
BRANCH   1  10
HETATM   10  N1  UNL     1      15.323 -27.163 -59.297  1.00  0.00    -0.325 N 
HETATM   11  C3  UNL     1      14.216 -27.846 -59.670  1.00  0.00     0.057 A 
HETATM   12  C4  UNL     1      14.296 -29.109 -59.065  1.00  0.00     0.030 A 
HETATM   13  C5  UNL     1      15.449 -29.186 -58.328  1.00  0.00     0.019 A 
HETATM   14  C6  UNL     1      16.074 -27.951 -58.492  1.00  0.00     0.094 A 
BRANCH  11  15
HETATM   15  C2  UNL     1      13.066 -27.462 -60.506  1.00  0.00     0.194 C 
HETATM   16  C1  UNL     1      12.590 -28.758 -61.183  1.00  0.00     0.062 C 
BRANCH  15  17
HETATM   17  O1  UNL     1      13.323 -26.580 -61.522  1.00  0.00    -0.375 OA
ATOM     18  H1  UNL     1      13.321 -25.717 -61.124  1.00  0.00     0.211 HD
ENDBRANCH  15  17
BRANCH  15  19
HETATM   19  C20 UNL     1      11.937 -26.903 -59.645  1.00  0.00     0.423 C 
HETATM   20  F1  UNL     1      11.387 -27.918 -58.876  1.00  0.00    -0.167 F 
HETATM   21  F2  UNL     1      10.937 -26.395 -60.434  1.00  0.00    -0.167 F 
HETATM   22  F3  UNL     1      12.455 -25.910 -58.824  1.00  0.00    -0.167 F 
ENDBRANCH  15  19
ENDBRANCH  11  15
ENDBRANCH   1  10
BRANCH   3  23
HETATM   23  C9  UNL     1      17.486 -24.452 -56.942  1.00  0.00     0.109 C 
BRANCH  23  24
HETATM   24  S1  UNL     1      16.030 -24.359 -55.894  1.00  0.00    -0.162 SA
BRANCH  24  25
HETATM   25  C10 UNL     1      15.626 -25.999 -55.270  1.00  0.00     0.112 C 
BRANCH  25  26
HETATM   26  C11 UNL     1      14.223 -26.390 -55.447  1.00  0.00    -0.049 A 
HETATM   27  C12 UNL     1      13.215 -25.463 -55.519  1.00  0.00     0.008 A 
HETATM   28  C13 UNL     1      11.880 -25.864 -55.691  1.00  0.00     0.001 A 
HETATM   29  C14 UNL     1      11.570 -27.205 -55.790  1.00  0.00     0.000 A 
HETATM   30  C15 UNL     1      12.589 -28.130 -55.712  1.00  0.00     0.001 A 
HETATM   31  C16 UNL     1      13.885 -27.708 -55.542  1.00  0.00     0.008 A 
ENDBRANCH  25  26
ENDBRANCH  24  25
ENDBRANCH  23  24
ENDBRANCH   3  23
BRANCH   5  32
HETATM   32  O4  UNL     1      16.477 -23.621 -61.529  1.00  0.00    -0.387 OA
ATOM     33  H4  UNL     1      15.849 -24.200 -61.947  1.00  0.00     0.210 HD
ENDBRANCH   5  32
BRANCH   4  34
HETATM   34  O3  UNL     1      18.868 -23.252 -59.199  1.00  0.00    -0.390 OA
ATOM     35  H3  UNL     1      19.496 -23.617 -59.813  1.00  0.00     0.210 HD
ENDBRANCH   4  34
TORSDOF 10
ENDMDL
MODEL 4
REMARK VINA RESULT: -7.609598756      1.330      1.431
REMARK  10 active torsions:
REMARK  status: ('A' for Active; 'I' for Inactive)
REMARK    1  A    between atoms: C2_2  and  O1_3 
REMARK    2  A    between atoms: C2_2  and  C3_5 
REMARK    3  A    between atoms: C2_2  and  C20_32 
REMARK    4  A    between atoms: N1_9  and  C7_10 
REMARK    5  A    between atoms: C8_12  and  C9_13 
REMARK    6  A    between atoms: C9_13  and  S1_14 
REMARK    7  A    between atoms: S1_14  and  C10_15 
REMARK    8  A    between atoms: C10_15  and  C11_16 
REMARK    9  A    between atoms: C17_22  and  O3_23 
REMARK   10  A    between atoms: C18_25  and  O4_26 
ROOT
HETATM    1  C7  UNL     1      14.757 -26.693 -59.333  1.00  0.00     0.277 C 
HETATM    2  O2  UNL     1      14.193 -25.795 -58.377  1.00  0.00    -0.352 OA
HETATM    3  C8  UNL     1      15.155 -25.514 -57.415  1.00  0.00     0.165 C 
HETATM    4  C17 UNL     1      16.089 -24.499 -58.042  1.00  0.00     0.182 C 
HETATM    5  C18 UNL     1      16.825 -25.221 -59.181  1.00  0.00     0.199 C 
HETATM    6  C19 UNL     1      16.244 -26.585 -59.263  1.00  0.00     0.061 C 
HETATM    7  N2  UNL     1      17.038 -27.621 -59.262  1.00  0.00    -0.400 N 
ATOM      8  H21 UNL     1      18.055 -27.547 -59.213  1.00  0.00     0.155 HD
ATOM      9  H22 UNL     1      16.638 -28.558 -59.318  1.00  0.00     0.155 HD
ENDROOT
BRANCH   1  10
HETATM   10  N1  UNL     1      14.266 -28.028 -59.102  1.00  0.00    -0.325 N 
HETATM   11  C3  UNL     1      13.169 -28.560 -59.688  1.00  0.00     0.057 A 
HETATM   12  C4  UNL     1      13.033 -29.863 -59.187  1.00  0.00     0.030 A 
HETATM   13  C5  UNL     1      14.047 -30.115 -58.299  1.00  0.00     0.019 A 
HETATM   14  C6  UNL     1      14.807 -28.946 -58.267  1.00  0.00     0.094 A 
BRANCH  11  15
HETATM   15  C2  UNL     1      12.203 -27.998 -60.646  1.00  0.00     0.194 C 
HETATM   16  C1  UNL     1      11.753 -29.175 -61.527  1.00  0.00     0.062 C 
BRANCH  15  17
HETATM   17  O1  UNL     1      12.685 -27.047 -61.507  1.00  0.00    -0.375 OA
ATOM     18  H1  UNL     1      13.135 -26.410 -60.965  1.00  0.00     0.211 HD
ENDBRANCH  15  17
BRANCH  15  19
HETATM   19  C20 UNL     1      10.990 -27.427 -59.916  1.00  0.00     0.423 C 
HETATM   20  F1  UNL     1      10.102 -26.885 -60.834  1.00  0.00    -0.167 F 
HETATM   21  F2  UNL     1      11.370 -26.420 -59.066  1.00  0.00    -0.167 F 
HETATM   22  F3  UNL     1      10.377 -28.451 -59.206  1.00  0.00    -0.167 F 
ENDBRANCH  15  19
ENDBRANCH  11  15
ENDBRANCH   1  10
BRANCH   3  23
HETATM   23  C9  UNL     1      14.482 -25.053 -56.156  1.00  0.00     0.109 C 
BRANCH  23  24
HETATM   24  S1  UNL     1      13.797 -26.379 -55.154  1.00  0.00    -0.162 SA
BRANCH  24  25
HETATM   25  C10 UNL     1      12.466 -27.193 -56.053  1.00  0.00     0.112 C 
BRANCH  25  26
HETATM   26  C11 UNL     1      11.123 -26.696 -55.735  1.00  0.00    -0.049 A 
HETATM   27  C12 UNL     1      10.923 -25.482 -55.127  1.00  0.00     0.008 A 
HETATM   28  C13 UNL     1       9.626 -25.029 -54.836  1.00  0.00     0.001 A 
HETATM   29  C14 UNL     1       8.534 -25.806 -55.162  1.00  0.00     0.000 A 
HETATM   30  C15 UNL     1       8.744 -27.026 -55.770  1.00  0.00     0.001 A 
HETATM   31  C16 UNL     1      10.024 -27.444 -56.041  1.00  0.00     0.008 A 
ENDBRANCH  25  26
ENDBRANCH  24  25
ENDBRANCH  23  24
ENDBRANCH   3  23
BRANCH   5  32
HETATM   32  O4  UNL     1      16.581 -24.595 -60.414  1.00  0.00    -0.387 OA
ATOM     33  H4  UNL     1      15.846 -24.998 -60.862  1.00  0.00     0.210 HD
ENDBRANCH   5  32
BRANCH   4  34
HETATM   34  O3  UNL     1      16.980 -23.944 -57.144  1.00  0.00    -0.390 OA
ATOM     35  H3  UNL     1      16.854 -23.011 -57.013  1.00  0.00     0.210 HD
ENDBRANCH   4  34
TORSDOF 10
ENDMDL
MODEL 5
REMARK VINA RESULT: -7.551381001      1.268      1.743
REMARK  10 active torsions:
REMARK  status: ('A' for Active; 'I' for Inactive)
REMARK    1  A    between atoms: C2_2  and  O1_3 
REMARK    2  A    between atoms: C2_2  and  C3_5 
REMARK    3  A    between atoms: C2_2  and  C20_32 
REMARK    4  A    between atoms: N1_9  and  C7_10 
REMARK    5  A    between atoms: C8_12  and  C9_13 
REMARK    6  A    between atoms: C9_13  and  S1_14 
REMARK    7  A    between atoms: S1_14  and  C10_15 
REMARK    8  A    between atoms: C10_15  and  C11_16 
REMARK    9  A    between atoms: C17_22  and  O3_23 
REMARK   10  A    between atoms: C18_25  and  O4_26 
ROOT
HETATM    1  C7  UNL     1      14.966 -27.009 -60.526  1.00  0.00     0.277 C 
HETATM    2  O2  UNL     1      15.241 -26.932 -59.127  1.00  0.00    -0.352 OA
HETATM    3  C8  UNL     1      16.580 -27.241 -58.923  1.00  0.00     0.165 C 
HETATM    4  C17 UNL     1      17.357 -25.996 -59.297  1.00  0.00     0.182 C 
HETATM    5  C18 UNL     1      17.190 -25.809 -60.813  1.00  0.00     0.199 C 
HETATM    6  C19 UNL     1      16.253 -26.867 -61.268  1.00  0.00     0.061 C 
HETATM    7  N2  UNL     1      16.586 -27.627 -62.277  1.00  0.00    -0.400 N 
ATOM      8  H21 UNL     1      17.466 -27.531 -62.784  1.00  0.00     0.155 HD
ATOM      9  H22 UNL     1      15.942 -28.354 -62.589  1.00  0.00     0.155 HD
ENDROOT
BRANCH   1  10
HETATM   10  N1  UNL     1      14.263 -28.231 -60.823  1.00  0.00    -0.325 N 
HETATM   11  C3  UNL     1      12.921 -28.339 -60.948  1.00  0.00     0.057 A 
HETATM   12  C4  UNL     1      12.646 -29.687 -61.223  1.00  0.00     0.030 A 
HETATM   13  C5  UNL     1      13.823 -30.390 -61.262  1.00  0.00     0.019 A 
HETATM   14  C6  UNL     1      14.821 -29.450 -61.008  1.00  0.00     0.094 A 
BRANCH  11  15
HETATM   15  C2  UNL     1      11.843 -27.344 -60.818  1.00  0.00     0.194 C 
HETATM   16  C1  UNL     1      10.601 -27.985 -61.458  1.00  0.00     0.062 C 
BRANCH  15  17
HETATM   17  O1  UNL     1      12.033 -26.156 -61.473  1.00  0.00    -0.375 OA
ATOM     18  H1  UNL     1      12.968 -25.990 -61.446  1.00  0.00     0.211 HD
ENDBRANCH  15  17
BRANCH  15  19
HETATM   19  C20 UNL     1      11.554 -27.051 -59.348  1.00  0.00     0.423 C 
HETATM   20  F1  UNL     1      12.140 -28.025 -58.552  1.00  0.00    -0.167 F 
HETATM   21  F2  UNL     1      10.204 -27.080 -59.108  1.00  0.00    -0.167 F 
HETATM   22  F3  UNL     1      12.074 -25.802 -59.034  1.00  0.00    -0.167 F 
ENDBRANCH  15  19
ENDBRANCH  11  15
ENDBRANCH   1  10
BRANCH   3  23
HETATM   23  C9  UNL     1      16.776 -27.701 -57.509  1.00  0.00     0.109 C 
BRANCH  23  24
HETATM   24  S1  UNL     1      15.294 -28.355 -56.730  1.00  0.00    -0.162 SA
BRANCH  24  25
HETATM   25  C10 UNL     1      14.685 -27.182 -55.506  1.00  0.00     0.112 C 
BRANCH  25  26
HETATM   26  C11 UNL     1      13.238 -26.945 -55.556  1.00  0.00    -0.049 A 
HETATM   27  C12 UNL     1      12.712 -25.682 -55.650  1.00  0.00     0.008 A 
HETATM   28  C13 UNL     1      11.323 -25.483 -55.698  1.00  0.00     0.001 A 
HETATM   29  C14 UNL     1      10.469 -26.566 -55.653  1.00  0.00     0.000 A 
HETATM   30  C15 UNL     1      11.006 -27.832 -55.555  1.00  0.00     0.001 A 
HETATM   31  C16 UNL     1      12.369 -27.996 -55.508  1.00  0.00     0.008 A 
ENDBRANCH  25  26
ENDBRANCH  24  25
ENDBRANCH  23  24
ENDBRANCH   3  23
BRANCH   5  32
HETATM   32  O4  UNL     1      16.589 -24.574 -61.106  1.00  0.00    -0.387 OA
ATOM     33  H4  UNL     1      17.065 -23.859 -60.700  1.00  0.00     0.210 HD
ENDBRANCH   5  32
BRANCH   4  34
HETATM   34  O3  UNL     1      18.692 -26.054 -58.945  1.00  0.00    -0.390 OA
ATOM     35  H3  UNL     1      19.237 -25.439 -59.422  1.00  0.00     0.210 HD
ENDBRANCH   4  34
TORSDOF 10
ENDMDL
