MODEL 1
REMARK VINA RESULT: -8.380559311      0.000      0.000
REMARK  9 active torsions:
REMARK  status: ('A' for Active; 'I' for Inactive)
REMARK    1  A    between atoms: C3_3  and  C5_5 
REMARK    2  A    between atoms: C5_5  and  O1_7 
REMARK    3  A    between atoms: O1_7  and  C7_8 
REMARK    4  A    between atoms: C7_8  and  C8_10 
REMARK    5  A    between atoms: C8_10  and  C9_11 
REMARK    6  A    between atoms: C8_10  and  C13_24 
REMARK    7  A    between atoms: C9_11  and  C10_12 
REMARK       I    between atoms: C10_12  and  N1_14 
REMARK    8  A    between atoms: N1_14  and  N2_16 
REMARK       I    between atoms: N2_16  and  C11_18 
REMARK    9  A    between atoms: C11_18  and  C12_20 
ROOT
HETATM    1  C1  UNL     1      16.096 -24.629 -54.116  1.00  0.00     0.097 C 
HETATM    2  C2  UNL     1      16.029 -24.706 -55.337  1.00  0.00    -0.181 C 
HETATM    3  C3  UNL     1      15.927 -24.813 -56.792  1.00  0.00     0.076 C 
HETATM    4  C4  UNL     1      17.214 -25.317 -57.352  1.00  0.00     0.025 C 
ENDROOT
BRANCH   3   5
HETATM    5  C5  UNL     1      14.741 -25.655 -57.188  1.00  0.00     0.142 C 
HETATM    6  C6  UNL     1      13.475 -24.836 -56.890  1.00  0.00     0.041 C 
BRANCH   5   7
HETATM    7  O1  UNL     1      14.709 -25.905 -58.579  1.00  0.00    -0.315 OA
BRANCH   7   8
HETATM    8  C7  UNL     1      14.559 -27.194 -59.059  1.00  0.00     0.270 C 
HETATM    9  O2  UNL     1      15.336 -28.065 -58.583  1.00  0.00    -0.264 OA
BRANCH   8  10
HETATM   10  C8  UNL     1      13.521 -27.508 -60.086  1.00  0.00     0.151 C 
BRANCH  10  11
HETATM   11  C9  UNL     1      12.378 -28.251 -59.464  1.00  0.00     0.126 C 
BRANCH  11  12
HETATM   12  C10 UNL     1      11.552 -27.341 -58.646  1.00  0.00     0.237 C 
HETATM   13  O3  UNL     1      11.134 -26.270 -59.185  1.00  0.00    -0.272 OA
HETATM   14  N1  UNL     1      11.207 -27.605 -57.302  1.00  0.00    -0.267 N 
ATOM     15  H1  UNL     1      11.534 -28.462 -56.856  1.00  0.00     0.190 HD
BRANCH  14  16
HETATM   16  N2  UNL     1      10.427 -26.710 -56.584  1.00  0.00    -0.260 N 
HETATM   17  C11 UNL     1       9.346 -27.131 -55.775  1.00  0.00     0.343 C 
HETATM   18  O4  UNL     1       9.087 -28.364 -55.709  1.00  0.00    -0.262 OA
ATOM     19  H2  UNL     1      10.641 -25.714 -56.641  1.00  0.00     0.190 HD
BRANCH  17  20
HETATM   20  C12 UNL     1       8.524 -26.157 -55.013  1.00  0.00     0.473 C 
HETATM   21  F1  UNL     1       8.970 -24.876 -55.329  1.00  0.00    -0.162 F 
HETATM   22  F2  UNL     1       7.194 -26.311 -55.318  1.00  0.00    -0.162 F 
HETATM   23  F3  UNL     1       8.702 -26.378 -53.643  1.00  0.00    -0.162 F 
ENDBRANCH  17  20
ENDBRANCH  14  16
ENDBRANCH  11  12
ENDBRANCH  10  11
BRANCH  10  24
HETATM   24  C13 UNL     1      14.213 -28.365 -61.122  1.00  0.00     0.066 A 
HETATM   25  N3  UNL     1      15.278 -28.063 -61.844  1.00  0.00    -0.352 N 
HETATM   26  C14 UNL     1      15.748 -28.927 -62.700  1.00  0.00     0.050 A 
ATOM     27  H3  UNL     1      15.730 -27.156 -61.732  1.00  0.00     0.166 HD
HETATM   28  C15 UNL     1      16.870 -28.735 -63.529  1.00  0.00     0.031 A 
HETATM   29  C19 UNL     1      15.102 -30.127 -62.807  1.00  0.00     0.033 A 
HETATM   30  C16 UNL     1      17.270 -29.722 -64.391  1.00  0.00     0.002 A 
HETATM   31  C17 UNL     1      16.623 -30.928 -64.502  1.00  0.00     0.002 A 
HETATM   32  C18 UNL     1      15.526 -31.130 -63.699  1.00  0.00     0.021 A 
HETATM   33  S1  UNL     1      13.842 -29.944 -61.662  1.00  0.00    -0.074 SA
ENDBRANCH  10  24
ENDBRANCH   8  10
ENDBRANCH   7   8
ENDBRANCH   5   7
ENDBRANCH   3   5
TORSDOF 9
ENDMDL
MODEL 2
REMARK VINA RESULT: -8.230798332      2.777      5.380
REMARK  9 active torsions:
REMARK  status: ('A' for Active; 'I' for Inactive)
REMARK    1  A    between atoms: C3_3  and  C5_5 
REMARK    2  A    between atoms: C5_5  and  O1_7 
REMARK    3  A    between atoms: O1_7  and  C7_8 
REMARK    4  A    between atoms: C7_8  and  C8_10 
REMARK    5  A    between atoms: C8_10  and  C9_11 
REMARK    6  A    between atoms: C8_10  and  C13_24 
REMARK    7  A    between atoms: C9_11  and  C10_12 
REMARK       I    between atoms: C10_12  and  N1_14 
REMARK    8  A    between atoms: N1_14  and  N2_16 
REMARK       I    between atoms: N2_16  and  C11_18 
REMARK    9  A    between atoms: C11_18  and  C12_20 
ROOT
HETATM    1  C1  UNL     1      14.492 -29.985 -62.474  1.00  0.00     0.097 C 
HETATM    2  C2  UNL     1      14.640 -30.925 -61.703  1.00  0.00    -0.181 C 
HETATM    3  C3  UNL     1      14.835 -32.034 -60.769  1.00  0.00     0.076 C 
HETATM    4  C4  UNL     1      15.176 -33.274 -61.523  1.00  0.00     0.025 C 
ENDROOT
BRANCH   3   5
HETATM    5  C5  UNL     1      15.857 -31.680 -59.719  1.00  0.00     0.142 C 
HETATM    6  C6  UNL     1      17.226 -31.607 -60.415  1.00  0.00     0.041 C 
BRANCH   5   7
HETATM    7  O1  UNL     1      15.639 -30.392 -59.180  1.00  0.00    -0.315 OA
BRANCH   7   8
HETATM    8  C7  UNL     1      15.508 -30.214 -57.814  1.00  0.00     0.270 C 
HETATM    9  O2  UNL     1      15.966 -31.132 -57.081  1.00  0.00    -0.264 OA
BRANCH   8  10
HETATM   10  C8  UNL     1      14.855 -28.988 -57.265  1.00  0.00     0.151 C 
BRANCH  10  11
HETATM   11  C9  UNL     1      14.171 -29.296 -55.968  1.00  0.00     0.126 C 
BRANCH  11  12
HETATM   12  C10 UNL     1      13.271 -28.190 -55.581  1.00  0.00     0.237 C 
HETATM   13  O3  UNL     1      13.796 -27.129 -55.122  1.00  0.00    -0.272 OA
HETATM   14  N1  UNL     1      11.866 -28.258 -55.698  1.00  0.00    -0.267 N 
ATOM     15  H1  UNL     1      11.430 -29.104 -56.066  1.00  0.00     0.190 HD
BRANCH  14  16
HETATM   16  N2  UNL     1      11.072 -27.186 -55.317  1.00  0.00    -0.260 N 
HETATM   17  C11 UNL     1       9.660 -27.263 -55.293  1.00  0.00     0.343 C 
HETATM   18  O4  UNL     1       9.110 -28.348 -55.629  1.00  0.00    -0.262 OA
ATOM     19  H2  UNL     1      11.523 -26.312 -55.046  1.00  0.00     0.190 HD
BRANCH  17  20
HETATM   20  C12 UNL     1       8.829 -26.104 -54.881  1.00  0.00     0.473 C 
HETATM   21  F1  UNL     1       8.750 -26.101 -53.491  1.00  0.00    -0.162 F 
HETATM   22  F2  UNL     1       9.373 -24.934 -55.352  1.00  0.00    -0.162 F 
HETATM   23  F3  UNL     1       7.543 -26.249 -55.412  1.00  0.00    -0.162 F 
ENDBRANCH  17  20
ENDBRANCH  14  16
ENDBRANCH  11  12
ENDBRANCH  10  11
BRANCH  10  24
HETATM   24  C13 UNL     1      13.850 -28.555 -58.309  1.00  0.00     0.066 A 
HETATM   25  N3  UNL     1      12.955 -29.301 -58.932  1.00  0.00    -0.352 N 
HETATM   26  C14 UNL     1      12.159 -28.762 -59.812  1.00  0.00     0.050 A 
ATOM     27  H3  UNL     1      12.887 -30.297 -58.724  1.00  0.00     0.166 HD
HETATM   28  C15 UNL     1      11.165 -29.437 -60.545  1.00  0.00     0.031 A 
HETATM   29  C19 UNL     1      12.294 -27.421 -60.050  1.00  0.00     0.033 A 
HETATM   30  C16 UNL     1      10.387 -28.757 -61.446  1.00  0.00     0.002 A 
HETATM   31  C17 UNL     1      10.520 -27.412 -61.687  1.00  0.00     0.002 A 
HETATM   32  C18 UNL     1      11.486 -26.739 -60.979  1.00  0.00     0.021 A 
HETATM   33  S1  UNL     1      13.570 -27.010 -58.984  1.00  0.00    -0.074 SA
ENDBRANCH  10  24
ENDBRANCH   8  10
ENDBRANCH   7   8
ENDBRANCH   5   7
ENDBRANCH   3   5
TORSDOF 9
ENDMDL
MODEL 3
REMARK VINA RESULT: -8.195325603      1.481      2.149
REMARK  9 active torsions:
REMARK  status: ('A' for Active; 'I' for Inactive)
REMARK    1  A    between atoms: C3_3  and  C5_5 
REMARK    2  A    between atoms: C5_5  and  O1_7 
REMARK    3  A    between atoms: O1_7  and  C7_8 
REMARK    4  A    between atoms: C7_8  and  C8_10 
REMARK    5  A    between atoms: C8_10  and  C9_11 
REMARK    6  A    between atoms: C8_10  and  C13_24 
REMARK    7  A    between atoms: C9_11  and  C10_12 
REMARK       I    between atoms: C10_12  and  N1_14 
REMARK    8  A    between atoms: N1_14  and  N2_16 
REMARK       I    between atoms: N2_16  and  C11_18 
REMARK    9  A    between atoms: C11_18  and  C12_20 
ROOT
HETATM    1  C1  UNL     1      12.584 -25.808 -55.489  1.00  0.00     0.097 C 
HETATM    2  C2  UNL     1      13.395 -25.464 -56.340  1.00  0.00    -0.181 C 
HETATM    3  C3  UNL     1      14.360 -25.076 -57.369  1.00  0.00     0.076 C 
HETATM    4  C4  UNL     1      15.635 -24.644 -56.726  1.00  0.00     0.025 C 
ENDROOT
BRANCH   3   5
HETATM    5  C5  UNL     1      14.550 -26.183 -58.373  1.00  0.00     0.142 C 
HETATM    6  C6  UNL     1      16.010 -26.124 -58.853  1.00  0.00     0.041 C 
BRANCH   5   7
HETATM    7  O1  UNL     1      14.397 -27.461 -57.789  1.00  0.00    -0.315 OA
BRANCH   7   8
HETATM    8  C7  UNL     1      13.679 -28.450 -58.438  1.00  0.00     0.270 C 
HETATM    9  O2  UNL     1      13.439 -29.496 -57.778  1.00  0.00    -0.264 OA
BRANCH   8  10
HETATM   10  C8  UNL     1      13.225 -28.259 -59.849  1.00  0.00     0.151 C 
BRANCH  10  11
HETATM   11  C9  UNL     1      11.744 -28.457 -59.953  1.00  0.00     0.126 C 
BRANCH  11  12
HETATM   12  C10 UNL     1      11.031 -27.507 -59.077  1.00  0.00     0.237 C 
HETATM   13  O3  UNL     1      11.174 -26.265 -59.304  1.00  0.00    -0.272 OA
HETATM   14  N1  UNL     1      10.203 -27.911 -58.007  1.00  0.00    -0.267 N 
ATOM     15  H1  UNL     1      10.077 -28.904 -57.813  1.00  0.00     0.190 HD
BRANCH  14  16
HETATM   16  N2  UNL     1       9.558 -26.970 -57.217  1.00  0.00    -0.260 N 
HETATM   17  C11 UNL     1       9.204 -27.228 -55.873  1.00  0.00     0.343 C 
HETATM   18  O4  UNL     1       9.487 -28.355 -55.381  1.00  0.00    -0.262 OA
ATOM     19  H2  UNL     1       9.332 -26.061 -57.620  1.00  0.00     0.190 HD
BRANCH  17  20
HETATM   20  C12 UNL     1       8.515 -26.207 -55.044  1.00  0.00     0.473 C 
HETATM   21  F1  UNL     1       9.060 -24.963 -55.350  1.00  0.00    -0.162 F 
HETATM   22  F2  UNL     1       7.162 -26.231 -55.281  1.00  0.00    -0.162 F 
HETATM   23  F3  UNL     1       8.740 -26.484 -53.691  1.00  0.00    -0.162 F 
ENDBRANCH  17  20
ENDBRANCH  14  16
ENDBRANCH  11  12
ENDBRANCH  10  11
BRANCH  10  24
HETATM   24  C13 UNL     1      13.962 -29.299 -60.662  1.00  0.00     0.066 A 
HETATM   25  N3  UNL     1      14.023 -30.602 -60.449  1.00  0.00    -0.352 N 
HETATM   26  C14 UNL     1      14.710 -31.361 -61.256  1.00  0.00     0.050 A 
ATOM     27  H3  UNL     1      13.533 -31.013 -59.654  1.00  0.00     0.166 HD
HETATM   28  C15 UNL     1      14.857 -32.756 -61.146  1.00  0.00     0.031 A 
HETATM   29  C19 UNL     1      15.345 -30.756 -62.306  1.00  0.00     0.033 A 
HETATM   30  C16 UNL     1      15.608 -33.448 -62.061  1.00  0.00     0.002 A 
HETATM   31  C17 UNL     1      16.247 -32.844 -63.116  1.00  0.00     0.002 A 
HETATM   32  C18 UNL     1      16.112 -31.482 -63.237  1.00  0.00     0.021 A 
HETATM   33  S1  UNL     1      14.914 -29.116 -62.070  1.00  0.00    -0.074 SA
ENDBRANCH  10  24
ENDBRANCH   8  10
ENDBRANCH   7   8
ENDBRANCH   5   7
ENDBRANCH   3   5
TORSDOF 9
ENDMDL
MODEL 4
REMARK VINA RESULT: -8.184163344      1.066      1.610
REMARK  9 active torsions:
REMARK  status: ('A' for Active; 'I' for Inactive)
REMARK    1  A    between atoms: C3_3  and  C5_5 
REMARK    2  A    between atoms: C5_5  and  O1_7 
REMARK    3  A    between atoms: O1_7  and  C7_8 
REMARK    4  A    between atoms: C7_8  and  C8_10 
REMARK    5  A    between atoms: C8_10  and  C9_11 
REMARK    6  A    between atoms: C8_10  and  C13_24 
REMARK    7  A    between atoms: C9_11  and  C10_12 
REMARK       I    between atoms: C10_12  and  N1_14 
REMARK    8  A    between atoms: N1_14  and  N2_16 
REMARK       I    between atoms: N2_16  and  C11_18 
REMARK    9  A    between atoms: C11_18  and  C12_20 
ROOT
HETATM    1  C1  UNL     1      15.677 -26.087 -53.485  1.00  0.00     0.097 C 
HETATM    2  C2  UNL     1      14.954 -26.360 -54.436  1.00  0.00    -0.181 C 
HETATM    3  C3  UNL     1      14.110 -26.702 -55.580  1.00  0.00     0.076 C 
HETATM    4  C4  UNL     1      13.676 -25.457 -56.276  1.00  0.00     0.025 C 
ENDROOT
BRANCH   3   5
HETATM    5  C5  UNL     1      14.810 -27.676 -56.493  1.00  0.00     0.142 C 
HETATM    6  C6  UNL     1      14.970 -28.996 -55.722  1.00  0.00     0.041 C 
BRANCH   5   7
HETATM    7  O1  UNL     1      14.029 -27.994 -57.628  1.00  0.00    -0.315 OA
BRANCH   7   8
HETATM    8  C7  UNL     1      14.461 -27.653 -58.897  1.00  0.00     0.270 C 
HETATM    9  O2  UNL     1      15.674 -27.329 -59.010  1.00  0.00    -0.264 OA
BRANCH   8  10
HETATM   10  C8  UNL     1      13.517 -27.677 -60.055  1.00  0.00     0.151 C 
BRANCH  10  11
HETATM   11  C9  UNL     1      12.210 -28.286 -59.651  1.00  0.00     0.126 C 
BRANCH  11  12
HETATM   12  C10 UNL     1      11.447 -27.356 -58.794  1.00  0.00     0.237 C 
HETATM   13  O3  UNL     1      11.154 -26.215 -59.269  1.00  0.00    -0.272 OA
HETATM   14  N1  UNL     1      11.031 -27.674 -57.483  1.00  0.00    -0.267 N 
ATOM     15  H1  UNL     1      11.258 -28.587 -57.089  1.00  0.00     0.190 HD
BRANCH  14  16
HETATM   16  N2  UNL     1      10.317 -26.757 -56.726  1.00  0.00    -0.260 N 
HETATM   17  C11 UNL     1       9.297 -27.150 -55.829  1.00  0.00     0.343 C 
HETATM   18  O4  UNL     1       9.032 -28.379 -55.719  1.00  0.00    -0.262 OA
ATOM     19  H2  UNL     1      10.535 -25.765 -56.819  1.00  0.00     0.190 HD
BRANCH  17  20
HETATM   20  C12 UNL     1       8.544 -26.152 -55.027  1.00  0.00     0.473 C 
HETATM   21  F1  UNL     1       7.193 -26.280 -55.336  1.00  0.00    -0.162 F 
HETATM   22  F2  UNL     1       8.770 -26.347 -53.687  1.00  0.00    -0.162 F 
HETATM   23  F3  UNL     1       8.973 -24.867 -55.374  1.00  0.00    -0.162 F 
ENDBRANCH  17  20
ENDBRANCH  14  16
ENDBRANCH  11  12
ENDBRANCH  10  11
BRANCH  10  24
HETATM   24  C13 UNL     1      14.191 -28.516 -61.117  1.00  0.00     0.066 A 
HETATM   25  N3  UNL     1      15.237 -28.199 -61.860  1.00  0.00    -0.352 N 
HETATM   26  C14 UNL     1      15.693 -29.049 -62.737  1.00  0.00     0.050 A 
ATOM     27  H3  UNL     1      15.686 -27.290 -61.748  1.00  0.00     0.166 HD
HETATM   28  C15 UNL     1      16.794 -28.840 -63.589  1.00  0.00     0.031 A 
HETATM   29  C19 UNL     1      15.053 -30.253 -62.844  1.00  0.00     0.033 A 
HETATM   30  C16 UNL     1      17.180 -29.814 -64.472  1.00  0.00     0.002 A 
HETATM   31  C17 UNL     1      16.539 -31.023 -64.582  1.00  0.00     0.002 A 
HETATM   32  C18 UNL     1      15.463 -31.242 -63.757  1.00  0.00     0.021 A 
HETATM   33  S1  UNL     1      13.819 -30.091 -61.667  1.00  0.00    -0.074 SA
ENDBRANCH  10  24
ENDBRANCH   8  10
ENDBRANCH   7   8
ENDBRANCH   5   7
ENDBRANCH   3   5
TORSDOF 9
ENDMDL
MODEL 5
REMARK VINA RESULT: -8.143036167      1.630      2.260
REMARK  9 active torsions:
REMARK  status: ('A' for Active; 'I' for Inactive)
REMARK    1  A    between atoms: C3_3  and  C5_5 
REMARK    2  A    between atoms: C5_5  and  O1_7 
REMARK    3  A    between atoms: O1_7  and  C7_8 
REMARK    4  A    between atoms: C7_8  and  C8_10 
REMARK    5  A    between atoms: C8_10  and  C9_11 
REMARK    6  A    between atoms: C8_10  and  C13_24 
REMARK    7  A    between atoms: C9_11  and  C10_12 
REMARK       I    between atoms: C10_12  and  N1_14 
REMARK    8  A    between atoms: N1_14  and  N2_16 
REMARK       I    between atoms: N2_16  and  C11_18 
REMARK    9  A    between atoms: C11_18  and  C12_20 
ROOT
HETATM    1  C1  UNL     1      15.629 -26.011 -53.873  1.00  0.00     0.097 C 
HETATM    2  C2  UNL     1      14.759 -26.537 -54.557  1.00  0.00    -0.181 C 
HETATM    3  C3  UNL     1      13.740 -27.178 -55.387  1.00  0.00     0.076 C 
HETATM    4  C4  UNL     1      12.900 -26.138 -56.048  1.00  0.00     0.025 C 
ENDROOT
BRANCH   3   5
HETATM    5  C5  UNL     1      14.367 -28.140 -56.363  1.00  0.00     0.142 C 
HETATM    6  C6  UNL     1      15.155 -29.177 -55.546  1.00  0.00     0.041 C 
BRANCH   5   7
HETATM    7  O1  UNL     1      13.396 -28.880 -57.076  1.00  0.00    -0.315 OA
BRANCH   7   8
HETATM    8  C7  UNL     1      13.620 -29.250 -58.390  1.00  0.00     0.270 C 
HETATM    9  O2  UNL     1      14.035 -30.425 -58.581  1.00  0.00    -0.264 OA
BRANCH   8  10
HETATM   10  C8  UNL     1      13.371 -28.287 -59.505  1.00  0.00     0.151 C 
BRANCH  10  11
HETATM   11  C9  UNL     1      11.930 -28.319 -59.912  1.00  0.00     0.126 C 
BRANCH  11  12
HETATM   12  C10 UNL     1      11.129 -27.421 -59.055  1.00  0.00     0.237 C 
HETATM   13  O3  UNL     1      11.163 -26.176 -59.303  1.00  0.00    -0.272 OA
HETATM   14  N1  UNL     1      10.333 -27.879 -57.984  1.00  0.00    -0.267 N 
ATOM     15  H1  UNL     1      10.294 -28.877 -57.773  1.00  0.00     0.190 HD
BRANCH  14  16
HETATM   16  N2  UNL     1       9.602 -26.986 -57.213  1.00  0.00    -0.260 N 
HETATM   17  C11 UNL     1       9.271 -27.248 -55.864  1.00  0.00     0.343 C 
HETATM   18  O4  UNL     1       9.657 -28.333 -55.348  1.00  0.00    -0.262 OA
ATOM     19  H2  UNL     1       9.293 -26.110 -57.635  1.00  0.00     0.190 HD
BRANCH  17  20
HETATM   20  C12 UNL     1       8.489 -26.278 -55.057  1.00  0.00     0.473 C 
HETATM   21  F1  UNL     1       7.142 -26.441 -55.371  1.00  0.00    -0.162 F 
HETATM   22  F2  UNL     1       8.716 -26.476 -53.717  1.00  0.00    -0.162 F 
HETATM   23  F3  UNL     1       8.882 -24.978 -55.393  1.00  0.00    -0.162 F 
ENDBRANCH  17  20
ENDBRANCH  14  16
ENDBRANCH  11  12
ENDBRANCH  10  11
BRANCH  10  24
HETATM   24  C13 UNL     1      14.257 -28.739 -60.644  1.00  0.00     0.066 A 
HETATM   25  N3  UNL     1      14.090 -29.782 -61.437  1.00  0.00    -0.352 N 
HETATM   26  C14 UNL     1      14.959 -30.029 -62.378  1.00  0.00     0.050 A 
ATOM     27  H3  UNL     1      13.283 -30.394 -61.314  1.00  0.00     0.166 HD
HETATM   28  C15 UNL     1      14.902 -31.100 -63.289  1.00  0.00     0.031 A 
HETATM   29  C19 UNL     1      16.021 -29.175 -62.498  1.00  0.00     0.033 A 
HETATM   30  C16 UNL     1      15.879 -31.254 -64.238  1.00  0.00     0.002 A 
HETATM   31  C17 UNL     1      16.946 -30.400 -64.361  1.00  0.00     0.002 A 
HETATM   32  C18 UNL     1      17.015 -29.348 -63.479  1.00  0.00     0.021 A 
HETATM   33  S1  UNL     1      15.707 -28.057 -61.239  1.00  0.00    -0.074 SA
ENDBRANCH  10  24
ENDBRANCH   8  10
ENDBRANCH   7   8
ENDBRANCH   5   7
ENDBRANCH   3   5
TORSDOF 9
ENDMDL
