MODEL 1
REMARK VINA RESULT: -9.840957518      0.000      0.000
REMARK  11 active torsions:
REMARK  status: ('A' for Active; 'I' for Inactive)
REMARK       I    between atoms: N1_1  and  C1_5 
REMARK       I    between atoms: C1_5  and  N2_6 
REMARK       I    between atoms: C1_5  and  N3_10 
REMARK    1  A    between atoms: N3_10  and  N4_12 
REMARK    2  A    between atoms: N4_12  and  C2_14 
REMARK    3  A    between atoms: C2_14  and  C3_15 
REMARK    4  A    between atoms: C4_18  and  N6_19 
REMARK       I    between atoms: N6_19  and  C5_21 
REMARK    5  A    between atoms: C5_21  and  C6_23 
REMARK    6  A    between atoms: C8_29  and  O2_30 
REMARK    7  A    between atoms: O2_30  and  C9_31 
REMARK    8  A    between atoms: C9_31  and  C10_33 
REMARK    9  A    between atoms: C12_40  and  C13_41 
REMARK   10  A    between atoms: C14_44  and  O7_45 
REMARK   11  A    between atoms: C17_49  and  N11_50 
ROOT
HETATM    1  N6  UNL     1     -14.269 -28.908  14.509  1.00  0.00    -0.307 N 
ATOM      2  H6  UNL     1     -14.515 -28.765  15.489  1.00  0.00     0.170 HD
HETATM    3  C5  UNL     1     -15.227 -29.470  13.624  1.00  0.00     0.278 C 
HETATM    4  O1  UNL     1     -15.798 -28.689  12.851  1.00  0.00    -0.265 OA
ENDROOT
BRANCH   1   5
HETATM    5  C4  UNL     1     -13.079 -28.571  14.090  1.00  0.00     0.108 A 
HETATM    6  N5  UNL     1     -12.488 -27.458  14.559  1.00  0.00    -0.339 N 
HETATM    7  C3  UNL     1     -11.243 -27.057  14.153  1.00  0.00     0.084 A 
ATOM      8  H5  UNL     1     -12.986 -26.891  15.244  1.00  0.00     0.167 HD
HETATM    9  C17 UNL     1     -10.606 -27.840  13.234  1.00  0.00     0.131 A 
HETATM   10  C16 UNL     1     -11.213 -29.009  12.734  1.00  0.00     0.042 A 
HETATM   11  C15 UNL     1     -12.450 -29.372  13.163  1.00  0.00     0.051 A 
BRANCH   7  12
HETATM   12  C2  UNL     1     -10.665 -25.865  14.733  1.00  0.00     0.139 C 
BRANCH  12  13
HETATM   13  N4  UNL     1     -11.278 -25.243  15.718  1.00  0.00    -0.311 N 
ATOM     14  H4  UNL     1     -12.103 -25.674  16.135  1.00  0.00     0.185 HD
BRANCH  13  15
HETATM   15  N3  UNL     1     -10.842 -24.029  16.205  1.00  0.00    -0.284 N 
HETATM   16  C1  UNL     1     -11.307 -22.746  15.717  1.00  0.00     0.494 C 
HETATM   17  N1  UNL     1     -12.717 -22.549  15.864  1.00  0.00    -0.032 N 
HETATM   18  N2  UNL     1     -10.601 -21.679  16.371  1.00  0.00    -0.032 N 
ATOM     19  H13 UNL     1     -12.991 -22.448  16.841  1.00  0.00     0.279 HD
ATOM     20  H12 UNL     1     -13.015 -21.631  15.532  1.00  0.00     0.279 HD
ATOM     21  H11 UNL     1     -13.219 -23.307  15.400  1.00  0.00     0.279 HD
ATOM     22  H23 UNL     1     -10.899 -20.761  16.039  1.00  0.00     0.279 HD
ATOM     23  H22 UNL     1     -10.876 -21.578  17.348  1.00  0.00     0.279 HD
ATOM     24  H21 UNL     1      -9.596 -21.819  16.267  1.00  0.00     0.279 HD
ATOM     25  H3  UNL     1     -10.151 -24.035  16.956  1.00  0.00     0.184 HD
ENDBRANCH  13  15
ENDBRANCH  12  13
ENDBRANCH   7  12
BRANCH   9  26
HETATM   26  N11 UNL     1      -9.335 -27.554  12.731  1.00  0.00    -0.113 N 
HETATM   27  O8  UNL     1      -9.126 -26.797  11.792  1.00  0.00    -0.532 OA
HETATM   28  O9  UNL     1      -8.236 -28.184  13.295  1.00  0.00    -0.532 OA
ENDBRANCH   9  26
ENDBRANCH   1   5
BRANCH   3  29
HETATM   29  C6  UNL     1     -15.496 -30.885  13.650  1.00  0.00     0.152 A 
HETATM   30  N7  UNL     1     -16.169 -31.401  14.729  1.00  0.00    -0.293 N 
HETATM   31  N8  UNL     1     -16.460 -32.671  14.841  1.00  0.00    -0.308 N 
ATOM     32  H7  UNL     1     -16.455 -30.768  15.475  1.00  0.00     0.187 HD
HETATM   33  C7  UNL     1     -16.088 -33.502  13.863  1.00  0.00     0.147 A 
ATOM     34  H8  UNL     1     -16.961 -33.021  15.658  1.00  0.00     0.186 HD
HETATM   35  C8  UNL     1     -15.412 -33.059  12.756  1.00  0.00     0.132 A 
HETATM   36  C14 UNL     1     -15.098 -31.710  12.627  1.00  0.00     0.135 A 
BRANCH  35  37
HETATM   37  O2  UNL     1     -15.068 -34.004  11.790  1.00  0.00    -0.269 OA
BRANCH  37  38
HETATM   38  C9  UNL     1     -15.949 -34.483  10.855  1.00  0.00     0.318 C 
HETATM   39  O3  UNL     1     -16.386 -35.652  11.006  1.00  0.00    -0.257 OA
BRANCH  38  40
HETATM   40  C10 UNL     1     -16.408 -33.721   9.701  1.00  0.00     0.146 A 
HETATM   41  N9  UNL     1     -16.653 -32.403   9.638  1.00  0.00    -0.291 N 
HETATM   42  N10 UNL     1     -17.060 -32.034   8.437  1.00  0.00    -0.265 N 
ATOM     43  H9  UNL     1     -16.539 -31.763  10.424  1.00  0.00     0.187 HD
HETATM   44  C11 UNL     1     -17.093 -33.128   7.659  1.00  0.00     0.279 A 
ATOM     45  H10 UNL     1     -17.305 -31.086   8.151  1.00  0.00     0.190 HD
HETATM   46  O4  UNL     1     -17.434 -33.152   6.449  1.00  0.00    -0.266 OA
HETATM   47  C12 UNL     1     -16.689 -34.207   8.427  1.00  0.00     0.144 A 
BRANCH  47  48
HETATM   48  C13 UNL     1     -16.557 -35.586   8.051  1.00  0.00     0.217 C 
HETATM   49  O5  UNL     1     -15.423 -36.095   7.925  1.00  0.00    -0.644 OA
HETATM   50  O6  UNL     1     -17.672 -36.365   7.826  1.00  0.00    -0.644 OA
ENDBRANCH  47  48
ENDBRANCH  38  40
ENDBRANCH  37  38
ENDBRANCH  35  37
BRANCH  36  51
HETATM   51  O7  UNL     1     -14.435 -31.333  11.519  1.00  0.00    -0.356 OA
ATOM     52  H7  UNL     1     -14.386 -31.819  10.704  1.00  0.00     0.218 HD
ENDBRANCH  36  51
ENDBRANCH   3  29
TORSDOF 11
ENDMDL
MODEL 2
REMARK VINA RESULT: -9.816393921      2.892     10.707
REMARK  11 active torsions:
REMARK  status: ('A' for Active; 'I' for Inactive)
REMARK       I    between atoms: N1_1  and  C1_5 
REMARK       I    between atoms: C1_5  and  N2_6 
REMARK       I    between atoms: C1_5  and  N3_10 
REMARK    1  A    between atoms: N3_10  and  N4_12 
REMARK    2  A    between atoms: N4_12  and  C2_14 
REMARK    3  A    between atoms: C2_14  and  C3_15 
REMARK    4  A    between atoms: C4_18  and  N6_19 
REMARK       I    between atoms: N6_19  and  C5_21 
REMARK    5  A    between atoms: C5_21  and  C6_23 
REMARK    6  A    between atoms: C8_29  and  O2_30 
REMARK    7  A    between atoms: O2_30  and  C9_31 
REMARK    8  A    between atoms: C9_31  and  C10_33 
REMARK    9  A    between atoms: C12_40  and  C13_41 
REMARK   10  A    between atoms: C14_44  and  O7_45 
REMARK   11  A    between atoms: C17_49  and  N11_50 
ROOT
HETATM    1  N6  UNL     1     -15.763 -32.791  12.877  1.00  0.00    -0.307 N 
ATOM      2  H6  UNL     1     -16.416 -33.085  13.602  1.00  0.00     0.170 HD
HETATM    3  C5  UNL     1     -14.547 -32.158  13.249  1.00  0.00     0.278 C 
HETATM    4  O1  UNL     1     -13.520 -32.848  13.197  1.00  0.00    -0.265 OA
ENDROOT
BRANCH   1   5
HETATM    5  C4  UNL     1     -16.058 -33.001  11.622  1.00  0.00     0.108 A 
HETATM    6  N5  UNL     1     -15.722 -34.163  11.036  1.00  0.00    -0.339 N 
HETATM    7  C3  UNL     1     -16.005 -34.436   9.723  1.00  0.00     0.084 A 
ATOM      8  H5  UNL     1     -15.237 -34.869  11.589  1.00  0.00     0.167 HD
HETATM    9  C17 UNL     1     -16.653 -33.468   9.013  1.00  0.00     0.131 A 
HETATM   10  C16 UNL     1     -17.012 -32.246   9.614  1.00  0.00     0.042 A 
HETATM   11  C15 UNL     1     -16.713 -32.014  10.919  1.00  0.00     0.051 A 
BRANCH   7  12
HETATM   12  C2  UNL     1     -15.638 -35.725   9.179  1.00  0.00     0.139 C 
BRANCH  12  13
HETATM   13  N4  UNL     1     -16.537 -36.681   9.079  1.00  0.00    -0.311 N 
ATOM     14  H4  UNL     1     -17.279 -36.735   9.776  1.00  0.00     0.185 HD
BRANCH  13  15
HETATM   15  N3  UNL     1     -16.509 -37.613   8.063  1.00  0.00    -0.284 N 
HETATM   16  C1  UNL     1     -15.630 -38.765   8.044  1.00  0.00     0.494 C 
HETATM   17  N1  UNL     1     -15.818 -39.653   9.151  1.00  0.00    -0.032 N 
HETATM   18  N2  UNL     1     -15.785 -39.491   6.814  1.00  0.00    -0.032 N 
ATOM     19  H13 UNL     1     -16.712 -40.143   9.104  1.00  0.00     0.279 HD
ATOM     20  H12 UNL     1     -15.203 -40.465   9.103  1.00  0.00     0.279 HD
ATOM     21  H11 UNL     1     -15.708 -39.138  10.025  1.00  0.00     0.279 HD
ATOM     22  H23 UNL     1     -15.170 -40.303   6.766  1.00  0.00     0.279 HD
ATOM     23  H22 UNL     1     -16.679 -39.981   6.766  1.00  0.00     0.279 HD
ATOM     24  H21 UNL     1     -15.652 -38.859   6.024  1.00  0.00     0.279 HD
ATOM     25  H3  UNL     1     -17.146 -37.484   7.276  1.00  0.00     0.184 HD
ENDBRANCH  13  15
ENDBRANCH  12  13
ENDBRANCH   7  12
BRANCH   9  26
HETATM   26  N11 UNL     1     -17.005 -33.608   7.668  1.00  0.00    -0.113 N 
HETATM   27  O8  UNL     1     -16.833 -32.741   6.822  1.00  0.00    -0.532 OA
HETATM   28  O9  UNL     1     -17.621 -34.781   7.259  1.00  0.00    -0.532 OA
ENDBRANCH   9  26
ENDBRANCH   1   5
BRANCH   3  29
HETATM   29  C6  UNL     1     -14.544 -30.777  13.661  1.00  0.00     0.152 A 
HETATM   30  N7  UNL     1     -15.709 -30.238  14.146  1.00  0.00    -0.293 N 
HETATM   31  N8  UNL     1     -15.804 -28.997  14.545  1.00  0.00    -0.308 N 
ATOM     32  H7  UNL     1     -16.537 -30.832  14.197  1.00  0.00     0.187 HD
HETATM   33  C7  UNL     1     -14.719 -28.219  14.479  1.00  0.00     0.147 A 
ATOM     34  H8  UNL     1     -16.687 -28.629  14.899  1.00  0.00     0.186 HD
HETATM   35  C8  UNL     1     -13.521 -28.688  14.005  1.00  0.00     0.132 A 
HETATM   36  C14 UNL     1     -13.410 -30.006  13.579  1.00  0.00     0.135 A 
BRANCH  35  37
HETATM   37  O2  UNL     1     -12.448 -27.798  13.977  1.00  0.00    -0.269 OA
BRANCH  37  38
HETATM   38  C9  UNL     1     -11.619 -27.649  12.895  1.00  0.00     0.318 C 
HETATM   39  O3  UNL     1     -12.150 -27.512  11.764  1.00  0.00    -0.257 OA
BRANCH  38  40
HETATM   40  C10 UNL     1     -10.164 -27.640  12.977  1.00  0.00     0.146 A 
HETATM   41  N9  UNL     1      -9.337 -28.695  12.936  1.00  0.00    -0.291 N 
HETATM   42  N10 UNL     1      -8.070 -28.334  13.038  1.00  0.00    -0.265 N 
ATOM     43  H9  UNL     1      -9.648 -29.662  12.838  1.00  0.00     0.187 HD
HETATM   44  C11 UNL     1      -8.032 -26.997  13.152  1.00  0.00     0.279 A 
ATOM     45  H10 UNL     1      -7.265 -28.959  13.032  1.00  0.00     0.190 HD
HETATM   46  O4  UNL     1      -6.989 -26.304  13.268  1.00  0.00    -0.266 OA
HETATM   47  C12 UNL     1      -9.335 -26.530  13.117  1.00  0.00     0.144 A 
BRANCH  47  48
HETATM   48  C13 UNL     1      -9.815 -25.180  13.201  1.00  0.00     0.217 C 
HETATM   49  O5  UNL     1     -10.032 -24.661  14.317  1.00  0.00    -0.644 OA
HETATM   50  O6  UNL     1     -10.043 -24.440  12.060  1.00  0.00    -0.644 OA
ENDBRANCH  47  48
ENDBRANCH  38  40
ENDBRANCH  37  38
ENDBRANCH  35  37
BRANCH  36  51
HETATM   51  O7  UNL     1     -12.210 -30.411  13.125  1.00  0.00    -0.356 OA
ATOM     52  H7  UNL     1     -11.364 -30.146  13.468  1.00  0.00     0.218 HD
ENDBRANCH  36  51
ENDBRANCH   3  29
TORSDOF 11
ENDMDL
MODEL 3
REMARK VINA RESULT: -9.753158107      4.905      8.883
REMARK  11 active torsions:
REMARK  status: ('A' for Active; 'I' for Inactive)
REMARK       I    between atoms: N1_1  and  C1_5 
REMARK       I    between atoms: C1_5  and  N2_6 
REMARK       I    between atoms: C1_5  and  N3_10 
REMARK    1  A    between atoms: N3_10  and  N4_12 
REMARK    2  A    between atoms: N4_12  and  C2_14 
REMARK    3  A    between atoms: C2_14  and  C3_15 
REMARK    4  A    between atoms: C4_18  and  N6_19 
REMARK       I    between atoms: N6_19  and  C5_21 
REMARK    5  A    between atoms: C5_21  and  C6_23 
REMARK    6  A    between atoms: C8_29  and  O2_30 
REMARK    7  A    between atoms: O2_30  and  C9_31 
REMARK    8  A    between atoms: C9_31  and  C10_33 
REMARK    9  A    between atoms: C12_40  and  C13_41 
REMARK   10  A    between atoms: C14_44  and  O7_45 
REMARK   11  A    between atoms: C17_49  and  N11_50 
ROOT
HETATM    1  N6  UNL     1     -15.468 -37.365  10.065  1.00  0.00    -0.307 N 
ATOM      2  H6  UNL     1     -15.812 -38.292   9.819  1.00  0.00     0.170 HD
HETATM    3  C5  UNL     1     -14.488 -37.232  11.085  1.00  0.00     0.278 C 
HETATM    4  O1  UNL     1     -13.324 -37.022  10.716  1.00  0.00    -0.265 OA
ENDROOT
BRANCH   1   5
HETATM    5  C4  UNL     1     -15.934 -36.318   9.437  1.00  0.00     0.108 A 
HETATM    6  N5  UNL     1     -15.885 -35.107  10.016  1.00  0.00    -0.339 N 
HETATM    7  C3  UNL     1     -16.361 -33.976   9.405  1.00  0.00     0.084 A 
ATOM      8  H5  UNL     1     -15.477 -35.025  10.948  1.00  0.00     0.167 HD
HETATM    9  C17 UNL     1     -16.900 -34.124   8.160  1.00  0.00     0.131 A 
HETATM   10  C16 UNL     1     -16.958 -35.387   7.541  1.00  0.00     0.042 A 
HETATM   11  C15 UNL     1     -16.475 -36.483   8.181  1.00  0.00     0.051 A 
BRANCH   7  12
HETATM   12  C2  UNL     1     -16.238 -32.705  10.084  1.00  0.00     0.139 C 
BRANCH  12  13
HETATM   13  N4  UNL     1     -15.689 -32.643  11.279  1.00  0.00    -0.311 N 
ATOM     14  H4  UNL     1     -16.225 -32.967  12.084  1.00  0.00     0.185 HD
BRANCH  13  15
HETATM   15  N3  UNL     1     -14.415 -32.156  11.478  1.00  0.00    -0.284 N 
HETATM   16  C1  UNL     1     -13.975 -31.513  12.700  1.00  0.00     0.494 C 
HETATM   17  N1  UNL     1     -14.076 -32.345  13.860  1.00  0.00    -0.032 N 
HETATM   18  N2  UNL     1     -12.624 -31.045  12.559  1.00  0.00    -0.032 N 
ATOM     19  H13 UNL     1     -13.404 -33.112  13.842  1.00  0.00     0.279 HD
ATOM     20  H12 UNL     1     -13.741 -31.876  14.702  1.00  0.00     0.279 HD
ATOM     21  H11 UNL     1     -15.036 -32.677  13.960  1.00  0.00     0.279 HD
ATOM     22  H23 UNL     1     -12.289 -30.576  13.401  1.00  0.00     0.279 HD
ATOM     23  H22 UNL     1     -11.951 -31.812  12.541  1.00  0.00     0.279 HD
ATOM     24  H21 UNL     1     -12.551 -30.452  11.732  1.00  0.00     0.279 HD
ATOM     25  H3  UNL     1     -13.740 -32.255  10.719  1.00  0.00     0.184 HD
ENDBRANCH  13  15
ENDBRANCH  12  13
ENDBRANCH   7  12
BRANCH   9  26
HETATM   26  N11 UNL     1     -17.423 -33.060   7.419  1.00  0.00    -0.113 N 
HETATM   27  O8  UNL     1     -17.677 -31.960   7.890  1.00  0.00    -0.532 OA
HETATM   28  O9  UNL     1     -17.709 -33.259   6.078  1.00  0.00    -0.532 OA
ENDBRANCH   9  26
ENDBRANCH   1   5
BRANCH   3  29
HETATM   29  C6  UNL     1     -14.864 -37.341  12.471  1.00  0.00     0.152 A 
HETATM   30  N7  UNL     1     -15.195 -38.580  12.961  1.00  0.00    -0.293 N 
HETATM   31  N8  UNL     1     -15.548 -38.778  14.205  1.00  0.00    -0.308 N 
ATOM     32  H7  UNL     1     -15.165 -39.379  12.329  1.00  0.00     0.187 HD
HETATM   33  C7  UNL     1     -15.587 -37.731  15.034  1.00  0.00     0.147 A 
ATOM     34  H8  UNL     1     -15.789 -39.713  14.535  1.00  0.00     0.186 HD
HETATM   35  C8  UNL     1     -15.270 -36.465  14.615  1.00  0.00     0.132 A 
HETATM   36  C14 UNL     1     -14.893 -36.243  13.296  1.00  0.00     0.135 A 
BRANCH  35  37
HETATM   37  O2  UNL     1     -15.340 -35.439  15.558  1.00  0.00    -0.269 OA
BRANCH  37  38
HETATM   38  C9  UNL     1     -16.431 -34.621  15.703  1.00  0.00     0.318 C 
HETATM   39  O3  UNL     1     -16.752 -33.895  14.728  1.00  0.00    -0.257 OA
BRANCH  38  40
HETATM   40  C10 UNL     1     -17.239 -34.545  16.913  1.00  0.00     0.146 A 
HETATM   41  N9  UNL     1     -17.072 -33.716  17.955  1.00  0.00    -0.291 N 
HETATM   42  N10 UNL     1     -17.983 -33.913  18.892  1.00  0.00    -0.265 N 
ATOM     43  H9  UNL     1     -16.331 -33.018  18.017  1.00  0.00     0.187 HD
HETATM   44  C11 UNL     1     -18.792 -34.901  18.478  1.00  0.00     0.279 A 
ATOM     45  H10 UNL     1     -18.058 -33.404  19.772  1.00  0.00     0.190 HD
HETATM   46  O4  UNL     1     -19.775 -35.354  19.118  1.00  0.00    -0.266 OA
HETATM   47  C12 UNL     1     -18.350 -35.320  17.235  1.00  0.00     0.144 A 
BRANCH  47  48
HETATM   48  C13 UNL     1     -18.881 -36.347  16.384  1.00  0.00     0.217 C 
HETATM   49  O5  UNL     1     -18.632 -37.548  16.622  1.00  0.00    -0.644 OA
HETATM   50  O6  UNL     1     -19.670 -36.026  15.300  1.00  0.00    -0.644 OA
ENDBRANCH  47  48
ENDBRANCH  38  40
ENDBRANCH  37  38
ENDBRANCH  35  37
BRANCH  36  51
HETATM   51  O7  UNL     1     -14.593 -34.980  12.942  1.00  0.00    -0.356 OA
ATOM     52  H7  UNL     1     -15.084 -34.202  13.179  1.00  0.00     0.218 HD
ENDBRANCH  36  51
ENDBRANCH   3  29
TORSDOF 11
ENDMDL
MODEL 4
REMARK VINA RESULT: -9.745544575      5.181      9.351
REMARK  11 active torsions:
REMARK  status: ('A' for Active; 'I' for Inactive)
REMARK       I    between atoms: N1_1  and  C1_5 
REMARK       I    between atoms: C1_5  and  N2_6 
REMARK       I    between atoms: C1_5  and  N3_10 
REMARK    1  A    between atoms: N3_10  and  N4_12 
REMARK    2  A    between atoms: N4_12  and  C2_14 
REMARK    3  A    between atoms: C2_14  and  C3_15 
REMARK    4  A    between atoms: C4_18  and  N6_19 
REMARK       I    between atoms: N6_19  and  C5_21 
REMARK    5  A    between atoms: C5_21  and  C6_23 
REMARK    6  A    between atoms: C8_29  and  O2_30 
REMARK    7  A    between atoms: O2_30  and  C9_31 
REMARK    8  A    between atoms: C9_31  and  C10_33 
REMARK    9  A    between atoms: C12_40  and  C13_41 
REMARK   10  A    between atoms: C14_44  and  O7_45 
REMARK   11  A    between atoms: C17_49  and  N11_50 
ROOT
HETATM    1  N6  UNL     1     -15.499 -36.899  10.528  1.00  0.00    -0.307 N 
ATOM      2  H6  UNL     1     -15.607 -37.865  10.221  1.00  0.00     0.170 HD
HETATM    3  C5  UNL     1     -14.854 -36.627  11.764  1.00  0.00     0.278 C 
HETATM    4  O1  UNL     1     -13.687 -36.215  11.705  1.00  0.00    -0.265 OA
ENDROOT
BRANCH   1   5
HETATM    5  C4  UNL     1     -15.957 -35.932   9.779  1.00  0.00     0.108 A 
HETATM    6  N5  UNL     1     -15.953 -34.667  10.232  1.00  0.00    -0.339 N 
HETATM    7  C3  UNL     1     -16.422 -33.615   9.490  1.00  0.00     0.084 A 
ATOM      8  H5  UNL     1     -15.586 -34.482  11.166  1.00  0.00     0.167 HD
HETATM    9  C17 UNL     1     -16.905 -33.899   8.246  1.00  0.00     0.131 A 
HETATM   10  C16 UNL     1     -16.915 -35.220   7.757  1.00  0.00     0.042 A 
HETATM   11  C15 UNL     1     -16.441 -36.235   8.525  1.00  0.00     0.051 A 
BRANCH   7  12
HETATM   12  C2  UNL     1     -16.350 -32.279  10.040  1.00  0.00     0.139 C 
BRANCH  12  13
HETATM   13  N4  UNL     1     -15.813 -32.079  11.225  1.00  0.00    -0.311 N 
ATOM     14  H4  UNL     1     -16.395 -32.192  12.055  1.00  0.00     0.185 HD
BRANCH  13  15
HETATM   15  N3  UNL     1     -14.491 -31.722  11.382  1.00  0.00    -0.284 N 
HETATM   16  C1  UNL     1     -13.709 -32.009  12.568  1.00  0.00     0.494 C 
HETATM   17  N1  UNL     1     -13.596 -33.406  12.861  1.00  0.00    -0.032 N 
HETATM   18  N2  UNL     1     -12.397 -31.434  12.453  1.00  0.00    -0.032 N 
ATOM     19  H13 UNL     1     -13.020 -33.896  12.177  1.00  0.00     0.279 HD
ATOM     20  H12 UNL     1     -13.025 -33.581  13.688  1.00  0.00     0.279 HD
ATOM     21  H11 UNL     1     -14.528 -33.814  12.943  1.00  0.00     0.279 HD
ATOM     22  H23 UNL     1     -11.826 -31.610  13.280  1.00  0.00     0.279 HD
ATOM     23  H22 UNL     1     -11.821 -31.925  11.769  1.00  0.00     0.279 HD
ATOM     24  H21 UNL     1     -12.478 -30.439  12.244  1.00  0.00     0.279 HD
ATOM     25  H3  UNL     1     -14.034 -31.226  10.617  1.00  0.00     0.184 HD
ENDBRANCH  13  15
ENDBRANCH  12  13
ENDBRANCH   7  12
BRANCH   9  26
HETATM   26  N11 UNL     1     -17.414 -32.928   7.380  1.00  0.00    -0.113 N 
HETATM   27  O8  UNL     1     -17.639 -31.771   7.708  1.00  0.00    -0.532 OA
HETATM   28  O9  UNL     1     -17.721 -33.290   6.077  1.00  0.00    -0.532 OA
ENDBRANCH   9  26
ENDBRANCH   1   5
BRANCH   3  29
HETATM   29  C6  UNL     1     -15.552 -36.830  13.007  1.00  0.00     0.152 A 
HETATM   30  N7  UNL     1     -15.586 -38.095  13.537  1.00  0.00    -0.293 N 
HETATM   31  N8  UNL     1     -16.194 -38.377  14.660  1.00  0.00    -0.308 N 
ATOM     32  H7  UNL     1     -15.118 -38.848  13.034  1.00  0.00     0.187 HD
HETATM   33  C7  UNL     1     -16.806 -37.390  15.322  1.00  0.00     0.147 A 
ATOM     34  H8  UNL     1     -16.200 -39.329  15.025  1.00  0.00     0.186 HD
HETATM   35  C8  UNL     1     -16.814 -36.102  14.853  1.00  0.00     0.132 A 
HETATM   36  C14 UNL     1     -16.171 -35.792  13.661  1.00  0.00     0.135 A 
BRANCH  35  37
HETATM   37  O2  UNL     1     -17.480 -35.144  15.617  1.00  0.00    -0.269 OA
BRANCH  37  38
HETATM   38  C9  UNL     1     -16.855 -34.346  16.541  1.00  0.00     0.318 C 
HETATM   39  O3  UNL     1     -16.522 -33.188  16.184  1.00  0.00    -0.257 OA
BRANCH  38  40
HETATM   40  C10 UNL     1     -16.557 -34.758  17.906  1.00  0.00     0.146 A 
HETATM   41  N9  UNL     1     -15.520 -35.499  18.328  1.00  0.00    -0.291 N 
HETATM   42  N10 UNL     1     -15.550 -35.690  19.635  1.00  0.00    -0.265 N 
ATOM     43  H9  UNL     1     -14.795 -35.869  17.713  1.00  0.00     0.187 HD
HETATM   44  C11 UNL     1     -16.634 -35.064  20.117  1.00  0.00     0.279 A 
ATOM     45  H10 UNL     1     -14.870 -36.219  20.179  1.00  0.00     0.190 HD
HETATM   46  O4  UNL     1     -16.981 -35.033  21.326  1.00  0.00    -0.266 OA
HETATM   47  C12 UNL     1     -17.290 -34.468  19.054  1.00  0.00     0.144 A 
BRANCH  47  48
HETATM   48  C13 UNL     1     -18.494 -33.686  19.056  1.00  0.00     0.217 C 
HETATM   49  O5  UNL     1     -18.488 -32.528  19.526  1.00  0.00    -0.644 OA
HETATM   50  O6  UNL     1     -19.667 -34.197  18.542  1.00  0.00    -0.644 OA
ENDBRANCH  47  48
ENDBRANCH  38  40
ENDBRANCH  37  38
ENDBRANCH  35  37
BRANCH  36  51
HETATM   51  O7  UNL     1     -16.211 -34.511  13.250  1.00  0.00    -0.356 OA
ATOM     52  H7  UNL     1     -16.496 -33.767  13.769  1.00  0.00     0.218 HD
ENDBRANCH  36  51
ENDBRANCH   3  29
TORSDOF 11
ENDMDL
MODEL 5
REMARK VINA RESULT: -9.649794855      3.365      9.931
REMARK  11 active torsions:
REMARK  status: ('A' for Active; 'I' for Inactive)
REMARK       I    between atoms: N1_1  and  C1_5 
REMARK       I    between atoms: C1_5  and  N2_6 
REMARK       I    between atoms: C1_5  and  N3_10 
REMARK    1  A    between atoms: N3_10  and  N4_12 
REMARK    2  A    between atoms: N4_12  and  C2_14 
REMARK    3  A    between atoms: C2_14  and  C3_15 
REMARK    4  A    between atoms: C4_18  and  N6_19 
REMARK       I    between atoms: N6_19  and  C5_21 
REMARK    5  A    between atoms: C5_21  and  C6_23 
REMARK    6  A    between atoms: C8_29  and  O2_30 
REMARK    7  A    between atoms: O2_30  and  C9_31 
REMARK    8  A    between atoms: C9_31  and  C10_33 
REMARK    9  A    between atoms: C12_40  and  C13_41 
REMARK   10  A    between atoms: C14_44  and  O7_45 
REMARK   11  A    between atoms: C17_49  and  N11_50 
ROOT
HETATM    1  N6  UNL     1     -15.735 -32.960  12.168  1.00  0.00    -0.307 N 
ATOM      2  H6  UNL     1     -16.406 -32.908  12.933  1.00  0.00     0.170 HD
HETATM    3  C5  UNL     1     -14.345 -32.906  12.454  1.00  0.00     0.278 C 
HETATM    4  O1  UNL     1     -13.724 -33.977  12.412  1.00  0.00    -0.265 OA
ENDROOT
BRANCH   1   5
HETATM    5  C4  UNL     1     -16.166 -33.077  10.940  1.00  0.00     0.108 A 
HETATM    6  N5  UNL     1     -16.220 -34.285  10.355  1.00  0.00    -0.339 N 
HETATM    7  C3  UNL     1     -16.662 -34.465   9.071  1.00  0.00     0.084 A 
ATOM      8  H5  UNL     1     -15.919 -35.102  10.888  1.00  0.00     0.167 HD
HETATM    9  C17 UNL     1     -17.055 -33.351   8.388  1.00  0.00     0.131 A 
HETATM   10  C16 UNL     1     -17.006 -32.078   8.988  1.00  0.00     0.042 A 
HETATM   11  C15 UNL     1     -16.560 -31.943  10.264  1.00  0.00     0.051 A 
BRANCH   7  12
HETATM   12  C2  UNL     1     -16.720 -35.804   8.528  1.00  0.00     0.139 C 
BRANCH  12  13
HETATM   13  N4  UNL     1     -15.661 -36.330   7.949  1.00  0.00    -0.311 N 
ATOM     14  H4  UNL     1     -15.383 -35.990   7.029  1.00  0.00     0.185 HD
BRANCH  13  15
HETATM   15  N3  UNL     1     -14.916 -37.325   8.545  1.00  0.00    -0.284 N 
HETATM   16  C1  UNL     1     -13.575 -37.134   9.061  1.00  0.00     0.494 C 
HETATM   17  N1  UNL     1     -13.489 -36.147  10.094  1.00  0.00    -0.032 N 
HETATM   18  N2  UNL     1     -13.043 -38.380   9.541  1.00  0.00    -0.032 N 
ATOM     19  H13 UNL     1     -13.942 -36.452  10.955  1.00  0.00     0.279 HD
ATOM     20  H12 UNL     1     -12.540 -36.046  10.453  1.00  0.00     0.279 HD
ATOM     21  H11 UNL     1     -13.867 -35.262   9.753  1.00  0.00     0.279 HD
ATOM     22  H23 UNL     1     -12.093 -38.279   9.900  1.00  0.00     0.279 HD
ATOM     23  H22 UNL     1     -13.495 -38.684  10.403  1.00  0.00     0.279 HD
ATOM     24  H21 UNL     1     -13.104 -39.084   8.805  1.00  0.00     0.279 HD
ATOM     25  H3  UNL     1     -15.333 -38.252   8.628  1.00  0.00     0.184 HD
ENDBRANCH  13  15
ENDBRANCH  12  13
ENDBRANCH   7  12
BRANCH   9  26
HETATM   26  N11 UNL     1     -17.528 -33.384   7.073  1.00  0.00    -0.113 N 
HETATM   27  O8  UNL     1     -16.957 -33.957   6.156  1.00  0.00    -0.532 OA
HETATM   28  O9  UNL     1     -18.694 -32.700   6.767  1.00  0.00    -0.532 OA
ENDBRANCH   9  26
ENDBRANCH   1   5
BRANCH   3  29
HETATM   29  C6  UNL     1     -13.718 -31.648  12.774  1.00  0.00     0.152 A 
HETATM   30  N7  UNL     1     -12.602 -31.278  12.067  1.00  0.00    -0.293 N 
HETATM   31  N8  UNL     1     -11.966 -30.156  12.285  1.00  0.00    -0.308 N 
ATOM     32  H7  UNL     1     -12.253 -31.903  11.342  1.00  0.00     0.187 HD
HETATM   33  C7  UNL     1     -12.424 -29.334  13.234  1.00  0.00     0.147 A 
ATOM     34  H8  UNL     1     -11.138 -29.912  11.741  1.00  0.00     0.186 HD
HETATM   35  C8  UNL     1     -13.533 -29.638  13.980  1.00  0.00     0.132 A 
HETATM   36  C14 UNL     1     -14.216 -30.828  13.757  1.00  0.00     0.135 A 
BRANCH  35  37
HETATM   37  O2  UNL     1     -13.931 -28.715  14.947  1.00  0.00    -0.269 OA
BRANCH  37  38
HETATM   38  C9  UNL     1     -15.107 -28.013  14.881  1.00  0.00     0.318 C 
HETATM   39  O3  UNL     1     -15.484 -27.607  13.753  1.00  0.00    -0.257 OA
BRANCH  38  40
HETATM   40  C10 UNL     1     -15.943 -27.712  16.036  1.00  0.00     0.146 A 
HETATM   41  N9  UNL     1     -15.556 -27.194  17.212  1.00  0.00    -0.291 N 
HETATM   42  N10 UNL     1     -16.572 -27.050  18.044  1.00  0.00    -0.265 N 
ATOM     43  H9  UNL     1     -14.594 -26.943  17.436  1.00  0.00     0.187 HD
HETATM   44  C11 UNL     1     -17.680 -27.479  17.421  1.00  0.00     0.279 A 
ATOM     45  H10 UNL     1     -16.522 -26.677  18.992  1.00  0.00     0.190 HD
HETATM   46  O4  UNL     1     -18.837 -27.489  17.914  1.00  0.00    -0.266 OA
HETATM   47  C12 UNL     1     -17.317 -27.904  16.154  1.00  0.00     0.144 A 
BRANCH  47  48
HETATM   48  C13 UNL     1     -18.141 -28.445  15.110  1.00  0.00     0.217 C 
HETATM   49  O5  UNL     1     -17.775 -29.466  14.490  1.00  0.00    -0.644 OA
HETATM   50  O6  UNL     1     -19.340 -27.851  14.779  1.00  0.00    -0.644 OA
ENDBRANCH  47  48
ENDBRANCH  38  40
ENDBRANCH  37  38
ENDBRANCH  35  37
BRANCH  36  51
HETATM   51  O7  UNL     1     -15.298 -31.073  14.519  1.00  0.00    -0.356 OA
ATOM     52  H7  UNL     1     -15.905 -30.422  14.851  1.00  0.00     0.218 HD
ENDBRANCH  36  51
ENDBRANCH   3  29
TORSDOF 11
ENDMDL
