MODEL 1
REMARK VINA RESULT: -9.098048517      0.000      0.000
REMARK  13 active torsions:
REMARK  status: ('A' for Active; 'I' for Inactive)
REMARK    1  A    between atoms: C4_4  and  N1_5 
REMARK    2  A    between atoms: N1_5  and  C5_7 
REMARK    3  A    between atoms: C5_7  and  C6_8 
REMARK    4  A    between atoms: C6_8  and  N2_9 
REMARK    5  A    between atoms: N2_9  and  C7_11 
REMARK    6  A    between atoms: C10_18  and  C11_19 
REMARK    7  A    between atoms: C11_19  and  C12_20 
REMARK    8  A    between atoms: C12_20  and  C13_21 
REMARK       I    between atoms: C13_21  and  N5_23 
REMARK    9  A    between atoms: N5_23  and  N6_25 
REMARK   10  A    between atoms: C15_30  and  C16_31 
REMARK   11  A    between atoms: N8_33  and  C18_34 
REMARK   12  A    between atoms: C19_39  and  N11_40 
REMARK   13  A    between atoms: C20_45  and  N13_46 
ROOT
HETATM    1  C7  UNL     1     -15.789 -34.595  13.653  1.00  0.00     0.131 A 
HETATM    2  N3  UNL     1     -16.238 -35.818  14.051  1.00  0.00    -0.175 N 
ATOM      3  H3  UNL     1     -16.170 -36.621  13.425  1.00  0.00     0.186 HD
HETATM    4  C8  UNL     1     -16.775 -35.956  15.286  1.00  0.00     0.690 A 
HETATM    5  N4  UNL     1     -17.299 -37.015  15.955  1.00  0.00    -0.199 N 
ATOM      6  H4  UNL     1     -17.369 -37.962  15.583  1.00  0.00     0.183 HD
HETATM    7  C9  UNL     1     -17.711 -36.639  17.180  1.00  0.00     0.132 A 
HETATM    8  C10 UNL     1     -17.423 -35.283  17.254  1.00  0.00     0.050 A 
HETATM    9  N7  UNL     1     -16.859 -34.903  16.092  1.00  0.00    -0.159 N 
HETATM   10  C14 UNL     1     -16.419 -33.661  15.730  1.00  0.00     0.133 A 
HETATM   11  C15 UNL     1     -15.869 -33.500  14.478  1.00  0.00     0.054 A 
ENDROOT
BRANCH  11  12
HETATM   12  C16 UNL     1     -15.370 -32.227  13.987  1.00  0.00     0.082 A 
HETATM   13  C17 UNL     1     -14.067 -31.766  13.945  1.00  0.00     0.151 A 
HETATM   14  N8  UNL     1     -14.087 -30.531  13.409  1.00  0.00    -0.230 N 
HETATM   15  N14 UNL     1     -15.336 -30.208  13.119  1.00  0.00    -0.234 N 
HETATM   16  N15 UNL     1     -16.097 -31.223  13.466  1.00  0.00    -0.284 N 
ATOM     17  H14 UNL     1     -15.651 -29.332  12.701  1.00  0.00     0.209 HD
ATOM     18  H15 UNL     1     -17.111 -31.246  13.354  1.00  0.00     0.188 HD
BRANCH  14  19
HETATM   19  C18 UNL     1     -12.935 -29.737  13.204  1.00  0.00     0.188 A 
HETATM   20  N9  UNL     1     -12.048 -30.074  12.224  1.00  0.00    -0.267 N 
HETATM   21  N10 UNL     1     -10.962 -29.380  11.983  1.00  0.00    -0.131 N 
ATOM     22  H9  UNL     1     -12.239 -30.900  11.656  1.00  0.00     0.189 HD
HETATM   23  C19 UNL     1     -10.692 -28.290  12.719  1.00  0.00     0.692 A 
ATOM     24  H10 UNL     1     -10.324 -29.668  11.240  1.00  0.00     0.205 HD
HETATM   25  N12 UNL     1     -11.521 -27.903  13.699  1.00  0.00    -0.172 N 
HETATM   26  C20 UNL     1     -12.633 -28.614  13.945  1.00  0.00     0.162 A 
ATOM     27  H12 UNL     1     -11.308 -27.073  14.254  1.00  0.00     0.186 HD
BRANCH  23  28
HETATM   28  N11 UNL     1      -9.608 -27.626  12.456  1.00  0.00    -0.233 N 
ATOM     29 2H11 UNL     1      -9.025 -27.866  11.654  1.00  0.00     0.174 HD
ATOM     30 1H11 UNL     1      -9.354 -26.855  13.073  1.00  0.00     0.174 HD
ENDBRANCH  23  28
BRANCH  26  31
HETATM   31  N13 UNL     1     -13.417 -28.244  14.876  1.00  0.00    -0.382 N 
ATOM     32 2H13 UNL     1     -14.411 -28.129  14.677  1.00  0.00     0.157 HD
ATOM     33 1H13 UNL     1     -13.046 -28.065  15.809  1.00  0.00     0.157 HD
ENDBRANCH  26  31
ENDBRANCH  14  19
ENDBRANCH  11  12
BRANCH   1  34
HETATM   34  N2  UNL     1     -15.275 -34.438  12.487  1.00  0.00    -0.373 N 
ATOM     35  H2  UNL     1     -15.597 -33.696  11.865  1.00  0.00     0.161 HD
BRANCH  34  36
HETATM   36  C6  UNL     1     -14.224 -35.347  12.085  1.00  0.00     0.141 C 
BRANCH  36  37
HETATM   37  C5  UNL     1     -14.300 -35.680  10.612  1.00  0.00     0.141 C 
BRANCH  37  38
HETATM   38  N1  UNL     1     -15.601 -36.242  10.362  1.00  0.00    -0.373 N 
ATOM     39  H1  UNL     1     -15.974 -36.977  10.962  1.00  0.00     0.161 HD
BRANCH  38  40
HETATM   40  C4  UNL     1     -16.284 -35.798   9.365  1.00  0.00     0.124 A 
HETATM   41  C3  UNL     1     -16.412 -34.466   8.984  1.00  0.00     0.084 A 
HETATM   42  C2  UNL     1     -17.223 -34.439   7.879  1.00  0.00     0.076 A 
HETATM   43  C1  UNL     1     -17.663 -33.258   7.098  1.00  0.00     0.079 C 
HETATM   44  O2  UNL     1     -17.556 -35.671   7.621  1.00  0.00    -0.241 OA
HETATM   45  N16 UNL     1     -17.024 -36.482   8.470  1.00  0.00    -0.245 N 
ATOM     46  H16 UNL     1     -17.144 -37.495   8.465  1.00  0.00     0.196 HD
ENDBRANCH  38  40
ENDBRANCH  37  38
ENDBRANCH  36  37
ENDBRANCH  34  36
ENDBRANCH   1  34
BRANCH   8  47
HETATM   47  C11 UNL     1     -17.691 -34.404  18.412  1.00  0.00     0.069 C 
BRANCH  47  48
HETATM   48  C12 UNL     1     -19.144 -34.320  18.758  1.00  0.00     0.110 C 
BRANCH  48  49
HETATM   49  C13 UNL     1     -19.318 -33.475  19.951  1.00  0.00     0.235 C 
HETATM   50  O1  UNL     1     -20.413 -33.479  20.556  1.00  0.00    -0.272 OA
HETATM   51  N5  UNL     1     -18.237 -32.670  20.394  1.00  0.00    -0.277 N 
ATOM     52  H5  UNL     1     -17.360 -32.694  19.875  1.00  0.00     0.189 HD
BRANCH  51  53
HETATM   53  N6  UNL     1     -18.335 -31.841  21.523  1.00  0.00    -0.343 N 
ATOM     54  H62 UNL     1     -18.502 -30.846  21.371  1.00  0.00     0.176 HD
ATOM     55  H61 UNL     1     -18.244 -32.202  22.472  1.00  0.00     0.176 HD
ENDBRANCH  51  53
ENDBRANCH  48  49
ENDBRANCH  47  48
ENDBRANCH   8  47
TORSDOF 13
ENDMDL
MODEL 2
REMARK VINA RESULT: -8.990079422      1.388      1.487
REMARK  13 active torsions:
REMARK  status: ('A' for Active; 'I' for Inactive)
REMARK    1  A    between atoms: C4_4  and  N1_5 
REMARK    2  A    between atoms: N1_5  and  C5_7 
REMARK    3  A    between atoms: C5_7  and  C6_8 
REMARK    4  A    between atoms: C6_8  and  N2_9 
REMARK    5  A    between atoms: N2_9  and  C7_11 
REMARK    6  A    between atoms: C10_18  and  C11_19 
REMARK    7  A    between atoms: C11_19  and  C12_20 
REMARK    8  A    between atoms: C12_20  and  C13_21 
REMARK       I    between atoms: C13_21  and  N5_23 
REMARK    9  A    between atoms: N5_23  and  N6_25 
REMARK   10  A    between atoms: C15_30  and  C16_31 
REMARK   11  A    between atoms: N8_33  and  C18_34 
REMARK   12  A    between atoms: C19_39  and  N11_40 
REMARK   13  A    between atoms: C20_45  and  N13_46 
ROOT
HETATM    1  C7  UNL     1     -14.973 -34.894  14.076  1.00  0.00     0.131 A 
HETATM    2  N3  UNL     1     -15.309 -36.127  14.547  1.00  0.00    -0.175 N 
ATOM      3  H3  UNL     1     -14.867 -36.963  14.165  1.00  0.00     0.186 HD
HETATM    4  C8  UNL     1     -16.237 -36.230  15.528  1.00  0.00     0.690 A 
HETATM    5  N4  UNL     1     -16.773 -37.289  16.189  1.00  0.00    -0.199 N 
ATOM      6  H4  UNL     1     -16.526 -38.264  16.023  1.00  0.00     0.183 HD
HETATM    7  C9  UNL     1     -17.676 -36.869  17.095  1.00  0.00     0.132 A 
HETATM    8  C10 UNL     1     -17.687 -35.486  16.974  1.00  0.00     0.050 A 
HETATM    9  N7  UNL     1     -16.807 -35.134  16.018  1.00  0.00    -0.159 N 
HETATM   10  C14 UNL     1     -16.496 -33.881  15.573  1.00  0.00     0.133 A 
HETATM   11  C15 UNL     1     -15.554 -33.754  14.576  1.00  0.00     0.054 A 
ENDROOT
BRANCH  11  12
HETATM   12  C16 UNL     1     -15.146 -32.472  14.026  1.00  0.00     0.082 A 
HETATM   13  C17 UNL     1     -13.885 -31.908  13.990  1.00  0.00     0.151 A 
HETATM   14  N8  UNL     1     -13.990 -30.710  13.384  1.00  0.00    -0.230 N 
HETATM   15  N14 UNL     1     -15.252 -30.508  13.046  1.00  0.00    -0.234 N 
HETATM   16  N15 UNL     1     -15.938 -31.563  13.431  1.00  0.00    -0.284 N 
ATOM     17  H14 UNL     1     -15.625 -29.686  12.572  1.00  0.00     0.209 HD
ATOM     18  H15 UNL     1     -16.942 -31.676  13.296  1.00  0.00     0.188 HD
BRANCH  14  19
HETATM   19  C18 UNL     1     -12.901 -29.835  13.163  1.00  0.00     0.188 A 
HETATM   20  N9  UNL     1     -12.009 -30.106  12.167  1.00  0.00    -0.267 N 
HETATM   21  N10 UNL     1     -10.979 -29.335  11.910  1.00  0.00    -0.131 N 
ATOM     22  H9  UNL     1     -12.150 -30.941  11.598  1.00  0.00     0.189 HD
HETATM   23  C19 UNL     1     -10.775 -28.231  12.646  1.00  0.00     0.692 A 
ATOM     24  H10 UNL     1     -10.336 -29.575  11.156  1.00  0.00     0.205 HD
HETATM   25  N12 UNL     1     -11.612 -27.906  13.642  1.00  0.00    -0.172 N 
HETATM   26  C20 UNL     1     -12.667 -28.695  13.904  1.00  0.00     0.162 A 
ATOM     27  H12 UNL     1     -11.449 -27.066  14.196  1.00  0.00     0.186 HD
BRANCH  23  28
HETATM   28  N11 UNL     1      -9.746 -27.490  12.367  1.00  0.00    -0.233 N 
ATOM     29 2H11 UNL     1      -9.416 -27.387  11.407  1.00  0.00     0.174 HD
ATOM     30 1H11 UNL     1      -9.275 -27.012  13.135  1.00  0.00     0.174 HD
ENDBRANCH  23  28
BRANCH  26  31
HETATM   31  N13 UNL     1     -13.459 -28.385  14.849  1.00  0.00    -0.382 N 
ATOM     32 2H13 UNL     1     -13.126 -28.420  15.812  1.00  0.00     0.157 HD
ATOM     33 1H13 UNL     1     -14.417 -28.106  14.635  1.00  0.00     0.157 HD
ENDBRANCH  26  31
ENDBRANCH  14  19
ENDBRANCH  11  12
BRANCH   1  34
HETATM   34  N2  UNL     1     -14.096 -34.769  13.147  1.00  0.00    -0.373 N 
ATOM     35  H2  UNL     1     -13.315 -34.120  13.244  1.00  0.00     0.161 HD
BRANCH  34  36
HETATM   36  C6  UNL     1     -14.253 -35.579  11.959  1.00  0.00     0.141 C 
BRANCH  36  37
HETATM   37  C5  UNL     1     -15.475 -35.180  11.162  1.00  0.00     0.141 C 
BRANCH  37  38
HETATM   38  N1  UNL     1     -15.337 -33.788  10.827  1.00  0.00    -0.373 N 
ATOM     39  H1  UNL     1     -14.644 -33.205  11.297  1.00  0.00     0.161 HD
BRANCH  38  40
HETATM   40  C4  UNL     1     -16.106 -33.291   9.922  1.00  0.00     0.124 A 
HETATM   41  C3  UNL     1     -16.554 -33.940   8.777  1.00  0.00     0.084 A 
HETATM   42  C2  UNL     1     -17.345 -33.053   8.093  1.00  0.00     0.076 A 
HETATM   43  C1  UNL     1     -18.058 -33.266   6.811  1.00  0.00     0.079 C 
HETATM   44  O2  UNL     1     -17.366 -31.951   8.786  1.00  0.00    -0.241 OA
HETATM   45  N16 UNL     1     -16.654 -32.061   9.855  1.00  0.00    -0.245 N 
ATOM     46  H16 UNL     1     -16.523 -31.324  10.548  1.00  0.00     0.196 HD
ENDBRANCH  38  40
ENDBRANCH  37  38
ENDBRANCH  36  37
ENDBRANCH  34  36
ENDBRANCH   1  34
BRANCH   8  47
HETATM   47  C11 UNL     1     -18.525 -34.557  17.760  1.00  0.00     0.069 C 
BRANCH  47  48
HETATM   48  C12 UNL     1     -17.796 -33.952  18.919  1.00  0.00     0.110 C 
BRANCH  48  49
HETATM   49  C13 UNL     1     -18.757 -33.273  19.804  1.00  0.00     0.235 C 
HETATM   50  O1  UNL     1     -18.394 -32.267  20.454  1.00  0.00    -0.272 OA
HETATM   51  N5  UNL     1     -20.081 -33.773  19.904  1.00  0.00    -0.277 N 
ATOM     52  H5  UNL     1     -20.340 -34.594  19.358  1.00  0.00     0.189 HD
BRANCH  51  53
HETATM   53  N6  UNL     1     -21.047 -33.175  20.729  1.00  0.00    -0.343 N 
ATOM     54  H62 UNL     1     -20.722 -32.660  21.548  1.00  0.00     0.176 HD
ATOM     55  H61 UNL     1     -22.046 -33.241  20.534  1.00  0.00     0.176 HD
ENDBRANCH  51  53
ENDBRANCH  48  49
ENDBRANCH  47  48
ENDBRANCH   8  47
TORSDOF 13
ENDMDL
MODEL 3
REMARK VINA RESULT: -8.747742100      1.755      7.217
REMARK  13 active torsions:
REMARK  status: ('A' for Active; 'I' for Inactive)
REMARK    1  A    between atoms: C4_4  and  N1_5 
REMARK    2  A    between atoms: N1_5  and  C5_7 
REMARK    3  A    between atoms: C5_7  and  C6_8 
REMARK    4  A    between atoms: C6_8  and  N2_9 
REMARK    5  A    between atoms: N2_9  and  C7_11 
REMARK    6  A    between atoms: C10_18  and  C11_19 
REMARK    7  A    between atoms: C11_19  and  C12_20 
REMARK    8  A    between atoms: C12_20  and  C13_21 
REMARK       I    between atoms: C13_21  and  N5_23 
REMARK    9  A    between atoms: N5_23  and  N6_25 
REMARK   10  A    between atoms: C15_30  and  C16_31 
REMARK   11  A    between atoms: N8_33  and  C18_34 
REMARK   12  A    between atoms: C19_39  and  N11_40 
REMARK   13  A    between atoms: C20_45  and  N13_46 
ROOT
HETATM    1  C7  UNL     1     -14.832 -34.641  13.232  1.00  0.00     0.131 A 
HETATM    2  N3  UNL     1     -15.096 -35.956  12.995  1.00  0.00    -0.175 N 
ATOM      3  H3  UNL     1     -15.123 -36.624  13.766  1.00  0.00     0.186 HD
HETATM    4  C8  UNL     1     -15.323 -36.367  11.725  1.00  0.00     0.690 A 
HETATM    5  N4  UNL     1     -15.604 -37.579  11.180  1.00  0.00    -0.199 N 
ATOM      6  H4  UNL     1     -15.695 -38.447  11.707  1.00  0.00     0.183 HD
HETATM    7  C9  UNL     1     -15.746 -37.472   9.846  1.00  0.00     0.132 A 
HETATM    8  C10 UNL     1     -15.539 -36.128   9.570  1.00  0.00     0.050 A 
HETATM    9  N7  UNL     1     -15.285 -35.489  10.729  1.00  0.00    -0.159 N 
HETATM   10  C14 UNL     1     -15.024 -34.163  10.925  1.00  0.00     0.133 A 
HETATM   11  C15 UNL     1     -14.791 -33.724  12.210  1.00  0.00     0.054 A 
ENDROOT
BRANCH  11  12
HETATM   12  C16 UNL     1     -14.504 -32.338  12.536  1.00  0.00     0.082 A 
HETATM   13  C17 UNL     1     -13.277 -31.720  12.690  1.00  0.00     0.151 A 
HETATM   14  N8  UNL     1     -13.503 -30.428  12.990  1.00  0.00    -0.230 N 
HETATM   15  N14 UNL     1     -14.808 -30.217  13.030  1.00  0.00    -0.234 N 
HETATM   16  N15 UNL     1     -15.400 -31.361  12.759  1.00  0.00    -0.284 N 
ATOM     17  H14 UNL     1     -15.269 -29.331  13.233  1.00  0.00     0.209 HD
ATOM     18  H15 UNL     1     -16.412 -31.489  12.722  1.00  0.00     0.188 HD
BRANCH  14  19
HETATM   19  C18 UNL     1     -12.482 -29.476  13.220  1.00  0.00     0.188 A 
HETATM   20  N9  UNL     1     -11.331 -29.533  12.490  1.00  0.00    -0.267 N 
HETATM   21  N10 UNL     1     -10.346 -28.682  12.653  1.00  0.00    -0.131 N 
ATOM     22  H9  UNL     1     -11.232 -30.268  11.788  1.00  0.00     0.189 HD
HETATM   23  C19 UNL     1     -10.455 -27.708  13.571  1.00  0.00     0.692 A 
ATOM     24  H10 UNL     1      -9.502 -28.760  12.087  1.00  0.00     0.205 HD
HETATM   25  N12 UNL     1     -11.559 -27.595  14.323  1.00  0.00    -0.172 N 
HETATM   26  C20 UNL     1     -12.567 -28.467  14.155  1.00  0.00     0.162 A 
ATOM     27  H12 UNL     1     -11.634 -26.852  15.019  1.00  0.00     0.186 HD
BRANCH  23  28
HETATM   28  N11 UNL     1      -9.463 -26.882  13.709  1.00  0.00    -0.233 N 
ATOM     29 2H11 UNL     1      -8.977 -26.502  12.896  1.00  0.00     0.174 HD
ATOM     30 1H11 UNL     1      -9.181 -26.621  14.654  1.00  0.00     0.174 HD
ENDBRANCH  23  28
BRANCH  26  31
HETATM   31  N13 UNL     1     -13.613 -28.358  14.871  1.00  0.00    -0.382 N 
ATOM     32 2H13 UNL     1     -14.381 -29.015  14.737  1.00  0.00     0.157 HD
ATOM     33 1H13 UNL     1     -13.673 -27.616  15.568  1.00  0.00     0.157 HD
ENDBRANCH  26  31
ENDBRANCH  14  19
ENDBRANCH  11  12
BRANCH   1  34
HETATM   34  N2  UNL     1     -14.615 -34.225  14.427  1.00  0.00    -0.373 N 
ATOM     35  H2  UNL     1     -13.920 -33.502  14.615  1.00  0.00     0.161 HD
BRANCH  34  36
HETATM   36  C6  UNL     1     -15.387 -34.816  15.497  1.00  0.00     0.141 C 
BRANCH  36  37
HETATM   37  C5  UNL     1     -16.335 -33.819  16.125  1.00  0.00     0.141 C 
BRANCH  37  38
HETATM   38  N1  UNL     1     -16.472 -34.167  17.514  1.00  0.00    -0.373 N 
ATOM     39  H1  UNL     1     -15.650 -34.374  18.082  1.00  0.00     0.161 HD
BRANCH  38  40
HETATM   40  C4  UNL     1     -17.652 -34.213  18.027  1.00  0.00     0.124 A 
HETATM   41  C3  UNL     1     -18.032 -33.699  19.262  1.00  0.00     0.084 A 
HETATM   42  C2  UNL     1     -19.369 -33.963  19.414  1.00  0.00     0.076 A 
HETATM   43  C1  UNL     1     -20.243 -33.617  20.561  1.00  0.00     0.079 C 
HETATM   44  O2  UNL     1     -19.757 -34.591  18.342  1.00  0.00    -0.241 OA
HETATM   45  N16 UNL     1     -18.779 -34.750  17.518  1.00  0.00    -0.245 N 
ATOM     46  H16 UNL     1     -18.847 -35.215  16.612  1.00  0.00     0.196 HD
ENDBRANCH  38  40
ENDBRANCH  37  38
ENDBRANCH  36  37
ENDBRANCH  34  36
ENDBRANCH   1  34
BRANCH   8  47
HETATM   47  C11 UNL     1     -15.587 -35.502   8.233  1.00  0.00     0.069 C 
BRANCH  47  48
HETATM   48  C12 UNL     1     -16.981 -35.207   7.775  1.00  0.00     0.110 C 
BRANCH  48  49
HETATM   49  C13 UNL     1     -17.154 -33.753   7.625  1.00  0.00     0.235 C 
HETATM   50  O1  UNL     1     -17.472 -33.281   6.511  1.00  0.00    -0.272 OA
HETATM   51  N5  UNL     1     -16.957 -32.912   8.751  1.00  0.00    -0.277 N 
ATOM     52  H5  UNL     1     -16.699 -33.334   9.642  1.00  0.00     0.189 HD
BRANCH  51  53
HETATM   53  N6  UNL     1     -17.104 -31.518   8.678  1.00  0.00    -0.343 N 
ATOM     54  H62 UNL     1     -16.275 -30.960   8.472  1.00  0.00     0.176 HD
ATOM     55  H61 UNL     1     -18.003 -31.058   8.823  1.00  0.00     0.176 HD
ENDBRANCH  51  53
ENDBRANCH  48  49
ENDBRANCH  47  48
ENDBRANCH   8  47
TORSDOF 13
ENDMDL
MODEL 4
REMARK VINA RESULT: -8.729189378      3.009      9.080
REMARK  13 active torsions:
REMARK  status: ('A' for Active; 'I' for Inactive)
REMARK    1  A    between atoms: C4_4  and  N1_5 
REMARK    2  A    between atoms: N1_5  and  C5_7 
REMARK    3  A    between atoms: C5_7  and  C6_8 
REMARK    4  A    between atoms: C6_8  and  N2_9 
REMARK    5  A    between atoms: N2_9  and  C7_11 
REMARK    6  A    between atoms: C10_18  and  C11_19 
REMARK    7  A    between atoms: C11_19  and  C12_20 
REMARK    8  A    between atoms: C12_20  and  C13_21 
REMARK       I    between atoms: C13_21  and  N5_23 
REMARK    9  A    between atoms: N5_23  and  N6_25 
REMARK   10  A    between atoms: C15_30  and  C16_31 
REMARK   11  A    between atoms: N8_33  and  C18_34 
REMARK   12  A    between atoms: C19_39  and  N11_40 
REMARK   13  A    between atoms: C20_45  and  N13_46 
ROOT
HETATM    1  C7  UNL     1     -15.249 -32.438  12.001  1.00  0.00     0.131 A 
HETATM    2  N3  UNL     1     -15.673 -31.692  10.942  1.00  0.00    -0.175 N 
ATOM      3  H3  UNL     1     -15.582 -30.676  10.958  1.00  0.00     0.186 HD
HETATM    4  C8  UNL     1     -16.215 -32.315   9.869  1.00  0.00     0.690 A 
HETATM    5  N4  UNL     1     -16.718 -31.862   8.692  1.00  0.00    -0.199 N 
ATOM      6  H4  UNL     1     -16.765 -30.881   8.418  1.00  0.00     0.183 HD
HETATM    7  C9  UNL     1     -17.147 -32.891   7.937  1.00  0.00     0.132 A 
HETATM    8  C10 UNL     1     -16.890 -34.023   8.698  1.00  0.00     0.050 A 
HETATM    9  N7  UNL     1     -16.328 -33.638   9.860  1.00  0.00    -0.159 N 
HETATM   10  C14 UNL     1     -15.914 -34.421  10.900  1.00  0.00     0.133 A 
HETATM   11  C15 UNL     1     -15.359 -33.806  12.002  1.00  0.00     0.054 A 
ENDROOT
BRANCH  11  12
HETATM   12  C16 UNL     1     -14.886 -34.537  13.165  1.00  0.00     0.082 A 
HETATM   13  C17 UNL     1     -15.596 -34.946  14.279  1.00  0.00     0.151 A 
HETATM   14  N8  UNL     1     -14.741 -35.590  15.095  1.00  0.00    -0.230 N 
HETATM   15  N14 UNL     1     -13.541 -35.599  14.541  1.00  0.00    -0.234 N 
HETATM   16  N15 UNL     1     -13.633 -34.969  13.389  1.00  0.00    -0.284 N 
ATOM     17  H14 UNL     1     -12.698 -36.018  14.934  1.00  0.00     0.209 HD
ATOM     18  H15 UNL     1     -12.852 -34.827  12.748  1.00  0.00     0.188 HD
BRANCH  14  19
HETATM   19  C18 UNL     1     -15.106 -36.154  16.340  1.00  0.00     0.188 A 
HETATM   20  N9  UNL     1     -15.079 -35.382  17.464  1.00  0.00    -0.267 N 
HETATM   21  N10 UNL     1     -15.405 -35.844  18.648  1.00  0.00    -0.131 N 
ATOM     22  H9  UNL     1     -14.794 -34.406  17.380  1.00  0.00     0.189 HD
HETATM   23  C19 UNL     1     -15.783 -37.125  18.781  1.00  0.00     0.692 A 
ATOM     24  H10 UNL     1     -15.371 -35.232  19.463  1.00  0.00     0.205 HD
HETATM   25  N12 UNL     1     -15.831 -37.940  17.716  1.00  0.00    -0.172 N 
HETATM   26  C20 UNL     1     -15.497 -37.466  16.504  1.00  0.00     0.162 A 
ATOM     27  H12 UNL     1     -16.119 -38.912  17.826  1.00  0.00     0.186 HD
BRANCH  23  28
HETATM   28  N11 UNL     1     -16.099 -37.551  19.965  1.00  0.00    -0.233 N 
ATOM     29 2H11 UNL     1     -16.001 -36.951  20.784  1.00  0.00     0.174 HD
ATOM     30 1H11 UNL     1     -16.450 -38.505  20.056  1.00  0.00     0.174 HD
ENDBRANCH  23  28
BRANCH  26  31
HETATM   31  N13 UNL     1     -15.543 -38.241  15.497  1.00  0.00    -0.382 N 
ATOM     32 2H13 UNL     1     -14.850 -38.983  15.406  1.00  0.00     0.157 HD
ATOM     33 1H13 UNL     1     -16.269 -38.113  14.793  1.00  0.00     0.157 HD
ENDBRANCH  26  31
ENDBRANCH  14  19
ENDBRANCH  11  12
BRANCH   1  34
HETATM   34  N2  UNL     1     -14.731 -31.872  13.030  1.00  0.00    -0.373 N 
ATOM     35  H2  UNL     1     -15.248 -31.797  13.906  1.00  0.00     0.161 HD
BRANCH  34  36
HETATM   36  C6  UNL     1     -13.390 -31.343  12.906  1.00  0.00     0.141 C 
BRANCH  36  37
HETATM   37  C5  UNL     1     -13.170 -30.148  13.805  1.00  0.00     0.141 C 
BRANCH  37  38
HETATM   38  N1  UNL     1     -14.007 -29.083  13.322  1.00  0.00    -0.373 N 
ATOM     39  H1  UNL     1     -13.904 -28.731  12.370  1.00  0.00     0.161 HD
BRANCH  38  40
HETATM   40  C4  UNL     1     -14.889 -28.582  14.114  1.00  0.00     0.124 A 
HETATM   41  C3  UNL     1     -16.269 -28.645  13.953  1.00  0.00     0.084 A 
HETATM   42  C2  UNL     1     -16.830 -27.988  15.017  1.00  0.00     0.076 A 
HETATM   43  C1  UNL     1     -18.269 -27.778  15.305  1.00  0.00     0.079 C 
HETATM   44  O2  UNL     1     -15.850 -27.563  15.761  1.00  0.00    -0.241 OA
HETATM   45  N16 UNL     1     -14.709 -27.895  15.260  1.00  0.00    -0.245 N 
ATOM     46  H16 UNL     1     -13.803 -27.670  15.670  1.00  0.00     0.196 HD
ENDBRANCH  38  40
ENDBRANCH  37  38
ENDBRANCH  36  37
ENDBRANCH  34  36
ENDBRANCH   1  34
BRANCH   8  47
HETATM   47  C11 UNL     1     -17.186 -35.416   8.302  1.00  0.00     0.069 C 
BRANCH  47  48
HETATM   48  C12 UNL     1     -16.052 -36.070   7.577  1.00  0.00     0.110 C 
BRANCH  48  49
HETATM   49  C13 UNL     1     -15.667 -37.306   8.277  1.00  0.00     0.235 C 
HETATM   50  O1  UNL     1     -14.911 -37.243   9.272  1.00  0.00    -0.272 OA
HETATM   51  N5  UNL     1     -16.164 -38.551   7.811  1.00  0.00    -0.277 N 
ATOM     52  H5  UNL     1     -16.779 -38.562   6.997  1.00  0.00     0.189 HD
BRANCH  51  53
HETATM   53  N6  UNL     1     -15.837 -39.768   8.431  1.00  0.00    -0.343 N 
ATOM     54  H62 UNL     1     -14.974 -39.810   8.973  1.00  0.00     0.176 HD
ATOM     55  H61 UNL     1     -16.430 -40.594   8.353  1.00  0.00     0.176 HD
ENDBRANCH  51  53
ENDBRANCH  48  49
ENDBRANCH  47  48
ENDBRANCH   8  47
TORSDOF 13
ENDMDL
MODEL 5
REMARK VINA RESULT: -8.689985424      3.456      9.123
REMARK  13 active torsions:
REMARK  status: ('A' for Active; 'I' for Inactive)
REMARK    1  A    between atoms: C4_4  and  N1_5 
REMARK    2  A    between atoms: N1_5  and  C5_7 
REMARK    3  A    between atoms: C5_7  and  C6_8 
REMARK    4  A    between atoms: C6_8  and  N2_9 
REMARK    5  A    between atoms: N2_9  and  C7_11 
REMARK    6  A    between atoms: C10_18  and  C11_19 
REMARK    7  A    between atoms: C11_19  and  C12_20 
REMARK    8  A    between atoms: C12_20  and  C13_21 
REMARK       I    between atoms: C13_21  and  N5_23 
REMARK    9  A    between atoms: N5_23  and  N6_25 
REMARK   10  A    between atoms: C15_30  and  C16_31 
REMARK   11  A    between atoms: N8_33  and  C18_34 
REMARK   12  A    between atoms: C19_39  and  N11_40 
REMARK   13  A    between atoms: C20_45  and  N13_46 
ROOT
HETATM    1  C7  UNL     1     -15.916 -32.260  11.276  1.00  0.00     0.131 A 
HETATM    2  N3  UNL     1     -16.459 -31.780  10.123  1.00  0.00    -0.175 N 
ATOM      3  H3  UNL     1     -16.629 -30.780  10.011  1.00  0.00     0.186 HD
HETATM    4  C8  UNL     1     -16.768 -32.643   9.127  1.00  0.00     0.690 A 
HETATM    5  N4  UNL     1     -17.307 -32.478   7.892  1.00  0.00    -0.199 N 
ATOM      6  H4  UNL     1     -17.586 -31.581   7.494  1.00  0.00     0.183 HD
HETATM    7  C9  UNL     1     -17.421 -33.664   7.266  1.00  0.00     0.132 A 
HETATM    8  C10 UNL     1     -16.927 -34.594   8.170  1.00  0.00     0.050 A 
HETATM    9  N7  UNL     1     -16.542 -33.943   9.285  1.00  0.00    -0.159 N 
HETATM   10  C14 UNL     1     -15.999 -34.464  10.425  1.00  0.00     0.133 A 
HETATM   11  C15 UNL     1     -15.677 -33.601  11.450  1.00  0.00     0.054 A 
ENDROOT
BRANCH  11  12
HETATM   12  C16 UNL     1     -15.096 -34.043  12.706  1.00  0.00     0.082 A 
HETATM   13  C17 UNL     1     -15.722 -34.622  13.794  1.00  0.00     0.151 A 
HETATM   14  N8  UNL     1     -14.783 -34.862  14.727  1.00  0.00    -0.230 N 
HETATM   15  N14 UNL     1     -13.609 -34.461  14.270  1.00  0.00    -0.234 N 
HETATM   16  N15 UNL     1     -13.802 -33.972  13.064  1.00  0.00    -0.284 N 
ATOM     17  H14 UNL     1     -12.718 -34.519  14.763  1.00  0.00     0.209 HD
ATOM     18  H15 UNL     1     -13.062 -33.589  12.475  1.00  0.00     0.188 HD
BRANCH  14  19
HETATM   19  C18 UNL     1     -15.048 -35.452  15.986  1.00  0.00     0.188 A 
HETATM   20  N9  UNL     1     -15.670 -34.722  16.955  1.00  0.00    -0.267 N 
HETATM   21  N10 UNL     1     -15.944 -35.209  18.142  1.00  0.00    -0.131 N 
ATOM     22  H9  UNL     1     -15.933 -33.758  16.749  1.00  0.00     0.189 HD
HETATM   23  C19 UNL     1     -15.607 -36.476  18.435  1.00  0.00     0.692 A 
ATOM     24  H10 UNL     1     -16.411 -34.629  18.839  1.00  0.00     0.205 HD
HETATM   25  N12 UNL     1     -14.992 -37.249  17.528  1.00  0.00    -0.172 N 
HETATM   26  C20 UNL     1     -14.712 -36.749  16.313  1.00  0.00     0.162 A 
ATOM     27  H12 UNL     1     -14.738 -38.210  17.759  1.00  0.00     0.186 HD
BRANCH  23  28
HETATM   28  N11 UNL     1     -15.892 -36.928  19.618  1.00  0.00    -0.233 N 
ATOM     29 2H11 UNL     1     -15.594 -36.430  20.457  1.00  0.00     0.174 HD
ATOM     30 1H11 UNL     1     -16.422 -37.796  19.687  1.00  0.00     0.174 HD
ENDBRANCH  23  28
BRANCH  26  31
HETATM   31  N13 UNL     1     -14.128 -37.484  15.455  1.00  0.00    -0.382 N 
ATOM     32 2H13 UNL     1     -14.556 -38.368  15.180  1.00  0.00     0.157 HD
ATOM     33 1H13 UNL     1     -13.240 -37.184  15.053  1.00  0.00     0.157 HD
ENDBRANCH  26  31
ENDBRANCH  14  19
ENDBRANCH  11  12
BRANCH   1  34
HETATM   34  N2  UNL     1     -15.613 -31.463  12.235  1.00  0.00    -0.373 N 
ATOM     35  H2  UNL     1     -14.660 -31.121  12.355  1.00  0.00     0.161 HD
BRANCH  34  36
HETATM   36  C6  UNL     1     -16.669 -31.065  13.140  1.00  0.00     0.141 C 
BRANCH  36  37
HETATM   37  C5  UNL     1     -16.143 -30.242  14.294  1.00  0.00     0.141 C 
BRANCH  37  38
HETATM   38  N1  UNL     1     -16.450 -28.864  14.018  1.00  0.00    -0.373 N 
ATOM     39  H1  UNL     1     -16.193 -28.442  13.125  1.00  0.00     0.161 HD
BRANCH  38  40
HETATM   40  C4  UNL     1     -17.054 -28.172  14.920  1.00  0.00     0.124 A 
HETATM   41  C3  UNL     1     -16.991 -28.379  16.293  1.00  0.00     0.084 A 
HETATM   42  C2  UNL     1     -17.780 -27.424  16.882  1.00  0.00     0.076 A 
HETATM   43  C1  UNL     1     -18.042 -27.220  18.327  1.00  0.00     0.079 C 
HETATM   44  O2  UNL     1     -18.277 -26.698  15.922  1.00  0.00    -0.241 OA
HETATM   45  N16 UNL     1     -17.872 -27.111  14.770  1.00  0.00    -0.245 N 
ATOM     46  H16 UNL     1     -18.132 -26.696  13.876  1.00  0.00     0.196 HD
ENDBRANCH  38  40
ENDBRANCH  37  38
ENDBRANCH  36  37
ENDBRANCH  34  36
ENDBRANCH   1  34
BRANCH   8  47
HETATM   47  C11 UNL     1     -16.839 -36.052   7.949  1.00  0.00     0.069 C 
BRANCH  47  48
HETATM   48  C12 UNL     1     -15.429 -36.553   7.905  1.00  0.00     0.110 C 
BRANCH  48  49
HETATM   49  C13 UNL     1     -15.356 -37.876   8.546  1.00  0.00     0.235 C 
HETATM   50  O1  UNL     1     -15.050 -38.878   7.862  1.00  0.00    -0.272 OA
HETATM   51  N5  UNL     1     -15.635 -37.991   9.932  1.00  0.00    -0.277 N 
ATOM     52  H5  UNL     1     -15.880 -37.152  10.457  1.00  0.00     0.189 HD
BRANCH  51  53
HETATM   53  N6  UNL     1     -15.584 -39.222  10.606  1.00  0.00    -0.343 N 
ATOM     54  H62 UNL     1     -14.827 -39.864  10.370  1.00  0.00     0.176 HD
ATOM     55  H61 UNL     1     -16.271 -39.484  11.313  1.00  0.00     0.176 HD
ENDBRANCH  51  53
ENDBRANCH  48  49
ENDBRANCH  47  48
ENDBRANCH   8  47
TORSDOF 13
ENDMDL
