MODEL 1
REMARK VINA RESULT: -6.717845712      0.000      0.000
REMARK  1 active torsions:
REMARK  status: ('A' for Active; 'I' for Inactive)
REMARK    1  A    between atoms: N1_4  and  C4_5 
ROOT
HETATM    1  C4  UNL     1     -23.919  -5.470  42.912  1.00  0.00     0.087 C 
HETATM    2  C5  UNL     1     -24.892  -4.444  43.298  1.00  0.00     0.044 C 
HETATM    3  C6  UNL     1     -24.325  -3.671  44.497  1.00  0.00     0.119 C 
HETATM    4  N2  UNL     1     -22.902  -3.794  44.577  1.00  0.00    -0.408 N 
HETATM    5  C7  UNL     1     -22.261  -2.747  45.289  1.00  0.00     0.117 C 
HETATM    6  C8  UNL     1     -22.015  -3.045  46.745  1.00  0.00     0.019 C 
HETATM    7  C9  UNL     1     -21.450  -4.420  46.979  1.00  0.00     0.004 C 
HETATM    8  C10 UNL     1     -22.403  -5.414  46.345  1.00  0.00     0.025 C 
HETATM    9  C11 UNL     1     -22.427  -5.110  44.862  1.00  0.00     0.081 C 
HETATM   10  C12 UNL     1     -23.356  -6.104  44.192  1.00  0.00     0.050 C 
ENDROOT
BRANCH   1  11
HETATM   11  N1  UNL     1     -24.354  -6.500  42.067  1.00  0.00    -0.389 N 
HETATM   12  C3  UNL     1     -24.021  -6.416  40.714  1.00  0.00     0.058 C 
HETATM   13  C2  UNL     1     -25.130  -7.041  39.873  1.00  0.00     0.044 C 
HETATM   14  C1  UNL     1     -25.241  -8.494  40.220  1.00  0.00     0.007 C 
HETATM   15  C14 UNL     1     -24.834  -8.790  41.627  1.00  0.00     0.020 C 
HETATM   16  C13 UNL     1     -25.068  -7.582  42.549  1.00  0.00     0.122 C 
ENDBRANCH   1  11
TORSDOF 1
ENDMDL
MODEL 2
REMARK VINA RESULT: -6.700161369      0.097      1.229
REMARK  1 active torsions:
REMARK  status: ('A' for Active; 'I' for Inactive)
REMARK    1  A    between atoms: N1_4  and  C4_5 
ROOT
HETATM    1  C4  UNL     1     -23.883  -5.404  42.901  1.00  0.00     0.087 C 
HETATM    2  C5  UNL     1     -24.856  -4.384  43.305  1.00  0.00     0.044 C 
HETATM    3  C6  UNL     1     -24.295  -3.641  44.526  1.00  0.00     0.119 C 
HETATM    4  N2  UNL     1     -22.872  -3.771  44.612  1.00  0.00    -0.408 N 
HETATM    5  C7  UNL     1     -22.233  -2.742  45.352  1.00  0.00     0.117 C 
HETATM    6  C8  UNL     1     -21.997  -3.075  46.802  1.00  0.00     0.019 C 
HETATM    7  C9  UNL     1     -21.438  -4.458  47.008  1.00  0.00     0.004 C 
HETATM    8  C10 UNL     1     -22.390  -5.433  46.344  1.00  0.00     0.025 C 
HETATM    9  C11 UNL     1     -22.403  -5.094  44.869  1.00  0.00     0.081 C 
HETATM   10  C12 UNL     1     -23.331  -6.070  44.169  1.00  0.00     0.050 C 
ENDROOT
BRANCH   1  11
HETATM   11  N1  UNL     1     -24.316  -6.412  42.029  1.00  0.00    -0.389 N 
HETATM   12  C3  UNL     1     -25.096  -7.441  42.559  1.00  0.00     0.058 C 
HETATM   13  C2  UNL     1     -24.810  -8.739  41.813  1.00  0.00     0.044 C 
HETATM   14  C1  UNL     1     -25.203  -8.570  40.377  1.00  0.00     0.007 C 
HETATM   15  C14 UNL     1     -25.089  -7.158  39.904  1.00  0.00     0.020 C 
HETATM   16  C13 UNL     1     -24.008  -6.387  40.681  1.00  0.00     0.122 C 
ENDBRANCH   1  11
TORSDOF 1
ENDMDL
MODEL 3
REMARK VINA RESULT: -5.978400772      1.031      5.975
REMARK  1 active torsions:
REMARK  status: ('A' for Active; 'I' for Inactive)
REMARK    1  A    between atoms: N1_4  and  C4_5 
ROOT
HETATM    1  C4  UNL     1     -24.172  -5.464  42.669  1.00  0.00     0.087 C 
HETATM    2  C5  UNL     1     -23.331  -5.336  41.475  1.00  0.00     0.044 C 
HETATM    3  C6  UNL     1     -23.768  -6.405  40.463  1.00  0.00     0.119 C 
HETATM    4  N2  UNL     1     -25.103  -6.854  40.715  1.00  0.00    -0.408 N 
HETATM    5  C7  UNL     1     -25.757  -7.415  39.587  1.00  0.00     0.117 C 
HETATM    6  C8  UNL     1     -25.649  -8.913  39.488  1.00  0.00     0.019 C 
HETATM    7  C9  UNL     1     -25.911  -9.612  40.795  1.00  0.00     0.004 C 
HETATM    8  C10 UNL     1     -24.949  -9.036  41.816  1.00  0.00     0.025 C 
HETATM    9  C11 UNL     1     -25.278  -7.563  41.941  1.00  0.00     0.081 C 
HETATM   10  C12 UNL     1     -24.347  -6.959  42.975  1.00  0.00     0.050 C 
ENDROOT
BRANCH   1  11
HETATM   11  N1  UNL     1     -23.747  -4.823  43.840  1.00  0.00    -0.389 N 
HETATM   12  C3  UNL     1     -24.314  -3.586  44.148  1.00  0.00     0.058 C 
HETATM   13  C2  UNL     1     -23.289  -2.716  44.867  1.00  0.00     0.044 C 
HETATM   14  C1  UNL     1     -22.915  -3.374  46.161  1.00  0.00     0.007 C 
HETATM   15  C14 UNL     1     -23.030  -4.863  46.111  1.00  0.00     0.020 C 
HETATM   16  C13 UNL     1     -22.815  -5.399  44.685  1.00  0.00     0.122 C 
ENDBRANCH   1  11
TORSDOF 1
ENDMDL
MODEL 4
REMARK VINA RESULT: -5.912926466      1.044      2.092
REMARK  1 active torsions:
REMARK  status: ('A' for Active; 'I' for Inactive)
REMARK    1  A    between atoms: N1_4  and  C4_5 
ROOT
HETATM    1  C4  UNL     1     -24.276  -6.177  43.387  1.00  0.00     0.087 C 
HETATM    2  C5  UNL     1     -23.012  -6.453  44.077  1.00  0.00     0.044 C 
HETATM    3  C6  UNL     1     -22.661  -5.234  44.942  1.00  0.00     0.119 C 
HETATM    4  N2  UNL     1     -23.819  -4.443  45.231  1.00  0.00    -0.408 N 
HETATM    5  C7  UNL     1     -23.705  -3.640  46.396  1.00  0.00     0.117 C 
HETATM    6  C8  UNL     1     -23.242  -2.230  46.135  1.00  0.00     0.019 C 
HETATM    7  C9  UNL     1     -23.946  -1.582  44.974  1.00  0.00     0.004 C 
HETATM    8  C10 UNL     1     -23.750  -2.480  43.768  1.00  0.00     0.025 C 
HETATM    9  C11 UNL     1     -24.408  -3.803  44.100  1.00  0.00     0.081 C 
HETATM   10  C12 UNL     1     -24.250  -4.720  42.901  1.00  0.00     0.050 C 
ENDROOT
BRANCH   1  11
HETATM   11  N1  UNL     1     -24.621  -6.995  42.302  1.00  0.00    -0.389 N 
HETATM   12  C3  UNL     1     -24.258  -6.569  41.024  1.00  0.00     0.058 C 
HETATM   13  C2  UNL     1     -25.301  -7.033  40.013  1.00  0.00     0.044 C 
HETATM   14  C1  UNL     1     -25.329  -8.531  39.997  1.00  0.00     0.007 C 
HETATM   15  C14 UNL     1     -24.943  -9.134  41.308  1.00  0.00     0.020 C 
HETATM   16  C13 UNL     1     -25.278  -8.198  42.482  1.00  0.00     0.122 C 
ENDBRANCH   1  11
TORSDOF 1
ENDMDL
MODEL 5
REMARK VINA RESULT: -5.849935060      1.038      2.407
REMARK  1 active torsions:
REMARK  status: ('A' for Active; 'I' for Inactive)
REMARK    1  A    between atoms: N1_4  and  C4_5 
ROOT
HETATM    1  C4  UNL     1     -24.287  -6.127  43.310  1.00  0.00     0.087 C 
HETATM    2  C5  UNL     1     -23.044  -6.447  44.019  1.00  0.00     0.044 C 
HETATM    3  C6  UNL     1     -22.692  -5.262  44.930  1.00  0.00     0.119 C 
HETATM    4  N2  UNL     1     -23.842  -4.460  45.218  1.00  0.00    -0.408 N 
HETATM    5  C7  UNL     1     -23.741  -3.695  46.410  1.00  0.00     0.117 C 
HETATM    6  C8  UNL     1     -23.248  -2.287  46.205  1.00  0.00     0.019 C 
HETATM    7  C9  UNL     1     -23.915  -1.590  45.049  1.00  0.00     0.004 C 
HETATM    8  C10 UNL     1     -23.707  -2.454  43.820  1.00  0.00     0.025 C 
HETATM    9  C11 UNL     1     -24.394  -3.775  44.095  1.00  0.00     0.081 C 
HETATM   10  C12 UNL     1     -24.225  -4.657  42.872  1.00  0.00     0.050 C 
ENDROOT
BRANCH   1  11
HETATM   11  N1  UNL     1     -24.621  -6.904  42.193  1.00  0.00    -0.389 N 
HETATM   12  C3  UNL     1     -25.379  -8.058  42.406  1.00  0.00     0.058 C 
HETATM   13  C2  UNL     1     -24.989  -9.123  41.387  1.00  0.00     0.044 C 
HETATM   14  C1  UNL     1     -25.310  -8.620  40.012  1.00  0.00     0.007 C 
HETATM   15  C14 UNL     1     -25.239  -7.132  39.905  1.00  0.00     0.020 C 
HETATM   16  C13 UNL     1     -24.241  -6.539  40.915  1.00  0.00     0.122 C 
ENDBRANCH   1  11
TORSDOF 1
ENDMDL
