MODEL 1
REMARK VINA RESULT: -5.771947235      0.000      0.000
REMARK  0 active torsions:
REMARK  status: ('A' for Active; 'I' for Inactive)
ROOT
HETATM    1  C1  UNL     1     -23.509  -0.335  44.130  1.00  0.00     0.001 C 
HETATM    2  C2  UNL     1     -24.813  -0.992  43.716  1.00  0.00     0.002 C 
HETATM    3  C3  UNL     1     -24.550  -2.456  43.471  1.00  0.00     0.036 C 
HETATM    4  C4  UNL     1     -24.415  -3.159  44.802  1.00  0.00     0.229 C 
HETATM    5  C5  UNL     1     -23.753  -2.197  45.800  1.00  0.00     0.052 C 
HETATM    6  C6  UNL     1     -22.795  -1.275  45.076  1.00  0.00     0.009 C 
HETATM    7  C7  UNL     1     -23.105  -3.441  46.284  1.00  0.00     0.232 C 
HETATM    8  C8  UNL     1     -21.647  -3.447  46.561  1.00  0.00     0.068 C 
HETATM    9  C9  UNL     1     -21.209  -4.811  46.966  1.00  0.00     0.127 C 
HETATM   10  O1  UNL     1     -19.952  -4.677  47.564  1.00  0.00    -0.385 OA
HETATM   11  C10 UNL     1     -18.996  -5.077  46.680  1.00  0.00     0.168 C 
HETATM   12  C11 UNL     1     -19.651  -5.346  45.339  1.00  0.00     0.033 C 
HETATM   13  C12 UNL     1     -21.020  -5.788  45.887  1.00  0.00     0.018 C 
HETATM   14  C13 UNL     1     -22.005  -5.968  44.853  1.00  0.00     0.037 C 
HETATM   15  C14 UNL     1     -23.363  -5.370  45.050  1.00  0.00     0.274 C 
HETATM   16  N1  UNL     1     -23.250  -3.957  44.908  1.00  0.00     0.098 N 
ENDROOT
TORSDOF 0
ENDMDL
MODEL 2
REMARK VINA RESULT: -5.100090354      8.564     10.948
REMARK  0 active torsions:
REMARK  status: ('A' for Active; 'I' for Inactive)
ROOT
HETATM    1  C1  UNL     1     -30.289   3.695  51.145  1.00  0.00     0.001 C 
HETATM    2  C2  UNL     1     -31.375   4.713  50.847  1.00  0.00     0.002 C 
HETATM    3  C3  UNL     1     -31.013   5.434  49.573  1.00  0.00     0.036 C 
HETATM    4  C4  UNL     1     -31.296   4.527  48.398  1.00  0.00     0.229 C 
HETATM    5  C5  UNL     1     -31.012   3.077  48.819  1.00  0.00     0.052 C 
HETATM    6  C6  UNL     1     -29.894   3.041  49.839  1.00  0.00     0.009 C 
HETATM    7  C7  UNL     1     -30.525   2.964  47.422  1.00  0.00     0.232 C 
HETATM    8  C8  UNL     1     -29.233   2.285  47.151  1.00  0.00     0.068 C 
HETATM    9  C9  UNL     1     -28.917   2.352  45.698  1.00  0.00     0.127 C 
HETATM   10  O1  UNL     1     -27.922   1.401  45.451  1.00  0.00    -0.385 OA
HETATM   11  C10 UNL     1     -26.724   2.035  45.324  1.00  0.00     0.168 C 
HETATM   12  C11 UNL     1     -26.907   3.500  45.670  1.00  0.00     0.033 C 
HETATM   13  C12 UNL     1     -28.368   3.620  45.202  1.00  0.00     0.018 C 
HETATM   14  C13 UNL     1     -28.964   4.883  45.546  1.00  0.00     0.037 C 
HETATM   15  C14 UNL     1     -30.327   4.884  46.165  1.00  0.00     0.274 C 
HETATM   16  N1  UNL     1     -30.209   4.404  47.500  1.00  0.00     0.098 N 
ENDROOT
TORSDOF 0
ENDMDL
MODEL 3
REMARK VINA RESULT: -5.011913381      8.812     11.020
REMARK  0 active torsions:
REMARK  status: ('A' for Active; 'I' for Inactive)
ROOT
HETATM    1  C1  UNL     1     -26.763   3.010  45.675  1.00  0.00     0.001 C 
HETATM    2  C2  UNL     1     -27.596   2.195  44.702  1.00  0.00     0.002 C 
HETATM    3  C3  UNL     1     -28.675   1.485  45.478  1.00  0.00     0.036 C 
HETATM    4  C4  UNL     1     -29.753   2.479  45.842  1.00  0.00     0.229 C 
HETATM    5  C5  UNL     1     -29.096   3.843  46.100  1.00  0.00     0.052 C 
HETATM    6  C6  UNL     1     -27.706   3.651  46.670  1.00  0.00     0.009 C 
HETATM    7  C7  UNL     1     -30.142   3.940  47.148  1.00  0.00     0.232 C 
HETATM    8  C8  UNL     1     -29.776   4.413  48.506  1.00  0.00     0.068 C 
HETATM    9  C9  UNL     1     -30.964   4.362  49.402  1.00  0.00     0.127 C 
HETATM   10  O1  UNL     1     -30.669   5.150  50.518  1.00  0.00    -0.385 OA
HETATM   11  C10 UNL     1     -30.356   4.337  51.565  1.00  0.00     0.168 C 
HETATM   12  C11 UNL     1     -30.281   2.907  51.067  1.00  0.00     0.033 C 
HETATM   13  C12 UNL     1     -31.323   3.046  49.944  1.00  0.00     0.018 C 
HETATM   14  C13 UNL     1     -31.400   1.881  49.103  1.00  0.00     0.037 C 
HETATM   15  C14 UNL     1     -31.407   2.073  47.618  1.00  0.00     0.274 C 
HETATM   16  N1  UNL     1     -30.099   2.466  47.215  1.00  0.00     0.098 N 
ENDROOT
TORSDOF 0
ENDMDL
MODEL 4
REMARK VINA RESULT: -4.542902712      9.773     11.252
REMARK  0 active torsions:
REMARK  status: ('A' for Active; 'I' for Inactive)
ROOT
HETATM    1  C1  UNL     1     -31.120   4.341  51.215  1.00  0.00     0.001 C 
HETATM    2  C2  UNL     1     -31.162   2.891  51.662  1.00  0.00     0.002 C 
HETATM    3  C3  UNL     1     -31.407   2.028  50.451  1.00  0.00     0.036 C 
HETATM    4  C4  UNL     1     -30.127   1.929  49.652  1.00  0.00     0.229 C 
HETATM    5  C5  UNL     1     -29.371   3.261  49.771  1.00  0.00     0.052 C 
HETATM    6  C6  UNL     1     -30.351   4.405  49.914  1.00  0.00     0.009 C 
HETATM    7  C7  UNL     1     -29.019   2.973  48.358  1.00  0.00     0.232 C 
HETATM    8  C8  UNL     1     -29.123   4.051  47.344  1.00  0.00     0.068 C 
HETATM    9  C9  UNL     1     -28.790   3.517  45.995  1.00  0.00     0.127 C 
HETATM   10  O1  UNL     1     -28.538   4.617  45.169  1.00  0.00    -0.385 OA
HETATM   11  C10 UNL     1     -29.620   4.827  44.369  1.00  0.00     0.168 C 
HETATM   12  C11 UNL     1     -30.737   3.899  44.804  1.00  0.00     0.033 C 
HETATM   13  C12 UNL     1     -29.842   2.755  45.311  1.00  0.00     0.018 C 
HETATM   14  C13 UNL     1     -30.581   1.722  45.985  1.00  0.00     0.037 C 
HETATM   15  C14 UNL     1     -30.068   1.217  47.298  1.00  0.00     0.274 C 
HETATM   16  N1  UNL     1     -30.290   2.226  48.278  1.00  0.00     0.098 N 
ENDROOT
TORSDOF 0
ENDMDL
MODEL 5
REMARK VINA RESULT: -4.480792239      8.933     10.384
REMARK  0 active torsions:
REMARK  status: ('A' for Active; 'I' for Inactive)
ROOT
HETATM    1  C1  UNL     1     -29.936   5.399  43.049  1.00  0.00     0.001 C 
HETATM    2  C2  UNL     1     -28.502   5.170  42.604  1.00  0.00     0.002 C 
HETATM    3  C3  UNL     1     -27.654   4.951  43.831  1.00  0.00     0.036 C 
HETATM    4  C4  UNL     1     -27.900   3.554  44.353  1.00  0.00     0.229 C 
HETATM    5  C5  UNL     1     -29.370   3.187  44.099  1.00  0.00     0.052 C 
HETATM    6  C6  UNL     1     -30.235   4.427  44.169  1.00  0.00     0.009 C 
HETATM    7  C7  UNL     1     -29.232   2.503  45.409  1.00  0.00     0.232 C 
HETATM    8  C8  UNL     1     -30.291   2.666  46.435  1.00  0.00     0.068 C 
HETATM    9  C9  UNL     1     -29.908   1.951  47.683  1.00  0.00     0.127 C 
HETATM   10  O1  UNL     1     -31.068   1.819  48.452  1.00  0.00    -0.385 OA
HETATM   11  C10 UNL     1     -31.040   2.739  49.457  1.00  0.00     0.168 C 
HETATM   12  C11 UNL     1     -29.852   3.657  49.246  1.00  0.00     0.033 C 
HETATM   13  C12 UNL     1     -28.941   2.626  48.557  1.00  0.00     0.018 C 
HETATM   14  C13 UNL     1     -27.733   3.208  48.035  1.00  0.00     0.037 C 
HETATM   15  C14 UNL     1     -27.317   2.857  46.640  1.00  0.00     0.274 C 
HETATM   16  N1  UNL     1     -28.202   3.510  45.736  1.00  0.00     0.098 N 
ENDROOT
TORSDOF 0
ENDMDL
