MODEL 1
REMARK VINA RESULT: -5.499637050      0.000      0.000
REMARK  1 active torsions:
REMARK  status: ('A' for Active; 'I' for Inactive)
REMARK    1  A    between atoms: C2_2  and  C3_3 
ROOT
HETATM    1  C3  UNL     1     -28.906   3.666  46.244  1.00  0.00     0.054 C 
HETATM    2  C4  UNL     1     -30.158   2.901  45.872  1.00  0.00     0.015 C 
HETATM    3  C5  UNL     1     -31.251   2.961  46.895  1.00  0.00    -0.014 C 
HETATM    4  C6  UNL     1     -31.407   1.770  47.764  1.00  0.00     0.005 C 
HETATM    5  C7  UNL     1     -31.174   1.959  49.221  1.00  0.00     0.008 C 
HETATM    6  C8  UNL     1     -29.951   2.629  49.686  1.00  0.00     0.024 C 
HETATM    7  C9  UNL     1     -30.320   4.076  50.046  1.00  0.00     0.015 C 
HETATM    8  C10 UNL     1     -29.957   4.297  48.571  1.00  0.00     0.024 C 
HETATM    9  C11 UNL     1     -31.101   4.254  47.681  1.00  0.00     0.012 C 
HETATM   10  C12 UNL     1     -29.041   3.162  48.676  1.00  0.00     0.095 A 
HETATM   11  O1  UNL     1     -28.840   2.018  47.926  1.00  0.00    -0.368 OA
HETATM   12  C13 UNL     1     -28.293   3.153  47.567  1.00  0.00     0.165 A 
ENDROOT
BRANCH   1  13
HETATM   13  C2  UNL     1     -27.896   3.332  45.161  1.00  0.00     0.085 A 
HETATM   14  C1  UNL     1     -26.811   2.345  45.429  1.00  0.00     0.049 C 
HETATM   15  C14 UNL     1     -27.589   4.364  44.124  1.00  0.00     0.207 A 
HETATM   16  O2  UNL     1     -28.386   3.285  43.833  1.00  0.00    -0.375 OA
ENDBRANCH   1  13
TORSDOF 1
ENDMDL
MODEL 2
REMARK VINA RESULT: -5.200946654      1.899      4.793
REMARK  1 active torsions:
REMARK  status: ('A' for Active; 'I' for Inactive)
REMARK    1  A    between atoms: C2_2  and  C3_3 
ROOT
HETATM    1  C3  UNL     1     -30.898   3.047  49.560  1.00  0.00     0.054 C 
HETATM    2  C4  UNL     1     -29.578   3.727  49.263  1.00  0.00     0.015 C 
HETATM    3  C5  UNL     1     -29.294   3.925  47.805  1.00  0.00    -0.014 C 
HETATM    4  C6  UNL     1     -28.348   2.969  47.182  1.00  0.00     0.005 C 
HETATM    5  C7  UNL     1     -28.882   2.094  46.103  1.00  0.00     0.008 C 
HETATM    6  C8  UNL     1     -30.121   1.336  46.322  1.00  0.00     0.024 C 
HETATM    7  C9  UNL     1     -31.259   2.087  45.614  1.00  0.00     0.015 C 
HETATM    8  C10 UNL     1     -31.359   2.769  46.986  1.00  0.00     0.024 C 
HETATM    9  C11 UNL     1     -30.621   4.015  47.068  1.00  0.00     0.012 C 
HETATM   10  C12 UNL     1     -30.832   1.542  47.581  1.00  0.00     0.095 A 
HETATM   11  O1  UNL     1     -29.807   1.267  48.467  1.00  0.00    -0.368 OA
HETATM   12  C13 UNL     1     -30.981   1.648  48.907  1.00  0.00     0.165 A 
ENDROOT
BRANCH   1  13
HETATM   13  C2  UNL     1     -30.895   2.804  51.059  1.00  0.00     0.085 A 
HETATM   14  C1  UNL     1     -31.292   1.474  51.603  1.00  0.00     0.049 C 
HETATM   15  C14 UNL     1     -31.111   3.966  51.974  1.00  0.00     0.207 A 
HETATM   16  O2  UNL     1     -29.860   3.429  51.798  1.00  0.00    -0.375 OA
ENDBRANCH   1  13
TORSDOF 1
ENDMDL
MODEL 3
REMARK VINA RESULT: -5.197405300      1.429      4.647
REMARK  1 active torsions:
REMARK  status: ('A' for Active; 'I' for Inactive)
REMARK    1  A    between atoms: C2_2  and  C3_3 
ROOT
HETATM    1  C3  UNL     1     -29.389   3.405  47.898  1.00  0.00     0.054 C 
HETATM    2  C4  UNL     1     -27.932   3.128  48.202  1.00  0.00     0.015 C 
HETATM    3  C5  UNL     1     -27.004   3.329  47.043  1.00  0.00    -0.014 C 
HETATM    4  C6  UNL     1     -26.553   2.105  46.339  1.00  0.00     0.005 C 
HETATM    5  C7  UNL     1     -26.955   1.955  44.915  1.00  0.00     0.008 C 
HETATM    6  C8  UNL     1     -28.362   2.135  44.529  1.00  0.00     0.024 C 
HETATM    7  C9  UNL     1     -28.503   3.539  43.920  1.00  0.00     0.015 C 
HETATM    8  C10 UNL     1     -28.792   3.898  45.385  1.00  0.00     0.024 C 
HETATM    9  C11 UNL     1     -27.623   4.357  46.110  1.00  0.00     0.012 C 
HETATM   10  C12 UNL     1     -29.305   2.542  45.567  1.00  0.00     0.095 A 
HETATM   11  O1  UNL     1     -29.069   1.541  46.491  1.00  0.00    -0.368 OA
HETATM   12  C13 UNL     1     -29.916   2.505  46.757  1.00  0.00     0.165 A 
ENDROOT
BRANCH   1  13
HETATM   13  C2  UNL     1     -30.146   2.981  49.144  1.00  0.00     0.085 A 
HETATM   14  C1  UNL     1     -30.298   1.534  49.471  1.00  0.00     0.049 C 
HETATM   15  C14 UNL     1     -31.219   3.878  49.671  1.00  0.00     0.207 A 
HETATM   16  O2  UNL     1     -29.995   3.804  50.286  1.00  0.00    -0.375 OA
ENDBRANCH   1  13
TORSDOF 1
ENDMDL
MODEL 4
REMARK VINA RESULT: -5.131017794      1.844      3.519
REMARK  1 active torsions:
REMARK  status: ('A' for Active; 'I' for Inactive)
REMARK    1  A    between atoms: C2_2  and  C3_3 
ROOT
HETATM    1  C3  UNL     1     -29.145   3.689  43.894  1.00  0.00     0.054 C 
HETATM    2  C4  UNL     1     -27.660   3.560  44.159  1.00  0.00     0.015 C 
HETATM    3  C5  UNL     1     -27.306   2.641  45.288  1.00  0.00    -0.014 C 
HETATM    4  C6  UNL     1     -26.953   3.285  46.576  1.00  0.00     0.005 C 
HETATM    5  C7  UNL     1     -27.843   3.011  47.737  1.00  0.00     0.008 C 
HETATM    6  C8  UNL     1     -29.297   3.177  47.600  1.00  0.00     0.024 C 
HETATM    7  C9  UNL     1     -29.909   1.780  47.415  1.00  0.00     0.015 C 
HETATM    8  C10 UNL     1     -29.667   2.117  45.936  1.00  0.00     0.024 C 
HETATM    9  C11 UNL     1     -28.410   1.605  45.425  1.00  0.00     0.012 C 
HETATM   10  C12 UNL     1     -29.820   3.529  46.282  1.00  0.00     0.095 A 
HETATM   11  O1  UNL     1     -29.070   4.664  46.038  1.00  0.00    -0.368 OA
HETATM   12  C13 UNL     1     -29.904   4.212  45.135  1.00  0.00     0.165 A 
ENDROOT
BRANCH   1  13
HETATM   13  C2  UNL     1     -29.271   4.776  42.842  1.00  0.00     0.085 A 
HETATM   14  C1  UNL     1     -28.063   5.525  42.391  1.00  0.00     0.049 C 
HETATM   15  C14 UNL     1     -30.568   5.510  42.721  1.00  0.00     0.207 A 
HETATM   16  O2  UNL     1     -30.212   4.549  41.808  1.00  0.00    -0.375 OA
ENDBRANCH   1  13
TORSDOF 1
ENDMDL
MODEL 5
REMARK VINA RESULT: -4.848999827     11.952     14.229
REMARK  1 active torsions:
REMARK  status: ('A' for Active; 'I' for Inactive)
REMARK    1  A    between atoms: C2_2  and  C3_3 
ROOT
HETATM    1  C3  UNL     1     -16.769   1.863  41.992  1.00  0.00     0.054 C 
HETATM    2  C4  UNL     1     -17.535   0.821  41.205  1.00  0.00     0.015 C 
HETATM    3  C5  UNL     1     -17.549   1.044  39.724  1.00  0.00    -0.014 C 
HETATM    4  C6  UNL     1     -18.787   1.631  39.157  1.00  0.00     0.005 C 
HETATM    5  C7  UNL     1     -18.670   2.968  38.515  1.00  0.00     0.008 C 
HETATM    6  C8  UNL     1     -18.004   4.067  39.229  1.00  0.00     0.024 C 
HETATM    7  C9  UNL     1     -16.585   4.202  38.657  1.00  0.00     0.015 C 
HETATM    8  C10 UNL     1     -16.280   3.202  39.782  1.00  0.00     0.024 C 
HETATM    9  C11 UNL     1     -16.297   1.819  39.346  1.00  0.00     0.012 C 
HETATM   10  C12 UNL     1     -17.403   3.770  40.526  1.00  0.00     0.095 A 
HETATM   11  O1  UNL     1     -18.502   3.229  41.167  1.00  0.00    -0.368 OA
HETATM   12  C13 UNL     1     -17.341   3.282  41.771  1.00  0.00     0.165 A 
ENDROOT
BRANCH   1  13
HETATM   13  C2  UNL     1     -17.028   1.534  43.451  1.00  0.00     0.085 A 
HETATM   14  C1  UNL     1     -18.426   1.367  43.944  1.00  0.00     0.049 C 
HETATM   15  C14 UNL     1     -16.032   1.976  44.474  1.00  0.00     0.207 A 
HETATM   16  O2  UNL     1     -16.102   0.664  44.077  1.00  0.00    -0.375 OA
ENDBRANCH   1  13
TORSDOF 1
ENDMDL
