MODEL 1
REMARK VINA RESULT: -5.269466997      0.000      0.000
REMARK  1 active torsions:
REMARK  status: ('A' for Active; 'I' for Inactive)
REMARK       I    between atoms: N2_6  and  C5_7 
REMARK    1  A    between atoms: C5_7  and  C6_9 
ROOT
HETATM    1  N1  UNL     1     -26.344   2.901  47.422  1.00  0.00    -0.197 NA
HETATM    2  C1  UNL     1     -26.909   2.927  46.406  1.00  0.00     0.064 C 
HETATM    3  C2  UNL     1     -27.604   2.974  45.113  1.00  0.00     0.096 C 
HETATM    4  C3  UNL     1     -28.531   1.777  45.077  1.00  0.00     0.039 C 
HETATM    5  C4  UNL     1     -29.369   1.720  46.366  1.00  0.00     0.127 C 
HETATM    6  N2  UNL     1     -29.779   3.078  46.646  1.00  0.00    -0.352 N 
HETATM    7  C5  UNL     1     -30.120   3.571  47.928  1.00  0.00     0.224 C 
HETATM    8  O1  UNL     1     -30.465   4.778  48.071  1.00  0.00    -0.273 OA
HETATM    9  C12 UNL     1     -29.830   3.957  45.499  1.00  0.00     0.127 C 
HETATM   10  C13 UNL     1     -28.431   4.208  44.983  1.00  0.00     0.039 C 
ENDROOT
BRANCH   7  11
HETATM   11  C6  UNL     1     -30.105   2.758  49.167  1.00  0.00     0.078 C 
HETATM   12  C7  UNL     1     -31.407   2.113  49.490  1.00  0.00     0.014 C 
HETATM   13  C8  UNL     1     -31.253   1.519  50.900  1.00  0.00     0.001 C 
HETATM   14  C9  UNL     1     -31.407   2.717  51.839  1.00  0.00     0.000 C 
HETATM   15  C10 UNL     1     -30.569   3.879  51.370  1.00  0.00     0.001 C 
HETATM   16  C11 UNL     1     -29.545   3.486  50.340  1.00  0.00     0.014 C 
ENDBRANCH   7  11
TORSDOF 1
ENDMDL
MODEL 2
REMARK VINA RESULT: -4.976590246      1.596      2.452
REMARK  1 active torsions:
REMARK  status: ('A' for Active; 'I' for Inactive)
REMARK       I    between atoms: N2_6  and  C5_7 
REMARK    1  A    between atoms: C5_7  and  C6_9 
ROOT
HETATM    1  N1  UNL     1     -29.905   5.458  45.908  1.00  0.00    -0.197 NA
HETATM    2  C1  UNL     1     -29.116   4.894  45.267  1.00  0.00     0.064 C 
HETATM    3  C2  UNL     1     -28.131   4.189  44.437  1.00  0.00     0.096 C 
HETATM    4  C3  UNL     1     -26.888   4.026  45.285  1.00  0.00     0.039 C 
HETATM    5  C4  UNL     1     -27.259   3.433  46.656  1.00  0.00     0.127 C 
HETATM    6  N2  UNL     1     -28.232   2.394  46.401  1.00  0.00    -0.352 N 
HETATM    7  C5  UNL     1     -29.189   1.936  47.338  1.00  0.00     0.224 C 
HETATM    8  O1  UNL     1     -30.000   1.021  47.018  1.00  0.00    -0.273 OA
HETATM    9  C12 UNL     1     -28.181   1.811  45.079  1.00  0.00     0.127 C 
HETATM   10  C13 UNL     1     -28.615   2.831  44.051  1.00  0.00     0.039 C 
ENDROOT
BRANCH   7  11
HETATM   11  C6  UNL     1     -29.326   2.459  48.717  1.00  0.00     0.078 C 
HETATM   12  C7  UNL     1     -30.295   1.711  49.562  1.00  0.00     0.014 C 
HETATM   13  C8  UNL     1     -30.464   2.530  50.852  1.00  0.00     0.001 C 
HETATM   14  C9  UNL     1     -31.407   3.670  50.461  1.00  0.00     0.000 C 
HETATM   15  C10 UNL     1     -30.973   4.306  49.165  1.00  0.00     0.001 C 
HETATM   16  C11 UNL     1     -29.573   3.928  48.765  1.00  0.00     0.014 C 
ENDBRANCH   7  11
TORSDOF 1
ENDMDL
MODEL 3
REMARK VINA RESULT: -4.944331860      1.425      2.512
REMARK  1 active torsions:
REMARK  status: ('A' for Active; 'I' for Inactive)
REMARK       I    between atoms: N2_6  and  C5_7 
REMARK    1  A    between atoms: C5_7  and  C6_9 
ROOT
HETATM    1  N1  UNL     1     -30.051   0.663  45.711  1.00  0.00    -0.197 NA
HETATM    2  C1  UNL     1     -29.236   1.345  45.242  1.00  0.00     0.064 C 
HETATM    3  C2  UNL     1     -28.197   2.188  44.637  1.00  0.00     0.096 C 
HETATM    4  C3  UNL     1     -28.728   3.606  44.649  1.00  0.00     0.039 C 
HETATM    5  C4  UNL     1     -29.245   3.963  46.054  1.00  0.00     0.127 C 
HETATM    6  N2  UNL     1     -28.281   3.430  46.991  1.00  0.00    -0.352 N 
HETATM    7  C5  UNL     1     -28.565   3.086  48.334  1.00  0.00     0.224 C 
HETATM    8  O1  UNL     1     -27.651   2.625  49.076  1.00  0.00    -0.273 OA
HETATM    9  C12 UNL     1     -26.944   3.257  46.469  1.00  0.00     0.127 C 
HETATM   10  C13 UNL     1     -26.936   2.156  45.433  1.00  0.00     0.039 C 
ENDROOT
BRANCH   7  11
HETATM   11  C6  UNL     1     -29.896   3.226  48.969  1.00  0.00     0.078 C 
HETATM   12  C7  UNL     1     -29.867   3.858  50.316  1.00  0.00     0.014 C 
HETATM   13  C8  UNL     1     -31.284   3.706  50.893  1.00  0.00     0.001 C 
HETATM   14  C9  UNL     1     -31.348   2.255  51.375  1.00  0.00     0.000 C 
HETATM   15  C10 UNL     1     -30.811   1.316  50.325  1.00  0.00     0.001 C 
HETATM   16  C11 UNL     1     -30.682   1.960  48.971  1.00  0.00     0.014 C 
ENDBRANCH   7  11
TORSDOF 1
ENDMDL
MODEL 4
REMARK VINA RESULT: -4.599117896      1.530      2.593
REMARK  1 active torsions:
REMARK  status: ('A' for Active; 'I' for Inactive)
REMARK       I    between atoms: N2_6  and  C5_7 
REMARK    1  A    between atoms: C5_7  and  C6_9 
ROOT
HETATM    1  N1  UNL     1     -29.592   5.525  45.210  1.00  0.00    -0.197 NA
HETATM    2  C1  UNL     1     -28.696   4.814  45.002  1.00  0.00     0.064 C 
HETATM    3  C2  UNL     1     -27.564   3.924  44.715  1.00  0.00     0.096 C 
HETATM    4  C3  UNL     1     -26.857   3.685  46.032  1.00  0.00     0.039 C 
HETATM    5  C4  UNL     1     -27.874   3.265  47.108  1.00  0.00     0.127 C 
HETATM    6  N2  UNL     1     -28.780   2.334  46.472  1.00  0.00    -0.352 N 
HETATM    7  C5  UNL     1     -30.107   2.082  46.895  1.00  0.00     0.224 C 
HETATM    8  O1  UNL     1     -30.823   1.248  46.270  1.00  0.00    -0.273 OA
HETATM    9  C12 UNL     1     -28.243   1.635  45.325  1.00  0.00     0.127 C 
HETATM   10  C13 UNL     1     -28.026   2.607  44.188  1.00  0.00     0.039 C 
ENDROOT
BRANCH   7  11
HETATM   11  C6  UNL     1     -30.754   2.737  48.055  1.00  0.00     0.078 C 
HETATM   12  C7  UNL     1     -29.895   3.731  48.753  1.00  0.00     0.014 C 
HETATM   13  C8  UNL     1     -30.645   4.122  50.037  1.00  0.00     0.001 C 
HETATM   14  C9  UNL     1     -30.393   2.957  50.997  1.00  0.00     0.000 C 
HETATM   15  C10 UNL     1     -30.624   1.635  50.311  1.00  0.00     0.001 C 
HETATM   16  C11 UNL     1     -31.365   1.770  49.010  1.00  0.00     0.014 C 
ENDBRANCH   7  11
TORSDOF 1
ENDMDL
MODEL 5
REMARK VINA RESULT: -4.568803056      1.175      1.734
REMARK  1 active torsions:
REMARK  status: ('A' for Active; 'I' for Inactive)
REMARK       I    between atoms: N2_6  and  C5_7 
REMARK    1  A    between atoms: C5_7  and  C6_9 
ROOT
HETATM    1  N1  UNL     1     -26.956   2.852  48.027  1.00  0.00    -0.197 NA
HETATM    2  C1  UNL     1     -26.973   2.798  46.866  1.00  0.00     0.064 C 
HETATM    3  C2  UNL     1     -26.973   2.739  45.399  1.00  0.00     0.096 C 
HETATM    4  C3  UNL     1     -27.981   1.680  45.007  1.00  0.00     0.039 C 
HETATM    5  C4  UNL     1     -29.313   1.925  45.737  1.00  0.00     0.127 C 
HETATM    6  N2  UNL     1     -29.548   3.351  45.690  1.00  0.00    -0.352 N 
HETATM    7  C5  UNL     1     -30.343   4.070  46.614  1.00  0.00     0.224 C 
HETATM    8  O1  UNL     1     -30.487   5.320  46.488  1.00  0.00    -0.273 OA
HETATM    9  C12 UNL     1     -28.901   4.048  44.600  1.00  0.00     0.127 C 
HETATM   10  C13 UNL     1     -27.403   4.037  44.801  1.00  0.00     0.039 C 
ENDROOT
BRANCH   7  11
HETATM   11  C6  UNL     1     -31.051   3.457  47.762  1.00  0.00     0.078 C 
HETATM   12  C7  UNL     1     -30.777   4.111  49.070  1.00  0.00     0.014 C 
HETATM   13  C8  UNL     1     -31.406   3.208  50.142  1.00  0.00     0.001 C 
HETATM   14  C9  UNL     1     -30.412   2.055  50.304  1.00  0.00     0.000 C 
HETATM   15  C10 UNL     1     -29.989   1.519  48.960  1.00  0.00     0.001 C 
HETATM   16  C11 UNL     1     -30.877   1.979  47.837  1.00  0.00     0.014 C 
ENDBRANCH   7  11
TORSDOF 1
ENDMDL
