MODEL 1
REMARK VINA RESULT: -6.077313738      0.000      0.000
REMARK  2 active torsions:
REMARK  status: ('A' for Active; 'I' for Inactive)
REMARK    1  A    between atoms: C1_2  and  O2_3 
REMARK       I    between atoms: C1_2  and  N1_10 
REMARK    2  A    between atoms: O2_3  and  C2_4 
ROOT
HETATM    1  O1  UNL     1     -25.165  -4.408  42.818  1.00  0.00    -0.238 OA
HETATM    2  C1  UNL     1     -24.252  -5.181  43.203  1.00  0.00     0.363 C 
HETATM    3  N1  UNL     1     -23.545  -4.827  44.379  1.00  0.00    -0.328 N 
HETATM    4  C8  UNL     1     -23.925  -3.598  45.049  1.00  0.00     0.128 C 
HETATM    5  C9  UNL     1     -22.666  -2.790  45.246  1.00  0.00     0.020 C 
HETATM    6  C10 UNL     1     -21.996  -3.068  46.562  1.00  0.00     0.002 C 
HETATM    7  C11 UNL     1     -21.301  -4.406  46.592  1.00  0.00     0.002 C 
HETATM    8  C12 UNL     1     -22.245  -5.552  46.321  1.00  0.00     0.020 C 
HETATM    9  C13 UNL     1     -22.484  -5.717  44.834  1.00  0.00     0.128 C 
ENDROOT
BRANCH   2  10
HETATM   10  O2  UNL     1     -24.011  -6.304  42.464  1.00  0.00    -0.298 OA
BRANCH  10  11
HETATM   11  C2  UNL     1     -24.910  -7.387  42.472  1.00  0.00     0.142 C 
HETATM   12  C3  UNL     1     -26.046  -7.239  41.472  1.00  0.00     0.016 C 
HETATM   13  C4  UNL     1     -25.320  -6.902  40.215  1.00  0.00     0.007 C 
HETATM   14  C7  UNL     1     -26.031  -8.774  41.435  1.00  0.00     0.014 C 
HETATM   15  C5  UNL     1     -24.164  -7.919  40.305  1.00  0.00     0.007 C 
HETATM   16  C6  UNL     1     -24.520  -8.560  41.614  1.00  0.00     0.016 C 
ENDBRANCH  10  11
ENDBRANCH   2  10
TORSDOF 2
ENDMDL
MODEL 2
REMARK VINA RESULT: -6.025865271      0.535      1.353
REMARK  2 active torsions:
REMARK  status: ('A' for Active; 'I' for Inactive)
REMARK    1  A    between atoms: C1_2  and  O2_3 
REMARK       I    between atoms: C1_2  and  N1_10 
REMARK    2  A    between atoms: O2_3  and  C2_4 
ROOT
HETATM    1  O1  UNL     1     -25.194  -4.538  42.798  1.00  0.00    -0.238 OA
HETATM    2  C1  UNL     1     -24.307  -5.315  43.235  1.00  0.00     0.363 C 
HETATM    3  N1  UNL     1     -23.587  -4.908  44.386  1.00  0.00    -0.328 N 
HETATM    4  C8  UNL     1     -23.926  -3.627  44.974  1.00  0.00     0.128 C 
HETATM    5  C9  UNL     1     -22.641  -2.850  45.120  1.00  0.00     0.020 C 
HETATM    6  C10 UNL     1     -21.979  -3.064  46.452  1.00  0.00     0.002 C 
HETATM    7  C11 UNL     1     -21.329  -4.419  46.570  1.00  0.00     0.002 C 
HETATM    8  C12 UNL     1     -22.310  -5.548  46.373  1.00  0.00     0.020 C 
HETATM    9  C13 UNL     1     -22.556  -5.802  44.900  1.00  0.00     0.128 C 
ENDROOT
BRANCH   2  10
HETATM   10  O2  UNL     1     -24.103  -6.490  42.571  1.00  0.00    -0.298 OA
BRANCH  10  11
HETATM   11  C2  UNL     1     -24.464  -6.633  41.217  1.00  0.00     0.142 C 
HETATM   12  C3  UNL     1     -24.141  -8.003  40.644  1.00  0.00     0.016 C 
HETATM   13  C4  UNL     1     -24.735  -8.920  41.658  1.00  0.00     0.007 C 
HETATM   14  C7  UNL     1     -25.339  -7.748  39.719  1.00  0.00     0.014 C 
HETATM   15  C5  UNL     1     -26.080  -8.203  41.896  1.00  0.00     0.007 C 
HETATM   16  C6  UNL     1     -25.891  -7.040  40.966  1.00  0.00     0.016 C 
ENDBRANCH  10  11
ENDBRANCH   2  10
TORSDOF 2
ENDMDL
MODEL 3
REMARK VINA RESULT: -5.169295579      1.128      2.027
REMARK  2 active torsions:
REMARK  status: ('A' for Active; 'I' for Inactive)
REMARK    1  A    between atoms: C1_2  and  O2_3 
REMARK       I    between atoms: C1_2  and  N1_10 
REMARK    2  A    between atoms: O2_3  and  C2_4 
ROOT
HETATM    1  O1  UNL     1     -23.329  -7.194  44.202  1.00  0.00    -0.238 OA
HETATM    2  C1  UNL     1     -23.962  -6.220  43.719  1.00  0.00     0.363 C 
HETATM    3  N1  UNL     1     -23.689  -4.933  44.248  1.00  0.00    -0.328 N 
HETATM    4  C8  UNL     1     -22.703  -4.836  45.306  1.00  0.00     0.128 C 
HETATM    5  C9  UNL     1     -23.340  -4.071  46.440  1.00  0.00     0.020 C 
HETATM    6  C10 UNL     1     -23.102  -2.590  46.351  1.00  0.00     0.002 C 
HETATM    7  C11 UNL     1     -23.922  -1.932  45.270  1.00  0.00     0.002 C 
HETATM    8  C12 UNL     1     -23.646  -2.511  43.904  1.00  0.00     0.020 C 
HETATM    9  C13 UNL     1     -24.418  -3.798  43.695  1.00  0.00     0.128 C 
ENDROOT
BRANCH   2  10
HETATM   10  O2  UNL     1     -24.861  -6.472  42.723  1.00  0.00    -0.298 OA
BRANCH  10  11
HETATM   11  C2  UNL     1     -25.228  -7.790  42.393  1.00  0.00     0.142 C 
HETATM   12  C3  UNL     1     -26.258  -7.871  41.278  1.00  0.00     0.016 C 
HETATM   13  C4  UNL     1     -25.661  -6.995  40.230  1.00  0.00     0.007 C 
HETATM   14  C7  UNL     1     -25.606  -9.224  40.958  1.00  0.00     0.014 C 
HETATM   15  C5  UNL     1     -24.195  -7.469  40.303  1.00  0.00     0.007 C 
HETATM   16  C6  UNL     1     -24.333  -8.483  41.401  1.00  0.00     0.016 C 
ENDBRANCH  10  11
ENDBRANCH   2  10
TORSDOF 2
ENDMDL
MODEL 4
REMARK VINA RESULT: -5.147477083      1.146      2.380
REMARK  2 active torsions:
REMARK  status: ('A' for Active; 'I' for Inactive)
REMARK    1  A    between atoms: C1_2  and  O2_3 
REMARK       I    between atoms: C1_2  and  N1_10 
REMARK    2  A    between atoms: O2_3  and  C2_4 
ROOT
HETATM    1  O1  UNL     1     -23.147  -7.284  44.332  1.00  0.00    -0.238 OA
HETATM    2  C1  UNL     1     -23.849  -6.321  43.930  1.00  0.00     0.363 C 
HETATM    3  N1  UNL     1     -23.519  -5.026  44.403  1.00  0.00    -0.328 N 
HETATM    4  C8  UNL     1     -22.399  -4.908  45.316  1.00  0.00     0.128 C 
HETATM    5  C9  UNL     1     -22.884  -4.135  46.518  1.00  0.00     0.020 C 
HETATM    6  C10 UNL     1     -22.675  -2.654  46.382  1.00  0.00     0.002 C 
HETATM    7  C11 UNL     1     -23.640  -2.015  45.416  1.00  0.00     0.002 C 
HETATM    8  C12 UNL     1     -23.547  -2.608  44.031  1.00  0.00     0.020 C 
HETATM    9  C13 UNL     1     -24.328  -3.904  43.943  1.00  0.00     0.128 C 
ENDROOT
BRANCH   2  10
HETATM   10  O2  UNL     1     -24.873  -6.593  43.069  1.00  0.00    -0.298 OA
BRANCH  10  11
HETATM   11  C2  UNL     1     -24.670  -6.597  41.676  1.00  0.00     0.142 C 
HETATM   12  C3  UNL     1     -24.045  -7.882  41.159  1.00  0.00     0.016 C 
HETATM   13  C4  UNL     1     -24.911  -8.928  41.773  1.00  0.00     0.007 C 
HETATM   14  C7  UNL     1     -24.807  -7.572  39.863  1.00  0.00     0.014 C 
HETATM   15  C5  UNL     1     -26.295  -8.292  41.525  1.00  0.00     0.007 C 
HETATM   16  C6  UNL     1     -25.852  -7.027  40.850  1.00  0.00     0.016 C 
ENDBRANCH  10  11
ENDBRANCH   2  10
TORSDOF 2
ENDMDL
MODEL 5
REMARK VINA RESULT: -5.089694448      1.387      5.955
REMARK  2 active torsions:
REMARK  status: ('A' for Active; 'I' for Inactive)
REMARK    1  A    between atoms: C1_2  and  O2_3 
REMARK       I    between atoms: C1_2  and  N1_10 
REMARK    2  A    between atoms: O2_3  and  C2_4 
ROOT
HETATM    1  O1  UNL     1     -23.496  -4.655  41.878  1.00  0.00    -0.238 OA
HETATM    2  C1  UNL     1     -23.980  -5.625  42.516  1.00  0.00     0.363 C 
HETATM    3  N1  UNL     1     -24.383  -6.763  41.774  1.00  0.00    -0.328 N 
HETATM    4  C8  UNL     1     -24.208  -6.725  40.335  1.00  0.00     0.128 C 
HETATM    5  C9  UNL     1     -25.534  -7.090  39.715  1.00  0.00     0.020 C 
HETATM    6  C10 UNL     1     -25.674  -8.564  39.461  1.00  0.00     0.002 C 
HETATM    7  C11 UNL     1     -25.896  -9.355  40.725  1.00  0.00     0.002 C 
HETATM    8  C12 UNL     1     -24.776  -9.177  41.721  1.00  0.00     0.020 C 
HETATM    9  C13 UNL     1     -24.946  -7.892  42.504  1.00  0.00     0.128 C 
ENDROOT
BRANCH   2  10
HETATM   10  O2  UNL     1     -24.081  -5.510  43.873  1.00  0.00    -0.298 OA
BRANCH  10  11
HETATM   11  C2  UNL     1     -23.876  -4.275  44.515  1.00  0.00     0.142 C 
HETATM   12  C3  UNL     1     -23.831  -4.380  46.031  1.00  0.00     0.016 C 
HETATM   13  C4  UNL     1     -22.854  -5.484  46.245  1.00  0.00     0.007 C 
HETATM   14  C7  UNL     1     -22.904  -3.159  45.952  1.00  0.00     0.014 C 
HETATM   15  C5  UNL     1     -21.778  -5.079  45.216  1.00  0.00     0.007 C 
HETATM   16  C6  UNL     1     -22.439  -3.851  44.661  1.00  0.00     0.016 C 
ENDBRANCH  10  11
ENDBRANCH   2  10
TORSDOF 2
ENDMDL
