MODEL 1
REMARK VINA RESULT: -6.704152941      0.000      0.000
REMARK  7 active torsions:
REMARK  status: ('A' for Active; 'I' for Inactive)
REMARK    1  A    between atoms: C4_4  and  C5_5 
REMARK    2  A    between atoms: C5_5  and  O1_6 
REMARK    3  A    between atoms: C5_5  and  C6_8 
REMARK    4  A    between atoms: C6_8  and  N1_9 
REMARK    5  A    between atoms: N2_16  and  S1_17 
REMARK    6  A    between atoms: S1_17  and  C13_20 
REMARK    7  A    between atoms: C13_20  and  C14_21 
ROOT
HETATM    1  C1  UNL     1     -16.462  -6.667 -13.305  1.00  0.00     0.027 C 
HETATM    2  C2  UNL     1     -17.316  -6.196 -14.007  1.00  0.00    -0.026 C 
HETATM    3  C3  UNL     1     -18.327  -5.662 -14.836  1.00  0.00    -0.013 C 
HETATM    4  C4  UNL     1     -19.200  -5.208 -15.571  1.00  0.00    -0.055 C 
ENDROOT
BRANCH   4   5
HETATM    5  C5  UNL     1     -20.223  -4.675 -16.498  1.00  0.00     0.236 C 
BRANCH   5   6
HETATM    6  O1  UNL     1     -20.395  -3.291 -16.118  1.00  0.00    -0.378 OA
ATOM      7  H1  UNL     1     -20.850  -2.886 -16.848  1.00  0.00     0.211 HD
ENDBRANCH   5   6
BRANCH   5   8
HETATM    8  C6  UNL     1     -21.557  -5.298 -16.267  1.00  0.00     0.107 C 
BRANCH   8   9
HETATM    9  N1  UNL     1     -21.637  -6.662 -15.951  1.00  0.00    -0.368 N 
HETATM   10  C7  UNL     1     -22.220  -7.106 -14.754  1.00  0.00     0.063 C 
HETATM   11  C8  UNL     1     -23.689  -6.735 -14.735  1.00  0.00     0.047 C 
HETATM   12  C9  UNL     1     -24.336  -6.903 -16.070  1.00  0.00     0.040 C 
HETATM   13  C10 UNL     1     -23.556  -7.720 -17.054  1.00  0.00     0.068 C 
HETATM   14  C11 UNL     1     -22.086  -7.498 -17.051  1.00  0.00     0.159 C 
HETATM   15  C12 UNL     1     -23.945  -9.168 -16.876  1.00  0.00     0.179 C 
HETATM   16  N3  UNL     1     -24.061  -7.454 -18.391  1.00  0.00    -0.330 N 
HETATM   17  N2  UNL     1     -23.881  -9.768 -18.199  1.00  0.00    -0.225 N 
HETATM   18  C16 UNL     1     -24.101  -8.702 -19.091  1.00  0.00     0.332 C 
HETATM   19  O4  UNL     1     -24.299  -8.869 -20.344  1.00  0.00    -0.246 OA
ATOM     20  H3  UNL     1     -24.336  -6.545 -18.762  1.00  0.00     0.165 HD
BRANCH  17  21
HETATM   21  S1  UNL     1     -23.593 -11.434 -18.484  1.00  0.00     0.236 S 
HETATM   22  O2  UNL     1     -22.729 -11.661 -19.683  1.00  0.00    -0.205 OA
HETATM   23  O3  UNL     1     -24.944 -12.128 -18.639  1.00  0.00    -0.205 OA
BRANCH  21  24
HETATM   24  C13 UNL     1     -22.785 -12.190 -17.102  1.00  0.00     0.163 C 
BRANCH  24  25
HETATM   25  C14 UNL     1     -23.846 -12.814 -16.208  1.00  0.00     0.012 C 
HETATM   26  C15 UNL     1     -23.347 -12.719 -14.783  1.00  0.00     0.006 C 
ENDBRANCH  24  25
ENDBRANCH  21  24
ENDBRANCH  17  21
ENDBRANCH   8   9
ENDBRANCH   5   8
ENDBRANCH   4   5
TORSDOF 7
ENDMDL
MODEL 2
REMARK VINA RESULT: -6.702928885      3.031      4.021
REMARK  7 active torsions:
REMARK  status: ('A' for Active; 'I' for Inactive)
REMARK    1  A    between atoms: C4_4  and  C5_5 
REMARK    2  A    between atoms: C5_5  and  O1_6 
REMARK    3  A    between atoms: C5_5  and  C6_8 
REMARK    4  A    between atoms: C6_8  and  N1_9 
REMARK    5  A    between atoms: N2_16  and  S1_17 
REMARK    6  A    between atoms: S1_17  and  C13_20 
REMARK    7  A    between atoms: C13_20  and  C14_21 
ROOT
HETATM    1  C1  UNL     1     -16.503  -6.653 -13.354  1.00  0.00     0.027 C 
HETATM    2  C2  UNL     1     -17.614  -6.538 -13.795  1.00  0.00    -0.026 C 
HETATM    3  C3  UNL     1     -18.920  -6.422 -14.322  1.00  0.00    -0.013 C 
HETATM    4  C4  UNL     1     -20.048  -6.325 -14.797  1.00  0.00    -0.055 C 
ENDROOT
BRANCH   4   5
HETATM    5  C5  UNL     1     -21.386  -6.196 -15.417  1.00  0.00     0.236 C 
BRANCH   5   6
HETATM    6  O1  UNL     1     -22.325  -6.434 -14.344  1.00  0.00    -0.378 OA
ATOM      7  H1  UNL     1     -22.844  -5.640 -14.286  1.00  0.00     0.211 HD
ENDBRANCH   5   6
BRANCH   5   8
HETATM    8  C6  UNL     1     -21.648  -7.288 -16.397  1.00  0.00     0.107 C 
BRANCH   8   9
HETATM    9  N1  UNL     1     -22.935  -7.837 -16.490  1.00  0.00    -0.368 N 
HETATM   10  C7  UNL     1     -23.584  -7.982 -17.726  1.00  0.00     0.063 C 
HETATM   11  C8  UNL     1     -22.810  -8.951 -18.597  1.00  0.00     0.047 C 
HETATM   12  C9  UNL     1     -22.265 -10.104 -17.822  1.00  0.00     0.040 C 
HETATM   13  C10 UNL     1     -22.859 -10.289 -16.460  1.00  0.00     0.068 C 
HETATM   14  C11 UNL     1     -23.123  -9.041 -15.697  1.00  0.00     0.159 C 
HETATM   15  C12 UNL     1     -24.073 -11.178 -16.594  1.00  0.00     0.179 C 
HETATM   16  N3  UNL     1     -21.977 -11.134 -15.672  1.00  0.00    -0.330 N 
HETATM   17  N2  UNL     1     -24.131 -11.968 -15.375  1.00  0.00    -0.225 N 
HETATM   18  C16 UNL     1     -22.800 -12.035 -14.923  1.00  0.00     0.332 C 
HETATM   19  O4  UNL     1     -22.423 -12.802 -13.971  1.00  0.00    -0.246 OA
ATOM     20  H3  UNL     1     -20.958 -11.092 -15.655  1.00  0.00     0.165 HD
BRANCH  17  21
HETATM   21  S1  UNL     1     -25.575 -12.626 -14.725  1.00  0.00     0.236 S 
HETATM   22  O2  UNL     1     -25.306 -13.627 -13.648  1.00  0.00    -0.205 OA
HETATM   23  O3  UNL     1     -26.367 -13.250 -15.872  1.00  0.00    -0.205 OA
BRANCH  21  24
HETATM   24  C13 UNL     1     -26.597 -11.361 -14.026  1.00  0.00     0.163 C 
BRANCH  24  25
HETATM   25  C14 UNL     1     -27.325 -11.941 -12.824  1.00  0.00     0.012 C 
HETATM   26  C15 UNL     1     -28.462 -11.001 -12.489  1.00  0.00     0.006 C 
ENDBRANCH  24  25
ENDBRANCH  21  24
ENDBRANCH  17  21
ENDBRANCH   8   9
ENDBRANCH   5   8
ENDBRANCH   4   5
TORSDOF 7
ENDMDL
MODEL 3
REMARK VINA RESULT: -6.682098755      1.192      1.402
REMARK  7 active torsions:
REMARK  status: ('A' for Active; 'I' for Inactive)
REMARK    1  A    between atoms: C4_4  and  C5_5 
REMARK    2  A    between atoms: C5_5  and  O1_6 
REMARK    3  A    between atoms: C5_5  and  C6_8 
REMARK    4  A    between atoms: C6_8  and  N1_9 
REMARK    5  A    between atoms: N2_16  and  S1_17 
REMARK    6  A    between atoms: S1_17  and  C13_20 
REMARK    7  A    between atoms: C13_20  and  C14_21 
ROOT
HETATM    1  C1  UNL     1     -16.618  -6.675 -13.297  1.00  0.00     0.027 C 
HETATM    2  C2  UNL     1     -17.460  -6.175 -13.992  1.00  0.00    -0.026 C 
HETATM    3  C3  UNL     1     -18.442  -5.596 -14.827  1.00  0.00    -0.013 C 
HETATM    4  C4  UNL     1     -19.282  -5.084 -15.562  1.00  0.00    -0.055 C 
ENDROOT
BRANCH   4   5
HETATM    5  C5  UNL     1     -20.258  -4.431 -16.463  1.00  0.00     0.236 C 
BRANCH   5   6
HETATM    6  O1  UNL     1     -21.109  -3.647 -15.595  1.00  0.00    -0.378 OA
ATOM      7  H1  UNL     1     -21.595  -3.073 -16.176  1.00  0.00     0.211 HD
ENDBRANCH   5   6
BRANCH   5   8
HETATM    8  C6  UNL     1     -21.175  -5.422 -17.095  1.00  0.00     0.107 C 
BRANCH   8   9
HETATM    9  N1  UNL     1     -21.843  -6.356 -16.291  1.00  0.00    -0.368 N 
HETATM   10  C7  UNL     1     -23.025  -6.026 -15.609  1.00  0.00     0.063 C 
HETATM   11  C8  UNL     1     -24.115  -5.698 -16.609  1.00  0.00     0.047 C 
HETATM   12  C9  UNL     1     -24.084  -6.596 -17.801  1.00  0.00     0.040 C 
HETATM   13  C10 UNL     1     -23.261  -7.837 -17.637  1.00  0.00     0.068 C 
HETATM   14  C11 UNL     1     -21.982  -7.668 -16.899  1.00  0.00     0.159 C 
HETATM   15  C12 UNL     1     -24.148  -8.917 -17.063  1.00  0.00     0.179 C 
HETATM   16  N3  UNL     1     -22.967  -8.383 -18.952  1.00  0.00    -0.330 N 
HETATM   17  N2  UNL     1     -23.683 -10.168 -17.639  1.00  0.00    -0.225 N 
HETATM   18  C16 UNL     1     -23.093  -9.807 -18.864  1.00  0.00     0.332 C 
HETATM   19  O4  UNL     1     -22.731 -10.661 -19.745  1.00  0.00    -0.246 OA
ATOM     20  H3  UNL     1     -22.716  -7.850 -19.784  1.00  0.00     0.165 HD
BRANCH  17  21
HETATM   21  S1  UNL     1     -23.872 -11.699 -16.888  1.00  0.00     0.236 S 
HETATM   22  O2  UNL     1     -22.750 -12.631 -17.215  1.00  0.00    -0.205 OA
HETATM   23  O3  UNL     1     -25.215 -12.277 -17.328  1.00  0.00    -0.205 OA
BRANCH  21  24
HETATM   24  C13 UNL     1     -23.933 -11.543 -15.126  1.00  0.00     0.163 C 
BRANCH  24  25
HETATM   25  C14 UNL     1     -23.150 -12.695 -14.515  1.00  0.00     0.012 C 
HETATM   26  C15 UNL     1     -24.147 -13.768 -14.138  1.00  0.00     0.006 C 
ENDBRANCH  24  25
ENDBRANCH  21  24
ENDBRANCH  17  21
ENDBRANCH   8   9
ENDBRANCH   5   8
ENDBRANCH   4   5
TORSDOF 7
ENDMDL
MODEL 4
REMARK VINA RESULT: -6.534054946      2.792      3.879
REMARK  7 active torsions:
REMARK  status: ('A' for Active; 'I' for Inactive)
REMARK    1  A    between atoms: C4_4  and  C5_5 
REMARK    2  A    between atoms: C5_5  and  O1_6 
REMARK    3  A    between atoms: C5_5  and  C6_8 
REMARK    4  A    between atoms: C6_8  and  N1_9 
REMARK    5  A    between atoms: N2_16  and  S1_17 
REMARK    6  A    between atoms: S1_17  and  C13_20 
REMARK    7  A    between atoms: C13_20  and  C14_21 
ROOT
HETATM    1  C1  UNL     1     -16.639  -6.662 -13.297  1.00  0.00     0.027 C 
HETATM    2  C2  UNL     1     -17.741  -6.561 -13.763  1.00  0.00    -0.026 C 
HETATM    3  C3  UNL     1     -19.033  -6.458 -14.325  1.00  0.00    -0.013 C 
HETATM    4  C4  UNL     1     -20.149  -6.365 -14.831  1.00  0.00    -0.055 C 
ENDROOT
BRANCH   4   5
HETATM    5  C5  UNL     1     -21.471  -6.226 -15.479  1.00  0.00     0.236 C 
BRANCH   5   6
HETATM    6  O1  UNL     1     -22.436  -6.482 -14.434  1.00  0.00    -0.378 OA
ATOM      7  H1  UNL     1     -23.255  -6.126 -14.757  1.00  0.00     0.211 HD
ENDBRANCH   5   6
BRANCH   5   8
HETATM    8  C6  UNL     1     -21.710  -7.301 -16.484  1.00  0.00     0.107 C 
BRANCH   8   9
HETATM    9  N1  UNL     1     -22.981  -7.882 -16.584  1.00  0.00    -0.368 N 
HETATM   10  C7  UNL     1     -23.608  -8.069 -17.826  1.00  0.00     0.063 C 
HETATM   11  C8  UNL     1     -22.799  -9.037 -18.665  1.00  0.00     0.047 C 
HETATM   12  C9  UNL     1     -22.239 -10.160 -17.857  1.00  0.00     0.040 C 
HETATM   13  C10 UNL     1     -22.850 -10.330 -16.500  1.00  0.00     0.068 C 
HETATM   14  C11 UNL     1     -23.153  -9.072 -15.768  1.00  0.00     0.159 C 
HETATM   15  C12 UNL     1     -24.040 -11.250 -16.632  1.00  0.00     0.179 C 
HETATM   16  N3  UNL     1     -21.960 -11.137 -15.680  1.00  0.00    -0.330 N 
HETATM   17  N2  UNL     1     -24.098 -12.015 -15.397  1.00  0.00    -0.225 N 
HETATM   18  C16 UNL     1     -22.773 -12.041 -14.924  1.00  0.00     0.332 C 
HETATM   19  O4  UNL     1     -22.392 -12.778 -13.951  1.00  0.00    -0.246 OA
ATOM     20  H3  UNL     1     -20.942 -11.071 -15.650  1.00  0.00     0.165 HD
BRANCH  17  21
HETATM   21  S1  UNL     1     -25.536 -12.693 -14.755  1.00  0.00     0.236 S 
HETATM   22  O2  UNL     1     -26.502 -11.645 -14.302  1.00  0.00    -0.205 OA
HETATM   23  O3  UNL     1     -25.149 -13.619 -13.605  1.00  0.00    -0.205 OA
BRANCH  21  24
HETATM   24  C13 UNL     1     -26.367 -13.690 -15.959  1.00  0.00     0.163 C 
BRANCH  24  25
HETATM   25  C14 UNL     1     -25.535 -14.940 -16.203  1.00  0.00     0.012 C 
HETATM   26  C15 UNL     1     -24.973 -14.839 -17.604  1.00  0.00     0.006 C 
ENDBRANCH  24  25
ENDBRANCH  21  24
ENDBRANCH  17  21
ENDBRANCH   8   9
ENDBRANCH   5   8
ENDBRANCH   4   5
TORSDOF 7
ENDMDL
MODEL 5
REMARK VINA RESULT: -6.523968806      1.606      1.982
REMARK  7 active torsions:
REMARK  status: ('A' for Active; 'I' for Inactive)
REMARK    1  A    between atoms: C4_4  and  C5_5 
REMARK    2  A    between atoms: C5_5  and  O1_6 
REMARK    3  A    between atoms: C5_5  and  C6_8 
REMARK    4  A    between atoms: C6_8  and  N1_9 
REMARK    5  A    between atoms: N2_16  and  S1_17 
REMARK    6  A    between atoms: S1_17  and  C13_20 
REMARK    7  A    between atoms: C13_20  and  C14_21 
ROOT
HETATM    1  C1  UNL     1     -16.402  -6.980 -13.261  1.00  0.00     0.027 C 
HETATM    2  C2  UNL     1     -17.202  -6.414 -13.956  1.00  0.00    -0.026 C 
HETATM    3  C3  UNL     1     -18.141  -5.764 -14.788  1.00  0.00    -0.013 C 
HETATM    4  C4  UNL     1     -18.945  -5.200 -15.525  1.00  0.00    -0.055 C 
ENDROOT
BRANCH   4   5
HETATM    5  C5  UNL     1     -19.873  -4.502 -16.443  1.00  0.00     0.236 C 
BRANCH   5   6
HETATM    6  O1  UNL     1     -20.627  -3.597 -15.604  1.00  0.00    -0.378 OA
ATOM      7  H1  UNL     1     -20.009  -3.288 -14.952  1.00  0.00     0.211 HD
ENDBRANCH   5   6
BRANCH   5   8
HETATM    8  C6  UNL     1     -20.893  -5.431 -17.008  1.00  0.00     0.107 C 
BRANCH   8   9
HETATM    9  N1  UNL     1     -21.624  -6.260 -16.146  1.00  0.00    -0.368 N 
HETATM   10  C7  UNL     1     -22.811  -5.824 -15.538  1.00  0.00     0.063 C 
HETATM   11  C8  UNL     1     -23.855  -5.545 -16.599  1.00  0.00     0.047 C 
HETATM   12  C9  UNL     1     -23.826  -6.548 -17.704  1.00  0.00     0.040 C 
HETATM   13  C10 UNL     1     -23.062  -7.801 -17.402  1.00  0.00     0.068 C 
HETATM   14  C11 UNL     1     -21.800  -7.616 -16.639  1.00  0.00     0.159 C 
HETATM   15  C12 UNL     1     -24.011  -8.788 -16.764  1.00  0.00     0.179 C 
HETATM   16  N3  UNL     1     -22.751  -8.475 -18.652  1.00  0.00    -0.330 N 
HETATM   17  N2  UNL     1     -23.582 -10.104 -17.209  1.00  0.00    -0.225 N 
HETATM   18  C16 UNL     1     -22.940  -9.879 -18.441  1.00  0.00     0.332 C 
HETATM   19  O4  UNL     1     -22.588 -10.823 -19.229  1.00  0.00    -0.246 OA
ATOM     20  H3  UNL     1     -22.453  -8.030 -19.520  1.00  0.00     0.165 HD
BRANCH  17  21
HETATM   21  S1  UNL     1     -23.858 -11.551 -16.332  1.00  0.00     0.236 S 
HETATM   22  O2  UNL     1     -24.497 -11.294 -15.005  1.00  0.00    -0.205 OA
HETATM   23  O3  UNL     1     -22.520 -12.268 -16.169  1.00  0.00    -0.205 OA
BRANCH  21  24
HETATM   24  C13 UNL     1     -24.922 -12.648 -17.226  1.00  0.00     0.163 C 
BRANCH  24  25
HETATM   25  C14 UNL     1     -24.070 -13.748 -17.839  1.00  0.00     0.012 C 
HETATM   26  C15 UNL     1     -24.785 -15.059 -17.597  1.00  0.00     0.006 C 
ENDBRANCH  24  25
ENDBRANCH  21  24
ENDBRANCH  17  21
ENDBRANCH   8   9
ENDBRANCH   5   8
ENDBRANCH   4   5
TORSDOF 7
ENDMDL
