MODEL 1
REMARK VINA RESULT: -6.195550526      0.000      0.000
REMARK  7 active torsions:
REMARK  status: ('A' for Active; 'I' for Inactive)
REMARK    1  A    between atoms: N1_2  and  C2_3 
REMARK    2  A    between atoms: N1_2  and  S1_18 
REMARK    3  A    between atoms: C2_3  and  C3_4 
REMARK    4  A    between atoms: C6_7  and  N2_8 
REMARK    5  A    between atoms: C9_11  and  O1_12 
REMARK    6  A    between atoms: C11_15  and  O2_16 
REMARK    7  A    between atoms: S1_18  and  N3_21 
ROOT
HETATM    1  C3  UNL     1     -22.359  -6.336 -17.038  1.00  0.00     0.056 C 
HETATM    2  C4  UNL     1     -22.063  -4.864 -17.059  1.00  0.00     0.015 C 
HETATM    3  C5  UNL     1     -20.651  -4.762 -16.444  1.00  0.00     0.039 C 
HETATM    4  C6  UNL     1     -20.801  -5.730 -15.292  1.00  0.00     0.252 C 
HETATM    5  C11 UNL     1     -21.832  -6.750 -15.661  1.00  0.00     0.160 C 
ENDROOT
BRANCH   1   6
HETATM    6  C2  UNL     1     -23.784  -6.708 -17.125  1.00  0.00     0.084 C 
BRANCH   6   7
HETATM    7  N1  UNL     1     -24.261  -7.398 -18.239  1.00  0.00    -0.282 N 
HETATM    8  C1  UNL     1     -25.419  -6.922 -18.897  1.00  0.00     0.169 C 
BRANCH   7   9
HETATM    9  S1  UNL     1     -23.788  -8.975 -18.545  1.00  0.00     0.304 S 
HETATM   10  O3  UNL     1     -22.450  -8.997 -19.270  1.00  0.00    -0.188 OA
HETATM   11  O4  UNL     1     -24.715  -9.839 -19.301  1.00  0.00    -0.188 OA
BRANCH   9  12
HETATM   12  N3  UNL     1     -23.545  -9.744 -16.972  1.00  0.00    -0.189 NA
HETATM   13  C12 UNL     1     -24.817 -10.054 -16.416  1.00  0.00     0.135 C 
HETATM   14  C13 UNL     1     -24.732 -11.245 -15.513  1.00  0.00     0.183 C 
HETATM   15  O5  UNL     1     -23.485 -11.346 -14.968  1.00  0.00    -0.389 OA
HETATM   16  C14 UNL     1     -22.504 -11.678 -15.901  1.00  0.00     0.183 C 
HETATM   17  C15 UNL     1     -22.641 -10.846 -17.157  1.00  0.00     0.135 C 
ENDBRANCH   9  12
ENDBRANCH   7   9
ENDBRANCH   6   7
ENDBRANCH   1   6
BRANCH   5  18
HETATM   18  O2  UNL     1     -21.324  -8.037 -15.680  1.00  0.00    -0.393 OA
ATOM     19  H2  UNL     1     -21.364  -8.439 -14.820  1.00  0.00     0.210 HD
ENDBRANCH   5  18
BRANCH   4  20
HETATM   20  N2  UNL     1     -19.524  -6.287 -14.981  1.00  0.00     0.098 N 
HETATM   21  C7  UNL     1     -19.362  -6.630 -13.596  1.00  0.00     0.275 C 
HETATM   22  C8  UNL     1     -18.224  -5.795 -13.055  1.00  0.00     0.064 C 
HETATM   23  C9  UNL     1     -17.373  -5.576 -14.272  1.00  0.00     0.148 C 
HETATM   24  C10 UNL     1     -18.415  -5.477 -15.375  1.00  0.00     0.304 C 
BRANCH  23  25
HETATM   25  O1  UNL     1     -16.594  -6.716 -14.483  1.00  0.00    -0.394 OA
ATOM     26  H1  UNL     1     -16.124  -6.616 -15.303  1.00  0.00     0.210 HD
ENDBRANCH  23  25
ENDBRANCH   4  20
TORSDOF 7
ENDMDL
MODEL 2
REMARK VINA RESULT: -6.072886811      1.254      1.498
REMARK  7 active torsions:
REMARK  status: ('A' for Active; 'I' for Inactive)
REMARK    1  A    between atoms: N1_2  and  C2_3 
REMARK    2  A    between atoms: N1_2  and  S1_18 
REMARK    3  A    between atoms: C2_3  and  C3_4 
REMARK    4  A    between atoms: C6_7  and  N2_8 
REMARK    5  A    between atoms: C9_11  and  O1_12 
REMARK    6  A    between atoms: C11_15  and  O2_16 
REMARK    7  A    between atoms: S1_18  and  N3_21 
ROOT
HETATM    1  C3  UNL     1     -22.666  -5.968 -16.791  1.00  0.00     0.056 C 
HETATM    2  C4  UNL     1     -22.232  -4.532 -16.836  1.00  0.00     0.015 C 
HETATM    3  C5  UNL     1     -20.774  -4.570 -16.331  1.00  0.00     0.039 C 
HETATM    4  C6  UNL     1     -20.929  -5.526 -15.170  1.00  0.00     0.252 C 
HETATM    5  C11 UNL     1     -22.079  -6.440 -15.457  1.00  0.00     0.160 C 
ENDROOT
BRANCH   1   6
HETATM    6  C2  UNL     1     -24.123  -6.201 -16.768  1.00  0.00     0.084 C 
BRANCH   6   7
HETATM    7  N1  UNL     1     -24.670  -7.282 -17.458  1.00  0.00    -0.282 N 
HETATM    8  C1  UNL     1     -25.045  -7.113 -18.812  1.00  0.00     0.169 C 
BRANCH   7   9
HETATM    9  S1  UNL     1     -25.295  -8.603 -16.639  1.00  0.00     0.304 S 
HETATM   10  O3  UNL     1     -26.147  -9.452 -17.571  1.00  0.00    -0.188 OA
HETATM   11  O4  UNL     1     -26.090  -8.347 -15.423  1.00  0.00    -0.188 OA
BRANCH   9  12
HETATM   12  N3  UNL     1     -23.914  -9.590 -16.145  1.00  0.00    -0.189 NA
HETATM   13  C12 UNL     1     -24.321 -10.442 -15.082  1.00  0.00     0.135 C 
HETATM   14  C13 UNL     1     -23.521 -11.708 -15.073  1.00  0.00     0.183 C 
HETATM   15  O5  UNL     1     -22.284 -11.498 -15.608  1.00  0.00    -0.389 OA
HETATM   16  C14 UNL     1     -22.315 -11.239 -16.978  1.00  0.00     0.183 C 
HETATM   17  C15 UNL     1     -23.392 -10.234 -17.319  1.00  0.00     0.135 C 
ENDBRANCH   9  12
ENDBRANCH   7   9
ENDBRANCH   6   7
ENDBRANCH   1   6
BRANCH   5  18
HETATM   18  O2  UNL     1     -21.700  -7.769 -15.513  1.00  0.00    -0.393 OA
ATOM     19  H2  UNL     1     -21.978  -8.243 -14.737  1.00  0.00     0.210 HD
ENDBRANCH   5  18
BRANCH   4  20
HETATM   20  N2  UNL     1     -19.692  -6.206 -14.956  1.00  0.00     0.098 N 
HETATM   21  C7  UNL     1     -19.464  -6.582 -13.589  1.00  0.00     0.275 C 
HETATM   22  C8  UNL     1     -18.216  -5.865 -13.126  1.00  0.00     0.064 C 
HETATM   23  C9  UNL     1     -17.437  -5.711 -14.400  1.00  0.00     0.148 C 
HETATM   24  C10 UNL     1     -18.542  -5.499 -15.423  1.00  0.00     0.304 C 
BRANCH  23  25
HETATM   25  O1  UNL     1     -16.787  -6.916 -14.675  1.00  0.00    -0.394 OA
ATOM     26  H1  UNL     1     -17.414  -7.626 -14.592  1.00  0.00     0.210 HD
ENDBRANCH  23  25
ENDBRANCH   4  20
TORSDOF 7
ENDMDL
MODEL 3
REMARK VINA RESULT: -5.887690581      1.512      2.158
REMARK  7 active torsions:
REMARK  status: ('A' for Active; 'I' for Inactive)
REMARK    1  A    between atoms: N1_2  and  C2_3 
REMARK    2  A    between atoms: N1_2  and  S1_18 
REMARK    3  A    between atoms: C2_3  and  C3_4 
REMARK    4  A    between atoms: C6_7  and  N2_8 
REMARK    5  A    between atoms: C9_11  and  O1_12 
REMARK    6  A    between atoms: C11_15  and  O2_16 
REMARK    7  A    between atoms: S1_18  and  N3_21 
ROOT
HETATM    1  C3  UNL     1     -22.462  -5.524 -16.867  1.00  0.00     0.056 C 
HETATM    2  C4  UNL     1     -21.882  -4.140 -16.902  1.00  0.00     0.015 C 
HETATM    3  C5  UNL     1     -20.441  -4.329 -16.381  1.00  0.00     0.039 C 
HETATM    4  C6  UNL     1     -20.707  -5.267 -15.225  1.00  0.00     0.252 C 
HETATM    5  C11 UNL     1     -21.941  -6.057 -15.529  1.00  0.00     0.160 C 
ENDROOT
BRANCH   1   6
HETATM    6  C2  UNL     1     -23.936  -5.606 -16.862  1.00  0.00     0.084 C 
BRANCH   6   7
HETATM    7  N1  UNL     1     -24.591  -6.490 -17.718  1.00  0.00    -0.282 N 
HETATM    8  C1  UNL     1     -25.361  -5.968 -18.784  1.00  0.00     0.169 C 
BRANCH   7   9
HETATM    9  S1  UNL     1     -24.856  -8.084 -17.278  1.00  0.00     0.304 S 
HETATM   10  O3  UNL     1     -26.287  -8.491 -17.592  1.00  0.00    -0.188 OA
HETATM   11  O4  UNL     1     -24.583  -8.467 -15.879  1.00  0.00    -0.188 OA
BRANCH   9  12
HETATM   12  N3  UNL     1     -23.794  -9.070 -18.291  1.00  0.00    -0.189 NA
HETATM   13  C12 UNL     1     -23.093  -9.986 -17.459  1.00  0.00     0.135 C 
HETATM   14  C13 UNL     1     -22.748 -11.235 -18.207  1.00  0.00     0.183 C 
HETATM   15  O5  UNL     1     -22.611 -10.974 -19.539  1.00  0.00    -0.389 OA
HETATM   16  C14 UNL     1     -23.814 -10.643 -20.160  1.00  0.00     0.183 C 
HETATM   17  C15 UNL     1     -24.595  -9.641 -19.339  1.00  0.00     0.135 C 
ENDBRANCH   9  12
ENDBRANCH   7   9
ENDBRANCH   6   7
ENDBRANCH   1   6
BRANCH   5  18
HETATM   18  O2  UNL     1     -21.701  -7.418 -15.586  1.00  0.00    -0.393 OA
ATOM     19  H2  UNL     1     -22.512  -7.914 -15.606  1.00  0.00     0.210 HD
ENDBRANCH   5  18
BRANCH   4  20
HETATM   20  N2  UNL     1     -19.549  -6.072 -14.999  1.00  0.00     0.098 N 
HETATM   21  C7  UNL     1     -19.419  -6.537 -13.648  1.00  0.00     0.275 C 
HETATM   22  C8  UNL     1     -18.132  -5.967 -13.096  1.00  0.00     0.064 C 
HETATM   23  C9  UNL     1     -17.286  -5.822 -14.327  1.00  0.00     0.148 C 
HETATM   24  C10 UNL     1     -18.319  -5.453 -15.381  1.00  0.00     0.304 C 
BRANCH  23  25
HETATM   25  O1  UNL     1     -16.738  -7.067 -14.642  1.00  0.00    -0.394 OA
ATOM     26  H1  UNL     1     -16.744  -7.172 -15.587  1.00  0.00     0.210 HD
ENDBRANCH  23  25
ENDBRANCH   4  20
TORSDOF 7
ENDMDL
MODEL 4
REMARK VINA RESULT: -5.843349492      2.409      6.621
REMARK  7 active torsions:
REMARK  status: ('A' for Active; 'I' for Inactive)
REMARK    1  A    between atoms: N1_2  and  C2_3 
REMARK    2  A    between atoms: N1_2  and  S1_18 
REMARK    3  A    between atoms: C2_3  and  C3_4 
REMARK    4  A    between atoms: C6_7  and  N2_8 
REMARK    5  A    between atoms: C9_11  and  O1_12 
REMARK    6  A    between atoms: C11_15  and  O2_16 
REMARK    7  A    between atoms: S1_18  and  N3_21 
ROOT
HETATM    1  C3  UNL     1     -22.997  -8.176 -17.218  1.00  0.00     0.056 C 
HETATM    2  C4  UNL     1     -23.198  -9.149 -18.342  1.00  0.00     0.015 C 
HETATM    3  C5  UNL     1     -23.814 -10.387 -17.655  1.00  0.00     0.039 C 
HETATM    4  C6  UNL     1     -22.942 -10.457 -16.422  1.00  0.00     0.252 C 
HETATM    5  C11 UNL     1     -22.456  -9.078 -16.104  1.00  0.00     0.160 C 
ENDROOT
BRANCH   1   6
HETATM    6  C2  UNL     1     -22.018  -7.099 -17.464  1.00  0.00     0.084 C 
BRANCH   6   7
HETATM    7  N1  UNL     1     -22.053  -5.933 -16.701  1.00  0.00    -0.282 N 
HETATM    8  C1  UNL     1     -23.300  -5.455 -16.236  1.00  0.00     0.169 C 
BRANCH   7   9
HETATM    9  S1  UNL     1     -20.761  -4.866 -16.694  1.00  0.00     0.304 S 
HETATM   10  O3  UNL     1     -21.260  -3.429 -16.671  1.00  0.00    -0.188 OA
HETATM   11  O4  UNL     1     -19.771  -4.975 -17.782  1.00  0.00    -0.188 OA
BRANCH   9  12
HETATM   12  N3  UNL     1     -19.887  -5.143 -15.182  1.00  0.00    -0.189 NA
HETATM   13  C12 UNL     1     -20.266  -6.411 -14.664  1.00  0.00     0.135 C 
HETATM   14  C13 UNL     1     -19.159  -7.012 -13.853  1.00  0.00     0.183 C 
HETATM   15  O5  UNL     1     -18.380  -6.035 -13.307  1.00  0.00    -0.389 OA
HETATM   16  C14 UNL     1     -17.635  -5.333 -14.254  1.00  0.00     0.183 C 
HETATM   17  C15 UNL     1     -18.488  -4.949 -15.443  1.00  0.00     0.135 C 
ENDBRANCH   9  12
ENDBRANCH   7   9
ENDBRANCH   6   7
ENDBRANCH   1   6
BRANCH   5  18
HETATM   18  O2  UNL     1     -22.868  -8.643 -14.857  1.00  0.00    -0.393 OA
ATOM     19  H2  UNL     1     -23.567  -9.187 -14.513  1.00  0.00     0.210 HD
ENDBRANCH   5  18
BRANCH   4  20
HETATM   20  N2  UNL     1     -23.678 -11.068 -15.362  1.00  0.00     0.098 N 
HETATM   21  C7  UNL     1     -23.091 -12.282 -14.871  1.00  0.00     0.275 C 
HETATM   22  C8  UNL     1     -24.085 -13.395 -15.111  1.00  0.00     0.064 C 
HETATM   23  C9  UNL     1     -25.400 -12.673 -15.057  1.00  0.00     0.148 C 
HETATM   24  C10 UNL     1     -25.049 -11.326 -15.670  1.00  0.00     0.304 C 
BRANCH  23  25
HETATM   25  O1  UNL     1     -25.753 -12.487 -13.719  1.00  0.00    -0.394 OA
ATOM     26  H1  UNL     1     -26.596 -12.898 -13.566  1.00  0.00     0.210 HD
ENDBRANCH  23  25
ENDBRANCH   4  20
TORSDOF 7
ENDMDL
MODEL 5
REMARK VINA RESULT: -5.799731468      2.138      3.312
REMARK  7 active torsions:
REMARK  status: ('A' for Active; 'I' for Inactive)
REMARK    1  A    between atoms: N1_2  and  C2_3 
REMARK    2  A    between atoms: N1_2  and  S1_18 
REMARK    3  A    between atoms: C2_3  and  C3_4 
REMARK    4  A    between atoms: C6_7  and  N2_8 
REMARK    5  A    between atoms: C9_11  and  O1_12 
REMARK    6  A    between atoms: C11_15  and  O2_16 
REMARK    7  A    between atoms: S1_18  and  N3_21 
ROOT
HETATM    1  C3  UNL     1     -20.307  -5.473 -15.672  1.00  0.00     0.056 C 
HETATM    2  C4  UNL     1     -19.138  -4.578 -15.963  1.00  0.00     0.015 C 
HETATM    3  C5  UNL     1     -17.936  -5.329 -15.351  1.00  0.00     0.039 C 
HETATM    4  C6  UNL     1     -18.549  -5.769 -14.041  1.00  0.00     0.252 C 
HETATM    5  C11 UNL     1     -20.026  -5.909 -14.231  1.00  0.00     0.160 C 
ENDROOT
BRANCH   1   6
HETATM    6  C2  UNL     1     -21.636  -4.831 -15.716  1.00  0.00     0.084 C 
BRANCH   6   7
HETATM    7  N1  UNL     1     -22.603  -5.286 -16.611  1.00  0.00    -0.282 N 
HETATM    8  C1  UNL     1     -23.216  -4.360 -17.487  1.00  0.00     0.169 C 
BRANCH   7   9
HETATM    9  S1  UNL     1     -23.364  -6.761 -16.384  1.00  0.00     0.304 S 
HETATM   10  O3  UNL     1     -24.873  -6.603 -16.492  1.00  0.00    -0.188 OA
HETATM   11  O4  UNL     1     -23.084  -7.498 -15.137  1.00  0.00    -0.188 OA
BRANCH   9  12
HETATM   12  N3  UNL     1     -22.849  -7.804 -17.716  1.00  0.00    -0.189 NA
HETATM   13  C12 UNL     1     -22.300  -8.997 -17.173  1.00  0.00     0.135 C 
HETATM   14  C13 UNL     1     -22.482 -10.148 -18.113  1.00  0.00     0.183 C 
HETATM   15  O5  UNL     1     -22.532  -9.710 -19.404  1.00  0.00    -0.389 OA
HETATM   16  C14 UNL     1     -23.682  -8.977 -19.691  1.00  0.00     0.183 C 
HETATM   17  C15 UNL     1     -23.965  -7.960 -18.608  1.00  0.00     0.135 C 
ENDBRANCH   9  12
ENDBRANCH   7   9
ENDBRANCH   6   7
ENDBRANCH   1   6
BRANCH   5  18
HETATM   18  O2  UNL     1     -20.473  -7.197 -13.997  1.00  0.00    -0.393 OA
ATOM     19  H2  UNL     1     -20.369  -7.746 -14.766  1.00  0.00     0.210 HD
ENDBRANCH   5  18
BRANCH   4  20
HETATM   20  N2  UNL     1     -17.908  -6.968 -13.604  1.00  0.00     0.098 N 
HETATM   21  C7  UNL     1     -16.707  -6.743 -12.849  1.00  0.00     0.275 C 
HETATM   22  C8  UNL     1     -15.568  -7.377 -13.614  1.00  0.00     0.064 C 
HETATM   23  C9  UNL     1     -16.250  -8.497 -14.345  1.00  0.00     0.148 C 
HETATM   24  C10 UNL     1     -17.612  -7.893 -14.651  1.00  0.00     0.304 C 
BRANCH  23  25
HETATM   25  O1  UNL     1     -16.414  -9.570 -13.466  1.00  0.00    -0.394 OA
ATOM     26  H1  UNL     1     -15.611 -10.079 -13.454  1.00  0.00     0.210 HD
ENDBRANCH  23  25
ENDBRANCH   4  20
TORSDOF 7
ENDMDL
