MODEL 1
REMARK VINA RESULT: -6.787305719      0.000      0.000
REMARK  5 active torsions:
REMARK  status: ('A' for Active; 'I' for Inactive)
REMARK    1  A    between atoms: C2_2  and  N1_3 
REMARK       I    between atoms: N1_3  and  C3_5 
REMARK       I    between atoms: C3_5  and  N4_10 
REMARK    2  A    between atoms: N4_10  and  C5_12 
REMARK    3  A    between atoms: C5_12  and  C6_13 
REMARK    4  A    between atoms: C5_12  and  C12_22 
REMARK    5  A    between atoms: C6_13  and  C7_14 
REMARK       I    between atoms: C7_14  and  N5_16 
REMARK       I    between atoms: C12_22  and  N6_24 
ROOT
HETATM    1  N1  UNL     1     -18.437  -7.549 -13.585  1.00  0.00    -0.226 N 
ATOM      2  H1  UNL     1     -18.591  -7.392 -12.589  1.00  0.00     0.177 HD
HETATM    3  C3  UNL     1     -19.265  -6.903 -14.530  1.00  0.00     0.683 C 
HETATM    4  N2  UNL     1     -18.860  -5.773 -15.028  1.00  0.00    -0.126 N 
ATOM      5  H2  UNL     1     -19.445  -5.293 -15.712  1.00  0.00     0.197 HD
HETATM    6  C4  UNL     1     -17.642  -5.199 -14.651  1.00  0.00     0.196 C 
HETATM    7  N3  UNL     1     -16.614  -4.728 -14.329  1.00  0.00    -0.171 NA
HETATM    8  N4  UNL     1     -20.496  -7.447 -14.936  1.00  0.00    -0.212 N 
ATOM      9  H4  UNL     1     -20.568  -8.459 -15.045  1.00  0.00     0.178 HD
ENDROOT
BRANCH   1  10
HETATM   10  C2  UNL     1     -17.371  -8.434 -14.016  1.00  0.00     0.133 C 
HETATM   11  C1  UNL     1     -16.102  -8.211 -13.261  1.00  0.00     0.027 C 
ENDBRANCH   1  10
BRANCH   8  12
HETATM   12  C5  UNL     1     -21.692  -6.623 -15.213  1.00  0.00     0.200 C 
BRANCH  12  13
HETATM   13  C6  UNL     1     -21.575  -6.012 -16.578  1.00  0.00     0.138 C 
BRANCH  13  14
HETATM   14  C7  UNL     1     -21.707  -4.560 -16.602  1.00  0.00     0.222 C 
HETATM   15  O1  UNL     1     -20.780  -3.767 -16.240  1.00  0.00    -0.273 OA
HETATM   16  N5  UNL     1     -22.911  -3.963 -17.041  1.00  0.00    -0.351 N 
HETATM   17  C8  UNL     1     -23.016  -2.521 -17.054  1.00  0.00     0.136 C 
HETATM   18  C11 UNL     1     -23.962  -4.846 -17.449  1.00  0.00     0.136 C 
HETATM   19  C9  UNL     1     -23.303  -1.977 -18.461  1.00  0.00     0.093 C 
HETATM   20  S1  UNL     1     -24.906  -2.695 -18.910  1.00  0.00    -0.166 SA
HETATM   21  C10 UNL     1     -25.198  -4.202 -17.962  1.00  0.00     0.093 C 
ENDBRANCH  13  14
ENDBRANCH  12  13
BRANCH  12  22
HETATM   22  C12 UNL     1     -22.909  -7.395 -14.959  1.00  0.00     0.243 C 
HETATM   23  O2  UNL     1     -23.787  -6.847 -14.201  1.00  0.00    -0.271 OA
HETATM   24  N6  UNL     1     -23.227  -8.674 -15.453  1.00  0.00    -0.350 N 
HETATM   25  C13 UNL     1     -24.479  -9.427 -15.184  1.00  0.00     0.126 C 
HETATM   26  C16 UNL     1     -22.407  -9.480 -16.317  1.00  0.00     0.126 C 
HETATM   27  C14 UNL     1     -24.701 -10.034 -16.567  1.00  0.00     0.021 C 
HETATM   28  C15 UNL     1     -23.319 -10.523 -16.892  1.00  0.00     0.021 C 
ENDBRANCH  12  22
ENDBRANCH   8  12
TORSDOF 5
ENDMDL
MODEL 2
REMARK VINA RESULT: -6.706388888      3.430      6.575
REMARK  5 active torsions:
REMARK  status: ('A' for Active; 'I' for Inactive)
REMARK    1  A    between atoms: C2_2  and  N1_3 
REMARK       I    between atoms: N1_3  and  C3_5 
REMARK       I    between atoms: C3_5  and  N4_10 
REMARK    2  A    between atoms: N4_10  and  C5_12 
REMARK    3  A    between atoms: C5_12  and  C6_13 
REMARK    4  A    between atoms: C5_12  and  C12_22 
REMARK    5  A    between atoms: C6_13  and  C7_14 
REMARK       I    between atoms: C7_14  and  N5_16 
REMARK       I    between atoms: C12_22  and  N6_24 
ROOT
HETATM    1  N1  UNL     1     -24.777 -10.272 -14.353  1.00  0.00    -0.226 N 
ATOM      2  H1  UNL     1     -24.660  -9.873 -13.422  1.00  0.00     0.177 HD
HETATM    3  C3  UNL     1     -23.799 -10.033 -15.343  1.00  0.00     0.683 C 
HETATM    4  N2  UNL     1     -22.852 -10.911 -15.494  1.00  0.00    -0.126 N 
ATOM      5  H2  UNL     1     -22.137 -10.754 -16.204  1.00  0.00     0.197 HD
HETATM    6  C4  UNL     1     -22.790 -12.066 -14.707  1.00  0.00     0.196 C 
HETATM    7  N3  UNL     1     -22.750 -13.034 -14.043  1.00  0.00    -0.171 NA
HETATM    8  N4  UNL     1     -23.825  -8.885 -16.155  1.00  0.00    -0.212 N 
ATOM      9  H4  UNL     1     -24.730  -8.532 -16.468  1.00  0.00     0.178 HD
ENDROOT
BRANCH   1  10
HETATM   10  C2  UNL     1     -25.947 -11.079 -14.646  1.00  0.00     0.133 C 
HETATM   11  C1  UNL     1     -26.968 -11.024 -13.559  1.00  0.00     0.027 C 
ENDBRANCH   1  10
BRANCH   8  12
HETATM   12  C5  UNL     1     -22.606  -8.164 -16.576  1.00  0.00     0.200 C 
BRANCH  12  13
HETATM   13  C6  UNL     1     -22.493  -8.201 -18.071  1.00  0.00     0.138 C 
BRANCH  13  14
HETATM   14  C7  UNL     1     -23.025  -9.411 -18.686  1.00  0.00     0.222 C 
HETATM   15  O1  UNL     1     -22.451 -10.544 -18.615  1.00  0.00    -0.273 OA
HETATM   16  N5  UNL     1     -24.240  -9.365 -19.409  1.00  0.00    -0.351 N 
HETATM   17  C8  UNL     1     -24.745 -10.580 -20.010  1.00  0.00     0.136 C 
HETATM   18  C11 UNL     1     -24.894  -8.095 -19.497  1.00  0.00     0.136 C 
HETATM   19  C9  UNL     1     -26.137 -10.949 -19.477  1.00  0.00     0.093 C 
HETATM   20  S1  UNL     1     -27.195  -9.559 -19.962  1.00  0.00    -0.166 SA
HETATM   21  C10 UNL     1     -26.197  -8.077 -20.211  1.00  0.00     0.093 C 
ENDBRANCH  13  14
ENDBRANCH  12  13
BRANCH  12  22
HETATM   22  C12 UNL     1     -22.565  -6.836 -15.963  1.00  0.00     0.243 C 
HETATM   23  O2  UNL     1     -23.381  -6.627 -14.995  1.00  0.00    -0.271 OA
HETATM   24  N6  UNL     1     -21.731  -5.758 -16.315  1.00  0.00    -0.350 N 
HETATM   25  C13 UNL     1     -21.708  -4.423 -15.664  1.00  0.00     0.126 C 
HETATM   26  C16 UNL     1     -20.742  -5.755 -17.360  1.00  0.00     0.126 C 
HETATM   27  C14 UNL     1     -20.202  -4.172 -15.675  1.00  0.00     0.021 C 
HETATM   28  C15 UNL     1     -19.852  -4.581 -17.078  1.00  0.00     0.021 C 
ENDBRANCH  12  22
ENDBRANCH   8  12
TORSDOF 5
ENDMDL
MODEL 3
REMARK VINA RESULT: -6.425076274      2.996      5.863
REMARK  5 active torsions:
REMARK  status: ('A' for Active; 'I' for Inactive)
REMARK    1  A    between atoms: C2_2  and  N1_3 
REMARK       I    between atoms: N1_3  and  C3_5 
REMARK       I    between atoms: C3_5  and  N4_10 
REMARK    2  A    between atoms: N4_10  and  C5_12 
REMARK    3  A    between atoms: C5_12  and  C6_13 
REMARK    4  A    between atoms: C5_12  and  C12_22 
REMARK    5  A    between atoms: C6_13  and  C7_14 
REMARK       I    between atoms: C7_14  and  N5_16 
REMARK       I    between atoms: C12_22  and  N6_24 
ROOT
HETATM    1  N1  UNL     1     -21.854 -10.908 -16.528  1.00  0.00    -0.226 N 
ATOM      2  H1  UNL     1     -20.851 -10.830 -16.697  1.00  0.00     0.177 HD
HETATM    3  C3  UNL     1     -22.667  -9.756 -16.610  1.00  0.00     0.683 C 
HETATM    4  N2  UNL     1     -23.257  -9.501 -17.739  1.00  0.00    -0.126 N 
ATOM      5  H2  UNL     1     -23.848  -8.673 -17.816  1.00  0.00     0.197 HD
HETATM    6  C4  UNL     1     -23.101 -10.333 -18.853  1.00  0.00     0.196 C 
HETATM    7  N3  UNL     1     -22.966 -11.042 -19.781  1.00  0.00    -0.171 NA
HETATM    8  N4  UNL     1     -22.850  -8.894 -15.514  1.00  0.00    -0.212 N 
ATOM      9  H4  UNL     1     -22.917  -9.301 -14.581  1.00  0.00     0.178 HD
ENDROOT
BRANCH   1  10
HETATM   10  C2  UNL     1     -22.429 -12.201 -16.207  1.00  0.00     0.133 C 
HETATM   11  C1  UNL     1     -22.837 -12.306 -14.774  1.00  0.00     0.027 C 
ENDBRANCH   1  10
BRANCH   8  12
HETATM   12  C5  UNL     1     -22.949  -7.425 -15.648  1.00  0.00     0.200 C 
BRANCH  12  13
HETATM   13  C6  UNL     1     -24.123  -6.927 -14.860  1.00  0.00     0.138 C 
BRANCH  13  14
HETATM   14  C7  UNL     1     -25.420  -7.219 -15.460  1.00  0.00     0.222 C 
HETATM   15  O1  UNL     1     -25.738  -8.362 -15.919  1.00  0.00    -0.273 OA
HETATM   16  N5  UNL     1     -26.401  -6.206 -15.558  1.00  0.00    -0.351 N 
HETATM   17  C8  UNL     1     -27.678  -6.521 -16.159  1.00  0.00     0.136 C 
HETATM   18  C11 UNL     1     -26.054  -4.915 -15.046  1.00  0.00     0.136 C 
HETATM   19  C9  UNL     1     -28.845  -6.286 -15.188  1.00  0.00     0.093 C 
HETATM   20  S1  UNL     1     -28.781  -4.512 -14.819  1.00  0.00    -0.166 SA
HETATM   21  C10 UNL     1     -27.117  -3.878 -15.104  1.00  0.00     0.093 C 
ENDBRANCH  13  14
ENDBRANCH  12  13
BRANCH  12  22
HETATM   22  C12 UNL     1     -21.661  -6.800 -15.343  1.00  0.00     0.243 C 
HETATM   23  O2  UNL     1     -20.814  -7.519 -14.701  1.00  0.00    -0.271 OA
HETATM   24  N6  UNL     1     -21.244  -5.498 -15.675  1.00  0.00    -0.350 N 
HETATM   25  C13 UNL     1     -19.923  -4.897 -15.359  1.00  0.00     0.126 C 
HETATM   26  C16 UNL     1     -22.014  -4.515 -16.390  1.00  0.00     0.126 C 
HETATM   27  C14 UNL     1     -19.687  -4.129 -16.656  1.00  0.00     0.021 C 
HETATM   28  C15 UNL     1     -21.030  -3.485 -16.857  1.00  0.00     0.021 C 
ENDBRANCH  12  22
ENDBRANCH   8  12
TORSDOF 5
ENDMDL
MODEL 4
REMARK VINA RESULT: -6.389899333      2.375      6.720
REMARK  5 active torsions:
REMARK  status: ('A' for Active; 'I' for Inactive)
REMARK    1  A    between atoms: C2_2  and  N1_3 
REMARK       I    between atoms: N1_3  and  C3_5 
REMARK       I    between atoms: C3_5  and  N4_10 
REMARK    2  A    between atoms: N4_10  and  C5_12 
REMARK    3  A    between atoms: C5_12  and  C6_13 
REMARK    4  A    between atoms: C5_12  and  C12_22 
REMARK    5  A    between atoms: C6_13  and  C7_14 
REMARK       I    between atoms: C7_14  and  N5_16 
REMARK       I    between atoms: C12_22  and  N6_24 
ROOT
HETATM    1  N1  UNL     1     -22.810  -1.128 -16.632  1.00  0.00    -0.226 N 
ATOM      2  H1  UNL     1     -22.334  -0.573 -15.921  1.00  0.00     0.177 HD
HETATM    3  C3  UNL     1     -22.915  -2.527 -16.472  1.00  0.00     0.683 C 
HETATM    4  N2  UNL     1     -23.990  -3.002 -15.918  1.00  0.00    -0.126 N 
ATOM      5  H2  UNL     1     -24.082  -4.011 -15.794  1.00  0.00     0.197 HD
HETATM    6  C4  UNL     1     -25.024  -2.165 -15.485  1.00  0.00     0.196 C 
HETATM    7  N3  UNL     1     -25.888  -1.453 -15.129  1.00  0.00    -0.171 NA
HETATM    8  N4  UNL     1     -21.899  -3.403 -16.893  1.00  0.00    -0.212 N 
ATOM      9  H4  UNL     1     -21.399  -3.188 -17.756  1.00  0.00     0.178 HD
ENDROOT
BRANCH   1  10
HETATM   10  C2  UNL     1     -23.373  -0.470 -17.797  1.00  0.00     0.133 C 
HETATM   11  C1  UNL     1     -22.397  -0.362 -18.921  1.00  0.00     0.027 C 
ENDBRANCH   1  10
BRANCH   8  12
HETATM   12  C5  UNL     1     -21.519  -4.621 -16.146  1.00  0.00     0.200 C 
BRANCH  12  13
HETATM   13  C6  UNL     1     -22.055  -5.830 -16.852  1.00  0.00     0.138 C 
BRANCH  13  14
HETATM   14  C7  UNL     1     -23.109  -6.532 -16.129  1.00  0.00     0.222 C 
HETATM   15  O1  UNL     1     -24.070  -5.940 -15.542  1.00  0.00    -0.273 OA
HETATM   16  N5  UNL     1     -23.099  -7.944 -16.053  1.00  0.00    -0.351 N 
HETATM   17  C8  UNL     1     -24.155  -8.616 -15.329  1.00  0.00     0.136 C 
HETATM   18  C11 UNL     1     -22.022  -8.621 -16.709  1.00  0.00     0.136 C 
HETATM   19  C9  UNL     1     -24.943  -9.582 -16.225  1.00  0.00     0.093 C 
HETATM   20  S1  UNL     1     -23.718 -10.806 -16.763  1.00  0.00    -0.166 SA
HETATM   21  C10 UNL     1     -22.058 -10.106 -16.668  1.00  0.00     0.093 C 
ENDBRANCH  13  14
ENDBRANCH  12  13
BRANCH  12  22
HETATM   22  C12 UNL     1     -20.080  -4.621 -15.876  1.00  0.00     0.243 C 
HETATM   23  O2  UNL     1     -19.397  -3.676 -16.412  1.00  0.00    -0.271 OA
HETATM   24  N6  UNL     1     -19.359  -5.542 -15.093  1.00  0.00    -0.350 N 
HETATM   25  C13 UNL     1     -17.897  -5.507 -14.830  1.00  0.00     0.126 C 
HETATM   26  C16 UNL     1     -19.904  -6.676 -14.396  1.00  0.00     0.126 C 
HETATM   27  C14 UNL     1     -17.904  -5.926 -13.362  1.00  0.00     0.021 C 
HETATM   28  C15 UNL     1     -18.863  -7.082 -13.397  1.00  0.00     0.021 C 
ENDBRANCH  12  22
ENDBRANCH   8  12
TORSDOF 5
ENDMDL
MODEL 5
REMARK VINA RESULT: -6.263342717      3.392      5.378
REMARK  5 active torsions:
REMARK  status: ('A' for Active; 'I' for Inactive)
REMARK    1  A    between atoms: C2_2  and  N1_3 
REMARK       I    between atoms: N1_3  and  C3_5 
REMARK       I    between atoms: C3_5  and  N4_10 
REMARK    2  A    between atoms: N4_10  and  C5_12 
REMARK    3  A    between atoms: C5_12  and  C6_13 
REMARK    4  A    between atoms: C5_12  and  C12_22 
REMARK    5  A    between atoms: C6_13  and  C7_14 
REMARK       I    between atoms: C7_14  and  N5_16 
REMARK       I    between atoms: C12_22  and  N6_24 
ROOT
HETATM    1  N1  UNL     1     -20.398  -6.663 -14.104  1.00  0.00    -0.226 N 
ATOM      2  H1  UNL     1     -20.937  -6.178 -13.387  1.00  0.00     0.177 HD
HETATM    3  C3  UNL     1     -20.986  -6.928 -15.361  1.00  0.00     0.683 C 
HETATM    4  N2  UNL     1     -20.791  -6.074 -16.321  1.00  0.00    -0.126 N 
ATOM      5  H2  UNL     1     -21.208  -6.249 -17.235  1.00  0.00     0.197 HD
HETATM    6  C4  UNL     1     -20.021  -4.921 -16.133  1.00  0.00     0.196 C 
HETATM    7  N3  UNL     1     -19.370  -3.957 -15.964  1.00  0.00    -0.171 NA
HETATM    8  N4  UNL     1     -21.766  -8.074 -15.591  1.00  0.00    -0.212 N 
ATOM      9  H4  UNL     1     -21.486  -8.949 -15.147  1.00  0.00     0.178 HD
ENDROOT
BRANCH   1  10
HETATM   10  C2  UNL     1     -19.034  -7.073 -13.823  1.00  0.00     0.133 C 
HETATM   11  C1  UNL     1     -18.179  -5.939 -13.363  1.00  0.00     0.027 C 
ENDBRANCH   1  10
BRANCH   8  12
HETATM   12  C5  UNL     1     -22.972  -8.074 -16.446  1.00  0.00     0.200 C 
BRANCH  12  13
HETATM   13  C6  UNL     1     -22.710  -8.879 -17.684  1.00  0.00     0.138 C 
BRANCH  13  14
HETATM   14  C7  UNL     1     -22.522 -10.306 -17.447  1.00  0.00     0.222 C 
HETATM   15  O1  UNL     1     -21.569 -10.781 -16.750  1.00  0.00    -0.273 OA
HETATM   16  N5  UNL     1     -23.423 -11.243 -18.004  1.00  0.00    -0.351 N 
HETATM   17  C8  UNL     1     -23.213 -12.652 -17.754  1.00  0.00     0.136 C 
HETATM   18  C11 UNL     1     -24.498 -10.720 -18.790  1.00  0.00     0.136 C 
HETATM   19  C9  UNL     1     -24.413 -13.296 -17.044  1.00  0.00     0.093 C 
HETATM   20  S1  UNL     1     -25.791 -13.095 -18.204  1.00  0.00    -0.166 SA
HETATM   21  C10 UNL     1     -25.467 -11.715 -19.320  1.00  0.00     0.093 C 
ENDBRANCH  13  14
ENDBRANCH  12  13
BRANCH  12  22
HETATM   22  C12 UNL     1     -24.146  -8.465 -15.664  1.00  0.00     0.243 C 
HETATM   23  O2  UNL     1     -23.921  -9.060 -14.550  1.00  0.00    -0.271 OA
HETATM   24  N6  UNL     1     -25.498  -8.261 -15.996  1.00  0.00    -0.350 N 
HETATM   25  C13 UNL     1     -26.669  -8.661 -15.173  1.00  0.00     0.126 C 
HETATM   26  C16 UNL     1     -25.996  -7.620 -17.184  1.00  0.00     0.126 C 
HETATM   27  C14 UNL     1     -27.560  -7.444 -15.408  1.00  0.00     0.021 C 
HETATM   28  C15 UNL     1     -27.425  -7.270 -16.894  1.00  0.00     0.021 C 
ENDBRANCH  12  22
ENDBRANCH   8  12
TORSDOF 5
ENDMDL
