MODEL 1
REMARK VINA RESULT: -7.400447469      0.000      0.000
REMARK  5 active torsions:
REMARK  status: ('A' for Active; 'I' for Inactive)
REMARK    1  A    between atoms: S1_2  and  N1_5 
REMARK    2  A    between atoms: N1_5  and  S2_7 
REMARK    3  A    between atoms: S2_7  and  N2_10 
REMARK    4  A    between atoms: N2_10  and  C2_12 
REMARK    5  A    between atoms: C5_15  and  C6_16 
REMARK       I    between atoms: C6_16  and  N3_18 
ROOT
HETATM    1  C2  UNL     1     -19.921  -5.065 -15.341  1.00  0.00     0.095 C 
HETATM    2  C3  UNL     1     -20.391  -4.039 -16.362  1.00  0.00     0.027 C 
HETATM    3  C4  UNL     1     -21.508  -4.750 -17.157  1.00  0.00     0.016 C 
HETATM    4  C5  UNL     1     -22.078  -5.588 -16.030  1.00  0.00     0.080 C 
HETATM    5  C12 UNL     1     -20.881  -6.261 -15.476  1.00  0.00     0.040 C 
ENDROOT
BRANCH   1   6
HETATM    6  N2  UNL     1     -18.573  -5.504 -15.610  1.00  0.00    -0.297 N 
ATOM      7  H2  UNL     1     -18.144  -5.511 -16.536  1.00  0.00     0.174 HD
BRANCH   6   8
HETATM    8  S2  UNL     1     -17.791  -6.013 -14.184  1.00  0.00     0.328 S 
HETATM    9  O3  UNL     1     -16.294  -5.822 -14.262  1.00  0.00    -0.182 OA
HETATM   10  O4  UNL     1     -18.267  -5.151 -13.041  1.00  0.00    -0.182 OA
BRANCH   8  11
HETATM   11  N1  UNL     1     -18.197  -7.643 -13.789  1.00  0.00    -0.195 N 
ATOM     12  H1  UNL     1     -19.125  -7.943 -13.489  1.00  0.00     0.193 HD
BRANCH  11  13
HETATM   13  S1  UNL     1     -16.851  -8.702 -13.960  1.00  0.00     0.236 S 
HETATM   14  C1  UNL     1     -17.436 -10.392 -13.865  1.00  0.00     0.186 C 
HETATM   15  O1  UNL     1     -15.858  -8.479 -12.855  1.00  0.00    -0.205 OA
HETATM   16  O2  UNL     1     -16.152  -8.547 -15.256  1.00  0.00    -0.205 OA
ENDBRANCH  11  13
ENDBRANCH   8  11
ENDBRANCH   6   8
ENDBRANCH   1   6
BRANCH   4  17
HETATM   17  C6  UNL     1     -23.255  -6.358 -16.327  1.00  0.00     0.224 C 
HETATM   18  O5  UNL     1     -24.347  -5.970 -15.746  1.00  0.00    -0.273 OA
HETATM   19  N3  UNL     1     -23.434  -7.489 -17.156  1.00  0.00    -0.352 N 
HETATM   20  C7  UNL     1     -24.749  -8.075 -17.264  1.00  0.00     0.125 C 
HETATM   21  C11 UNL     1     -22.313  -8.015 -17.882  1.00  0.00     0.125 C 
HETATM   22  C8  UNL     1     -25.093  -8.508 -18.659  1.00  0.00     0.020 C 
HETATM   23  C9  UNL     1     -23.901  -9.043 -19.407  1.00  0.00     0.003 C 
HETATM   24  C10 UNL     1     -22.762  -9.365 -18.463  1.00  0.00     0.020 C 
ENDBRANCH   4  17
TORSDOF 5
ENDMDL
MODEL 2
REMARK VINA RESULT: -7.369236020      1.514      1.573
REMARK  5 active torsions:
REMARK  status: ('A' for Active; 'I' for Inactive)
REMARK    1  A    between atoms: S1_2  and  N1_5 
REMARK    2  A    between atoms: N1_5  and  S2_7 
REMARK    3  A    between atoms: S2_7  and  N2_10 
REMARK    4  A    between atoms: N2_10  and  C2_12 
REMARK    5  A    between atoms: C5_15  and  C6_16 
REMARK       I    between atoms: C6_16  and  N3_18 
ROOT
HETATM    1  C2  UNL     1     -20.020  -5.353 -15.441  1.00  0.00     0.095 C 
HETATM    2  C3  UNL     1     -20.783  -5.015 -16.713  1.00  0.00     0.027 C 
HETATM    3  C4  UNL     1     -21.725  -6.217 -16.944  1.00  0.00     0.016 C 
HETATM    4  C5  UNL     1     -22.009  -6.554 -15.493  1.00  0.00     0.080 C 
HETATM    5  C12 UNL     1     -20.655  -6.648 -14.902  1.00  0.00     0.040 C 
ENDROOT
BRANCH   1   6
HETATM    6  N2  UNL     1     -18.621  -5.585 -15.705  1.00  0.00    -0.297 N 
ATOM      7  H2  UNL     1     -18.197  -5.551 -16.632  1.00  0.00     0.174 HD
BRANCH   6   8
HETATM    8  S2  UNL     1     -17.766  -5.922 -14.269  1.00  0.00     0.328 S 
HETATM    9  O3  UNL     1     -16.282  -5.684 -14.426  1.00  0.00    -0.182 OA
HETATM   10  O4  UNL     1     -18.234  -4.970 -13.197  1.00  0.00    -0.182 OA
BRANCH   8  11
HETATM   11  N1  UNL     1     -18.090  -7.519 -13.703  1.00  0.00    -0.195 N 
ATOM     12  H1  UNL     1     -18.980  -7.810 -13.297  1.00  0.00     0.193 HD
BRANCH  11  13
HETATM   13  S1  UNL     1     -16.736  -8.561 -13.904  1.00  0.00     0.236 S 
HETATM   14  C1  UNL     1     -17.249 -10.242 -13.557  1.00  0.00     0.186 C 
HETATM   15  O1  UNL     1     -15.637  -8.193 -12.949  1.00  0.00    -0.205 OA
HETATM   16  O2  UNL     1     -16.187  -8.541 -15.280  1.00  0.00    -0.205 OA
ENDBRANCH  11  13
ENDBRANCH   8  11
ENDBRANCH   6   8
ENDBRANCH   1   6
BRANCH   4  17
HETATM   17  C6  UNL     1     -22.969  -7.595 -15.246  1.00  0.00     0.224 C 
HETATM   18  O5  UNL     1     -23.985  -7.265 -14.511  1.00  0.00    -0.273 OA
HETATM   19  N3  UNL     1     -22.999  -8.943 -15.669  1.00  0.00    -0.352 N 
HETATM   20  C7  UNL     1     -24.100  -9.780 -15.257  1.00  0.00     0.125 C 
HETATM   21  C11 UNL     1     -21.948  -9.441 -16.510  1.00  0.00     0.125 C 
HETATM   22  C8  UNL     1     -24.589 -10.696 -16.341  1.00  0.00     0.020 C 
HETATM   23  C9  UNL     1     -23.472 -11.195 -17.220  1.00  0.00     0.003 C 
HETATM   24  C10 UNL     1     -22.123 -10.967 -16.573  1.00  0.00     0.020 C 
ENDBRANCH   4  17
TORSDOF 5
ENDMDL
MODEL 3
REMARK VINA RESULT: -7.097050829      1.226      1.597
REMARK  5 active torsions:
REMARK  status: ('A' for Active; 'I' for Inactive)
REMARK    1  A    between atoms: S1_2  and  N1_5 
REMARK    2  A    between atoms: N1_5  and  S2_7 
REMARK    3  A    between atoms: S2_7  and  N2_10 
REMARK    4  A    between atoms: N2_10  and  C2_12 
REMARK    5  A    between atoms: C5_15  and  C6_16 
REMARK       I    between atoms: C6_16  and  N3_18 
ROOT
HETATM    1  C2  UNL     1     -20.174  -5.265 -15.284  1.00  0.00     0.095 C 
HETATM    2  C3  UNL     1     -20.665  -4.017 -16.002  1.00  0.00     0.027 C 
HETATM    3  C4  UNL     1     -21.744  -4.521 -16.986  1.00  0.00     0.016 C 
HETATM    4  C5  UNL     1     -22.302  -5.649 -16.139  1.00  0.00     0.080 C 
HETATM    5  C12 UNL     1     -21.090  -6.409 -15.758  1.00  0.00     0.040 C 
ENDROOT
BRANCH   1   6
HETATM    6  N2  UNL     1     -18.809  -5.576 -15.629  1.00  0.00    -0.297 N 
ATOM      7  H2  UNL     1     -18.427  -5.522 -16.573  1.00  0.00     0.174 HD
BRANCH   6   8
HETATM    8  S2  UNL     1     -17.913  -6.045 -14.256  1.00  0.00     0.328 S 
HETATM    9  O3  UNL     1     -16.430  -5.834 -14.449  1.00  0.00    -0.182 OA
HETATM   10  O4  UNL     1     -18.317  -5.168 -13.096  1.00  0.00    -0.182 OA
BRANCH   8  11
HETATM   11  N1  UNL     1     -18.262  -7.673 -13.802  1.00  0.00    -0.195 N 
ATOM     12  H1  UNL     1     -19.174  -7.990 -13.472  1.00  0.00     0.193 HD
BRANCH  11  13
HETATM   13  S1  UNL     1     -16.891  -8.697 -13.972  1.00  0.00     0.236 S 
HETATM   14  C1  UNL     1     -17.432 -10.402 -13.873  1.00  0.00     0.186 C 
HETATM   15  O1  UNL     1     -15.903  -8.447 -12.868  1.00  0.00    -0.205 OA
HETATM   16  O2  UNL     1     -16.196  -8.528 -15.269  1.00  0.00    -0.205 OA
ENDBRANCH  11  13
ENDBRANCH   8  11
ENDBRANCH   6   8
ENDBRANCH   1   6
BRANCH   4  17
HETATM   17  C6  UNL     1     -23.446  -6.345 -16.661  1.00  0.00     0.224 C 
HETATM   18  O5  UNL     1     -23.944  -5.871 -17.760  1.00  0.00    -0.273 OA
HETATM   19  N3  UNL     1     -24.138  -7.477 -16.174  1.00  0.00    -0.352 N 
HETATM   20  C7  UNL     1     -25.280  -7.966 -16.909  1.00  0.00     0.125 C 
HETATM   21  C11 UNL     1     -23.682  -8.122 -14.976  1.00  0.00     0.125 C 
HETATM   22  C8  UNL     1     -25.346  -9.464 -16.977  1.00  0.00     0.020 C 
HETATM   23  C9  UNL     1     -24.850 -10.120 -15.716  1.00  0.00     0.003 C 
HETATM   24  C10 UNL     1     -24.773  -9.127 -14.576  1.00  0.00     0.020 C 
ENDBRANCH   4  17
TORSDOF 5
ENDMDL
MODEL 4
REMARK VINA RESULT: -7.079880476      1.691      2.535
REMARK  5 active torsions:
REMARK  status: ('A' for Active; 'I' for Inactive)
REMARK    1  A    between atoms: S1_2  and  N1_5 
REMARK    2  A    between atoms: N1_5  and  S2_7 
REMARK    3  A    between atoms: S2_7  and  N2_10 
REMARK    4  A    between atoms: N2_10  and  C2_12 
REMARK    5  A    between atoms: C5_15  and  C6_16 
REMARK       I    between atoms: C6_16  and  N3_18 
ROOT
HETATM    1  C2  UNL     1     -19.761  -4.984 -15.429  1.00  0.00     0.095 C 
HETATM    2  C3  UNL     1     -20.221  -4.093 -16.574  1.00  0.00     0.027 C 
HETATM    3  C4  UNL     1     -21.405  -4.849 -17.217  1.00  0.00     0.016 C 
HETATM    4  C5  UNL     1     -21.970  -5.480 -15.960  1.00  0.00     0.080 C 
HETATM    5  C12 UNL     1     -20.786  -6.131 -15.353  1.00  0.00     0.040 C 
ENDROOT
BRANCH   1   6
HETATM    6  N2  UNL     1     -18.450  -5.534 -15.676  1.00  0.00    -0.297 N 
ATOM      7  H2  UNL     1     -18.039  -5.648 -16.602  1.00  0.00     0.174 HD
BRANCH   6   8
HETATM    8  S2  UNL     1     -17.677  -5.970 -14.221  1.00  0.00     0.328 S 
HETATM    9  O3  UNL     1     -16.180  -5.788 -14.300  1.00  0.00    -0.182 OA
HETATM   10  O4  UNL     1     -18.156  -5.046 -13.127  1.00  0.00    -0.182 OA
BRANCH   8  11
HETATM   11  N1  UNL     1     -18.091  -7.575 -13.742  1.00  0.00    -0.195 N 
ATOM     12  H1  UNL     1     -19.012  -7.847 -13.398  1.00  0.00     0.193 HD
BRANCH  11  13
HETATM   13  S1  UNL     1     -16.768  -8.660 -13.915  1.00  0.00     0.236 S 
HETATM   14  C1  UNL     1     -17.378 -10.338 -13.761  1.00  0.00     0.186 C 
HETATM   15  O1  UNL     1     -15.746  -8.425 -12.841  1.00  0.00    -0.205 OA
HETATM   16  O2  UNL     1     -16.097  -8.553 -15.232  1.00  0.00    -0.205 OA
ENDBRANCH  11  13
ENDBRANCH   8  11
ENDBRANCH   6   8
ENDBRANCH   1   6
BRANCH   4  17
HETATM   17  C6  UNL     1     -23.195  -6.217 -16.100  1.00  0.00     0.224 C 
HETATM   18  O5  UNL     1     -23.072  -7.501 -16.233  1.00  0.00    -0.273 OA
HETATM   19  N3  UNL     1     -24.539  -5.780 -16.120  1.00  0.00    -0.352 N 
HETATM   20  C7  UNL     1     -25.589  -6.756 -16.286  1.00  0.00     0.125 C 
HETATM   21  C11 UNL     1     -24.828  -4.383 -15.958  1.00  0.00     0.125 C 
HETATM   22  C8  UNL     1     -26.787  -6.493 -15.422  1.00  0.00     0.020 C 
HETATM   23  C9  UNL     1     -27.064  -5.022 -15.254  1.00  0.00     0.003 C 
HETATM   24  C10 UNL     1     -26.319  -4.204 -16.285  1.00  0.00     0.020 C 
ENDBRANCH   4  17
TORSDOF 5
ENDMDL
MODEL 5
REMARK VINA RESULT: -6.689826935      4.346      6.375
REMARK  5 active torsions:
REMARK  status: ('A' for Active; 'I' for Inactive)
REMARK    1  A    between atoms: S1_2  and  N1_5 
REMARK    2  A    between atoms: N1_5  and  S2_7 
REMARK    3  A    between atoms: S2_7  and  N2_10 
REMARK    4  A    between atoms: N2_10  and  C2_12 
REMARK    5  A    between atoms: C5_15  and  C6_16 
REMARK       I    between atoms: C6_16  and  N3_18 
ROOT
HETATM    1  C2  UNL     1     -22.745  -8.155 -16.613  1.00  0.00     0.095 C 
HETATM    2  C3  UNL     1     -22.894  -7.717 -15.163  1.00  0.00     0.027 C 
HETATM    3  C4  UNL     1     -22.157  -6.363 -15.078  1.00  0.00     0.016 C 
HETATM    4  C5  UNL     1     -22.479  -5.850 -16.468  1.00  0.00     0.080 C 
HETATM    5  C12 UNL     1     -22.074  -6.975 -17.340  1.00  0.00     0.040 C 
ENDROOT
BRANCH   1   6
HETATM    6  N2  UNL     1     -21.909  -9.325 -16.732  1.00  0.00    -0.297 N 
ATOM      7  H2  UNL     1     -20.938  -9.371 -16.426  1.00  0.00     0.174 HD
BRANCH   6   8
HETATM    8  S2  UNL     1     -22.754 -10.619 -17.452  1.00  0.00     0.328 S 
HETATM    9  O3  UNL     1     -24.243 -10.369 -17.495  1.00  0.00    -0.182 OA
HETATM   10  O4  UNL     1     -22.306 -10.746 -18.887  1.00  0.00    -0.182 OA
BRANCH   8  11
HETATM   11  N1  UNL     1     -22.391 -12.117 -16.676  1.00  0.00    -0.195 N 
ATOM     12  H1  UNL     1     -21.786 -12.835 -17.077  1.00  0.00     0.193 HD
BRANCH  11  13
HETATM   13  S1  UNL     1     -23.168 -12.257 -15.148  1.00  0.00     0.236 S 
HETATM   14  C1  UNL     1     -24.430 -13.523 -15.259  1.00  0.00     0.186 C 
HETATM   15  O1  UNL     1     -23.826 -10.961 -14.768  1.00  0.00    -0.205 OA
HETATM   16  O2  UNL     1     -22.243 -12.649 -14.059  1.00  0.00    -0.205 OA
ENDBRANCH  11  13
ENDBRANCH   8  11
ENDBRANCH   6   8
ENDBRANCH   1   6
BRANCH   4  17
HETATM   17  C6  UNL     1     -22.051  -4.514 -16.781  1.00  0.00     0.224 C 
HETATM   18  O5  UNL     1     -20.776  -4.355 -16.953  1.00  0.00    -0.273 OA
HETATM   19  N3  UNL     1     -22.791  -3.320 -16.936  1.00  0.00    -0.352 N 
HETATM   20  C7  UNL     1     -22.087  -2.099 -17.248  1.00  0.00     0.125 C 
HETATM   21  C11 UNL     1     -24.219  -3.352 -16.797  1.00  0.00     0.125 C 
HETATM   22  C8  UNL     1     -22.802  -1.241 -18.251  1.00  0.00     0.020 C 
HETATM   23  C9  UNL     1     -24.299  -1.301 -18.097  1.00  0.00     0.003 C 
HETATM   24  C10 UNL     1     -24.688  -1.889 -16.758  1.00  0.00     0.020 C 
ENDBRANCH   4  17
TORSDOF 5
ENDMDL
