MODEL 1
REMARK VINA RESULT: -9.660428753      0.000      0.000
REMARK  9 active torsions:
REMARK  status: ('A' for Active; 'I' for Inactive)
REMARK    1  A    between atoms: C2_2  and  O1_3 
REMARK    2  A    between atoms: C2_2  and  C3_5 
REMARK    3  A    between atoms: C2_2  and  S1_18 
REMARK    4  A    between atoms: C3_5  and  N1_6 
REMARK    5  A    between atoms: C6_14  and  N4_15 
REMARK    6  A    between atoms: S1_18  and  C7_19 
REMARK    7  A    between atoms: N8_26  and  C8_27 
REMARK    8  A    between atoms: C10_29  and  C11_30 
REMARK    9  A    between atoms: C14_37  and  O3_38 
ROOT
HETATM    1  C7  UNL     1      23.957  -2.969  74.858  1.00  0.00     0.186 A 
HETATM    2  N5  UNL     1      25.141  -3.582  74.776  1.00  0.00    -0.262 N 
ATOM      3  H5  UNL     1      25.312  -4.586  74.821  1.00  0.00     0.190 HD
HETATM    4  N6  UNL     1      26.041  -2.639  74.627  1.00  0.00    -0.226 N 
ATOM      5  H6  UNL     1      27.043  -2.806  74.536  1.00  0.00     0.210 HD
HETATM    6  N7  UNL     1      25.477  -1.448  74.610  1.00  0.00    -0.219 N 
ATOM      7  H7  UNL     1      25.945  -0.547  74.506  1.00  0.00     0.210 HD
HETATM    8  N8  UNL     1      24.176  -1.659  74.756  1.00  0.00    -0.214 N 
ENDROOT
BRANCH   1   9
HETATM    9  S1  UNL     1      22.358  -3.734  75.067  1.00  0.00    -0.051 SA
BRANCH   9  10
HETATM   10  C2  UNL     1      22.164  -5.129  73.892  1.00  0.00     0.128 C 
HETATM   11  C1  UNL     1      22.394  -6.435  74.596  1.00  0.00     0.060 C 
BRANCH  10  12
HETATM   12  O1  UNL     1      23.095  -5.002  72.851  1.00  0.00    -0.378 OA
ATOM     13  H1  UNL     1      22.719  -5.360  72.055  1.00  0.00     0.211 HD
ENDBRANCH  10  12
BRANCH  10  14
HETATM   14  C3  UNL     1      20.757  -5.050  73.369  1.00  0.00     0.217 C 
BRANCH  14  15
HETATM   15  N1  UNL     1      20.635  -5.186  71.937  1.00  0.00    -0.121 N 
HETATM   16  N2  UNL     1      21.209  -6.260  71.362  1.00  0.00    -0.290 N 
HETATM   17  C4  UNL     1      21.108  -6.496  70.045  1.00  0.00     0.182 A 
ATOM     18  H2  UNL     1      21.735  -6.912  71.945  1.00  0.00     0.187 HD
HETATM   19  C5  UNL     1      20.409  -5.641  69.219  1.00  0.00     0.276 A 
HETATM   20  O2  UNL     1      20.291  -5.831  67.978  1.00  0.00    -0.266 OA
HETATM   21  N3  UNL     1      19.845  -4.579  69.805  1.00  0.00    -0.154 N 
HETATM   22  C6  UNL     1      19.953  -4.342  71.156  1.00  0.00     0.695 A 
ATOM     23  H3  UNL     1      19.317  -3.923  69.230  1.00  0.00     0.187 HD
BRANCH  22  24
HETATM   24  N4  UNL     1      19.420  -3.280  71.606  1.00  0.00    -0.233 N 
ATOM     25  H42 UNL     1      19.236  -3.236  72.608  1.00  0.00     0.174 HD
ATOM     26  H41 UNL     1      19.149  -2.507  70.998  1.00  0.00     0.174 HD
ENDBRANCH  22  24
ENDBRANCH  14  15
ENDBRANCH  10  14
ENDBRANCH   9  10
ENDBRANCH   1   9
BRANCH   8  27
HETATM   27  C8  UNL     1      23.254  -0.567  74.783  1.00  0.00     0.094 A 
HETATM   28  C9  UNL     1      22.015  -0.714  74.199  1.00  0.00     0.045 A 
HETATM   29  C10 UNL     1      21.064   0.309  74.192  1.00  0.00    -0.018 A 
HETATM   30  C12 UNL     1      21.436   1.483  74.806  1.00  0.00     0.013 A 
HETATM   31  C13 UNL     1      22.690   1.633  75.398  1.00  0.00     0.039 A 
HETATM   32  C14 UNL     1      23.617   0.613  75.396  1.00  0.00     0.094 A 
BRANCH  29  33
HETATM   33  C11 UNL     1      19.761   0.067  73.543  1.00  0.00     0.240 C 
HETATM   34  N9  UNL     1      18.746   1.009  74.024  1.00  0.00    -0.101 NA
HETATM   35  N10 UNL     1      17.628   0.200  74.248  1.00  0.00    -0.019 NA
HETATM   36  N11 UNL     1      18.130  -1.072  74.628  1.00  0.00    -0.019 NA
HETATM   37  N12 UNL     1      19.182  -1.206  73.751  1.00  0.00    -0.101 NA
ENDBRANCH  29  33
BRANCH  32  38
HETATM   38  O3  UNL     1      24.872   0.775  75.992  1.00  0.00    -0.358 OA
ATOM     39  H3  UNL     1      25.672   0.526  75.545  1.00  0.00     0.217 HD
ENDBRANCH  32  38
ENDBRANCH   8  27
TORSDOF 9
ENDMDL
MODEL 2
REMARK VINA RESULT: -9.391067890      3.044      6.211
REMARK  9 active torsions:
REMARK  status: ('A' for Active; 'I' for Inactive)
REMARK    1  A    between atoms: C2_2  and  O1_3 
REMARK    2  A    between atoms: C2_2  and  C3_5 
REMARK    3  A    between atoms: C2_2  and  S1_18 
REMARK    4  A    between atoms: C3_5  and  N1_6 
REMARK    5  A    between atoms: C6_14  and  N4_15 
REMARK    6  A    between atoms: S1_18  and  C7_19 
REMARK    7  A    between atoms: N8_26  and  C8_27 
REMARK    8  A    between atoms: C10_29  and  C11_30 
REMARK    9  A    between atoms: C14_37  and  O3_38 
ROOT
HETATM    1  C7  UNL     1      18.397  -2.647  74.417  1.00  0.00     0.186 A 
HETATM    2  N5  UNL     1      18.190  -3.630  75.298  1.00  0.00    -0.262 N 
ATOM      3  H5  UNL     1      18.645  -4.542  75.310  1.00  0.00     0.190 HD
HETATM    4  N6  UNL     1      17.288  -3.192  76.142  1.00  0.00    -0.226 N 
ATOM      5  H6  UNL     1      16.927  -3.728  76.932  1.00  0.00     0.210 HD
HETATM    6  N7  UNL     1      16.911  -1.967  75.836  1.00  0.00    -0.219 N 
ATOM      7  H7  UNL     1      16.225  -1.394  76.328  1.00  0.00     0.210 HD
HETATM    8  N8  UNL     1      17.605  -1.631  74.757  1.00  0.00    -0.214 N 
ENDROOT
BRANCH   1   9
HETATM    9  S1  UNL     1      19.518  -2.660  73.028  1.00  0.00    -0.051 SA
BRANCH   9  10
HETATM   10  C2  UNL     1      21.159  -3.296  73.544  1.00  0.00     0.128 C 
HETATM   11  C1  UNL     1      21.478  -4.564  72.807  1.00  0.00     0.060 C 
BRANCH  10  12
HETATM   12  O1  UNL     1      21.151  -3.559  74.921  1.00  0.00    -0.378 OA
ATOM     13  H1  UNL     1      21.577  -2.841  75.376  1.00  0.00     0.211 HD
ENDBRANCH  10  12
BRANCH  10  14
HETATM   14  C3  UNL     1      22.155  -2.223  73.207  1.00  0.00     0.217 C 
BRANCH  14  15
HETATM   15  N1  UNL     1      23.208  -2.046  74.179  1.00  0.00    -0.121 N 
HETATM   16  N2  UNL     1      23.974  -3.114  74.468  1.00  0.00    -0.290 N 
HETATM   17  C4  UNL     1      25.006  -3.035  75.323  1.00  0.00     0.182 A 
ATOM     18  H2  UNL     1      23.764  -4.009  74.025  1.00  0.00     0.187 HD
HETATM   19  C5  UNL     1      25.326  -1.847  75.946  1.00  0.00     0.276 A 
HETATM   20  O2  UNL     1      26.287  -1.734  76.754  1.00  0.00    -0.266 OA
HETATM   21  N3  UNL     1      24.554  -0.796  75.649  1.00  0.00    -0.154 N 
HETATM   22  C6  UNL     1      23.498  -0.883  74.773  1.00  0.00     0.695 A 
ATOM     23  H3  UNL     1      24.757   0.103  76.088  1.00  0.00     0.187 HD
BRANCH  22  24
HETATM   24  N4  UNL     1      22.799   0.163  74.595  1.00  0.00    -0.233 N 
ATOM     25  H42 UNL     1      23.190   0.891  73.997  1.00  0.00     0.174 HD
ATOM     26  H41 UNL     1      21.898   0.301  75.052  1.00  0.00     0.174 HD
ENDBRANCH  22  24
ENDBRANCH  14  15
ENDBRANCH  10  14
ENDBRANCH   9  10
ENDBRANCH   1   9
BRANCH   8  27
HETATM   27  C8  UNL     1      17.439  -0.349  74.148  1.00  0.00     0.094 A 
HETATM   28  C9  UNL     1      18.429   0.598  74.288  1.00  0.00     0.045 A 
HETATM   29  C10 UNL     1      18.336   1.870  73.716  1.00  0.00    -0.018 A 
HETATM   30  C12 UNL     1      17.189   2.126  73.000  1.00  0.00     0.013 A 
HETATM   31  C13 UNL     1      16.185   1.168  72.858  1.00  0.00     0.039 A 
HETATM   32  C14 UNL     1      16.295  -0.082  73.428  1.00  0.00     0.094 A 
BRANCH  29  33
HETATM   33  C11 UNL     1      19.443   2.825  73.916  1.00  0.00     0.240 C 
HETATM   34  N9  UNL     1      20.681   2.133  74.284  1.00  0.00    -0.101 NA
HETATM   35  N10 UNL     1      21.187   2.904  75.334  1.00  0.00    -0.019 NA
HETATM   36  N11 UNL     1      20.060   3.449  76.004  1.00  0.00    -0.019 NA
HETATM   37  N12 UNL     1      19.265   3.789  74.934  1.00  0.00    -0.101 NA
ENDBRANCH  29  33
BRANCH  32  38
HETATM   38  O3  UNL     1      15.282  -1.036  73.279  1.00  0.00    -0.358 OA
ATOM     39  H3  UNL     1      14.458  -0.966  73.747  1.00  0.00     0.217 HD
ENDBRANCH  32  38
ENDBRANCH   8  27
TORSDOF 9
ENDMDL
MODEL 3
REMARK VINA RESULT: -9.382547665      4.568      8.027
REMARK  9 active torsions:
REMARK  status: ('A' for Active; 'I' for Inactive)
REMARK    1  A    between atoms: C2_2  and  O1_3 
REMARK    2  A    between atoms: C2_2  and  C3_5 
REMARK    3  A    between atoms: C2_2  and  S1_18 
REMARK    4  A    between atoms: C3_5  and  N1_6 
REMARK    5  A    between atoms: C6_14  and  N4_15 
REMARK    6  A    between atoms: S1_18  and  C7_19 
REMARK    7  A    between atoms: N8_26  and  C8_27 
REMARK    8  A    between atoms: C10_29  and  C11_30 
REMARK    9  A    between atoms: C14_37  and  O3_38 
ROOT
HETATM    1  C7  UNL     1      19.177  -1.785  73.934  1.00  0.00     0.186 A 
HETATM    2  N5  UNL     1      19.259  -0.453  73.993  1.00  0.00    -0.262 N 
ATOM      3  H5  UNL     1      18.548   0.187  74.346  1.00  0.00     0.190 HD
HETATM    4  N6  UNL     1      20.434  -0.129  73.509  1.00  0.00    -0.226 N 
ATOM      5  H6  UNL     1      20.781   0.827  73.426  1.00  0.00     0.210 HD
HETATM    6  N7  UNL     1      21.106  -1.202  73.143  1.00  0.00    -0.219 N 
ATOM      7  H7  UNL     1      22.042  -1.233  72.738  1.00  0.00     0.210 HD
HETATM    8  N8  UNL     1      20.316  -2.234  73.409  1.00  0.00    -0.214 N 
ENDROOT
BRANCH   1   9
HETATM    9  S1  UNL     1      17.808  -2.806  74.453  1.00  0.00    -0.051 SA
BRANCH   9  10
HETATM   10  C2  UNL     1      16.421  -1.757  75.035  1.00  0.00     0.128 C 
HETATM   11  C1  UNL     1      15.838  -0.984  73.888  1.00  0.00     0.060 C 
BRANCH  10  12
HETATM   12  O1  UNL     1      16.884  -0.856  76.004  1.00  0.00    -0.378 OA
ATOM     13  H1  UNL     1      17.586  -0.335  75.631  1.00  0.00     0.211 HD
ENDBRANCH  10  12
BRANCH  10  14
HETATM   14  C3  UNL     1      15.397  -2.693  75.617  1.00  0.00     0.217 C 
BRANCH  14  15
HETATM   15  N1  UNL     1      15.186  -2.552  77.038  1.00  0.00    -0.121 N 
HETATM   16  N2  UNL     1      14.589  -1.426  77.470  1.00  0.00    -0.290 N 
HETATM   17  C4  UNL     1      14.307  -1.226  78.767  1.00  0.00     0.182 A 
ATOM     18  H2  UNL     1      14.343  -0.704  76.792  1.00  0.00     0.187 HD
HETATM   19  C5  UNL     1      14.622  -2.173  79.719  1.00  0.00     0.276 A 
HETATM   20  O2  UNL     1      14.373  -2.023  80.945  1.00  0.00    -0.266 OA
HETATM   21  N3  UNL     1      15.216  -3.286  79.274  1.00  0.00    -0.154 N 
HETATM   22  C6  UNL     1      15.503  -3.484  77.943  1.00  0.00     0.695 A 
ATOM     23  H3  UNL     1      15.465  -4.013  79.945  1.00  0.00     0.187 HD
BRANCH  22  24
HETATM   24  N4  UNL     1      16.111  -4.555  77.630  1.00  0.00    -0.233 N 
ATOM     25  H42 UNL     1      17.031  -4.463  77.200  1.00  0.00     0.174 HD
ATOM     26  H41 UNL     1      15.695  -5.477  77.764  1.00  0.00     0.174 HD
ENDBRANCH  22  24
ENDBRANCH  14  15
ENDBRANCH  10  14
ENDBRANCH   9  10
ENDBRANCH   1   9
BRANCH   8  27
HETATM   27  C8  UNL     1      20.737  -3.571  73.131  1.00  0.00     0.094 A 
HETATM   28  C9  UNL     1      20.461  -4.123  71.899  1.00  0.00     0.045 A 
HETATM   29  C10 UNL     1      20.846  -5.422  71.557  1.00  0.00    -0.018 A 
HETATM   30  C12 UNL     1      21.522  -6.125  72.527  1.00  0.00     0.013 A 
HETATM   31  C13 UNL     1      21.803  -5.567  73.775  1.00  0.00     0.039 A 
HETATM   32  C14 UNL     1      21.416  -4.284  74.095  1.00  0.00     0.094 A 
BRANCH  29  33
HETATM   33  C11 UNL     1      20.509  -5.936  70.216  1.00  0.00     0.240 C 
HETATM   34  N9  UNL     1      20.587  -7.399  70.174  1.00  0.00    -0.101 NA
HETATM   35  N10 UNL     1      21.265  -7.656  68.979  1.00  0.00    -0.019 NA
HETATM   36  N11 UNL     1      22.146  -6.561  68.779  1.00  0.00    -0.019 NA
HETATM   37  N12 UNL     1      21.339  -5.511  69.153  1.00  0.00    -0.101 NA
ENDBRANCH  29  33
BRANCH  32  38
HETATM   38  O3  UNL     1      21.703  -3.734  75.349  1.00  0.00    -0.358 OA
ATOM     39  H3  UNL     1      21.764  -4.274  76.128  1.00  0.00     0.217 HD
ENDBRANCH  32  38
ENDBRANCH   8  27
TORSDOF 9
ENDMDL
MODEL 4
REMARK VINA RESULT: -9.229697638      2.541      5.289
REMARK  9 active torsions:
REMARK  status: ('A' for Active; 'I' for Inactive)
REMARK    1  A    between atoms: C2_2  and  O1_3 
REMARK    2  A    between atoms: C2_2  and  C3_5 
REMARK    3  A    between atoms: C2_2  and  S1_18 
REMARK    4  A    between atoms: C3_5  and  N1_6 
REMARK    5  A    between atoms: C6_14  and  N4_15 
REMARK    6  A    between atoms: S1_18  and  C7_19 
REMARK    7  A    between atoms: N8_26  and  C8_27 
REMARK    8  A    between atoms: C10_29  and  C11_30 
REMARK    9  A    between atoms: C14_37  and  O3_38 
ROOT
HETATM    1  C7  UNL     1      19.220  -1.000  73.675  1.00  0.00     0.186 A 
HETATM    2  N5  UNL     1      18.143  -0.840  72.901  1.00  0.00    -0.262 N 
ATOM      3  H5  UNL     1      17.412  -1.528  72.725  1.00  0.00     0.190 HD
HETATM    4  N6  UNL     1      18.211   0.375  72.412  1.00  0.00    -0.226 N 
ATOM      5  H6  UNL     1      17.521   0.784  71.782  1.00  0.00     0.210 HD
HETATM    6  N7  UNL     1      19.290   0.998  72.844  1.00  0.00    -0.219 N 
ATOM      7  H7  UNL     1      19.582   1.949  72.619  1.00  0.00     0.210 HD
HETATM    8  N8  UNL     1      19.917   0.135  73.631  1.00  0.00    -0.214 N 
ENDROOT
BRANCH   1   9
HETATM    9  S1  UNL     1      19.672  -2.453  74.607  1.00  0.00    -0.051 SA
BRANCH   9  10
HETATM   10  C2  UNL     1      20.562  -3.644  73.534  1.00  0.00     0.128 C 
HETATM   11  C1  UNL     1      20.962  -2.983  72.247  1.00  0.00     0.060 C 
BRANCH  10  12
HETATM   12  O1  UNL     1      19.730  -4.735  73.248  1.00  0.00    -0.378 OA
ATOM     13  H1  UNL     1      19.270  -4.990  74.039  1.00  0.00     0.211 HD
ENDBRANCH  10  12
BRANCH  10  14
HETATM   14  C3  UNL     1      21.778  -4.081  74.303  1.00  0.00     0.217 C 
BRANCH  14  15
HETATM   15  N1  UNL     1      21.830  -5.493  74.601  1.00  0.00    -0.121 N 
HETATM   16  N2  UNL     1      20.926  -5.980  75.472  1.00  0.00    -0.290 N 
HETATM   17  C4  UNL     1      20.866  -7.286  75.774  1.00  0.00     0.182 A 
ATOM     18  H2  UNL     1      20.268  -5.337  75.914  1.00  0.00     0.187 HD
HETATM   19  C5  UNL     1      21.736  -8.191  75.202  1.00  0.00     0.276 A 
HETATM   20  O2  UNL     1      21.710  -9.425  75.460  1.00  0.00    -0.266 OA
HETATM   21  N3  UNL     1      22.629  -7.691  74.340  1.00  0.00    -0.154 N 
HETATM   22  C6  UNL     1      22.685  -6.351  74.035  1.00  0.00     0.695 A 
ATOM     23  H3  UNL     1      23.290  -8.327  73.893  1.00  0.00     0.187 HD
BRANCH  22  24
HETATM   24  N4  UNL     1      23.601  -5.972  73.239  1.00  0.00    -0.233 N 
ATOM     25  H42 UNL     1      23.514  -5.040  72.835  1.00  0.00     0.174 HD
ATOM     26  H41 UNL     1      24.379  -6.577  72.976  1.00  0.00     0.174 HD
ENDBRANCH  22  24
ENDBRANCH  14  15
ENDBRANCH  10  14
ENDBRANCH   9  10
ENDBRANCH   1   9
BRANCH   8  27
HETATM   27  C8  UNL     1      21.143   0.487  74.276  1.00  0.00     0.094 A 
HETATM   28  C9  UNL     1      22.229  -0.354  74.167  1.00  0.00     0.045 A 
HETATM   29  C10 UNL     1      23.459  -0.072  74.767  1.00  0.00    -0.018 A 
HETATM   30  C12 UNL     1      23.526   1.104  75.479  1.00  0.00     0.013 A 
HETATM   31  C13 UNL     1      22.428   1.957  75.589  1.00  0.00     0.039 A 
HETATM   32  C14 UNL     1      21.222   1.662  74.990  1.00  0.00     0.094 A 
BRANCH  29  33
HETATM   33  C11 UNL     1      24.570  -1.028  74.601  1.00  0.00     0.240 C 
HETATM   34  N9  UNL     1      24.209  -2.354  75.109  1.00  0.00    -0.101 NA
HETATM   35  N10 UNL     1      25.337  -2.745  75.836  1.00  0.00    -0.019 NA
HETATM   36  N11 UNL     1      25.907  -1.552  76.354  1.00  0.00    -0.019 NA
HETATM   37  N12 UNL     1      25.775  -0.713  75.271  1.00  0.00    -0.101 NA
ENDBRANCH  29  33
BRANCH  32  38
HETATM   38  O3  UNL     1      20.126   2.524  75.108  1.00  0.00    -0.358 OA
ATOM     39  H3  UNL     1      20.216   3.463  74.996  1.00  0.00     0.217 HD
ENDBRANCH  32  38
ENDBRANCH   8  27
TORSDOF 9
ENDMDL
MODEL 5
REMARK VINA RESULT: -9.219329715      2.591      6.879
REMARK  9 active torsions:
REMARK  status: ('A' for Active; 'I' for Inactive)
REMARK    1  A    between atoms: C2_2  and  O1_3 
REMARK    2  A    between atoms: C2_2  and  C3_5 
REMARK    3  A    between atoms: C2_2  and  S1_18 
REMARK    4  A    between atoms: C3_5  and  N1_6 
REMARK    5  A    between atoms: C6_14  and  N4_15 
REMARK    6  A    between atoms: S1_18  and  C7_19 
REMARK    7  A    between atoms: N8_26  and  C8_27 
REMARK    8  A    between atoms: C10_29  and  C11_30 
REMARK    9  A    between atoms: C14_37  and  O3_38 
ROOT
HETATM    1  C7  UNL     1      22.604  -6.125  74.227  1.00  0.00     0.186 A 
HETATM    2  N5  UNL     1      22.646  -7.012  75.226  1.00  0.00    -0.262 N 
ATOM      3  H5  UNL     1      23.310  -7.028  75.999  1.00  0.00     0.190 HD
HETATM    4  N6  UNL     1      21.665  -7.857  75.016  1.00  0.00    -0.226 N 
ATOM      5  H6  UNL     1      21.448  -8.651  75.619  1.00  0.00     0.210 HD
HETATM    6  N7  UNL     1      20.998  -7.544  73.923  1.00  0.00    -0.219 N 
ATOM      7  H7  UNL     1      20.193  -8.034  73.533  1.00  0.00     0.210 HD
HETATM    8  N8  UNL     1      21.589  -6.463  73.433  1.00  0.00    -0.214 N 
ENDROOT
BRANCH   1   9
HETATM    9  S1  UNL     1      23.692  -4.733  73.974  1.00  0.00    -0.051 SA
BRANCH   9  10
HETATM   10  C2  UNL     1      22.975  -3.222  74.724  1.00  0.00     0.128 C 
HETATM   11  C1  UNL     1      23.837  -2.746  75.857  1.00  0.00     0.060 C 
BRANCH  10  12
HETATM   12  O1  UNL     1      21.691  -3.502  75.214  1.00  0.00    -0.378 OA
ATOM     13  H1  UNL     1      21.110  -3.670  74.482  1.00  0.00     0.211 HD
ENDBRANCH  10  12
BRANCH  10  14
HETATM   14  C3  UNL     1      22.921  -2.191  73.632  1.00  0.00     0.217 C 
BRANCH  14  15
HETATM   15  N1  UNL     1      21.880  -1.202  73.783  1.00  0.00    -0.121 N 
HETATM   16  N2  UNL     1      20.636  -1.543  73.396  1.00  0.00    -0.290 N 
HETATM   17  C4  UNL     1      19.595  -0.708  73.543  1.00  0.00     0.182 A 
ATOM     18  H2  UNL     1      20.481  -2.461  72.980  1.00  0.00     0.187 HD
HETATM   19  C5  UNL     1      19.758   0.544  74.098  1.00  0.00     0.276 A 
HETATM   20  O2  UNL     1      18.805   1.355  74.253  1.00  0.00    -0.266 OA
HETATM   21  N3  UNL     1      21.000   0.868  74.477  1.00  0.00    -0.154 N 
HETATM   22  C6  UNL     1      22.063   0.008  74.324  1.00  0.00     0.695 A 
ATOM     23  H3  UNL     1      21.164   1.784  74.894  1.00  0.00     0.187 HD
BRANCH  22  24
HETATM   24  N4  UNL     1      23.209   0.430  74.673  1.00  0.00    -0.233 N 
ATOM     25  H42 UNL     1      23.957   0.381  73.980  1.00  0.00     0.174 HD
ATOM     26  H41 UNL     1      23.401   0.772  75.614  1.00  0.00     0.174 HD
ENDBRANCH  22  24
ENDBRANCH  14  15
ENDBRANCH  10  14
ENDBRANCH   9  10
ENDBRANCH   1   9
BRANCH   8  27
HETATM   27  C8  UNL     1      21.115  -5.848  72.233  1.00  0.00     0.094 A 
HETATM   28  C9  UNL     1      21.596  -6.282  71.017  1.00  0.00     0.045 A 
HETATM   29  C10 UNL     1      21.174  -5.731  69.805  1.00  0.00    -0.018 A 
HETATM   30  C12 UNL     1      20.245  -4.720  69.893  1.00  0.00     0.013 A 
HETATM   31  C13 UNL     1      19.757  -4.280  71.124  1.00  0.00     0.039 A 
HETATM   32  C14 UNL     1      20.184  -4.836  72.310  1.00  0.00     0.094 A 
BRANCH  29  33
HETATM   33  C11 UNL     1      21.741  -6.255  68.547  1.00  0.00     0.240 C 
HETATM   34  N9  UNL     1      21.275  -5.482  67.393  1.00  0.00    -0.101 NA
HETATM   35  N10 UNL     1      20.942  -6.463  66.454  1.00  0.00    -0.019 NA
HETATM   36  N11 UNL     1      20.504  -7.590  67.197  1.00  0.00    -0.019 NA
HETATM   37  N12 UNL     1      21.421  -7.593  68.223  1.00  0.00    -0.101 NA
ENDBRANCH  29  33
BRANCH  32  38
HETATM   38  O3  UNL     1      19.688  -4.386  73.539  1.00  0.00    -0.358 OA
ATOM     39  H3  UNL     1      18.770  -4.174  73.659  1.00  0.00     0.217 HD
ENDBRANCH  32  38
ENDBRANCH   8  27
TORSDOF 9
ENDMDL
