MODEL 1
REMARK VINA RESULT: -8.969647542      0.000      0.000
REMARK  11 active torsions:
REMARK  status: ('A' for Active; 'I' for Inactive)
REMARK    1  A    between atoms: O1_2  and  O2_3 
REMARK    2  A    between atoms: O2_3  and  C2_4 
REMARK    3  A    between atoms: C2_4  and  C5_7 
REMARK    4  A    between atoms: C5_7  and  O3_8 
REMARK    5  A    between atoms: C5_7  and  C6_10 
REMARK    6  A    between atoms: C6_10  and  N1_11 
REMARK    7  A    between atoms: C7_12  and  C8_13 
REMARK    8  A    between atoms: C9_15  and  N2_16 
REMARK    9  A    between atoms: C10_21  and  N4_22 
REMARK   10  A    between atoms: C12_30  and  N10_31 
REMARK   11  A    between atoms: C13_36  and  N12_37 
ROOT
HETATM    1  N1  UNL     1      21.208  -0.884  73.819  1.00  0.00    -0.159 N 
HETATM    2  C7  UNL     1      20.326   0.084  74.109  1.00  0.00     0.177 A 
HETATM    3  N8  UNL     1      20.992   1.093  74.744  1.00  0.00    -0.246 N 
ATOM      4  H8  UNL     1      20.567   1.958  75.080  1.00  0.00     0.190 HD
HETATM    5  N9  UNL     1      22.275   0.779  74.858  1.00  0.00     0.092 N 
HETATM    6  C12 UNL     1      23.325   1.424  75.394  1.00  0.00     0.727 A 
HETATM    7  N11 UNL     1      24.524   0.837  75.356  1.00  0.00    -0.020 N 
ATOM      8  H11 UNL     1      25.336   1.306  75.756  1.00  0.00     0.203 HD
HETATM    9  C13 UNL     1      24.657  -0.380  74.786  1.00  0.00     0.705 A 
HETATM   10  N13 UNL     1      23.602  -1.014  74.255  1.00  0.00    -0.019 N 
ATOM     11  H13 UNL     1      23.715  -1.932  73.827  1.00  0.00     0.203 HD
HETATM   12  C14 UNL     1      22.403  -0.433  74.290  1.00  0.00     0.737 A 
ENDROOT
BRANCH   2  13
HETATM   13  C8  UNL     1      18.909   0.140  73.820  1.00  0.00     0.170 A 
HETATM   14  O4  UNL     1      18.048  -0.816  74.003  1.00  0.00    -0.272 OA
HETATM   15  C9  UNL     1      16.848  -0.441  73.636  1.00  0.00     0.224 A 
HETATM   16  N3  UNL     1      16.895   0.821  73.183  1.00  0.00    -0.305 N 
HETATM   17  C10 UNL     1      18.204   1.202  73.295  1.00  0.00     0.163 A 
ATOM     18  H3  UNL     1      16.118   1.379  72.829  1.00  0.00     0.171 HD
BRANCH  15  19
HETATM   19  N2  UNL     1      15.788  -1.170  73.699  1.00  0.00    -0.365 N 
ATOM     20  H22 UNL     1      15.703  -2.118  73.332  1.00  0.00     0.159 HD
ATOM     21  H21 UNL     1      14.905  -0.890  74.125  1.00  0.00     0.159 HD
ENDBRANCH  15  19
BRANCH  17  22
HETATM   22  N4  UNL     1      18.672   2.482  72.916  1.00  0.00    -0.244 N 
HETATM   23  C11 UNL     1      18.405   3.115  71.652  1.00  0.00     0.279 C 
HETATM   24  N5  UNL     1      19.360   4.190  71.625  1.00  0.00    -0.107 NA
HETATM   25  N6  UNL     1      19.693   4.467  72.934  1.00  0.00    -0.016 NA
HETATM   26  N7  UNL     1      19.450   3.315  73.691  1.00  0.00    -0.007 NA
ENDBRANCH  17  22
ENDBRANCH   2  13
BRANCH   1  27
HETATM   27  C6  UNL     1      20.985  -2.156  73.189  1.00  0.00     0.184 C 
BRANCH  27  28
HETATM   28  C5  UNL     1      20.756  -3.254  74.169  1.00  0.00     0.174 C 
BRANCH  28  29
HETATM   29  C2  UNL     1      21.514  -4.501  73.687  1.00  0.00     0.116 C 
HETATM   30  C3  UNL     1      21.407  -5.577  74.746  1.00  0.00     0.052 C 
HETATM   31  C4  UNL     1      20.958  -4.976  72.380  1.00  0.00     0.052 C 
BRANCH  29  32
HETATM   32  O2  UNL     1      22.880  -4.198  73.569  1.00  0.00    -0.228 OA
BRANCH  32  33
HETATM   33  O1  UNL     1      23.409  -4.123  74.765  1.00  0.00    -0.245 OA
HETATM   34  C1  UNL     1      24.787  -4.314  74.736  1.00  0.00     0.247 C 
ENDBRANCH  32  33
ENDBRANCH  29  32
ENDBRANCH  28  29
BRANCH  28  35
HETATM   35  O3  UNL     1      19.436  -3.629  74.330  1.00  0.00    -0.391 OA
ATOM     36  H3  UNL     1      19.112  -3.168  75.096  1.00  0.00     0.210 HD
ENDBRANCH  28  35
ENDBRANCH  27  28
ENDBRANCH   1  27
BRANCH   6  37
HETATM   37  N10 UNL     1      23.206   2.578  75.935  1.00  0.00    -0.232 N 
ATOM     38 2H10 UNL     1      23.535   3.403  75.433  1.00  0.00     0.174 HD
ATOM     39 1H10 UNL     1      22.791   2.700  76.859  1.00  0.00     0.174 HD
ENDBRANCH   6  37
BRANCH   9  40
HETATM   40  N12 UNL     1      25.815  -0.973  74.737  1.00  0.00    -0.234 N 
ATOM     41 2H12 UNL     1      26.464  -0.696  74.000  1.00  0.00     0.174 HD
ATOM     42 1H12 UNL     1      26.066  -1.691  75.416  1.00  0.00     0.174 HD
ENDBRANCH   9  40
TORSDOF 11
ENDMDL
MODEL 2
REMARK VINA RESULT: -8.827461081      0.911      1.349
REMARK  11 active torsions:
REMARK  status: ('A' for Active; 'I' for Inactive)
REMARK    1  A    between atoms: O1_2  and  O2_3 
REMARK    2  A    between atoms: O2_3  and  C2_4 
REMARK    3  A    between atoms: C2_4  and  C5_7 
REMARK    4  A    between atoms: C5_7  and  O3_8 
REMARK    5  A    between atoms: C5_7  and  C6_10 
REMARK    6  A    between atoms: C6_10  and  N1_11 
REMARK    7  A    between atoms: C7_12  and  C8_13 
REMARK    8  A    between atoms: C9_15  and  N2_16 
REMARK    9  A    between atoms: C10_21  and  N4_22 
REMARK   10  A    between atoms: C12_30  and  N10_31 
REMARK   11  A    between atoms: C13_36  and  N12_37 
ROOT
HETATM    1  N1  UNL     1      21.316  -1.139  73.824  1.00  0.00    -0.159 N 
HETATM    2  C7  UNL     1      20.383  -0.222  74.125  1.00  0.00     0.177 A 
HETATM    3  N8  UNL     1      20.999   0.828  74.744  1.00  0.00    -0.246 N 
ATOM      4  H8  UNL     1      20.530   1.668  75.083  1.00  0.00     0.190 HD
HETATM    5  N9  UNL     1      22.300   0.590  74.837  1.00  0.00     0.092 N 
HETATM    6  C12 UNL     1      23.319   1.299  75.352  1.00  0.00     0.727 A 
HETATM    7  N11 UNL     1      24.550   0.784  75.297  1.00  0.00    -0.020 N 
ATOM      8  H11 UNL     1      25.340   1.302  75.681  1.00  0.00     0.203 HD
HETATM    9  C13 UNL     1      24.745  -0.427  74.730  1.00  0.00     0.705 A 
HETATM   10  N13 UNL     1      23.720  -1.124  74.220  1.00  0.00    -0.019 N 
ATOM     11  H13 UNL     1      23.880  -2.037  73.794  1.00  0.00     0.203 HD
HETATM   12  C14 UNL     1      22.490  -0.614  74.273  1.00  0.00     0.737 A 
ENDROOT
BRANCH   2  13
HETATM   13  C8  UNL     1      18.961  -0.252  73.859  1.00  0.00     0.170 A 
HETATM   14  O4  UNL     1      18.148  -1.229  74.128  1.00  0.00    -0.272 OA
HETATM   15  C9  UNL     1      16.926  -0.936  73.757  1.00  0.00     0.224 A 
HETATM   16  N3  UNL     1      16.907   0.290  73.213  1.00  0.00    -0.305 N 
HETATM   17  C10 UNL     1      18.200   0.736  73.273  1.00  0.00     0.163 A 
ATOM     18  H3  UNL     1      16.100   0.785  72.835  1.00  0.00     0.171 HD
BRANCH  15  19
HETATM   19  N2  UNL     1      15.903  -1.706  73.894  1.00  0.00    -0.365 N 
ATOM     20  H22 UNL     1      15.888  -2.580  74.418  1.00  0.00     0.159 HD
ATOM     21  H21 UNL     1      14.979  -1.535  73.494  1.00  0.00     0.159 HD
ENDBRANCH  15  19
BRANCH  17  22
HETATM   22  N4  UNL     1      18.602   2.005  72.793  1.00  0.00    -0.244 N 
HETATM   23  C11 UNL     1      18.215   2.566  71.526  1.00  0.00     0.279 C 
HETATM   24  N5  UNL     1      19.137   3.658  71.365  1.00  0.00    -0.107 NA
HETATM   25  N6  UNL     1      19.570   4.009  72.627  1.00  0.00    -0.016 NA
HETATM   26  N7  UNL     1      19.419   2.893  73.458  1.00  0.00    -0.007 NA
ENDBRANCH  17  22
ENDBRANCH   2  13
BRANCH   1  27
HETATM   27  C6  UNL     1      21.158  -2.424  73.204  1.00  0.00     0.184 C 
BRANCH  27  28
HETATM   28  C5  UNL     1      21.027  -3.531  74.192  1.00  0.00     0.174 C 
BRANCH  28  29
HETATM   29  C2  UNL     1      21.627  -4.805  73.578  1.00  0.00     0.116 C 
HETATM   30  C3  UNL     1      21.258  -4.861  72.112  1.00  0.00     0.052 C 
HETATM   31  C4  UNL     1      23.114  -4.821  73.759  1.00  0.00     0.052 C 
BRANCH  29  32
HETATM   32  O2  UNL     1      21.038  -5.931  74.177  1.00  0.00    -0.228 OA
BRANCH  32  33
HETATM   33  O1  UNL     1      21.646  -6.183  75.309  1.00  0.00    -0.245 OA
HETATM   34  C1  UNL     1      21.086  -7.272  75.968  1.00  0.00     0.247 C 
ENDBRANCH  32  33
ENDBRANCH  29  32
ENDBRANCH  28  29
BRANCH  28  35
HETATM   35  O3  UNL     1      19.730  -3.839  74.558  1.00  0.00    -0.391 OA
ATOM     36  H3  UNL     1      19.496  -4.633  74.092  1.00  0.00     0.210 HD
ENDBRANCH  28  35
ENDBRANCH  27  28
ENDBRANCH   1  27
BRANCH   6  37
HETATM   37  N10 UNL     1      23.142   2.447  75.890  1.00  0.00    -0.232 N 
ATOM     38 2H10 UNL     1      23.007   2.511  76.900  1.00  0.00     0.174 HD
ATOM     39 1H10 UNL     1      23.131   3.305  75.340  1.00  0.00     0.174 HD
ENDBRANCH   6  37
BRANCH   9  40
HETATM   40  N12 UNL     1      25.935  -0.950  74.664  1.00  0.00    -0.234 N 
ATOM     41 2H12 UNL     1      26.737  -0.343  74.837  1.00  0.00     0.174 HD
ATOM     42 1H12 UNL     1      26.062  -1.938  74.446  1.00  0.00     0.174 HD
ENDBRANCH   9  40
TORSDOF 11
ENDMDL
MODEL 3
REMARK VINA RESULT: -8.736802131      0.813      1.474
REMARK  11 active torsions:
REMARK  status: ('A' for Active; 'I' for Inactive)
REMARK    1  A    between atoms: O1_2  and  O2_3 
REMARK    2  A    between atoms: O2_3  and  C2_4 
REMARK    3  A    between atoms: C2_4  and  C5_7 
REMARK    4  A    between atoms: C5_7  and  O3_8 
REMARK    5  A    between atoms: C5_7  and  C6_10 
REMARK    6  A    between atoms: C6_10  and  N1_11 
REMARK    7  A    between atoms: C7_12  and  C8_13 
REMARK    8  A    between atoms: C9_15  and  N2_16 
REMARK    9  A    between atoms: C10_21  and  N4_22 
REMARK   10  A    between atoms: C12_30  and  N10_31 
REMARK   11  A    between atoms: C13_36  and  N12_37 
ROOT
HETATM    1  N1  UNL     1      21.355  -1.109  73.858  1.00  0.00    -0.159 N 
HETATM    2  C7  UNL     1      20.411  -0.199  74.145  1.00  0.00     0.177 A 
HETATM    3  N8  UNL     1      21.014   0.864  74.754  1.00  0.00    -0.246 N 
ATOM      4  H8  UNL     1      20.535   1.703  75.082  1.00  0.00     0.190 HD
HETATM    5  N9  UNL     1      22.317   0.642  74.853  1.00  0.00     0.092 N 
HETATM    6  C12 UNL     1      23.327   1.368  75.362  1.00  0.00     0.727 A 
HETATM    7  N11 UNL     1      24.563   0.865  75.316  1.00  0.00    -0.020 N 
ATOM      8  H11 UNL     1      25.347   1.397  75.696  1.00  0.00     0.203 HD
HETATM    9  C13 UNL     1      24.773  -0.349  74.764  1.00  0.00     0.705 A 
HETATM   10  N13 UNL     1      23.758  -1.064  74.259  1.00  0.00    -0.019 N 
ATOM     11  H13 UNL     1      23.929  -1.979  73.844  1.00  0.00     0.203 HD
HETATM   12  C14 UNL     1      22.522  -0.567  74.303  1.00  0.00     0.737 A 
ENDROOT
BRANCH   2  13
HETATM   13  C8  UNL     1      18.991  -0.247  73.876  1.00  0.00     0.170 A 
HETATM   14  O4  UNL     1      18.188  -1.231  74.152  1.00  0.00    -0.272 OA
HETATM   15  C9  UNL     1      16.964  -0.956  73.776  1.00  0.00     0.224 A 
HETATM   16  N3  UNL     1      16.932   0.265  73.220  1.00  0.00    -0.305 N 
HETATM   17  C10 UNL     1      18.219   0.727  73.279  1.00  0.00     0.163 A 
ATOM     18  H3  UNL     1      16.120   0.748  72.836  1.00  0.00     0.171 HD
BRANCH  15  19
HETATM   19  N2  UNL     1      15.949  -1.736  73.917  1.00  0.00    -0.365 N 
ATOM     20  H22 UNL     1      15.680  -2.477  73.270  1.00  0.00     0.159 HD
ATOM     21  H21 UNL     1      15.288  -1.709  74.694  1.00  0.00     0.159 HD
ENDBRANCH  15  19
BRANCH  17  22
HETATM   22  N4  UNL     1      18.608   1.995  72.788  1.00  0.00    -0.244 N 
HETATM   23  C11 UNL     1      18.223   2.538  71.513  1.00  0.00     0.279 C 
HETATM   24  N5  UNL     1      19.132   3.640  71.346  1.00  0.00    -0.107 NA
HETATM   25  N6  UNL     1      19.551   4.010  72.607  1.00  0.00    -0.016 NA
HETATM   26  N7  UNL     1      19.409   2.901  73.449  1.00  0.00    -0.007 NA
ENDBRANCH  17  22
ENDBRANCH   2  13
BRANCH   1  27
HETATM   27  C6  UNL     1      21.212  -2.403  73.252  1.00  0.00     0.184 C 
BRANCH  27  28
HETATM   28  C5  UNL     1      20.964  -3.483  74.247  1.00  0.00     0.174 C 
BRANCH  28  29
HETATM   29  C2  UNL     1      21.821  -4.700  73.869  1.00  0.00     0.116 C 
HETATM   30  C3  UNL     1      23.236  -4.470  74.352  1.00  0.00     0.052 C 
HETATM   31  C4  UNL     1      21.246  -5.949  74.464  1.00  0.00     0.052 C 
BRANCH  29  32
HETATM   32  O2  UNL     1      21.893  -4.801  72.469  1.00  0.00    -0.228 OA
BRANCH  32  33
HETATM   33  O1  UNL     1      20.906  -5.546  72.040  1.00  0.00    -0.245 OA
HETATM   34  C1  UNL     1      20.539  -5.224  70.738  1.00  0.00     0.247 C 
ENDBRANCH  32  33
ENDBRANCH  29  32
ENDBRANCH  28  29
BRANCH  28  35
HETATM   35  O3  UNL     1      19.656  -3.925  74.317  1.00  0.00    -0.391 OA
ATOM     36  H3  UNL     1      19.158  -3.239  74.747  1.00  0.00     0.210 HD
ENDBRANCH  28  35
ENDBRANCH  27  28
ENDBRANCH   1  27
BRANCH   6  37
HETATM   37  N10 UNL     1      23.136   2.520  75.886  1.00  0.00    -0.232 N 
ATOM     38 2H10 UNL     1      22.259   2.710  76.371  1.00  0.00     0.174 HD
ATOM     39 1H10 UNL     1      23.837   3.259  75.836  1.00  0.00     0.174 HD
ENDBRANCH   6  37
BRANCH   9  40
HETATM   40  N12 UNL     1      25.970  -0.860  74.707  1.00  0.00    -0.234 N 
ATOM     41 2H12 UNL     1      26.302  -1.204  73.806  1.00  0.00     0.174 HD
ATOM     42 1H12 UNL     1      26.557  -0.914  75.539  1.00  0.00     0.174 HD
ENDBRANCH   9  40
TORSDOF 11
ENDMDL
MODEL 4
REMARK VINA RESULT: -8.191111899      2.938      4.109
REMARK  11 active torsions:
REMARK  status: ('A' for Active; 'I' for Inactive)
REMARK    1  A    between atoms: O1_2  and  O2_3 
REMARK    2  A    between atoms: O2_3  and  C2_4 
REMARK    3  A    between atoms: C2_4  and  C5_7 
REMARK    4  A    between atoms: C5_7  and  O3_8 
REMARK    5  A    between atoms: C5_7  and  C6_10 
REMARK    6  A    between atoms: C6_10  and  N1_11 
REMARK    7  A    between atoms: C7_12  and  C8_13 
REMARK    8  A    between atoms: C9_15  and  N2_16 
REMARK    9  A    between atoms: C10_21  and  N4_22 
REMARK   10  A    between atoms: C12_30  and  N10_31 
REMARK   11  A    between atoms: C13_36  and  N12_37 
ROOT
HETATM    1  N1  UNL     1      22.993  -3.457  73.954  1.00  0.00    -0.159 N 
HETATM    2  C7  UNL     1      22.007  -2.747  73.384  1.00  0.00     0.177 A 
HETATM    3  N8  UNL     1      22.150  -1.441  73.756  1.00  0.00    -0.246 N 
ATOM      4  H8  UNL     1      21.537  -0.677  73.468  1.00  0.00     0.190 HD
HETATM    5  N9  UNL     1      23.207  -1.315  74.547  1.00  0.00     0.092 N 
HETATM    6  C12 UNL     1      23.760  -0.257  75.164  1.00  0.00     0.727 A 
HETATM    7  N11 UNL     1      24.848  -0.450  75.913  1.00  0.00    -0.020 N 
ATOM      8  H11 UNL     1      25.287   0.337  76.391  1.00  0.00     0.203 HD
HETATM    9  C13 UNL     1      25.367  -1.691  76.035  1.00  0.00     0.705 A 
HETATM   10  N13 UNL     1      24.806  -2.739  75.414  1.00  0.00    -0.019 N 
ATOM     11  H13 UNL     1      25.208  -3.671  75.513  1.00  0.00     0.203 HD
HETATM   12  C14 UNL     1      23.720  -2.551  74.666  1.00  0.00     0.737 A 
ENDROOT
BRANCH   2  13
HETATM   13  C8  UNL     1      20.952  -3.201  72.504  1.00  0.00     0.170 A 
HETATM   14  O4  UNL     1      21.097  -3.944  71.447  1.00  0.00    -0.272 OA
HETATM   15  C9  UNL     1      19.942  -4.172  70.874  1.00  0.00     0.224 A 
HETATM   16  N3  UNL     1      18.972  -3.558  71.567  1.00  0.00    -0.305 N 
HETATM   17  C10 UNL     1      19.604  -2.935  72.609  1.00  0.00     0.163 A 
ATOM     18  H3  UNL     1      17.973  -3.556  71.361  1.00  0.00     0.171 HD
BRANCH  15  19
HETATM   19  N2  UNL     1      19.766  -4.875  69.809  1.00  0.00    -0.365 N 
ATOM     20  H22 UNL     1      20.502  -5.354  69.291  1.00  0.00     0.159 HD
ATOM     21  H21 UNL     1      18.868  -5.040  69.354  1.00  0.00     0.159 HD
ENDBRANCH  15  19
BRANCH  17  22
HETATM   22  N4  UNL     1      18.919  -2.171  73.582  1.00  0.00    -0.244 N 
HETATM   23  C11 UNL     1      18.263  -2.712  74.742  1.00  0.00     0.279 C 
HETATM   24  N5  UNL     1      17.448  -1.616  75.191  1.00  0.00    -0.107 NA
HETATM   25  N6  UNL     1      18.024  -0.461  74.703  1.00  0.00    -0.016 NA
HETATM   26  N7  UNL     1      18.775  -0.800  73.572  1.00  0.00    -0.007 NA
ENDBRANCH  17  22
ENDBRANCH   2  13
BRANCH   1  27
HETATM   27  C6  UNL     1      23.246  -4.869  73.893  1.00  0.00     0.184 C 
BRANCH  27  28
HETATM   28  C5  UNL     1      22.783  -5.592  75.111  1.00  0.00     0.174 C 
BRANCH  28  29
HETATM   29  C2  UNL     1      21.883  -6.757  74.672  1.00  0.00     0.116 C 
HETATM   30  C3  UNL     1      20.618  -6.737  75.502  1.00  0.00     0.052 C 
HETATM   31  C4  UNL     1      21.568  -6.651  73.211  1.00  0.00     0.052 C 
BRANCH  29  32
HETATM   32  O2  UNL     1      22.525  -7.974  74.958  1.00  0.00    -0.228 OA
BRANCH  32  33
HETATM   33  O1  UNL     1      21.743  -8.705  75.711  1.00  0.00    -0.245 OA
HETATM   34  C1  UNL     1      21.179  -9.762  75.003  1.00  0.00     0.247 C 
ENDBRANCH  32  33
ENDBRANCH  29  32
ENDBRANCH  28  29
BRANCH  28  35
HETATM   35  O3  UNL     1      22.044  -4.831  75.997  1.00  0.00    -0.391 OA
ATOM     36  H3  UNL     1      21.145  -4.850  75.690  1.00  0.00     0.210 HD
ENDBRANCH  28  35
ENDBRANCH  27  28
ENDBRANCH   1  27
BRANCH   6  37
HETATM   37  N10 UNL     1      23.274   0.922  75.053  1.00  0.00    -0.232 N 
ATOM     38 2H10 UNL     1      22.508   1.207  75.663  1.00  0.00     0.174 HD
ATOM     39 1H10 UNL     1      23.630   1.590  74.369  1.00  0.00     0.174 HD
ENDBRANCH   6  37
BRANCH   9  40
HETATM   40  N12 UNL     1      26.428  -1.904  76.759  1.00  0.00    -0.234 N 
ATOM     41 2H12 UNL     1      27.182  -2.458  76.353  1.00  0.00     0.174 HD
ATOM     42 1H12 UNL     1      26.502  -1.527  77.703  1.00  0.00     0.174 HD
ENDBRANCH   9  40
TORSDOF 11
ENDMDL
MODEL 5
REMARK VINA RESULT: -8.028516717      3.373      6.544
REMARK  11 active torsions:
REMARK  status: ('A' for Active; 'I' for Inactive)
REMARK    1  A    between atoms: O1_2  and  O2_3 
REMARK    2  A    between atoms: O2_3  and  C2_4 
REMARK    3  A    between atoms: C2_4  and  C5_7 
REMARK    4  A    between atoms: C5_7  and  O3_8 
REMARK    5  A    between atoms: C5_7  and  C6_10 
REMARK    6  A    between atoms: C6_10  and  N1_11 
REMARK    7  A    between atoms: C7_12  and  C8_13 
REMARK    8  A    between atoms: C9_15  and  N2_16 
REMARK    9  A    between atoms: C10_21  and  N4_22 
REMARK   10  A    between atoms: C12_30  and  N10_31 
REMARK   11  A    between atoms: C13_36  and  N12_37 
ROOT
HETATM    1  N1  UNL     1      21.354  -2.872  73.937  1.00  0.00    -0.159 N 
HETATM    2  C7  UNL     1      20.605  -3.977  74.076  1.00  0.00     0.177 A 
HETATM    3  N8  UNL     1      19.295  -3.599  74.151  1.00  0.00    -0.246 N 
ATOM      4  H8  UNL     1      18.505  -4.235  74.260  1.00  0.00     0.190 HD
HETATM    5  N9  UNL     1      19.205  -2.279  74.060  1.00  0.00     0.092 N 
HETATM    6  C12 UNL     1      18.159  -1.435  74.080  1.00  0.00     0.727 A 
HETATM    7  N11 UNL     1      18.391  -0.125  73.965  1.00  0.00    -0.020 N 
ATOM      8  H11 UNL     1      17.614   0.535  73.977  1.00  0.00     0.203 HD
HETATM    9  C13 UNL     1      19.659   0.322  73.832  1.00  0.00     0.705 A 
HETATM   10  N13 UNL     1      20.694  -0.530  73.814  1.00  0.00    -0.019 N 
ATOM     11  H13 UNL     1      21.646  -0.179  73.713  1.00  0.00     0.203 HD
HETATM   12  C14 UNL     1      20.468  -1.838  73.929  1.00  0.00     0.737 A 
ENDROOT
BRANCH   2  13
HETATM   13  C8  UNL     1      21.026  -5.360  74.126  1.00  0.00     0.170 A 
HETATM   14  O4  UNL     1      21.186  -6.078  75.198  1.00  0.00    -0.272 OA
HETATM   15  C9  UNL     1      21.578  -7.290  74.895  1.00  0.00     0.224 A 
HETATM   16  N3  UNL     1      21.691  -7.401  73.563  1.00  0.00    -0.305 N 
HETATM   17  C10 UNL     1      21.342  -6.177  73.062  1.00  0.00     0.163 A 
ATOM     18  H3  UNL     1      21.977  -8.226  73.034  1.00  0.00     0.171 HD
BRANCH  15  19
HETATM   19  N2  UNL     1      21.818  -8.228  75.743  1.00  0.00    -0.365 N 
ATOM     20  H22 UNL     1      22.308  -8.110  76.630  1.00  0.00     0.159 HD
ATOM     21  H21 UNL     1      21.545  -9.206  75.634  1.00  0.00     0.159 HD
ENDBRANCH  15  19
BRANCH  17  22
HETATM   22  N4  UNL     1      21.333  -5.881  71.679  1.00  0.00    -0.244 N 
HETATM   23  C11 UNL     1      20.366  -5.043  71.022  1.00  0.00     0.279 C 
HETATM   24  N5  UNL     1      20.571  -5.345  69.632  1.00  0.00    -0.107 NA
HETATM   25  N6  UNL     1      21.858  -5.826  69.510  1.00  0.00    -0.016 NA
HETATM   26  N7  UNL     1      22.240  -6.346  70.751  1.00  0.00    -0.007 NA
ENDBRANCH  17  22
ENDBRANCH   2  13
BRANCH   1  27
HETATM   27  C6  UNL     1      22.782  -2.749  73.852  1.00  0.00     0.184 C 
BRANCH  27  28
HETATM   28  C5  UNL     1      23.480  -3.264  75.063  1.00  0.00     0.174 C 
BRANCH  28  29
HETATM   29  C2  UNL     1      24.736  -2.413  75.300  1.00  0.00     0.116 C 
HETATM   30  C3  UNL     1      24.865  -2.134  76.781  1.00  0.00     0.052 C 
HETATM   31  C4  UNL     1      25.950  -3.119  74.778  1.00  0.00     0.052 C 
BRANCH  29  32
HETATM   32  O2  UNL     1      24.576  -1.165  74.675  1.00  0.00    -0.228 OA
BRANCH  32  33
HETATM   33  O1  UNL     1      24.790  -0.215  75.550  1.00  0.00    -0.245 OA
HETATM   34  C1  UNL     1      23.969   0.886  75.334  1.00  0.00     0.247 C 
ENDBRANCH  32  33
ENDBRANCH  29  32
ENDBRANCH  28  29
BRANCH  28  35
HETATM   35  O3  UNL     1      23.900  -4.579  74.980  1.00  0.00    -0.391 OA
ATOM     36  H3  UNL     1      23.322  -5.086  75.540  1.00  0.00     0.210 HD
ENDBRANCH  28  35
ENDBRANCH  27  28
ENDBRANCH   1  27
BRANCH   6  37
HETATM   37  N10 UNL     1      16.956  -1.852  74.205  1.00  0.00    -0.232 N 
ATOM     38 2H10 UNL     1      16.456  -2.195  73.384  1.00  0.00     0.174 HD
ATOM     39 1H10 UNL     1      16.475  -1.852  75.104  1.00  0.00     0.174 HD
ENDBRANCH   6  37
BRANCH   9  40
HETATM   40  N12 UNL     1      19.910   1.595  73.718  1.00  0.00    -0.234 N 
ATOM     41 2H12 UNL     1      20.518   1.897  72.956  1.00  0.00     0.174 HD
ATOM     42 1H12 UNL     1      19.511   2.268  74.371  1.00  0.00     0.174 HD
ENDBRANCH   9  40
TORSDOF 11
ENDMDL
