MODEL 1
REMARK VINA RESULT: -10.622065920      0.000      0.000
REMARK  14 active torsions:
REMARK  status: ('A' for Active; 'I' for Inactive)
REMARK    1  A    between atoms: O1_1  and  N1_3 
REMARK    2  A    between atoms: N1_3  and  N2_4 
REMARK       I    between atoms: N2_4  and  C1_6 
REMARK    3  A    between atoms: C1_6  and  C2_8 
REMARK       I    between atoms: C2_8  and  N3_10 
REMARK    4  A    between atoms: N3_10  and  C3_12 
REMARK    5  A    between atoms: C4_14  and  C5_15 
REMARK    6  A    between atoms: C5_15  and  O4_16 
REMARK    7  A    between atoms: C5_15  and  O5_18 
REMARK    8  A    between atoms: C7_21  and  N4_22 
REMARK    9  A    between atoms: N4_22  and  N5_24 
REMARK   10  A    between atoms: N5_24  and  C8_26 
REMARK   11  A    between atoms: C11_32  and  C12_33 
REMARK   12  A    between atoms: C12_33  and  O7_34 
REMARK   13  A    between atoms: C12_33  and  O8_36 
REMARK   14  A    between atoms: C13_39  and  O10_40 
ROOT
HETATM    1  C3  UNL     1      20.506  -5.173  70.725  1.00  0.00     0.113 A 
HETATM    2  S1  UNL     1      21.668  -6.240  71.356  1.00  0.00    -0.069 SA
HETATM    3  C4  UNL     1      22.223  -5.800  72.900  1.00  0.00     0.041 A 
HETATM    4  C6  UNL     1      21.654  -4.660  73.393  1.00  0.00     0.053 A 
HETATM    5  C7  UNL     1      20.713  -3.870  72.783  1.00  0.00     0.085 A 
HETATM    6  C13 UNL     1      20.165  -4.091  71.540  1.00  0.00     0.128 A 
ENDROOT
BRANCH   5   7
HETATM    7  N4  UNL     1      20.290  -2.689  73.507  1.00  0.00    -0.295 N 
ATOM      8  H4  UNL     1      19.578  -2.770  74.232  1.00  0.00     0.187 HD
BRANCH   7   9
HETATM    9  N5  UNL     1      20.845  -1.443  73.224  1.00  0.00    -0.264 N 
ATOM     10  H5  UNL     1      20.435  -0.887  72.474  1.00  0.00     0.190 HD
BRANCH   9  11
HETATM   11  C8  UNL     1      21.958  -0.910  73.935  1.00  0.00     0.246 A 
HETATM   12  N6  UNL     1      21.927   0.409  74.313  1.00  0.00    -0.288 N 
HETATM   13  C9  UNL     1      22.923   0.991  74.986  1.00  0.00     0.250 A 
ATOM     14  H6  UNL     1      21.109   0.969  74.071  1.00  0.00     0.172 HD
HETATM   15  O6  UNL     1      22.857   2.219  75.318  1.00  0.00    -0.268 OA
HETATM   16  C10 UNL     1      24.006   0.242  75.303  1.00  0.00     0.112 A 
HETATM   17  C11 UNL     1      24.038  -1.104  74.917  1.00  0.00     0.116 A 
HETATM   18  O9  UNL     1      23.025  -1.591  74.264  1.00  0.00    -0.277 OA
BRANCH  17  19
HETATM   19  C12 UNL     1      25.250  -1.868  75.297  1.00  0.00     0.312 C 
BRANCH  19  20
HETATM   20  O7  UNL     1      25.146  -3.142  74.758  1.00  0.00    -0.365 OA
ATOM     21  H7  UNL     1      25.542  -3.132  73.895  1.00  0.00     0.213 HD
ENDBRANCH  19  20
BRANCH  19  22
HETATM   22  O8  UNL     1      26.382  -1.291  74.680  1.00  0.00    -0.365 OA
ATOM     23  H8  UNL     1      26.580  -0.460  75.095  1.00  0.00     0.213 HD
ENDBRANCH  19  22
ENDBRANCH  17  19
ENDBRANCH   9  11
ENDBRANCH   7   9
ENDBRANCH   5   7
BRANCH   6  24
HETATM   24  O10 UNL     1      19.214  -3.259  70.971  1.00  0.00    -0.356 OA
ATOM     25  H10 UNL     1      18.973  -2.530  71.530  1.00  0.00     0.218 HD
ENDBRANCH   6  24
BRANCH   3  26
HETATM   26  C5  UNL     1      23.239  -6.593  73.639  1.00  0.00     0.295 C 
BRANCH  26  27
HETATM   27  O4  UNL     1      22.535  -7.308  74.621  1.00  0.00    -0.367 OA
ATOM     28  H4  UNL     1      23.169  -7.523  75.294  1.00  0.00     0.213 HD
ENDBRANCH  26  27
BRANCH  26  29
HETATM   29  O5  UNL     1      24.196  -5.795  74.236  1.00  0.00    -0.367 OA
ATOM     30  H5  UNL     1      25.079  -6.070  74.022  1.00  0.00     0.213 HD
ENDBRANCH  26  29
ENDBRANCH   3  26
BRANCH   1  31
HETATM   31  N3  UNL     1      19.988  -5.358  69.551  1.00  0.00    -0.311 N 
HETATM   32  C2  UNL     1      20.846  -5.883  68.535  1.00  0.00     0.315 C 
HETATM   33  O3  UNL     1      21.632  -5.102  67.897  1.00  0.00    -0.262 OA
ATOM     34  H3  UNL     1      19.010  -5.139  69.360  1.00  0.00     0.170 HD
BRANCH  32  35
HETATM   35  C1  UNL     1      20.880  -7.292  68.174  1.00  0.00     0.327 C 
HETATM   36  N2  UNL     1      19.825  -8.161  68.573  1.00  0.00    -0.240 N 
ATOM     37  H2  UNL     1      19.041  -7.796  69.115  1.00  0.00     0.188 HD
HETATM   38  O2  UNL     1      21.834  -7.752  67.514  1.00  0.00    -0.261 OA
BRANCH  36  39
HETATM   39  N1  UNL     1      19.863  -9.524  68.218  1.00  0.00     0.021 NA
BRANCH  39  40
HETATM   40  O1  UNL     1      20.868 -10.153  68.647  1.00  0.00    -0.277 OA
ATOM     41  H1  UNL     1      21.110 -10.912  68.132  1.00  0.00     0.240 HD
ENDBRANCH  39  40
ENDBRANCH  36  39
ENDBRANCH  32  35
ENDBRANCH   1  31
TORSDOF 14
ENDMDL
MODEL 2
REMARK VINA RESULT: -10.332977674      3.536      4.784
REMARK  14 active torsions:
REMARK  status: ('A' for Active; 'I' for Inactive)
REMARK    1  A    between atoms: O1_1  and  N1_3 
REMARK    2  A    between atoms: N1_3  and  N2_4 
REMARK       I    between atoms: N2_4  and  C1_6 
REMARK    3  A    between atoms: C1_6  and  C2_8 
REMARK       I    between atoms: C2_8  and  N3_10 
REMARK    4  A    between atoms: N3_10  and  C3_12 
REMARK    5  A    between atoms: C4_14  and  C5_15 
REMARK    6  A    between atoms: C5_15  and  O4_16 
REMARK    7  A    between atoms: C5_15  and  O5_18 
REMARK    8  A    between atoms: C7_21  and  N4_22 
REMARK    9  A    between atoms: N4_22  and  N5_24 
REMARK   10  A    between atoms: N5_24  and  C8_26 
REMARK   11  A    between atoms: C11_32  and  C12_33 
REMARK   12  A    between atoms: C12_33  and  O7_34 
REMARK   13  A    between atoms: C12_33  and  O8_36 
REMARK   14  A    between atoms: C13_39  and  O10_40 
ROOT
HETATM    1  C3  UNL     1      20.479  -5.198  70.677  1.00  0.00     0.113 A 
HETATM    2  S1  UNL     1      21.713  -6.197  71.281  1.00  0.00    -0.069 SA
HETATM    3  C4  UNL     1      22.207  -5.789  72.854  1.00  0.00     0.041 A 
HETATM    4  C6  UNL     1      21.538  -4.724  73.389  1.00  0.00     0.053 A 
HETATM    5  C7  UNL     1      20.546  -3.982  72.798  1.00  0.00     0.085 A 
HETATM    6  C13 UNL     1      20.038  -4.187  71.535  1.00  0.00     0.128 A 
ENDROOT
BRANCH   5   7
HETATM    7  N4  UNL     1      20.018  -2.876  73.567  1.00  0.00    -0.295 N 
ATOM      8  H4  UNL     1      20.202  -1.919  73.265  1.00  0.00     0.187 HD
BRANCH   7   9
HETATM    9  N5  UNL     1      19.262  -3.101  74.714  1.00  0.00    -0.264 N 
ATOM     10  H5  UNL     1      19.641  -3.715  75.434  1.00  0.00     0.190 HD
BRANCH   9  11
HETATM   11  C8  UNL     1      17.981  -2.514  74.928  1.00  0.00     0.246 A 
HETATM   12  N6  UNL     1      17.451  -1.717  73.943  1.00  0.00    -0.288 N 
HETATM   13  C9  UNL     1      16.256  -1.130  74.056  1.00  0.00     0.250 A 
ATOM     14  H6  UNL     1      17.990  -1.567  73.091  1.00  0.00     0.172 HD
HETATM   15  O6  UNL     1      15.798  -0.397  73.121  1.00  0.00    -0.268 OA
HETATM   16  C10 UNL     1      15.547  -1.334  75.192  1.00  0.00     0.112 A 
HETATM   17  C11 UNL     1      16.088  -2.146  76.196  1.00  0.00     0.116 A 
HETATM   18  O9  UNL     1      17.258  -2.679  76.005  1.00  0.00    -0.277 OA
BRANCH  17  19
HETATM   19  C12 UNL     1      15.260  -2.329  77.410  1.00  0.00     0.312 C 
BRANCH  19  20
HETATM   20  O7  UNL     1      16.094  -2.711  78.451  1.00  0.00    -0.365 OA
ATOM     21  H7  UNL     1      15.640  -3.363  78.971  1.00  0.00     0.213 HD
ENDBRANCH  19  20
BRANCH  19  22
HETATM   22  O8  UNL     1      14.718  -1.085  77.803  1.00  0.00    -0.365 OA
ATOM     23  H8  UNL     1      14.969  -0.898  78.700  1.00  0.00     0.213 HD
ENDBRANCH  19  22
ENDBRANCH  17  19
ENDBRANCH   9  11
ENDBRANCH   7   9
ENDBRANCH   5   7
BRANCH   6  24
HETATM   24  O10 UNL     1      19.033  -3.407  70.987  1.00  0.00    -0.356 OA
ATOM     25  H10 UNL     1      19.258  -2.486  70.939  1.00  0.00     0.218 HD
ENDBRANCH   6  24
BRANCH   3  26
HETATM   26  C5  UNL     1      23.271  -6.533  73.575  1.00  0.00     0.295 C 
BRANCH  26  27
HETATM   27  O4  UNL     1      22.618  -7.279  74.569  1.00  0.00    -0.367 OA
ATOM     28  H4  UNL     1      23.304  -7.671  75.097  1.00  0.00     0.213 HD
ENDBRANCH  26  27
BRANCH  26  29
HETATM   29  O5  UNL     1      24.199  -5.690  74.157  1.00  0.00    -0.367 OA
ATOM     30  H5  UNL     1      24.196  -4.825  73.764  1.00  0.00     0.213 HD
ENDBRANCH  26  29
ENDBRANCH   3  26
BRANCH   1  31
HETATM   31  N3  UNL     1      19.997  -5.367  69.486  1.00  0.00    -0.311 N 
HETATM   32  C2  UNL     1      20.883  -5.888  68.492  1.00  0.00     0.315 C 
HETATM   33  O3  UNL     1      21.694  -5.106  67.887  1.00  0.00    -0.262 OA
ATOM     34  H3  UNL     1      19.027  -5.138  69.267  1.00  0.00     0.170 HD
BRANCH  32  35
HETATM   35  C1  UNL     1      20.918  -7.294  68.118  1.00  0.00     0.327 C 
HETATM   36  N2  UNL     1      19.866  -8.168  68.513  1.00  0.00    -0.240 N 
ATOM     37  H2  UNL     1      19.084  -7.810  69.062  1.00  0.00     0.188 HD
HETATM   38  O2  UNL     1      21.869  -7.745  67.449  1.00  0.00    -0.261 OA
BRANCH  36  39
HETATM   39  N1  UNL     1      19.905  -9.527  68.146  1.00  0.00     0.021 NA
BRANCH  39  40
HETATM   40  O1  UNL     1      20.871 -10.177  68.630  1.00  0.00    -0.277 OA
ATOM     41  H1  UNL     1      21.018 -11.026  68.231  1.00  0.00     0.240 HD
ENDBRANCH  39  40
ENDBRANCH  36  39
ENDBRANCH  32  35
ENDBRANCH   1  31
TORSDOF 14
ENDMDL
MODEL 3
REMARK VINA RESULT: -10.173740207      0.776      2.205
REMARK  14 active torsions:
REMARK  status: ('A' for Active; 'I' for Inactive)
REMARK    1  A    between atoms: O1_1  and  N1_3 
REMARK    2  A    between atoms: N1_3  and  N2_4 
REMARK       I    between atoms: N2_4  and  C1_6 
REMARK    3  A    between atoms: C1_6  and  C2_8 
REMARK       I    between atoms: C2_8  and  N3_10 
REMARK    4  A    between atoms: N3_10  and  C3_12 
REMARK    5  A    between atoms: C4_14  and  C5_15 
REMARK    6  A    between atoms: C5_15  and  O4_16 
REMARK    7  A    between atoms: C5_15  and  O5_18 
REMARK    8  A    between atoms: C7_21  and  N4_22 
REMARK    9  A    between atoms: N4_22  and  N5_24 
REMARK   10  A    between atoms: N5_24  and  C8_26 
REMARK   11  A    between atoms: C11_32  and  C12_33 
REMARK   12  A    between atoms: C12_33  and  O7_34 
REMARK   13  A    between atoms: C12_33  and  O8_36 
REMARK   14  A    between atoms: C13_39  and  O10_40 
ROOT
HETATM    1  C3  UNL     1      20.533  -5.149  70.774  1.00  0.00     0.113 A 
HETATM    2  S1  UNL     1      21.674  -6.238  71.405  1.00  0.00    -0.069 SA
HETATM    3  C4  UNL     1      22.293  -5.771  72.916  1.00  0.00     0.041 A 
HETATM    4  C6  UNL     1      21.780  -4.595  73.389  1.00  0.00     0.053 A 
HETATM    5  C7  UNL     1      20.851  -3.790  72.782  1.00  0.00     0.085 A 
HETATM    6  C13 UNL     1      20.256  -4.029  71.563  1.00  0.00     0.128 A 
ENDROOT
BRANCH   5   7
HETATM    7  N4  UNL     1      20.494  -2.572  73.479  1.00  0.00    -0.295 N 
ATOM      8  H4  UNL     1      19.788  -2.601  74.215  1.00  0.00     0.187 HD
BRANCH   7   9
HETATM    9  N5  UNL     1      21.101  -1.362  73.156  1.00  0.00    -0.264 N 
ATOM     10  H5  UNL     1      20.782  -0.863  72.326  1.00  0.00     0.190 HD
BRANCH   9  11
HETATM   11  C8  UNL     1      22.149  -0.788  73.933  1.00  0.00     0.246 A 
HETATM   12  N6  UNL     1      23.291  -1.521  74.140  1.00  0.00    -0.288 N 
HETATM   13  C9  UNL     1      24.325  -1.062  74.850  1.00  0.00     0.250 A 
ATOM     14  H6  UNL     1      23.354  -2.456  73.735  1.00  0.00     0.172 HD
HETATM   15  O6  UNL     1      25.367  -1.773  75.022  1.00  0.00    -0.268 OA
HETATM   16  C10 UNL     1      24.233   0.179  75.386  1.00  0.00     0.112 A 
HETATM   17  C11 UNL     1      23.068   0.927  75.174  1.00  0.00     0.116 A 
HETATM   18  O9  UNL     1      22.109   0.403  74.470  1.00  0.00    -0.277 OA
BRANCH  17  19
HETATM   19  C12 UNL     1      23.034   2.277  75.784  1.00  0.00     0.312 C 
BRANCH  19  20
HETATM   20  O7  UNL     1      24.002   3.056  75.169  1.00  0.00    -0.365 OA
ATOM     21  H7  UNL     1      23.988   3.918  75.569  1.00  0.00     0.213 HD
ENDBRANCH  19  20
BRANCH  19  22
HETATM   22  O8  UNL     1      21.803   2.900  75.480  1.00  0.00    -0.365 OA
ATOM     23  H8  UNL     1      21.160   2.238  75.253  1.00  0.00     0.213 HD
ENDBRANCH  19  22
ENDBRANCH  17  19
ENDBRANCH   9  11
ENDBRANCH   7   9
ENDBRANCH   5   7
BRANCH   6  24
HETATM   24  O10 UNL     1      19.319  -3.181  70.996  1.00  0.00    -0.356 OA
ATOM     25  H10 UNL     1      19.510  -2.262  71.143  1.00  0.00     0.218 HD
ENDBRANCH   6  24
BRANCH   3  26
HETATM   26  C5  UNL     1      23.301  -6.578  73.649  1.00  0.00     0.295 C 
BRANCH  26  27
HETATM   27  O4  UNL     1      22.593  -7.284  74.633  1.00  0.00    -0.367 OA
ATOM     28  H4  UNL     1      23.137  -8.027  74.867  1.00  0.00     0.213 HD
ENDBRANCH  26  27
BRANCH  26  29
HETATM   29  O5  UNL     1      24.271  -5.792  74.243  1.00  0.00    -0.367 OA
ATOM     30  H5  UNL     1      24.859  -5.403  73.607  1.00  0.00     0.213 HD
ENDBRANCH  26  29
ENDBRANCH   3  26
BRANCH   1  31
HETATM   31  N3  UNL     1      19.971  -5.351  69.622  1.00  0.00    -0.311 N 
HETATM   32  C2  UNL     1      20.803  -5.851  68.572  1.00  0.00     0.315 C 
HETATM   33  O3  UNL     1      21.537  -5.046  67.902  1.00  0.00    -0.262 OA
ATOM     34  H3  UNL     1      18.981  -5.162  69.473  1.00  0.00     0.170 HD
BRANCH  32  35
HETATM   35  C1  UNL     1      20.865  -7.259  68.210  1.00  0.00     0.327 C 
HETATM   36  N2  UNL     1      19.807  -8.141  68.571  1.00  0.00    -0.240 N 
ATOM     37  H2  UNL     1      19.002  -7.786  69.088  1.00  0.00     0.188 HD
HETATM   38  O2  UNL     1      21.845  -7.706  67.581  1.00  0.00    -0.261 OA
BRANCH  36  39
HETATM   39  N1  UNL     1      19.872  -9.502  68.216  1.00  0.00     0.021 NA
BRANCH  39  40
HETATM   40  O1  UNL     1      20.903 -10.104  68.622  1.00  0.00    -0.277 OA
ATOM     41  H1  UNL     1      21.552  -9.546  69.035  1.00  0.00     0.240 HD
ENDBRANCH  39  40
ENDBRANCH  36  39
ENDBRANCH  32  35
ENDBRANCH   1  31
TORSDOF 14
ENDMDL
MODEL 4
REMARK VINA RESULT: -10.115183791      3.269      4.722
REMARK  14 active torsions:
REMARK  status: ('A' for Active; 'I' for Inactive)
REMARK    1  A    between atoms: O1_1  and  N1_3 
REMARK    2  A    between atoms: N1_3  and  N2_4 
REMARK       I    between atoms: N2_4  and  C1_6 
REMARK    3  A    between atoms: C1_6  and  C2_8 
REMARK       I    between atoms: C2_8  and  N3_10 
REMARK    4  A    between atoms: N3_10  and  C3_12 
REMARK    5  A    between atoms: C4_14  and  C5_15 
REMARK    6  A    between atoms: C5_15  and  O4_16 
REMARK    7  A    between atoms: C5_15  and  O5_18 
REMARK    8  A    between atoms: C7_21  and  N4_22 
REMARK    9  A    between atoms: N4_22  and  N5_24 
REMARK   10  A    between atoms: N5_24  and  C8_26 
REMARK   11  A    between atoms: C11_32  and  C12_33 
REMARK   12  A    between atoms: C12_33  and  O7_34 
REMARK   13  A    between atoms: C12_33  and  O8_36 
REMARK   14  A    between atoms: C13_39  and  O10_40 
ROOT
HETATM    1  C3  UNL     1      20.499  -5.264  70.613  1.00  0.00     0.113 A 
HETATM    2  S1  UNL     1      21.778  -6.221  71.192  1.00  0.00    -0.069 SA
HETATM    3  C4  UNL     1      22.223  -5.861  72.790  1.00  0.00     0.041 A 
HETATM    4  C6  UNL     1      21.488  -4.861  73.362  1.00  0.00     0.053 A 
HETATM    5  C7  UNL     1      20.465  -4.149  72.789  1.00  0.00     0.085 A 
HETATM    6  C13 UNL     1      19.988  -4.320  71.509  1.00  0.00     0.128 A 
ENDROOT
BRANCH   5   7
HETATM    7  N4  UNL     1      19.863  -3.111  73.600  1.00  0.00    -0.295 N 
ATOM      8  H4  UNL     1      20.002  -2.132  73.349  1.00  0.00     0.187 HD
BRANCH   7   9
HETATM    9  N5  UNL     1      19.099  -3.432  74.717  1.00  0.00    -0.264 N 
ATOM     10  H5  UNL     1      19.373  -4.238  75.278  1.00  0.00     0.190 HD
BRANCH   9  11
HETATM   11  C8  UNL     1      17.950  -2.688  75.113  1.00  0.00     0.246 A 
HETATM   12  N6  UNL     1      17.191  -3.155  76.156  1.00  0.00    -0.288 N 
HETATM   13  C9  UNL     1      16.101  -2.520  76.597  1.00  0.00     0.250 A 
ATOM     14  H6  UNL     1      17.469  -4.023  76.615  1.00  0.00     0.172 HD
HETATM   15  O6  UNL     1      15.422  -2.986  77.568  1.00  0.00    -0.268 OA
HETATM   16  C10 UNL     1      15.738  -1.369  75.982  1.00  0.00     0.112 A 
HETATM   17  C11 UNL     1      16.513  -0.892  74.918  1.00  0.00     0.116 A 
HETATM   18  O9  UNL     1      17.558  -1.573  74.552  1.00  0.00    -0.277 OA
BRANCH  17  19
HETATM   19  C12 UNL     1      16.062   0.372  74.292  1.00  0.00     0.312 C 
BRANCH  19  20
HETATM   20  O7  UNL     1      17.134   1.253  74.272  1.00  0.00    -0.365 OA
ATOM     21  H7  UNL     1      17.388   1.391  73.367  1.00  0.00     0.213 HD
ENDBRANCH  19  20
BRANCH  19  22
HETATM   22  O8  UNL     1      15.744   0.139  72.935  1.00  0.00    -0.365 OA
ATOM     23  H8  UNL     1      15.846   0.945  72.442  1.00  0.00     0.213 HD
ENDBRANCH  19  22
ENDBRANCH  17  19
ENDBRANCH   9  11
ENDBRANCH   7   9
ENDBRANCH   5   7
BRANCH   6  24
HETATM   24  O10 UNL     1      18.949  -3.573  70.980  1.00  0.00    -0.356 OA
ATOM     25  H10 UNL     1      18.992  -2.654  71.215  1.00  0.00     0.218 HD
ENDBRANCH   6  24
BRANCH   3  26
HETATM   26  C5  UNL     1      23.317  -6.578  73.495  1.00  0.00     0.295 C 
BRANCH  26  27
HETATM   27  O4  UNL     1      22.698  -7.345  74.494  1.00  0.00    -0.367 OA
ATOM     28  H4  UNL     1      23.135  -7.121  75.307  1.00  0.00     0.213 HD
ENDBRANCH  26  27
BRANCH  26  29
HETATM   29  O5  UNL     1      24.229  -5.712  74.067  1.00  0.00    -0.367 OA
ATOM     30  H5  UNL     1      23.854  -4.856  74.241  1.00  0.00     0.213 HD
ENDBRANCH  26  29
ENDBRANCH   3  26
BRANCH   1  31
HETATM   31  N3  UNL     1      20.044  -5.402  69.406  1.00  0.00    -0.311 N 
HETATM   32  C2  UNL     1      20.939  -5.944  68.432  1.00  0.00     0.315 C 
HETATM   33  O3  UNL     1      21.795  -5.186  67.860  1.00  0.00    -0.262 OA
ATOM     34  H3  UNL     1      19.090  -5.137  69.163  1.00  0.00     0.170 HD
BRANCH  32  35
HETATM   35  C1  UNL     1      20.934  -7.346  68.043  1.00  0.00     0.327 C 
HETATM   36  N2  UNL     1      19.946  -8.232  68.559  1.00  0.00    -0.240 N 
ATOM     37  H2  UNL     1      19.238  -7.884  69.207  1.00  0.00     0.188 HD
HETATM   38  O2  UNL     1      21.796  -7.785  67.254  1.00  0.00    -0.261 OA
BRANCH  36  39
HETATM   39  N1  UNL     1      19.946  -9.587  68.177  1.00  0.00     0.021 NA
BRANCH  39  40
HETATM   40  O1  UNL     1      20.942 -10.249  68.578  1.00  0.00    -0.277 OA
ATOM     41  H1  UNL     1      20.853 -11.190  68.494  1.00  0.00     0.240 HD
ENDBRANCH  39  40
ENDBRANCH  36  39
ENDBRANCH  32  35
ENDBRANCH   1  31
TORSDOF 14
ENDMDL
MODEL 5
REMARK VINA RESULT: -10.060900741      2.327      3.738
REMARK  14 active torsions:
REMARK  status: ('A' for Active; 'I' for Inactive)
REMARK    1  A    between atoms: O1_1  and  N1_3 
REMARK    2  A    between atoms: N1_3  and  N2_4 
REMARK       I    between atoms: N2_4  and  C1_6 
REMARK    3  A    between atoms: C1_6  and  C2_8 
REMARK       I    between atoms: C2_8  and  N3_10 
REMARK    4  A    between atoms: N3_10  and  C3_12 
REMARK    5  A    between atoms: C4_14  and  C5_15 
REMARK    6  A    between atoms: C5_15  and  O4_16 
REMARK    7  A    between atoms: C5_15  and  O5_18 
REMARK    8  A    between atoms: C7_21  and  N4_22 
REMARK    9  A    between atoms: N4_22  and  N5_24 
REMARK   10  A    between atoms: N5_24  and  C8_26 
REMARK   11  A    between atoms: C11_32  and  C12_33 
REMARK   12  A    between atoms: C12_33  and  O7_34 
REMARK   13  A    between atoms: C12_33  and  O8_36 
REMARK   14  A    between atoms: C13_39  and  O10_40 
ROOT
HETATM    1  C3  UNL     1      20.453  -5.137  70.790  1.00  0.00     0.113 A 
HETATM    2  S1  UNL     1      21.663  -6.166  71.394  1.00  0.00    -0.069 SA
HETATM    3  C4  UNL     1      22.160  -5.775  72.970  1.00  0.00     0.041 A 
HETATM    4  C6  UNL     1      21.513  -4.698  73.507  1.00  0.00     0.053 A 
HETATM    5  C7  UNL     1      20.540  -3.932  72.916  1.00  0.00     0.085 A 
HETATM    6  C13 UNL     1      20.032  -4.120  71.651  1.00  0.00     0.128 A 
ENDROOT
BRANCH   5   7
HETATM    7  N4  UNL     1      20.033  -2.817  73.689  1.00  0.00    -0.295 N 
ATOM      8  H4  UNL     1      19.379  -2.989  74.453  1.00  0.00     0.187 HD
BRANCH   7   9
HETATM    9  N5  UNL     1      20.427  -1.514  73.402  1.00  0.00    -0.264 N 
ATOM     10  H5  UNL     1      21.414  -1.333  73.217  1.00  0.00     0.190 HD
BRANCH   9  11
HETATM   11  C8  UNL     1      19.516  -0.419  73.355  1.00  0.00     0.246 A 
HETATM   12  N6  UNL     1      18.241  -0.645  72.900  1.00  0.00    -0.288 N 
HETATM   13  C9  UNL     1      17.320   0.320  72.827  1.00  0.00     0.250 A 
ATOM     14  H6  UNL     1      17.985  -1.588  72.606  1.00  0.00     0.172 HD
HETATM   15  O6  UNL     1      16.147   0.072  72.398  1.00  0.00    -0.268 OA
HETATM   16  C10 UNL     1      17.667   1.569  73.219  1.00  0.00     0.112 A 
HETATM   17  C11 UNL     1      18.968   1.799  73.683  1.00  0.00     0.116 A 
HETATM   18  O9  UNL     1      19.803   0.803  73.721  1.00  0.00    -0.277 OA
BRANCH  17  19
HETATM   19  C12 UNL     1      19.283   3.186  74.098  1.00  0.00     0.312 C 
BRANCH  19  20
HETATM   20  O7  UNL     1      20.497   3.174  74.769  1.00  0.00    -0.365 OA
ATOM     21  H7  UNL     1      20.697   4.063  75.037  1.00  0.00     0.213 HD
ENDBRANCH  19  20
BRANCH  19  22
HETATM   22  O8  UNL     1      19.497   3.983  72.951  1.00  0.00    -0.365 OA
ATOM     23  H8  UNL     1      19.189   4.867  73.118  1.00  0.00     0.213 HD
ENDBRANCH  19  22
ENDBRANCH  17  19
ENDBRANCH   9  11
ENDBRANCH   7   9
ENDBRANCH   5   7
BRANCH   6  24
HETATM   24  O10 UNL     1      19.046  -3.316  71.103  1.00  0.00    -0.356 OA
ATOM     25  H10 UNL     1      19.392  -2.569  70.629  1.00  0.00     0.218 HD
ENDBRANCH   6  24
BRANCH   3  26
HETATM   26  C5  UNL     1      23.205  -6.546  73.692  1.00  0.00     0.295 C 
BRANCH  26  27
HETATM   27  O4  UNL     1      22.538  -7.244  74.711  1.00  0.00    -0.367 OA
ATOM     28  H4  UNL     1      23.210  -7.521  75.323  1.00  0.00     0.213 HD
ENDBRANCH  26  27
BRANCH  26  29
HETATM   29  O5  UNL     1      24.174  -5.728  74.240  1.00  0.00    -0.367 OA
ATOM     30  H5  UNL     1      24.285  -5.875  75.172  1.00  0.00     0.213 HD
ENDBRANCH  26  29
ENDBRANCH   3  26
BRANCH   1  31
HETATM   31  N3  UNL     1      19.971  -5.290  69.596  1.00  0.00    -0.311 N 
HETATM   32  C2  UNL     1      20.857  -5.800  68.597  1.00  0.00     0.315 C 
HETATM   33  O3  UNL     1      21.671  -5.013  68.002  1.00  0.00    -0.262 OA
ATOM     34  H3  UNL     1      19.003  -5.056  69.379  1.00  0.00     0.170 HD
BRANCH  32  35
HETATM   35  C1  UNL     1      20.889  -7.202  68.205  1.00  0.00     0.327 C 
HETATM   36  N2  UNL     1      19.835  -8.079  68.590  1.00  0.00    -0.240 N 
ATOM     37  H2  UNL     1      19.055  -7.726  69.144  1.00  0.00     0.188 HD
HETATM   38  O2  UNL     1      21.839  -7.646  67.530  1.00  0.00    -0.261 OA
BRANCH  36  39
HETATM   39  N1  UNL     1      19.871  -9.434  68.206  1.00  0.00     0.021 NA
BRANCH  39  40
HETATM   40  O1  UNL     1      20.863 -10.079  68.642  1.00  0.00    -0.277 OA
ATOM     41  H1  UNL     1      20.998 -10.925  68.231  1.00  0.00     0.240 HD
ENDBRANCH  39  40
ENDBRANCH  36  39
ENDBRANCH  32  35
ENDBRANCH   1  31
TORSDOF 14
ENDMDL
