MODEL 1
REMARK VINA RESULT: -4.621264005      0.000      0.000
REMARK  1 active torsions:
REMARK  status: ('A' for Active; 'I' for Inactive)
REMARK    1  A    between atoms: O1_2  and  C2_3 
REMARK       I    between atoms: N1_6  and  C5_7 
REMARK       I    between atoms: C5_7  and  N2_8 
REMARK       I    between atoms: C5_7  and  N3_12 
ROOT
HETATM    1  C2  UNL     1      20.543   3.109   7.409  1.00  0.00     0.151 C 
HETATM    2  C3  UNL     1      20.633   2.752   5.935  1.00  0.00     0.064 C 
HETATM    3  C4  UNL     1      19.856   3.812   5.217  1.00  0.00     0.280 C 
HETATM    4  N1  UNL     1      19.544   4.846   6.132  1.00  0.00     0.149 N 
HETATM    5  C5  UNL     1      19.847   6.172   5.696  1.00  0.00     0.612 C 
HETATM    6  N2  UNL     1      19.454   7.074   6.766  1.00  0.00    -0.024 N 
ATOM      7  H21 UNL     1      19.670   8.021   6.455  1.00  0.00     0.279 HD
ATOM      8  H22 UNL     1      19.880   6.840   7.663  1.00  0.00     0.279 HD
ATOM      9  H23 UNL     1      18.481   6.958   7.050  1.00  0.00     0.279 HD
HETATM   10  N3  UNL     1      19.126   6.456   4.472  1.00  0.00    -0.024 N 
ATOM     11  H31 UNL     1      19.342   7.403   4.161  1.00  0.00     0.279 HD
ATOM     12  H32 UNL     1      18.123   6.303   4.571  1.00  0.00     0.279 HD
ATOM     13  H33 UNL     1      19.308   5.762   3.747  1.00  0.00     0.279 HD
HETATM   14  C6  UNL     1      19.970   4.508   7.436  1.00  0.00     0.309 C 
ENDROOT
BRANCH   1  15
HETATM   15  O1  UNL     1      19.716   2.221   8.081  1.00  0.00    -0.389 OA
HETATM   16  C1  UNL     1      18.927   2.944   8.970  1.00  0.00     0.202 C 
ENDBRANCH   1  15
TORSDOF 1
ENDMDL
MODEL 2
REMARK VINA RESULT: -4.237566973      3.031      4.587
REMARK  1 active torsions:
REMARK  status: ('A' for Active; 'I' for Inactive)
REMARK    1  A    between atoms: O1_2  and  C2_3 
REMARK       I    between atoms: N1_6  and  C5_7 
REMARK       I    between atoms: C5_7  and  N2_8 
REMARK       I    between atoms: C5_7  and  N3_12 
ROOT
HETATM    1  C2  UNL     1      19.389   3.319   5.792  1.00  0.00     0.151 C 
HETATM    2  C3  UNL     1      20.455   3.623   6.831  1.00  0.00     0.064 C 
HETATM    3  C4  UNL     1      19.921   3.084   8.123  1.00  0.00     0.280 C 
HETATM    4  N1  UNL     1      18.770   2.307   7.852  1.00  0.00     0.149 N 
HETATM    5  C5  UNL     1      18.744   1.009   8.448  1.00  0.00     0.612 C 
HETATM    6  N2  UNL     1      17.494   0.382   8.052  1.00  0.00    -0.024 N 
ATOM      7  H21 UNL     1      17.475  -0.544   8.478  1.00  0.00     0.279 HD
ATOM      8  H22 UNL     1      17.360   0.361   7.041  1.00  0.00     0.279 HD
ATOM      9  H23 UNL     1      16.674   0.945   8.281  1.00  0.00     0.279 HD
HETATM   10  N3  UNL     1      18.840   1.136   9.888  1.00  0.00    -0.024 N 
ATOM     11  H31 UNL     1      18.821   0.209  10.314  1.00  0.00     0.279 HD
ATOM     12  H32 UNL     1      18.121   1.750  10.270  1.00  0.00     0.279 HD
ATOM     13  H33 UNL     1      19.658   1.674  10.173  1.00  0.00     0.279 HD
HETATM   14  C6  UNL     1      18.436   2.367   6.480  1.00  0.00     0.309 C 
ENDROOT
BRANCH   1  15
HETATM   15  O1  UNL     1      18.737   4.479   5.402  1.00  0.00    -0.389 OA
HETATM   16  C1  UNL     1      19.692   5.464   5.174  1.00  0.00     0.202 C 
ENDBRANCH   1  15
TORSDOF 1
ENDMDL
MODEL 3
REMARK VINA RESULT: -4.124167035      1.110      2.083
REMARK  1 active torsions:
REMARK  status: ('A' for Active; 'I' for Inactive)
REMARK    1  A    between atoms: O1_2  and  C2_3 
REMARK       I    between atoms: N1_6  and  C5_7 
REMARK       I    between atoms: C5_7  and  N2_8 
REMARK       I    between atoms: C5_7  and  N3_12 
ROOT
HETATM    1  C2  UNL     1      18.897   2.863   7.151  1.00  0.00     0.151 C 
HETATM    2  C3  UNL     1      18.691   3.719   8.389  1.00  0.00     0.064 C 
HETATM    3  C4  UNL     1      19.312   5.044   8.070  1.00  0.00     0.280 C 
HETATM    4  N1  UNL     1      19.634   5.076   6.693  1.00  0.00     0.149 N 
HETATM    5  C5  UNL     1      19.191   6.232   5.980  1.00  0.00     0.612 C 
HETATM    6  N2  UNL     1      19.618   6.072   4.600  1.00  0.00    -0.024 N 
ATOM      7  H21 UNL     1      19.302   6.897   4.090  1.00  0.00     0.279 HD
ATOM      8  H22 UNL     1      19.300   5.198   4.181  1.00  0.00     0.279 HD
ATOM      9  H23 UNL     1      20.620   5.905   4.508  1.00  0.00     0.279 HD
HETATM   10  N3  UNL     1      19.765   7.420   6.579  1.00  0.00    -0.024 N 
ATOM     11  H31 UNL     1      19.449   8.245   6.069  1.00  0.00     0.279 HD
ATOM     12  H32 UNL     1      20.782   7.369   6.636  1.00  0.00     0.279 HD
ATOM     13  H33 UNL     1      19.566   7.484   7.576  1.00  0.00     0.279 HD
HETATM   14  C6  UNL     1      19.364   3.830   6.085  1.00  0.00     0.309 C 
ENDROOT
BRANCH   1  15
HETATM   15  O1  UNL     1      19.851   1.883   7.383  1.00  0.00    -0.389 OA
HETATM   16  C1  UNL     1      19.374   1.035   8.378  1.00  0.00     0.202 C 
ENDBRANCH   1  15
TORSDOF 1
ENDMDL
MODEL 4
REMARK VINA RESULT: -4.089413904      2.944      4.630
REMARK  1 active torsions:
REMARK  status: ('A' for Active; 'I' for Inactive)
REMARK    1  A    between atoms: O1_2  and  C2_3 
REMARK       I    between atoms: N1_6  and  C5_7 
REMARK       I    between atoms: C5_7  and  N2_8 
REMARK       I    between atoms: C5_7  and  N3_12 
ROOT
HETATM    1  C2  UNL     1      20.077   3.949   7.327  1.00  0.00     0.151 C 
HETATM    2  C3  UNL     1      19.290   4.736   8.361  1.00  0.00     0.064 C 
HETATM    3  C4  UNL     1      18.177   3.831   8.793  1.00  0.00     0.280 C 
HETATM    4  N1  UNL     1      18.412   2.538   8.270  1.00  0.00     0.149 N 
HETATM    5  C5  UNL     1      18.316   1.463   9.205  1.00  0.00     0.612 C 
HETATM    6  N2  UNL     1      18.588   0.236   8.476  1.00  0.00    -0.024 N 
ATOM      7  H21 UNL     1      18.520  -0.532   9.144  1.00  0.00     0.279 HD
ATOM      8  H22 UNL     1      19.478   0.255   7.978  1.00  0.00     0.279 HD
ATOM      9  H23 UNL     1      17.986   0.113   7.662  1.00  0.00     0.279 HD
HETATM   10  N3  UNL     1      16.992   1.449   9.793  1.00  0.00    -0.024 N 
ATOM     11  H31 UNL     1      16.923   0.682  10.461  1.00  0.00     0.279 HD
ATOM     12  H32 UNL     1      16.258   1.412   9.086  1.00  0.00     0.279 HD
ATOM     13  H33 UNL     1      16.746   2.346  10.211  1.00  0.00     0.279 HD
HETATM   14  C6  UNL     1      19.551   2.535   7.434  1.00  0.00     0.309 C 
ENDROOT
BRANCH   1  15
HETATM   15  O1  UNL     1      19.868   4.460   6.055  1.00  0.00    -0.389 OA
HETATM   16  C1  UNL     1      20.178   3.470   5.128  1.00  0.00     0.202 C 
ENDBRANCH   1  15
TORSDOF 1
ENDMDL
MODEL 5
REMARK VINA RESULT: -4.072659508      2.665      4.350
REMARK  1 active torsions:
REMARK  status: ('A' for Active; 'I' for Inactive)
REMARK    1  A    between atoms: O1_2  and  C2_3 
REMARK       I    between atoms: N1_6  and  C5_7 
REMARK       I    between atoms: C5_7  and  N2_8 
REMARK       I    between atoms: C5_7  and  N3_12 
ROOT
HETATM    1  C2  UNL     1      19.648   5.160   7.223  1.00  0.00     0.151 C 
HETATM    2  C3  UNL     1      18.985   4.917   8.568  1.00  0.00     0.064 C 
HETATM    3  C4  UNL     1      18.563   3.481   8.554  1.00  0.00     0.280 C 
HETATM    4  N1  UNL     1      19.137   2.848   7.427  1.00  0.00     0.149 N 
HETATM    5  C5  UNL     1      19.811   1.615   7.683  1.00  0.00     0.612 C 
HETATM    6  N2  UNL     1      20.321   1.134   6.410  1.00  0.00    -0.024 N 
ATOM      7  H21 UNL     1      20.803   0.254   6.594  1.00  0.00     0.279 HD
ATOM      8  H22 UNL     1      20.906   1.817   5.930  1.00  0.00     0.279 HD
ATOM      9  H23 UNL     1      19.599   1.053   5.695  1.00  0.00     0.279 HD
HETATM   10  N3  UNL     1      18.886   0.670   8.275  1.00  0.00    -0.024 N 
ATOM     11  H31 UNL     1      19.368  -0.210   8.458  1.00  0.00     0.279 HD
ATOM     12  H32 UNL     1      18.051   0.541   7.705  1.00  0.00     0.279 HD
ATOM     13  H33 UNL     1      18.436   1.044   9.111  1.00  0.00     0.279 HD
HETATM   14  C6  UNL     1      19.832   3.782   6.627  1.00  0.00     0.309 C 
ENDROOT
BRANCH   1  15
HETATM   15  O1  UNL     1      18.843   5.947   6.412  1.00  0.00    -0.389 OA
HETATM   16  C1  UNL     1      19.320   5.863   5.107  1.00  0.00     0.202 C 
ENDBRANCH   1  15
TORSDOF 1
ENDMDL
