MODEL 1
REMARK VINA RESULT: -4.066086186      0.000      0.000
REMARK  2 active torsions:
REMARK  status: ('A' for Active; 'I' for Inactive)
REMARK    1  A    between atoms: N1_4  and  C4_5 
REMARK    2  A    between atoms: C4_5  and  C5_6 
ROOT
HETATM    1  C5  UNL     1      18.758   0.934   8.514  1.00  0.00     0.410 C 
HETATM    2  N2  UNL     1      17.436   1.477   8.235  1.00  0.00    -0.043 N 
ATOM      3  H21 UNL     1      17.008   1.145   7.372  1.00  0.00     0.279 HD
ATOM      4  H22 UNL     1      17.421   2.464   7.979  1.00  0.00     0.279 HD
HETATM    5  C6  UNL     1      16.711   1.148   9.441  1.00  0.00     0.262 C 
HETATM    6  C7  UNL     1      17.707   1.400  10.527  1.00  0.00     0.262 C 
HETATM    7  N3  UNL     1      18.982   1.326   9.885  1.00  0.00    -0.043 N 
ATOM      8  H31 UNL     1      19.519   2.189   9.969  1.00  0.00     0.279 HD
ATOM      9  H32 UNL     1      19.637   0.713  10.372  1.00  0.00     0.279 HD
ENDROOT
BRANCH   1  10
HETATM   10  C4  UNL     1      19.769   1.627   7.649  1.00  0.00     0.334 C 
BRANCH  10  11
HETATM   11  N1  UNL     1      19.205   2.769   6.946  1.00  0.00     0.092 N 
HETATM   12  C3  UNL     1      19.987   3.944   7.304  1.00  0.00     0.272 C 
HETATM   13  C2  UNL     1      19.800   4.811   6.076  1.00  0.00     0.032 C 
HETATM   14  C1  UNL     1      20.198   3.775   5.015  1.00  0.00     0.032 C 
HETATM   15  C8  UNL     1      19.375   2.606   5.504  1.00  0.00     0.272 C 
ENDBRANCH  10  11
ENDBRANCH   1  10
TORSDOF 2
ENDMDL
MODEL 2
REMARK VINA RESULT: -4.027396074      0.865      1.843
REMARK  2 active torsions:
REMARK  status: ('A' for Active; 'I' for Inactive)
REMARK    1  A    between atoms: N1_4  and  C4_5 
REMARK    2  A    between atoms: C4_5  and  C5_6 
ROOT
HETATM    1  C5  UNL     1      18.967   2.017   8.108  1.00  0.00     0.410 C 
HETATM    2  N2  UNL     1      19.146   1.225   9.317  1.00  0.00    -0.043 N 
ATOM      3  H21 UNL     1      19.815   1.605   9.985  1.00  0.00     0.279 HD
ATOM      4  H22 UNL     1      19.633   0.339   9.183  1.00  0.00     0.279 HD
HETATM    5  C6  UNL     1      17.792   1.108   9.808  1.00  0.00     0.262 C 
HETATM    6  C7  UNL     1      16.987   0.902   8.565  1.00  0.00     0.262 C 
HETATM    7  N3  UNL     1      17.795   1.425   7.508  1.00  0.00    -0.043 N 
ATOM      8  H31 UNL     1      18.020   0.728   6.799  1.00  0.00     0.279 HD
ATOM      9  H32 UNL     1      17.288   2.072   6.904  1.00  0.00     0.279 HD
ENDROOT
BRANCH   1  10
HETATM   10  C4  UNL     1      20.135   1.792   7.193  1.00  0.00     0.334 C 
BRANCH  10  11
HETATM   11  N1  UNL     1      20.615   3.030   6.596  1.00  0.00     0.092 N 
HETATM   12  C3  UNL     1      20.092   3.102   5.239  1.00  0.00     0.272 C 
HETATM   13  C2  UNL     1      20.041   4.600   5.020  1.00  0.00     0.032 C 
HETATM   14  C1  UNL     1      19.261   4.979   6.287  1.00  0.00     0.032 C 
HETATM   15  C8  UNL     1      20.049   4.179   7.299  1.00  0.00     0.272 C 
ENDBRANCH  10  11
ENDBRANCH   1  10
TORSDOF 2
ENDMDL
MODEL 3
REMARK VINA RESULT: -4.026102348      2.589      4.337
REMARK  2 active torsions:
REMARK  status: ('A' for Active; 'I' for Inactive)
REMARK    1  A    between atoms: N1_4  and  C4_5 
REMARK    2  A    between atoms: C4_5  and  C5_6 
ROOT
HETATM    1  C5  UNL     1      18.385   3.358   4.857  1.00  0.00     0.410 C 
HETATM    2  N2  UNL     1      18.127   1.929   4.746  1.00  0.00    -0.043 N 
ATOM      3  H21 UNL     1      18.148   1.418   5.628  1.00  0.00     0.279 HD
ATOM      4  H22 UNL     1      18.872   1.390   4.303  1.00  0.00     0.279 HD
HETATM    5  C6  UNL     1      16.860   1.900   4.055  1.00  0.00     0.262 C 
HETATM    6  C7  UNL     1      16.989   2.993   3.043  1.00  0.00     0.262 C 
HETATM    7  N3  UNL     1      18.010   3.852   3.553  1.00  0.00    -0.043 N 
ATOM      8  H31 UNL     1      18.805   3.944   2.921  1.00  0.00     0.279 HD
ATOM      9  H32 UNL     1      17.734   4.834   3.566  1.00  0.00     0.279 HD
ENDROOT
BRANCH   1  10
HETATM   10  C4  UNL     1      19.856   3.582   5.047  1.00  0.00     0.334 C 
BRANCH  10  11
HETATM   11  N1  UNL     1      20.164   4.148   6.352  1.00  0.00     0.092 N 
HETATM   12  C3  UNL     1      18.947   4.755   6.873  1.00  0.00     0.272 C 
HETATM   13  C2  UNL     1      19.178   4.649   8.366  1.00  0.00     0.032 C 
HETATM   14  C1  UNL     1      19.514   3.152   8.429  1.00  0.00     0.032 C 
HETATM   15  C8  UNL     1      20.508   3.084   7.292  1.00  0.00     0.272 C 
ENDBRANCH  10  11
ENDBRANCH   1  10
TORSDOF 2
ENDMDL
MODEL 4
REMARK VINA RESULT: -4.015004801      1.186      1.443
REMARK  2 active torsions:
REMARK  status: ('A' for Active; 'I' for Inactive)
REMARK    1  A    between atoms: N1_4  and  C4_5 
REMARK    2  A    between atoms: C4_5  and  C5_6 
ROOT
HETATM    1  C5  UNL     1      19.704   1.740   7.698  1.00  0.00     0.410 C 
HETATM    2  N2  UNL     1      18.320   1.640   7.256  1.00  0.00    -0.043 N 
ATOM      3  H21 UNL     1      18.191   1.207   6.342  1.00  0.00     0.279 HD
ATOM      4  H22 UNL     1      17.882   2.527   7.009  1.00  0.00     0.279 HD
HETATM    5  C6  UNL     1      17.699   0.938   8.356  1.00  0.00     0.262 C 
HETATM    6  C7  UNL     1      18.342   1.543   9.563  1.00  0.00     0.262 C 
HETATM    7  N3  UNL     1      19.570   2.099   9.090  1.00  0.00    -0.043 N 
ATOM      8  H31 UNL     1      19.638   3.104   9.249  1.00  0.00     0.279 HD
ATOM      9  H32 UNL     1      20.375   1.820   9.651  1.00  0.00     0.279 HD
ENDROOT
BRANCH   1  10
HETATM   10  C4  UNL     1      20.372   2.873   6.976  1.00  0.00     0.334 C 
BRANCH  10  11
HETATM   11  N1  UNL     1      19.423   3.885   6.537  1.00  0.00     0.092 N 
HETATM   12  C3  UNL     1      19.723   5.117   7.253  1.00  0.00     0.272 C 
HETATM   13  C2  UNL     1      19.221   6.159   6.275  1.00  0.00     0.032 C 
HETATM   14  C1  UNL     1      19.964   5.660   5.027  1.00  0.00     0.032 C 
HETATM   15  C8  UNL     1      19.631   4.189   5.124  1.00  0.00     0.272 C 
ENDBRANCH  10  11
ENDBRANCH   1  10
TORSDOF 2
ENDMDL
MODEL 5
REMARK VINA RESULT: -3.999749951      3.129      4.619
REMARK  2 active torsions:
REMARK  status: ('A' for Active; 'I' for Inactive)
REMARK    1  A    between atoms: N1_4  and  C4_5 
REMARK    2  A    between atoms: C4_5  and  C5_6 
ROOT
HETATM    1  C5  UNL     1      18.545   6.837   6.511  1.00  0.00     0.410 C 
HETATM    2  N2  UNL     1      18.502   7.064   7.948  1.00  0.00    -0.043 N 
ATOM      3  H21 UNL     1      19.166   7.756   8.294  1.00  0.00     0.279 HD
ATOM      4  H22 UNL     1      18.856   6.295   8.517  1.00  0.00     0.279 HD
HETATM    5  C6  UNL     1      17.112   7.393   8.164  1.00  0.00     0.262 C 
HETATM    6  C7  UNL     1      16.386   6.449   7.259  1.00  0.00     0.262 C 
HETATM    7  N3  UNL     1      17.346   6.067   6.273  1.00  0.00    -0.043 N 
ATOM      8  H31 UNL     1      17.518   5.062   6.252  1.00  0.00     0.279 HD
ATOM      9  H32 UNL     1      16.996   6.163   5.319  1.00  0.00     0.279 HD
ENDROOT
BRANCH   1  10
HETATM   10  C4  UNL     1      19.733   5.982   6.181  1.00  0.00     0.334 C 
BRANCH  10  11
HETATM   11  N1  UNL     1      19.425   4.561   6.244  1.00  0.00     0.092 N 
HETATM   12  C3  UNL     1      20.027   3.923   5.081  1.00  0.00     0.272 C 
HETATM   13  C2  UNL     1      20.254   2.518   5.598  1.00  0.00     0.032 C 
HETATM   14  C1  UNL     1      21.000   2.879   6.891  1.00  0.00     0.032 C 
HETATM   15  C8  UNL     1      20.074   3.957   7.405  1.00  0.00     0.272 C 
ENDBRANCH  10  11
ENDBRANCH   1  10
TORSDOF 2
ENDMDL
