MODEL 1
REMARK VINA RESULT: -5.416533303      0.000      0.000
REMARK  3 active torsions:
REMARK  status: ('A' for Active; 'I' for Inactive)
REMARK    1  A    between atoms: C2_2  and  N1_5 
REMARK    2  A    between atoms: N1_5  and  C5_7 
REMARK    3  A    between atoms: C6_11  and  N3_12 
ROOT
HETATM    1  C5  UNL     1      11.905  29.842 -19.351  1.00  0.00     0.134 A 
HETATM    2  N2  UNL     1      11.065  29.473 -18.366  1.00  0.00    -0.309 N 
ATOM      3  H2  UNL     1      10.105  29.196 -18.570  1.00  0.00     0.176 HD
HETATM    4  S1  UNL     1      11.652  29.483 -16.790  1.00  0.00     0.006 SA
HETATM    5  C6  UNL     1      13.274  29.979 -16.698  1.00  0.00     0.107 A 
HETATM    6  C7  UNL     1      13.847  30.292 -17.922  1.00  0.00     0.107 A 
HETATM    7  C8  UNL     1      15.250  30.723 -17.861  1.00  0.00     0.104 C 
HETATM    8  N4  UNL     1      16.357  31.061 -17.792  1.00  0.00    -0.191 NA
HETATM    9  C9  UNL     1      13.219  30.228 -19.128  1.00  0.00     0.114 A 
HETATM   10  N5  UNL     1      14.030  30.606 -20.271  1.00  0.00    -0.097 NA
ENDROOT
BRANCH   5  11
HETATM   11  N3  UNL     1      13.909  30.056 -15.577  1.00  0.00    -0.391 N 
ATOM     12  H32 UNL     1      14.144  29.241 -15.010  1.00  0.00     0.157 HD
ATOM     13  H31 UNL     1      14.220  30.945 -15.186  1.00  0.00     0.157 HD
ENDBRANCH   5  11
BRANCH   1  14
HETATM   14  N1  UNL     1      11.544  29.864 -20.582  1.00  0.00    -0.366 N 
ATOM     15  H1  UNL     1      12.262  30.202 -21.222  1.00  0.00     0.162 HD
BRANCH  14  16
HETATM   16  C2  UNL     1      10.340  29.508 -21.205  1.00  0.00     0.021 C 
HETATM   17  C1  UNL     1       9.122  30.271 -20.764  1.00  0.00     0.037 C 
HETATM   18  C3  UNL     1      10.522  29.856 -22.699  1.00  0.00     0.037 C 
HETATM   19  C4  UNL     1      10.030  28.020 -21.198  1.00  0.00     0.037 C 
ENDBRANCH  14  16
ENDBRANCH   1  14
TORSDOF 3
ENDMDL
MODEL 2
REMARK VINA RESULT: -5.288559607      2.138      5.098
REMARK  3 active torsions:
REMARK  status: ('A' for Active; 'I' for Inactive)
REMARK    1  A    between atoms: C2_2  and  N1_5 
REMARK    2  A    between atoms: N1_5  and  C5_7 
REMARK    3  A    between atoms: C6_11  and  N3_12 
ROOT
HETATM    1  C5  UNL     1      11.796  30.068 -19.436  1.00  0.00     0.134 A 
HETATM    2  N2  UNL     1      10.469  30.228 -19.274  1.00  0.00    -0.309 N 
ATOM      3  H2  UNL     1      10.082  30.549 -18.386  1.00  0.00     0.176 HD
HETATM    4  S1  UNL     1       9.472  29.882 -20.583  1.00  0.00     0.006 SA
HETATM    5  C6  UNL     1      10.338  29.366 -21.949  1.00  0.00     0.107 A 
HETATM    6  C7  UNL     1      11.713  29.314 -21.769  1.00  0.00     0.107 A 
HETATM    7  C8  UNL     1      12.479  28.868 -22.940  1.00  0.00     0.104 C 
HETATM    8  N4  UNL     1      13.066  28.515 -23.877  1.00  0.00    -0.191 NA
HETATM    9  C9  UNL     1      12.372  29.634 -20.621  1.00  0.00     0.114 A 
HETATM   10  N5  UNL     1      13.816  29.499 -20.677  1.00  0.00    -0.097 NA
ENDROOT
BRANCH   5  11
HETATM   11  N3  UNL     1       9.757  29.051 -23.058  1.00  0.00    -0.391 N 
ATOM     12  H32 UNL     1      10.262  28.888 -23.929  1.00  0.00     0.157 HD
ATOM     13  H31 UNL     1       8.745  28.943 -23.131  1.00  0.00     0.157 HD
ENDBRANCH   5  11
BRANCH   1  14
HETATM   14  N1  UNL     1      12.631  30.308 -18.493  1.00  0.00    -0.366 N 
ATOM     15  H1  UNL     1      13.539  30.645 -18.814  1.00  0.00     0.162 HD
BRANCH  14  16
HETATM   16  C2  UNL     1      12.522  30.192 -17.100  1.00  0.00     0.021 C 
HETATM   17  C1  UNL     1      11.696  29.037 -16.602  1.00  0.00     0.037 C 
HETATM   18  C3  UNL     1      13.953  29.922 -16.589  1.00  0.00     0.037 C 
HETATM   19  C4  UNL     1      12.094  31.461 -16.382  1.00  0.00     0.037 C 
ENDBRANCH  14  16
ENDBRANCH   1  14
TORSDOF 3
ENDMDL
MODEL 3
REMARK VINA RESULT: -5.084595550      5.324      7.850
REMARK  3 active torsions:
REMARK  status: ('A' for Active; 'I' for Inactive)
REMARK    1  A    between atoms: C2_2  and  N1_5 
REMARK    2  A    between atoms: N1_5  and  C5_7 
REMARK    3  A    between atoms: C6_11  and  N3_12 
ROOT
HETATM    1  C5  UNL     1       9.875  26.411 -23.382  1.00  0.00     0.134 A 
HETATM    2  N2  UNL     1       8.543  26.575 -23.497  1.00  0.00    -0.309 N 
ATOM      3  H2  UNL     1       8.111  27.488 -23.362  1.00  0.00     0.176 HD
HETATM    4  S1  UNL     1       7.617  25.221 -23.869  1.00  0.00     0.006 SA
HETATM    5  C6  UNL     1       8.552  23.815 -24.045  1.00  0.00     0.107 A 
HETATM    6  C7  UNL     1       9.913  24.005 -23.856  1.00  0.00     0.107 A 
HETATM    7  C8  UNL     1      10.739  22.799 -24.003  1.00  0.00     0.104 C 
HETATM    8  N4  UNL     1      11.372  21.835 -24.124  1.00  0.00    -0.191 NA
HETATM    9  C9  UNL     1      10.511  25.191 -23.553  1.00  0.00     0.114 A 
HETATM   10  N5  UNL     1      11.954  25.138 -23.403  1.00  0.00    -0.097 NA
ENDROOT
BRANCH   5  11
HETATM   11  N3  UNL     1       8.030  22.669 -24.330  1.00  0.00    -0.391 N 
ATOM     12  H32 UNL     1       8.044  22.265 -25.267  1.00  0.00     0.157 HD
ATOM     13  H31 UNL     1       7.567  22.091 -23.629  1.00  0.00     0.157 HD
ENDBRANCH   5  11
BRANCH   1  14
HETATM   14  N1  UNL     1      10.658  27.387 -23.100  1.00  0.00    -0.366 N 
ATOM     15  H1  UNL     1      11.536  27.381 -23.618  1.00  0.00     0.162 HD
BRANCH  14  16
HETATM   16  C2  UNL     1      10.525  28.461 -22.208  1.00  0.00     0.021 C 
HETATM   17  C1  UNL     1      10.073  28.106 -20.818  1.00  0.00     0.037 C 
HETATM   18  C3  UNL     1      11.945  29.044 -22.041  1.00  0.00     0.037 C 
HETATM   19  C4  UNL     1       9.695  29.624 -22.725  1.00  0.00     0.037 C 
ENDBRANCH  14  16
ENDBRANCH   1  14
TORSDOF 3
ENDMDL
MODEL 4
REMARK VINA RESULT: -5.051528994      5.470      8.210
REMARK  3 active torsions:
REMARK  status: ('A' for Active; 'I' for Inactive)
REMARK    1  A    between atoms: C2_2  and  N1_5 
REMARK    2  A    between atoms: N1_5  and  C5_7 
REMARK    3  A    between atoms: C6_11  and  N3_12 
ROOT
HETATM    1  C5  UNL     1       9.702  26.242 -23.200  1.00  0.00     0.134 A 
HETATM    2  N2  UNL     1      10.740  25.428 -22.932  1.00  0.00    -0.309 N 
ATOM      3  H2  UNL     1      11.679  25.800 -22.794  1.00  0.00     0.176 HD
HETATM    4  S1  UNL     1      10.436  23.777 -22.830  1.00  0.00     0.006 SA
HETATM    5  C6  UNL     1       8.803  23.393 -23.094  1.00  0.00     0.107 A 
HETATM    6  C7  UNL     1       7.991  24.489 -23.348  1.00  0.00     0.107 A 
HETATM    7  C8  UNL     1       6.575  24.177 -23.580  1.00  0.00     0.104 C 
HETATM    8  N4  UNL     1       5.461  23.909 -23.760  1.00  0.00    -0.191 NA
HETATM    9  C9  UNL     1       8.406  25.786 -23.395  1.00  0.00     0.114 A 
HETATM   10  N5  UNL     1       7.368  26.760 -23.680  1.00  0.00    -0.097 NA
ENDROOT
BRANCH   5  11
HETATM   11  N3  UNL     1       8.364  22.180 -23.060  1.00  0.00    -0.391 N 
ATOM     12  H32 UNL     1       8.598  21.520 -22.317  1.00  0.00     0.157 HD
ATOM     13  H31 UNL     1       7.750  21.801 -23.781  1.00  0.00     0.157 HD
ENDBRANCH   5  11
BRANCH   1  14
HETATM   14  N1  UNL     1       9.841  27.513 -23.296  1.00  0.00    -0.366 N 
ATOM     15  H1  UNL     1       9.530  27.901 -24.186  1.00  0.00     0.162 HD
BRANCH  14  16
HETATM   16  C2  UNL     1      10.342  28.466 -22.398  1.00  0.00     0.021 C 
HETATM   17  C1  UNL     1      11.795  28.819 -22.561  1.00  0.00     0.037 C 
HETATM   18  C3  UNL     1       9.568  29.769 -22.694  1.00  0.00     0.037 C 
HETATM   19  C4  UNL     1      10.057  28.179 -20.933  1.00  0.00     0.037 C 
ENDBRANCH  14  16
ENDBRANCH   1  14
TORSDOF 3
ENDMDL
MODEL 5
REMARK VINA RESULT: -4.954267594      1.784      5.008
REMARK  3 active torsions:
REMARK  status: ('A' for Active; 'I' for Inactive)
REMARK    1  A    between atoms: C2_2  and  N1_5 
REMARK    2  A    between atoms: N1_5  and  C5_7 
REMARK    3  A    between atoms: C6_11  and  N3_12 
ROOT
HETATM    1  C5  UNL     1      12.391  30.192 -17.689  1.00  0.00     0.134 A 
HETATM    2  N2  UNL     1      12.037  29.681 -16.494  1.00  0.00    -0.309 N 
ATOM      3  H2  UNL     1      12.469  30.011 -15.632  1.00  0.00     0.176 HD
HETATM    4  S1  UNL     1      10.858  28.482 -16.473  1.00  0.00     0.006 SA
HETATM    5  C6  UNL     1      10.287  28.097 -18.025  1.00  0.00     0.107 A 
HETATM    6  C7  UNL     1      10.876  28.824 -19.049  1.00  0.00     0.107 A 
HETATM    7  C8  UNL     1      10.395  28.504 -20.399  1.00  0.00     0.104 C 
HETATM    8  N4  UNL     1      10.000  28.236 -21.457  1.00  0.00    -0.191 NA
HETATM    9  C9  UNL     1      11.835  29.778 -18.890  1.00  0.00     0.114 A 
HETATM   10  N5  UNL     1      12.298  30.402 -20.116  1.00  0.00    -0.097 NA
ENDROOT
BRANCH   5  11
HETATM   11  N3  UNL     1       9.380  27.200 -18.224  1.00  0.00    -0.391 N 
ATOM     12  H32 UNL     1       8.756  26.861 -17.491  1.00  0.00     0.157 HD
ATOM     13  H31 UNL     1       9.229  26.770 -19.137  1.00  0.00     0.157 HD
ENDBRANCH   5  11
BRANCH   1  14
HETATM   14  N1  UNL     1      13.281  31.109 -17.800  1.00  0.00    -0.366 N 
ATOM     15  H1  UNL     1      12.911  32.018 -18.079  1.00  0.00     0.162 HD
BRANCH  14  16
HETATM   16  C2  UNL     1      14.669  31.088 -17.608  1.00  0.00     0.021 C 
HETATM   17  C1  UNL     1      15.501  30.939 -18.852  1.00  0.00     0.037 C 
HETATM   18  C3  UNL     1      15.034  32.475 -17.036  1.00  0.00     0.037 C 
HETATM   19  C4  UNL     1      15.156  30.104 -16.557  1.00  0.00     0.037 C 
ENDBRANCH  14  16
ENDBRANCH   1  14
TORSDOF 3
ENDMDL
