MODEL 1
REMARK VINA RESULT: -5.449065695      0.000      0.000
REMARK  3 active torsions:
REMARK  status: ('A' for Active; 'I' for Inactive)
REMARK    1  A    between atoms: C3_4  and  N2_5 
REMARK    2  A    between atoms: N3_7  and  C4_9 
REMARK    3  A    between atoms: C5_16  and  N6_17 
ROOT
HETATM    1  N1  UNL     1      14.405  31.092 -18.994  1.00  0.00    -0.191 NA
HETATM    2  C1  UNL     1      13.492  30.582 -18.497  1.00  0.00     0.107 C 
HETATM    3  C2  UNL     1      12.350  29.938 -17.902  1.00  0.00     0.136 A 
HETATM    4  C3  UNL     1      11.274  29.394 -18.576  1.00  0.00     0.159 A 
HETATM    5  N4  UNL     1      10.469  28.912 -17.602  1.00  0.00    -0.281 N 
ATOM      6  H4  UNL     1       9.580  28.441 -17.770  1.00  0.00     0.188 HD
HETATM    7  N5  UNL     1      10.982  29.126 -16.408  1.00  0.00    -0.283 N 
ATOM      8  H5  UNL     1      10.558  28.853 -15.521  1.00  0.00     0.188 HD
HETATM    9  C5  UNL     1      12.158  29.765 -16.549  1.00  0.00     0.138 A 
ENDROOT
BRANCH   4  10
HETATM   10  N2  UNL     1      11.081  29.364 -19.982  1.00  0.00    -0.282 N 
HETATM   11  N3  UNL     1      10.324  28.514 -20.550  1.00  0.00    -0.282 N 
ATOM     12  H3  UNL     1       9.837  27.831 -19.970  1.00  0.00     0.188 HD
ATOM     13  H2  UNL     1      11.569  30.049 -20.559  1.00  0.00     0.188 HD
BRANCH  11  14
HETATM   14  C4  UNL     1      10.126  28.475 -21.950  1.00  0.00     0.164 C 
HETATM   15  S1  UNL     1       9.917  29.920 -22.710  1.00  0.00    -0.050 SA
HETATM   16  S2  UNL     1      10.097  26.956 -22.888  1.00  0.00    -0.019 SA
ENDBRANCH  11  14
ENDBRANCH   4  10
BRANCH   9  17
HETATM   17  N6  UNL     1      12.934  30.132 -15.577  1.00  0.00    -0.383 N 
ATOM     18  H62 UNL     1      13.865  30.532 -15.685  1.00  0.00     0.157 HD
ATOM     19  H61 UNL     1      12.752  30.085 -14.574  1.00  0.00     0.157 HD
ENDBRANCH   9  17
TORSDOF 3
ENDMDL
MODEL 2
REMARK VINA RESULT: -5.293990471      3.494      5.408
REMARK  3 active torsions:
REMARK  status: ('A' for Active; 'I' for Inactive)
REMARK    1  A    between atoms: C3_4  and  N2_5 
REMARK    2  A    between atoms: N3_7  and  C4_9 
REMARK    3  A    between atoms: C5_16  and  N6_17 
ROOT
HETATM    1  N1  UNL     1      12.681  28.362 -23.082  1.00  0.00    -0.191 NA
HETATM    2  C1  UNL     1      11.862  28.866 -22.438  1.00  0.00     0.107 C 
HETATM    3  C2  UNL     1      10.861  29.500 -21.620  1.00  0.00     0.136 A 
HETATM    4  C3  UNL     1      11.024  29.943 -20.322  1.00  0.00     0.159 A 
HETATM    5  N4  UNL     1       9.821  30.459 -19.983  1.00  0.00    -0.281 N 
ATOM      6  H4  UNL     1       9.608  30.875 -19.076  1.00  0.00     0.188 HD
HETATM    7  N5  UNL     1       8.960  30.357 -20.974  1.00  0.00    -0.283 N 
ATOM      8  H5  UNL     1       7.991  30.675 -20.955  1.00  0.00     0.188 HD
HETATM    9  C5  UNL     1       9.568  29.764 -22.018  1.00  0.00     0.138 A 
ENDROOT
BRANCH   4  10
HETATM   10  N2  UNL     1      12.207  29.860 -19.540  1.00  0.00    -0.282 N 
HETATM   11  N3  UNL     1      12.406  30.596 -18.522  1.00  0.00    -0.282 N 
ATOM     12  H3  UNL     1      11.686  31.269 -18.259  1.00  0.00     0.188 HD
ATOM     13  H2  UNL     1      12.924  29.186 -19.806  1.00  0.00     0.188 HD
BRANCH  11  14
HETATM   14  C4  UNL     1      13.580  30.522 -17.737  1.00  0.00     0.164 C 
HETATM   15  S1  UNL     1      13.464  29.723 -16.303  1.00  0.00    -0.050 SA
HETATM   16  S2  UNL     1      15.134  31.245 -18.238  1.00  0.00    -0.019 SA
ENDBRANCH  11  14
ENDBRANCH   4  10
BRANCH   9  17
HETATM   17  N6  UNL     1       9.014  29.506 -23.161  1.00  0.00    -0.383 N 
ATOM     18  H62 UNL     1       8.980  30.142 -23.957  1.00  0.00     0.157 HD
ATOM     19  H61 UNL     1       8.535  28.653 -23.450  1.00  0.00     0.157 HD
ENDBRANCH   9  17
TORSDOF 3
ENDMDL
MODEL 3
REMARK VINA RESULT: -5.260704612      1.339      1.655
REMARK  3 active torsions:
REMARK  status: ('A' for Active; 'I' for Inactive)
REMARK    1  A    between atoms: C3_4  and  N2_5 
REMARK    2  A    between atoms: N3_7  and  C4_9 
REMARK    3  A    between atoms: C5_16  and  N6_17 
ROOT
HETATM    1  N1  UNL     1      14.902  31.154 -19.631  1.00  0.00    -0.191 NA
HETATM    2  C1  UNL     1      14.275  30.813 -18.719  1.00  0.00     0.107 C 
HETATM    3  C2  UNL     1      13.478  30.382 -17.600  1.00  0.00     0.136 A 
HETATM    4  C3  UNL     1      12.126  30.097 -17.620  1.00  0.00     0.159 A 
HETATM    5  N4  UNL     1      11.834  29.739 -16.349  1.00  0.00    -0.281 N 
ATOM      6  H4  UNL     1      10.906  29.464 -16.028  1.00  0.00     0.188 HD
HETATM    7  N5  UNL     1      12.901  29.790 -15.580  1.00  0.00    -0.283 N 
ATOM      8  H5  UNL     1      12.928  29.566 -14.586  1.00  0.00     0.188 HD
HETATM    9  C5  UNL     1      13.952  30.188 -16.321  1.00  0.00     0.138 A 
ENDROOT
BRANCH   4  10
HETATM   10  N2  UNL     1      11.260  30.172 -18.743  1.00  0.00    -0.282 N 
HETATM   11  N3  UNL     1      11.144  29.222 -19.581  1.00  0.00    -0.282 N 
ATOM     12  H3  UNL     1      11.694  28.375 -19.437  1.00  0.00     0.188 HD
ATOM     13  H2  UNL     1      10.711  31.019 -18.883  1.00  0.00     0.188 HD
BRANCH  11  14
HETATM   14  C4  UNL     1      10.284  29.286 -20.702  1.00  0.00     0.164 C 
HETATM   15  S1  UNL     1       9.289  30.594 -20.799  1.00  0.00    -0.050 SA
HETATM   16  S2  UNL     1      10.248  28.035 -21.975  1.00  0.00    -0.019 SA
ENDBRANCH  11  14
ENDBRANCH   4  10
BRANCH   9  17
HETATM   17  N6  UNL     1      15.161  30.346 -15.884  1.00  0.00    -0.383 N 
ATOM     18  H62 UNL     1      15.821  31.050 -16.214  1.00  0.00     0.157 HD
ATOM     19  H61 UNL     1      15.644  29.813 -15.160  1.00  0.00     0.157 HD
ENDBRANCH   9  17
TORSDOF 3
ENDMDL
MODEL 4
REMARK VINA RESULT: -5.105113115      3.508      4.767
REMARK  3 active torsions:
REMARK  status: ('A' for Active; 'I' for Inactive)
REMARK    1  A    between atoms: C3_4  and  N2_5 
REMARK    2  A    between atoms: N3_7  and  C4_9 
REMARK    3  A    between atoms: C5_16  and  N6_17 
ROOT
HETATM    1  N1  UNL     1      10.054  27.758 -18.713  1.00  0.00    -0.191 NA
HETATM    2  C1  UNL     1      10.030  28.328 -19.720  1.00  0.00     0.107 C 
HETATM    3  C2  UNL     1       9.995  29.014 -20.986  1.00  0.00     0.136 A 
HETATM    4  C3  UNL     1      10.011  28.428 -22.236  1.00  0.00     0.159 A 
HETATM    5  N4  UNL     1       9.964  29.466 -23.101  1.00  0.00    -0.281 N 
ATOM      6  H4  UNL     1       9.961  29.370 -24.117  1.00  0.00     0.188 HD
HETATM    7  N5  UNL     1       9.923  30.618 -22.464  1.00  0.00    -0.283 N 
ATOM      8  H5  UNL     1       9.884  31.538 -22.903  1.00  0.00     0.188 HD
HETATM    9  C5  UNL     1       9.940  30.383 -21.140  1.00  0.00     0.138 A 
ENDROOT
BRANCH   4  10
HETATM   10  N2  UNL     1      10.065  27.037 -22.520  1.00  0.00    -0.282 N 
HETATM   11  N3  UNL     1       9.956  26.576 -23.700  1.00  0.00    -0.282 N 
ATOM     12  H3  UNL     1       9.826  27.233 -24.470  1.00  0.00     0.188 HD
ATOM     13  H2  UNL     1      10.196  26.384 -21.748  1.00  0.00     0.188 HD
BRANCH  11  14
HETATM   14  C4  UNL     1      10.007  25.193 -23.993  1.00  0.00     0.164 C 
HETATM   15  S1  UNL     1       9.506  24.735 -25.493  1.00  0.00    -0.050 SA
HETATM   16  S2  UNL     1      10.581  23.971 -22.827  1.00  0.00    -0.019 SA
ENDBRANCH  11  14
ENDBRANCH   4  10
BRANCH   9  17
HETATM   17  N6  UNL     1       9.910  31.291 -20.216  1.00  0.00    -0.383 N 
ATOM     18  H62 UNL     1      10.721  31.648 -19.713  1.00  0.00     0.157 HD
ATOM     19  H61 UNL     1       9.098  31.787 -19.847  1.00  0.00     0.157 HD
ENDBRANCH   9  17
TORSDOF 3
ENDMDL
MODEL 5
REMARK VINA RESULT: -4.995429675      3.291      5.445
REMARK  3 active torsions:
REMARK  status: ('A' for Active; 'I' for Inactive)
REMARK    1  A    between atoms: C3_4  and  N2_5 
REMARK    2  A    between atoms: N3_7  and  C4_9 
REMARK    3  A    between atoms: C5_16  and  N6_17 
ROOT
HETATM    1  N1  UNL     1       9.677  32.332 -20.513  1.00  0.00    -0.191 NA
HETATM    2  C1  UNL     1       9.781  31.259 -20.935  1.00  0.00     0.107 C 
HETATM    3  C2  UNL     1       9.910  29.915 -21.435  1.00  0.00     0.136 A 
HETATM    4  C3  UNL     1      10.205  28.789 -20.692  1.00  0.00     0.159 A 
HETATM    5  N4  UNL     1      10.217  27.779 -21.591  1.00  0.00    -0.281 N 
ATOM      6  H4  UNL     1      10.406  26.804 -21.359  1.00  0.00     0.188 HD
HETATM    7  N5  UNL     1       9.954  28.216 -22.805  1.00  0.00    -0.283 N 
ATOM      8  H5  UNL     1       9.908  27.641 -23.646  1.00  0.00     0.188 HD
HETATM    9  C5  UNL     1       9.755  29.546 -22.754  1.00  0.00     0.138 A 
ENDROOT
BRANCH   4  10
HETATM   10  N2  UNL     1      10.440  28.735 -19.292  1.00  0.00    -0.282 N 
HETATM   11  N3  UNL     1      11.418  29.331 -18.740  1.00  0.00    -0.282 N 
ATOM     12  H3  UNL     1      12.057  29.868 -19.327  1.00  0.00     0.188 HD
ATOM     13  H2  UNL     1       9.800  28.198 -18.708  1.00  0.00     0.188 HD
BRANCH  11  14
HETATM   14  C4  UNL     1      11.661  29.283 -17.347  1.00  0.00     0.164 C 
HETATM   15  S1  UNL     1      10.598  28.414 -16.439  1.00  0.00    -0.050 SA
HETATM   16  S2  UNL     1      13.040  30.107 -16.570  1.00  0.00    -0.019 SA
ENDBRANCH  11  14
ENDBRANCH   4  10
BRANCH   9  17
HETATM   17  N6  UNL     1       9.473  30.301 -23.769  1.00  0.00    -0.383 N 
ATOM     18  H62 UNL     1      10.118  30.543 -24.521  1.00  0.00     0.157 HD
ATOM     19  H61 UNL     1       8.591  30.767 -23.981  1.00  0.00     0.157 HD
ENDBRANCH   9  17
TORSDOF 3
ENDMDL
