MODEL 1
REMARK VINA RESULT: -5.055367638      0.000      0.000
REMARK  2 active torsions:
REMARK  status: ('A' for Active; 'I' for Inactive)
REMARK    1  A    between atoms: C2_2  and  C4_4 
REMARK    2  A    between atoms: C7_10  and  O1_12 
ROOT
HETATM    1  C4  UNL     1       9.951  27.153 -23.138  1.00  0.00     0.211 C 
HETATM    2  N1  UNL     1       8.655  26.778 -23.568  1.00  0.00    -0.386 N 
ATOM      3  H1  UNL     1       8.021  27.451 -23.998  1.00  0.00     0.156 HD
HETATM    4  C5  UNL     1       8.278  25.432 -23.373  1.00  0.00     0.158 C 
HETATM    5  S1  UNL     1       8.245  24.811 -21.686  1.00  0.00    -0.104 SA
HETATM    6  C6  UNL     1       8.534  23.457 -22.821  1.00  0.00     0.039 C 
HETATM    7  C7  UNL     1       8.176  22.194 -22.910  1.00  0.00     0.163 C 
HETATM    8  N2  UNL     1       7.345  21.648 -21.909  1.00  0.00    -0.074 NA
HETATM    9  C8  UNL     1       9.372  24.423 -23.619  1.00  0.00     0.110 C 
HETATM   10  C9  UNL     1      10.579  24.843 -22.847  1.00  0.00     0.260 A 
HETATM   11  O2  UNL     1      11.633  25.477 -23.488  1.00  0.00    -0.275 OA
HETATM   12  N3  UNL     1      10.748  26.148 -22.549  1.00  0.00    -0.136 NA
ENDROOT
BRANCH   7  13
HETATM   13  O1  UNL     1       8.589  21.404 -23.948  1.00  0.00    -0.348 OA
ATOM     14  H1  UNL     1       8.968  20.546 -23.800  1.00  0.00     0.219 HD
ENDBRANCH   7  13
BRANCH   1  15
HETATM   15  C2  UNL     1       9.913  28.327 -22.194  1.00  0.00    -0.055 C 
HETATM   16  C1  UNL     1      10.125  28.125 -20.904  1.00  0.00     0.017 C 
HETATM   17  C3  UNL     1       9.646  29.700 -22.679  1.00  0.00     0.046 C 
ENDBRANCH   1  15
TORSDOF 2
ENDMDL
MODEL 2
REMARK VINA RESULT: -4.868439476      6.436      7.329
REMARK  2 active torsions:
REMARK  status: ('A' for Active; 'I' for Inactive)
REMARK    1  A    between atoms: C2_2  and  C4_4 
REMARK    2  A    between atoms: C7_10  and  O1_12 
ROOT
HETATM    1  C4  UNL     1       6.930  25.224 -26.654  1.00  0.00     0.211 C 
HETATM    2  N1  UNL     1       6.685  23.961 -27.247  1.00  0.00    -0.386 N 
ATOM      3  H1  UNL     1       6.660  23.106 -26.691  1.00  0.00     0.156 HD
HETATM    4  C5  UNL     1       6.477  23.938 -28.643  1.00  0.00     0.158 C 
HETATM    5  S1  UNL     1       7.810  24.529 -29.695  1.00  0.00    -0.104 SA
HETATM    6  C6  UNL     1       6.243  24.737 -30.534  1.00  0.00     0.039 C 
HETATM    7  C7  UNL     1       5.800  24.630 -31.769  1.00  0.00     0.163 C 
HETATM    8  N2  UNL     1       6.703  24.260 -32.788  1.00  0.00    -0.074 NA
HETATM    9  C8  UNL     1       5.669  25.089 -29.185  1.00  0.00     0.110 C 
HETATM   10  C9  UNL     1       6.262  26.360 -28.672  1.00  0.00     0.260 A 
HETATM   11  O2  UNL     1       5.670  27.028 -27.610  1.00  0.00    -0.275 OA
HETATM   12  N3  UNL     1       6.950  26.344 -27.512  1.00  0.00    -0.136 NA
ENDROOT
BRANCH   7  13
HETATM   13  O1  UNL     1       4.490  24.868 -32.084  1.00  0.00    -0.348 OA
ATOM     14  H1  UNL     1       4.210  25.697 -32.455  1.00  0.00     0.219 HD
ENDBRANCH   7  13
BRANCH   1  15
HETATM   15  C2  UNL     1       8.207  25.230 -25.854  1.00  0.00    -0.055 C 
HETATM   16  C1  UNL     1       8.145  25.338 -24.538  1.00  0.00     0.017 C 
HETATM   17  C3  UNL     1       9.530  25.118 -26.510  1.00  0.00     0.046 C 
ENDBRANCH   1  15
TORSDOF 2
ENDMDL
MODEL 3
REMARK VINA RESULT: -4.835394345      1.350      1.453
REMARK  2 active torsions:
REMARK  status: ('A' for Active; 'I' for Inactive)
REMARK    1  A    between atoms: C2_2  and  C4_4 
REMARK    2  A    between atoms: C7_10  and  O1_12 
ROOT
HETATM    1  C4  UNL     1       9.994  28.258 -22.508  1.00  0.00     0.211 C 
HETATM    2  N1  UNL     1       8.755  27.865 -23.071  1.00  0.00    -0.386 N 
ATOM      3  H1  UNL     1       8.015  28.541 -23.255  1.00  0.00     0.156 HD
HETATM    4  C5  UNL     1       8.590  26.494 -23.364  1.00  0.00     0.158 C 
HETATM    5  S1  UNL     1       8.702  25.329 -21.998  1.00  0.00    -0.104 SA
HETATM    6  C6  UNL     1       9.155  24.513 -23.525  1.00  0.00     0.039 C 
HETATM    7  C7  UNL     1       8.986  23.320 -24.055  1.00  0.00     0.163 C 
HETATM    8  N2  UNL     1       8.278  22.342 -23.325  1.00  0.00    -0.074 NA
HETATM    9  C8  UNL     1       9.813  25.810 -23.919  1.00  0.00     0.110 C 
HETATM   10  C9  UNL     1      10.968  26.113 -23.021  1.00  0.00     0.260 A 
HETATM   11  O2  UNL     1      11.896  27.081 -23.379  1.00  0.00    -0.275 OA
HETATM   12  N3  UNL     1      10.950  27.244 -22.286  1.00  0.00    -0.136 NA
ENDROOT
BRANCH   7  13
HETATM   13  O1  UNL     1       9.480  23.010 -25.293  1.00  0.00    -0.348 OA
ATOM     14  H1  UNL     1      10.129  22.327 -25.413  1.00  0.00     0.219 HD
ENDBRANCH   7  13
BRANCH   1  15
HETATM   15  C2  UNL     1       9.811  29.012 -21.216  1.00  0.00    -0.055 C 
HETATM   16  C1  UNL     1      10.172  28.443 -20.079  1.00  0.00     0.017 C 
HETATM   17  C3  UNL     1       9.236  30.377 -21.193  1.00  0.00     0.046 C 
ENDBRANCH   1  15
TORSDOF 2
ENDMDL
MODEL 4
REMARK VINA RESULT: -4.736210500      7.364      9.174
REMARK  2 active torsions:
REMARK  status: ('A' for Active; 'I' for Inactive)
REMARK    1  A    between atoms: C2_2  and  C4_4 
REMARK    2  A    between atoms: C7_10  and  O1_12 
ROOT
HETATM    1  C4  UNL     1       8.093  20.698 -29.302  1.00  0.00     0.211 C 
HETATM    2  N1  UNL     1       8.476  21.719 -28.398  1.00  0.00    -0.386 N 
ATOM      3  H1  UNL     1       8.892  21.501 -27.493  1.00  0.00     0.156 HD
HETATM    4  C5  UNL     1       8.254  23.052 -28.805  1.00  0.00     0.158 C 
HETATM    5  S1  UNL     1       6.560  23.549 -29.147  1.00  0.00    -0.104 SA
HETATM    6  C6  UNL     1       7.690  24.569 -30.090  1.00  0.00     0.039 C 
HETATM    7  C7  UNL     1       7.754  25.829 -30.461  1.00  0.00     0.163 C 
HETATM    8  N2  UNL     1       6.719  26.708 -30.074  1.00  0.00    -0.074 NA
HETATM    9  C8  UNL     1       8.526  23.326 -30.262  1.00  0.00     0.110 C 
HETATM   10  C9  UNL     1       7.799  22.306 -31.074  1.00  0.00     0.260 A 
HETATM   11  O2  UNL     1       8.482  21.223 -31.611  1.00  0.00    -0.275 OA
HETATM   12  N3  UNL     1       7.520  21.105 -30.526  1.00  0.00    -0.136 NA
ENDROOT
BRANCH   7  13
HETATM   13  O1  UNL     1       8.797  26.304 -31.209  1.00  0.00    -0.348 OA
ATOM     14  H1  UNL     1       9.567  25.776 -31.380  1.00  0.00     0.219 HD
ENDBRANCH   7  13
BRANCH   1  15
HETATM   15  C2  UNL     1       7.161  19.701 -28.663  1.00  0.00    -0.055 C 
HETATM   16  C1  UNL     1       7.645  18.551 -28.227  1.00  0.00     0.017 C 
HETATM   17  C3  UNL     1       5.714  19.983 -28.512  1.00  0.00     0.046 C 
ENDBRANCH   1  15
TORSDOF 2
ENDMDL
MODEL 5
REMARK VINA RESULT: -4.735018653      5.728      6.953
REMARK  2 active torsions:
REMARK  status: ('A' for Active; 'I' for Inactive)
REMARK    1  A    between atoms: C2_2  and  C4_4 
REMARK    2  A    between atoms: C7_10  and  O1_12 
ROOT
HETATM    1  C4  UNL     1       8.917  25.137 -27.317  1.00  0.00     0.211 C 
HETATM    2  N1  UNL     1       7.931  25.605 -26.414  1.00  0.00    -0.386 N 
ATOM      3  H1  UNL     1       8.129  25.715 -25.420  1.00  0.00     0.156 HD
HETATM    4  C5  UNL     1       6.662  25.910 -26.952  1.00  0.00     0.158 C 
HETATM    5  S1  UNL     1       5.754  24.581 -27.753  1.00  0.00    -0.104 SA
HETATM    6  C6  UNL     1       5.246  26.156 -28.436  1.00  0.00     0.039 C 
HETATM    7  C7  UNL     1       4.123  26.694 -28.860  1.00  0.00     0.163 C 
HETATM    8  N2  UNL     1       2.939  25.928 -28.814  1.00  0.00    -0.074 NA
HETATM    9  C8  UNL     1       6.688  26.577 -28.303  1.00  0.00     0.110 C 
HETATM   10  C9  UNL     1       7.561  25.770 -29.207  1.00  0.00     0.260 A 
HETATM   11  O2  UNL     1       8.859  26.183 -29.476  1.00  0.00    -0.275 OA
HETATM   12  N3  UNL     1       8.541  25.013 -28.671  1.00  0.00    -0.136 NA
ENDROOT
BRANCH   7  13
HETATM   13  O1  UNL     1       4.079  27.974 -29.342  1.00  0.00    -0.348 OA
ATOM     14  H1  UNL     1       3.420  28.247 -29.970  1.00  0.00     0.219 HD
ENDBRANCH   7  13
BRANCH   1  15
HETATM   15  C2  UNL     1       9.503  23.820 -26.877  1.00  0.00    -0.055 C 
HETATM   16  C1  UNL     1       9.303  22.744 -27.620  1.00  0.00     0.017 C 
HETATM   17  C3  UNL     1      10.298  23.704 -25.633  1.00  0.00     0.046 C 
ENDBRANCH   1  15
TORSDOF 2
ENDMDL
