MODEL 1
REMARK VINA RESULT: -5.507383752      0.000      0.000
REMARK  9 active torsions:
REMARK  status: ('A' for Active; 'I' for Inactive)
REMARK    1  A    between atoms: O1_2  and  C2_3 
REMARK    2  A    between atoms: C15_17  and  O3_18 
REMARK    3  A    between atoms: O3_18  and  C16_19 
REMARK    4  A    between atoms: C16_19  and  C17_20 
REMARK    5  A    between atoms: C17_20  and  O4_21 
REMARK    6  A    between atoms: C18_23  and  O5_24 
REMARK    7  A    between atoms: C18_23  and  C19_26 
REMARK    8  A    between atoms: C19_26  and  N1_27 
REMARK    9  A    between atoms: N1_27  and  C20_29 
ROOT
HETATM    1  C2  UNL     1       9.070  56.031  95.802  1.00  0.00     0.198 A 
HETATM    2  C3  UNL     1       8.700  54.963  94.827  1.00  0.00     0.156 A 
HETATM    3  O2  UNL     1       7.588  54.572  94.622  1.00  0.00    -0.295 OA
HETATM    4  C4  UNL     1       9.940  54.460  94.149  1.00  0.00     0.087 A 
HETATM    5  C5  UNL     1      11.095  55.152  94.787  1.00  0.00     0.008 A 
HETATM    6  C6  UNL     1      12.070  54.199  95.459  1.00  0.00    -0.001 C 
HETATM    7  C7  UNL     1      12.615  53.190  94.513  1.00  0.00     0.033 C 
HETATM    8  C8  UNL     1      13.571  52.336  95.255  1.00  0.00    -0.020 C 
HETATM    9  C9  UNL     1      13.275  51.863  96.473  1.00  0.00    -0.037 C 
HETATM   10  C10 UNL     1      11.981  52.218  97.044  1.00  0.00    -0.014 C 
HETATM   11  C11 UNL     1      11.011  51.104  96.607  1.00  0.00     0.020 C 
HETATM   12  C12 UNL     1      12.091  52.277  98.540  1.00  0.00     0.014 C 
HETATM   13  C13 UNL     1      12.178  50.974  99.246  1.00  0.00     0.004 C 
HETATM   14  C14 UNL     1      13.171  49.997  98.755  1.00  0.00     0.035 C 
HETATM   15  C15 UNL     1      14.482  50.584  98.286  1.00  0.00     0.162 C 
HETATM   16  C18 UNL     1      14.462  51.033  96.864  1.00  0.00     0.123 C 
HETATM   17  C21 UNL     1      11.392  53.515  96.594  1.00  0.00     0.003 C 
HETATM   18  C22 UNL     1      11.226  54.554  97.682  1.00  0.00     0.007 C 
HETATM   19  C23 UNL     1      11.180  55.969  97.151  1.00  0.00     0.013 C 
HETATM   20  C24 UNL     1      10.570  56.111  95.807  1.00  0.00    -0.006 A 
HETATM   21  C25 UNL     1      10.928  57.521  95.306  1.00  0.00     0.018 C 
ENDROOT
BRANCH  16  22
HETATM   22  O5  UNL     1      15.545  51.861  96.645  1.00  0.00    -0.381 OA
ATOM     23  H5  UNL     1      15.593  52.396  97.428  1.00  0.00     0.211 HD
ENDBRANCH  16  22
BRANCH  16  24
HETATM   24  C19 UNL     1      14.541  49.836  95.941  1.00  0.00     0.167 C 
BRANCH  24  25
HETATM   25  N1  UNL     1      15.532  48.861  96.207  1.00  0.00    -0.365 N 
ATOM     26  H1  UNL     1      15.217  48.072  96.770  1.00  0.00     0.161 HD
BRANCH  25  27
HETATM   27  C20 UNL     1      16.878  48.808  95.821  1.00  0.00     0.348 C 
HETATM   28  O6  UNL     1      17.622  49.793  95.785  1.00  0.00    -0.284 OA
ENDBRANCH  25  27
ENDBRANCH  24  25
ENDBRANCH  16  24
BRANCH  15  29
HETATM   29  O3  UNL     1      14.904  51.508  99.209  1.00  0.00    -0.380 OA
BRANCH  29  30
HETATM   30  C16 UNL     1      16.040  51.270  99.899  1.00  0.00     0.194 C 
BRANCH  30  31
HETATM   31  C17 UNL     1      17.021  50.300  99.340  1.00  0.00     0.190 C 
BRANCH  31  32
HETATM   32  O4  UNL     1      17.840  51.051  98.454  1.00  0.00    -0.399 OA
ATOM     33  H4  UNL     1      18.078  50.452  97.755  1.00  0.00     0.209 HD
ENDBRANCH  31  32
ENDBRANCH  30  31
ENDBRANCH  29  30
ENDBRANCH  15  29
BRANCH   1  34
HETATM   34  O1  UNL     1       8.543  55.777  97.064  1.00  0.00    -0.382 OA
HETATM   35  C1  UNL     1       7.504  56.677  97.384  1.00  0.00     0.202 C 
ENDBRANCH   1  34
TORSDOF 9
ENDMDL
MODEL 2
REMARK VINA RESULT: -5.490299980      3.713      5.455
REMARK  9 active torsions:
REMARK  status: ('A' for Active; 'I' for Inactive)
REMARK    1  A    between atoms: O1_2  and  C2_3 
REMARK    2  A    between atoms: C15_17  and  O3_18 
REMARK    3  A    between atoms: O3_18  and  C16_19 
REMARK    4  A    between atoms: C16_19  and  C17_20 
REMARK    5  A    between atoms: C17_20  and  O4_21 
REMARK    6  A    between atoms: C18_23  and  O5_24 
REMARK    7  A    between atoms: C18_23  and  C19_26 
REMARK    8  A    between atoms: C19_26  and  N1_27 
REMARK    9  A    between atoms: N1_27  and  C20_29 
ROOT
HETATM    1  C2  UNL     1       9.389  54.915  98.397  1.00  0.00     0.198 A 
HETATM    2  C3  UNL     1       8.861  55.964  97.476  1.00  0.00     0.156 A 
HETATM    3  O2  UNL     1       7.738  56.376  97.470  1.00  0.00    -0.295 OA
HETATM    4  C4  UNL     1       9.961  56.418  96.561  1.00  0.00     0.087 A 
HETATM    5  C5  UNL     1      11.147  55.566  96.853  1.00  0.00     0.008 A 
HETATM    6  C6  UNL     1      11.611  54.750  95.657  1.00  0.00    -0.001 C 
HETATM    7  C7  UNL     1      11.945  55.605  94.487  1.00  0.00     0.033 C 
HETATM    8  C8  UNL     1      12.411  54.721  93.394  1.00  0.00    -0.020 C 
HETATM    9  C9  UNL     1      11.762  53.588  93.095  1.00  0.00    -0.037 C 
HETATM   10  C10 UNL     1      10.583  53.253  93.884  1.00  0.00    -0.014 C 
HETATM   11  C11 UNL     1       9.389  53.882  93.141  1.00  0.00     0.020 C 
HETATM   12  C12 UNL     1      10.438  51.760  93.963  1.00  0.00     0.014 C 
HETATM   13  C13 UNL     1       9.956  51.080  92.735  1.00  0.00     0.004 C 
HETATM   14  C14 UNL     1      10.635  51.405  91.463  1.00  0.00     0.035 C 
HETATM   15  C15 UNL     1      12.128  51.615  91.560  1.00  0.00     0.162 C 
HETATM   16  C18 UNL     1      12.512  53.008  91.933  1.00  0.00     0.123 C 
HETATM   17  C21 UNL     1      10.552  53.772  95.284  1.00  0.00     0.003 C 
HETATM   18  C22 UNL     1      10.554  52.709  96.361  1.00  0.00     0.007 C 
HETATM   19  C23 UNL     1      11.079  53.207  97.688  1.00  0.00     0.013 C 
HETATM   20  C24 UNL     1      10.802  54.637  97.972  1.00  0.00    -0.006 A 
HETATM   21  C25 UNL     1      11.695  55.032  99.160  1.00  0.00     0.018 C 
ENDROOT
BRANCH  16  22
HETATM   22  O5  UNL     1      13.831  53.007  92.343  1.00  0.00    -0.381 OA
ATOM     23  H5  UNL     1      13.927  52.195  92.825  1.00  0.00     0.211 HD
ENDBRANCH  16  22
BRANCH  16  24
HETATM   24  C19 UNL     1      12.349  53.927  90.742  1.00  0.00     0.167 C 
BRANCH  24  25
HETATM   25  N1  UNL     1      13.503  54.239  89.985  1.00  0.00    -0.365 N 
ATOM     26  H1  UNL     1      14.118  53.448  89.796  1.00  0.00     0.161 HD
BRANCH  25  27
HETATM   27  C20 UNL     1      13.937  55.461  89.455  1.00  0.00     0.348 C 
HETATM   28  O6  UNL     1      14.862  56.127  89.931  1.00  0.00    -0.284 OA
ENDBRANCH  25  27
ENDBRANCH  24  25
ENDBRANCH  16  24
BRANCH  15  29
HETATM   29  O3  UNL     1      12.663  50.611  92.326  1.00  0.00    -0.380 OA
BRANCH  29  30
HETATM   30  C16 UNL     1      13.140  49.506  91.713  1.00  0.00     0.194 C 
BRANCH  30  31
HETATM   31  C17 UNL     1      13.377  48.286  92.532  1.00  0.00     0.190 C 
BRANCH  31  32
HETATM   32  O4  UNL     1      14.674  48.447  93.091  1.00  0.00    -0.399 OA
ATOM     33  H4  UNL     1      14.545  48.485  94.031  1.00  0.00     0.209 HD
ENDBRANCH  31  32
ENDBRANCH  30  31
ENDBRANCH  29  30
ENDBRANCH  15  29
BRANCH   1  34
HETATM   34  O1  UNL     1       8.591  53.774  98.383  1.00  0.00    -0.382 OA
HETATM   35  C1  UNL     1       7.949  53.576  99.624  1.00  0.00     0.202 C 
ENDBRANCH   1  34
TORSDOF 9
ENDMDL
MODEL 3
REMARK VINA RESULT: -5.276796499      4.249      7.648
REMARK  9 active torsions:
REMARK  status: ('A' for Active; 'I' for Inactive)
REMARK    1  A    between atoms: O1_2  and  C2_3 
REMARK    2  A    between atoms: C15_17  and  O3_18 
REMARK    3  A    between atoms: O3_18  and  C16_19 
REMARK    4  A    between atoms: C16_19  and  C17_20 
REMARK    5  A    between atoms: C17_20  and  O4_21 
REMARK    6  A    between atoms: C18_23  and  O5_24 
REMARK    7  A    between atoms: C18_23  and  C19_26 
REMARK    8  A    between atoms: C19_26  and  N1_27 
REMARK    9  A    between atoms: N1_27  and  C20_29 
ROOT
HETATM    1  C2  UNL     1      11.637  51.520  90.429  1.00  0.00     0.198 A 
HETATM    2  C3  UNL     1      12.530  51.015  91.513  1.00  0.00     0.156 A 
HETATM    3  O2  UNL     1      12.694  49.864  91.791  1.00  0.00    -0.295 OA
HETATM    4  C4  UNL     1      13.186  52.180  92.196  1.00  0.00     0.087 A 
HETATM    5  C5  UNL     1      12.611  53.415  91.595  1.00  0.00     0.008 A 
HETATM    6  C6  UNL     1      11.886  54.293  92.603  1.00  0.00    -0.001 C 
HETATM    7  C7  UNL     1      12.766  54.705  93.728  1.00  0.00     0.033 C 
HETATM    8  C8  UNL     1      11.977  55.575  94.630  1.00  0.00    -0.020 C 
HETATM    9  C9  UNL     1      10.726  55.252  94.983  1.00  0.00    -0.037 C 
HETATM   10  C10 UNL     1      10.166  54.017  94.448  1.00  0.00    -0.014 C 
HETATM   11  C11 UNL     1      10.512  52.922  95.475  1.00  0.00     0.020 C 
HETATM   12  C12 UNL     1       8.678  54.162  94.300  1.00  0.00     0.014 C 
HETATM   13  C13 UNL     1       7.884  54.119  95.554  1.00  0.00     0.004 C 
HETATM   14  C14 UNL     1       8.318  54.989  96.667  1.00  0.00     0.035 C 
HETATM   15  C15 UNL     1       8.842  56.347  96.262  1.00  0.00     0.162 C 
HETATM   16  C18 UNL     1      10.292  56.348  95.912  1.00  0.00     0.123 C 
HETATM   17  C21 UNL     1      10.698  53.565  93.128  1.00  0.00     0.003 C 
HETATM   18  C22 UNL     1       9.683  53.537  92.006  1.00  0.00     0.007 C 
HETATM   19  C23 UNL     1      10.311  53.636  90.634  1.00  0.00     0.013 C 
HETATM   20  C24 UNL     1      11.655  53.019  90.516  1.00  0.00    -0.006 A 
HETATM   21  C25 UNL     1      12.257  53.521  89.193  1.00  0.00     0.018 C 
ENDROOT
BRANCH  16  22
HETATM   22  O5  UNL     1      10.580  57.512  95.225  1.00  0.00    -0.381 OA
ATOM     23  H5  UNL     1      10.086  58.182  95.682  1.00  0.00     0.211 HD
ENDBRANCH  16  22
BRANCH  16  24
HETATM   24  C19 UNL     1      11.130  56.278  97.170  1.00  0.00     0.167 C 
BRANCH  24  25
HETATM   25  N1  UNL     1      10.466  56.005  98.390  1.00  0.00    -0.365 N 
ATOM     26  H1  UNL     1       9.590  56.510  98.523  1.00  0.00     0.161 HD
BRANCH  25  27
HETATM   27  C20 UNL     1      10.821  55.154  99.445  1.00  0.00     0.348 C 
HETATM   28  O6  UNL     1      11.520  55.500 100.402  1.00  0.00    -0.284 OA
ENDBRANCH  25  27
ENDBRANCH  24  25
ENDBRANCH  16  24
BRANCH  15  29
HETATM   29  O3  UNL     1       7.991  56.886  95.330  1.00  0.00    -0.380 OA
BRANCH  29  30
HETATM   30  C16 UNL     1       7.040  57.753  95.739  1.00  0.00     0.194 C 
BRANCH  30  31
HETATM   31  C17 UNL     1       5.726  57.748  95.039  1.00  0.00     0.190 C 
BRANCH  31  32
HETATM   32  O4  UNL     1       5.790  56.673  94.113  1.00  0.00    -0.399 OA
ATOM     33  H4  UNL     1       5.138  56.045  94.404  1.00  0.00     0.209 HD
ENDBRANCH  31  32
ENDBRANCH  30  31
ENDBRANCH  29  30
ENDBRANCH  15  29
BRANCH   1  34
HETATM   34  O1  UNL     1      10.353  50.993  90.537  1.00  0.00    -0.382 OA
HETATM   35  C1  UNL     1      10.041  50.160  89.442  1.00  0.00     0.202 C 
ENDBRANCH   1  34
TORSDOF 9
ENDMDL
MODEL 4
REMARK VINA RESULT: -5.138910209      4.481      6.427
REMARK  9 active torsions:
REMARK  status: ('A' for Active; 'I' for Inactive)
REMARK    1  A    between atoms: O1_2  and  C2_3 
REMARK    2  A    between atoms: C15_17  and  O3_18 
REMARK    3  A    between atoms: O3_18  and  C16_19 
REMARK    4  A    between atoms: C16_19  and  C17_20 
REMARK    5  A    between atoms: C17_20  and  O4_21 
REMARK    6  A    between atoms: C18_23  and  O5_24 
REMARK    7  A    between atoms: C18_23  and  C19_26 
REMARK    8  A    between atoms: C19_26  and  N1_27 
REMARK    9  A    between atoms: N1_27  and  C20_29 
ROOT
HETATM    1  C2  UNL     1       9.422  55.431  97.865  1.00  0.00     0.198 A 
HETATM    2  C3  UNL     1       9.089  53.977  97.937  1.00  0.00     0.156 A 
HETATM    3  O2  UNL     1       9.382  53.246  98.837  1.00  0.00    -0.295 OA
HETATM    4  C4  UNL     1       8.330  53.582  96.704  1.00  0.00     0.087 A 
HETATM    5  C5  UNL     1       8.288  54.779  95.819  1.00  0.00     0.008 A 
HETATM    6  C6  UNL     1       8.962  54.557  94.475  1.00  0.00    -0.001 C 
HETATM    7  C7  UNL     1       8.367  53.420  93.725  1.00  0.00     0.033 C 
HETATM    8  C8  UNL     1       9.070  53.309  92.427  1.00  0.00    -0.020 C 
HETATM    9  C9  UNL     1      10.405  53.393  92.354  1.00  0.00    -0.037 C 
HETATM   10  C10 UNL     1      11.142  53.600  93.595  1.00  0.00    -0.014 C 
HETATM   11  C11 UNL     1      11.472  52.191  94.125  1.00  0.00     0.020 C 
HETATM   12  C12 UNL     1      12.398  54.373  93.312  1.00  0.00     0.014 C 
HETATM   13  C13 UNL     1      13.495  53.627  92.646  1.00  0.00     0.004 C 
HETATM   14  C14 UNL     1      13.155  52.851  91.434  1.00  0.00     0.035 C 
HETATM   15  C15 UNL     1      12.138  53.490  90.518  1.00  0.00     0.162 C 
HETATM   16  C18 UNL     1      10.725  53.203  90.900  1.00  0.00     0.123 C 
HETATM   17  C21 UNL     1      10.417  54.320  94.684  1.00  0.00     0.003 C 
HETATM   18  C22 UNL     1      11.016  55.654  95.077  1.00  0.00     0.007 C 
HETATM   19  C23 UNL     1      10.017  56.586  95.724  1.00  0.00     0.013 C 
HETATM   20  C24 UNL     1       8.961  55.914  96.520  1.00  0.00    -0.006 A 
HETATM   21  C25 UNL     1       7.874  56.968  96.790  1.00  0.00     0.018 C 
ENDROOT
BRANCH  16  22
HETATM   22  O5  UNL     1       9.900  54.099  90.249  1.00  0.00    -0.381 OA
ATOM     23  H5  UNL     1       9.125  54.144  90.795  1.00  0.00     0.211 HD
ENDBRANCH  16  22
BRANCH  16  24
HETATM   24  C19 UNL     1      10.358  51.789  90.504  1.00  0.00     0.167 C 
BRANCH  24  25
HETATM   25  N1  UNL     1      10.690  51.363  89.196  1.00  0.00    -0.365 N 
ATOM     26  H1  UNL     1      10.189  51.845  88.448  1.00  0.00     0.161 HD
BRANCH  25  27
HETATM   27  C20 UNL     1      11.595  50.386  88.763  1.00  0.00     0.348 C 
HETATM   28  O6  UNL     1      12.558  49.998  89.431  1.00  0.00    -0.284 OA
ENDBRANCH  25  27
ENDBRANCH  24  25
ENDBRANCH  16  24
BRANCH  15  29
HETATM   29  O3  UNL     1      12.467  54.812  90.352  1.00  0.00    -0.380 OA
BRANCH  29  30
HETATM   30  C16 UNL     1      13.158  55.180  89.252  1.00  0.00     0.194 C 
BRANCH  30  31
HETATM   31  C17 UNL     1      14.645  55.165  89.309  1.00  0.00     0.190 C 
BRANCH  31  32
HETATM   32  O4  UNL     1      15.017  56.383  89.940  1.00  0.00    -0.399 OA
ATOM     33  H4  UNL     1      14.237  56.926  89.927  1.00  0.00     0.209 HD
ENDBRANCH  31  32
ENDBRANCH  30  31
ENDBRANCH  29  30
ENDBRANCH  15  29
BRANCH   1  34
HETATM   34  O1  UNL     1      10.778  55.656  98.080  1.00  0.00    -0.382 OA
HETATM   35  C1  UNL     1      11.146  55.373  99.413  1.00  0.00     0.202 C 
ENDBRANCH   1  34
TORSDOF 9
ENDMDL
MODEL 5
REMARK VINA RESULT: -5.083379682      3.785      6.344
REMARK  9 active torsions:
REMARK  status: ('A' for Active; 'I' for Inactive)
REMARK    1  A    between atoms: O1_2  and  C2_3 
REMARK    2  A    between atoms: C15_17  and  O3_18 
REMARK    3  A    between atoms: O3_18  and  C16_19 
REMARK    4  A    between atoms: C16_19  and  C17_20 
REMARK    5  A    between atoms: C17_20  and  O4_21 
REMARK    6  A    between atoms: C18_23  and  O5_24 
REMARK    7  A    between atoms: C18_23  and  C19_26 
REMARK    8  A    between atoms: C19_26  and  N1_27 
REMARK    9  A    between atoms: N1_27  and  C20_29 
ROOT
HETATM    1  C2  UNL     1       9.272  52.441  98.574  1.00  0.00     0.198 A 
HETATM    2  C3  UNL     1       9.826  53.826  98.616  1.00  0.00     0.156 A 
HETATM    3  O2  UNL     1       9.244  54.789  99.023  1.00  0.00    -0.295 OA
HETATM    4  C4  UNL     1      11.223  53.818  98.067  1.00  0.00     0.087 A 
HETATM    5  C5  UNL     1      11.492  52.434  97.587  1.00  0.00     0.008 A 
HETATM    6  C6  UNL     1      11.790  52.362  96.098  1.00  0.00    -0.001 C 
HETATM    7  C7  UNL     1      12.950  53.207  95.713  1.00  0.00     0.033 C 
HETATM    8  C8  UNL     1      13.174  53.042  94.258  1.00  0.00    -0.020 C 
HETATM    9  C9  UNL     1      12.150  53.064  93.394  1.00  0.00    -0.037 C 
HETATM   10  C10 UNL     1      10.809  53.254  93.934  1.00  0.00    -0.014 C 
HETATM   11  C11 UNL     1      10.568  54.775  93.930  1.00  0.00     0.020 C 
HETATM   12  C12 UNL     1       9.811  52.551  93.059  1.00  0.00     0.014 C 
HETATM   13  C13 UNL     1       9.507  53.196  91.757  1.00  0.00     0.004 C 
HETATM   14  C14 UNL     1      10.650  53.599  90.911  1.00  0.00     0.035 C 
HETATM   15  C15 UNL     1      11.829  52.654  90.922  1.00  0.00     0.162 C 
HETATM   16  C18 UNL     1      12.782  52.900  92.043  1.00  0.00     0.123 C 
HETATM   17  C21 UNL     1      10.583  52.777  95.331  1.00  0.00     0.003 C 
HETATM   18  C22 UNL     1       9.581  51.650  95.468  1.00  0.00     0.007 C 
HETATM   19  C23 UNL     1       9.776  50.830  96.723  1.00  0.00     0.013 C 
HETATM   20  C24 UNL     1      10.299  51.586  97.887  1.00  0.00    -0.006 A 
HETATM   21  C25 UNL     1      10.753  50.543  98.923  1.00  0.00     0.018 C 
ENDROOT
BRANCH  16  22
HETATM   22  O5  UNL     1      13.599  51.795  92.180  1.00  0.00    -0.381 OA
ATOM     23  H5  UNL     1      14.172  52.015  92.905  1.00  0.00     0.211 HD
ENDBRANCH  16  22
BRANCH  16  24
HETATM   24  C19 UNL     1      13.624  54.123  91.750  1.00  0.00     0.167 C 
BRANCH  24  25
HETATM   25  N1  UNL     1      14.402  54.121  90.568  1.00  0.00    -0.365 N 
ATOM     26  H1  UNL     1      14.864  53.236  90.361  1.00  0.00     0.161 HD
BRANCH  25  27
HETATM   27  C20 UNL     1      14.639  55.141  89.636  1.00  0.00     0.348 C 
HETATM   28  O6  UNL     1      15.045  56.267  89.939  1.00  0.00    -0.284 OA
ENDBRANCH  25  27
ENDBRANCH  24  25
ENDBRANCH  16  24
BRANCH  15  29
HETATM   29  O3  UNL     1      11.364  51.370  90.790  1.00  0.00    -0.380 OA
BRANCH  29  30
HETATM   30  C16 UNL     1      11.685  50.670  89.682  1.00  0.00     0.194 C 
BRANCH  30  31
HETATM   31  C17 UNL     1      12.263  49.307  89.844  1.00  0.00     0.190 C 
BRANCH  31  32
HETATM   32  O4  UNL     1      13.539  49.502  90.438  1.00  0.00    -0.399 OA
ATOM     33  H4  UNL     1      13.472  50.312  90.930  1.00  0.00     0.209 HD
ENDBRANCH  31  32
ENDBRANCH  30  31
ENDBRANCH  29  30
ENDBRANCH  15  29
BRANCH   1  34
HETATM   34  O1  UNL     1       8.034  52.403  97.941  1.00  0.00    -0.382 OA
HETATM   35  C1  UNL     1       7.003  52.052  98.838  1.00  0.00     0.202 C 
ENDBRANCH   1  34
TORSDOF 9
ENDMDL
