MODEL 1
REMARK VINA RESULT: -7.285615069      0.000      0.000
REMARK  7 active torsions:
REMARK  status: ('A' for Active; 'I' for Inactive)
REMARK    1  A    between atoms: N1_1  and  S1_4 
REMARK    2  A    between atoms: S1_4  and  N2_7 
REMARK    3  A    between atoms: N2_7  and  C1_9 
REMARK    4  A    between atoms: C4_12  and  N3_13 
REMARK    5  A    between atoms: C6_18  and  C7_19 
REMARK    6  A    between atoms: N7_32  and  C16_33 
REMARK    7  A    between atoms: C16_33  and  C17_34 
ROOT
HETATM    1  N3  UNL     1      12.297  52.675  91.065  1.00  0.00    -0.370 N 
ATOM      2  H3  UNL     1      12.783  51.867  90.676  1.00  0.00     0.161 HD
HETATM    3  C5  UNL     1      12.351  52.869  92.334  1.00  0.00     0.134 A 
HETATM    4  N4  UNL     1      11.746  53.899  92.937  1.00  0.00    -0.326 N 
ATOM      5  H4  UNL     1      11.219  54.559  92.365  1.00  0.00     0.169 HD
HETATM    6  C6  UNL     1      11.806  54.103  94.284  1.00  0.00     0.114 A 
HETATM    7  N5  UNL     1      12.501  53.229  95.030  1.00  0.00    -0.326 N 
ATOM      8  H5  UNL     1      12.549  53.378  96.038  1.00  0.00     0.169 HD
HETATM    9  C13 UNL     1      13.144  52.157  94.502  1.00  0.00     0.141 A 
HETATM   10  C14 UNL     1      13.059  51.984  93.117  1.00  0.00     0.122 A 
HETATM   11  N6  UNL     1      13.771  50.868  92.864  1.00  0.00    -0.346 N 
ATOM     12  H6  UNL     1      13.906  50.465  91.937  1.00  0.00     0.167 HD
HETATM   13  C15 UNL     1      14.279  50.358  93.999  1.00  0.00     0.185 A 
HETATM   14  N7  UNL     1      13.884  51.166  95.012  1.00  0.00    -0.327 N 
ENDROOT
BRANCH   1  15
HETATM   15  C4  UNL     1      11.578  53.550  90.161  1.00  0.00     0.083 C 
HETATM   16  C3  UNL     1      12.300  53.519  88.829  1.00  0.00     0.027 C 
HETATM   17  C2  UNL     1      11.696  52.384  88.020  1.00  0.00     0.028 C 
HETATM   18  C1  UNL     1      10.313  52.786  87.550  1.00  0.00     0.094 C 
HETATM   19  C21 UNL     1       9.600  53.566  88.619  1.00  0.00     0.028 C 
HETATM   20  C20 UNL     1      10.162  53.120  89.957  1.00  0.00     0.027 C 
BRANCH  18  21
HETATM   21  N2  UNL     1      10.320  53.417  86.271  1.00  0.00    -0.298 N 
ATOM     22  H2  UNL     1      10.914  54.218  86.054  1.00  0.00     0.174 HD
BRANCH  21  23
HETATM   23  S1  UNL     1       9.257  52.723  85.132  1.00  0.00     0.313 S 
HETATM   24  O1  UNL     1       9.271  53.475  83.834  1.00  0.00    -0.183 OA
HETATM   25  O2  UNL     1       7.868  52.580  85.631  1.00  0.00    -0.183 OA
BRANCH  23  26
HETATM   26  N1  UNL     1       9.856  51.121  84.774  1.00  0.00    -0.312 N 
ATOM     27  H12 UNL     1      10.812  50.792  84.909  1.00  0.00     0.170 HD
ATOM     28  H11 UNL     1       9.062  50.596  84.409  1.00  0.00     0.170 HD
ENDBRANCH  23  26
ENDBRANCH  21  23
ENDBRANCH  18  21
ENDBRANCH   1  15
BRANCH   6  29
HETATM   29  C7  UNL     1      11.119  55.249  94.861  1.00  0.00    -0.018 C 
HETATM   30  C8  UNL     1      11.718  56.422  94.948  1.00  0.00    -0.016 C 
HETATM   31  C9  UNL     1      11.115  57.640  95.514  1.00  0.00     0.028 C 
HETATM   32  C10 UNL     1       9.626  57.513  95.697  1.00  0.00     0.004 C 
HETATM   33  C11 UNL     1       9.375  56.179  96.380  1.00  0.00     0.005 C 
HETATM   34  C12 UNL     1       9.731  55.108  95.361  1.00  0.00     0.042 C 
ENDBRANCH   6  29
BRANCH  14  35
HETATM   35  C16 UNL     1      14.190  51.013  96.405  1.00  0.00     0.136 C 
BRANCH  35  36
HETATM   36  C17 UNL     1      15.502  51.657  96.784  1.00  0.00     0.004 A 
HETATM   37  C18 UNL     1      16.039  51.181  98.132  1.00  0.00     0.007 A 
HETATM   38  C19 UNL     1      16.720  50.807  96.815  1.00  0.00     0.007 A 
ENDBRANCH  35  36
ENDBRANCH  14  35
TORSDOF 7
ENDMDL
MODEL 2
REMARK VINA RESULT: -7.242694426      4.891      7.999
REMARK  7 active torsions:
REMARK  status: ('A' for Active; 'I' for Inactive)
REMARK    1  A    between atoms: N1_1  and  S1_4 
REMARK    2  A    between atoms: S1_4  and  N2_7 
REMARK    3  A    between atoms: N2_7  and  C1_9 
REMARK    4  A    between atoms: C4_12  and  N3_13 
REMARK    5  A    between atoms: C6_18  and  C7_19 
REMARK    6  A    between atoms: N7_32  and  C16_33 
REMARK    7  A    between atoms: C16_33  and  C17_34 
ROOT
HETATM    1  N3  UNL     1      10.104  51.905  85.874  1.00  0.00    -0.370 N 
ATOM      2  H3  UNL     1       9.271  51.642  85.347  1.00  0.00     0.161 HD
HETATM    3  C5  UNL     1       9.964  52.656  86.907  1.00  0.00     0.134 A 
HETATM    4  N4  UNL     1      10.994  53.053  87.662  1.00  0.00    -0.326 N 
ATOM      5  H4  UNL     1      11.934  52.747  87.406  1.00  0.00     0.169 HD
HETATM    6  C6  UNL     1      10.843  53.850  88.758  1.00  0.00     0.114 A 
HETATM    7  N5  UNL     1       9.603  54.249  89.087  1.00  0.00    -0.326 N 
ATOM      8  H5  UNL     1       9.485  54.845  89.906  1.00  0.00     0.169 HD
HETATM    9  C13 UNL     1       8.502  53.894  88.378  1.00  0.00     0.141 A 
HETATM   10  C14 UNL     1       8.701  53.077  87.262  1.00  0.00     0.122 A 
HETATM   11  N6  UNL     1       7.468  52.882  86.753  1.00  0.00    -0.346 N 
ATOM     12  H6  UNL     1       7.266  52.322  85.924  1.00  0.00     0.167 HD
HETATM   13  C15 UNL     1       6.542  53.524  87.485  1.00  0.00     0.185 A 
HETATM   14  N7  UNL     1       7.194  54.151  88.493  1.00  0.00    -0.327 N 
ENDROOT
BRANCH   1  15
HETATM   15  C4  UNL     1      11.390  51.413  85.423  1.00  0.00     0.083 C 
HETATM   16  C3  UNL     1      11.144  50.120  84.673  1.00  0.00     0.027 C 
HETATM   17  C2  UNL     1      10.908  50.485  83.218  1.00  0.00     0.028 C 
HETATM   18  C1  UNL     1      12.221  50.899  82.587  1.00  0.00     0.094 C 
HETATM   19  C21 UNL     1      13.045  51.695  83.561  1.00  0.00     0.028 C 
HETATM   20  C20 UNL     1      12.084  52.376  84.517  1.00  0.00     0.027 C 
BRANCH  18  21
HETATM   21  N2  UNL     1      12.918  49.809  81.984  1.00  0.00    -0.298 N 
ATOM     22  H2  UNL     1      13.088  48.928  82.469  1.00  0.00     0.174 HD
BRANCH  21  23
HETATM   23  S1  UNL     1      13.441  50.099  80.387  1.00  0.00     0.313 S 
HETATM   24  O1  UNL     1      12.778  51.309  79.799  1.00  0.00    -0.183 OA
HETATM   25  O2  UNL     1      13.274  48.931  79.489  1.00  0.00    -0.183 OA
BRANCH  23  26
HETATM   26  N1  UNL     1      15.148  50.468  80.461  1.00  0.00    -0.312 N 
ATOM     27  H12 UNL     1      15.562  51.340  80.790  1.00  0.00     0.170 HD
ATOM     28  H11 UNL     1      15.632  49.641  80.112  1.00  0.00     0.170 HD
ENDBRANCH  23  26
ENDBRANCH  21  23
ENDBRANCH  18  21
ENDBRANCH   1  15
BRANCH   6  29
HETATM   29  C7  UNL     1      12.017  54.237  89.525  1.00  0.00    -0.018 C 
HETATM   30  C8  UNL     1      12.012  54.180  90.843  1.00  0.00    -0.016 C 
HETATM   31  C9  UNL     1      13.143  54.548  91.711  1.00  0.00     0.028 C 
HETATM   32  C10 UNL     1      14.431  54.695  90.945  1.00  0.00     0.004 C 
HETATM   33  C11 UNL     1      14.128  55.548  89.725  1.00  0.00     0.005 C 
HETATM   34  C12 UNL     1      13.239  54.702  88.827  1.00  0.00     0.042 C 
ENDBRANCH   6  29
BRANCH  14  35
HETATM   35  C16 UNL     1       6.610  54.959  89.524  1.00  0.00     0.136 C 
BRANCH  35  36
HETATM   36  C17 UNL     1       5.944  56.200  88.980  1.00  0.00     0.004 A 
HETATM   37  C18 UNL     1       5.439  57.141  90.071  1.00  0.00     0.007 A 
HETATM   38  C19 UNL     1       6.622  57.507  89.176  1.00  0.00     0.007 A 
ENDBRANCH  35  36
ENDBRANCH  14  35
TORSDOF 7
ENDMDL
MODEL 3
REMARK VINA RESULT: -7.088797209      6.214     11.215
REMARK  7 active torsions:
REMARK  status: ('A' for Active; 'I' for Inactive)
REMARK    1  A    between atoms: N1_1  and  S1_4 
REMARK    2  A    between atoms: S1_4  and  N2_7 
REMARK    3  A    between atoms: N2_7  and  C1_9 
REMARK    4  A    between atoms: C4_12  and  N3_13 
REMARK    5  A    between atoms: C6_18  and  C7_19 
REMARK    6  A    between atoms: N7_32  and  C16_33 
REMARK    7  A    between atoms: C16_33  and  C17_34 
ROOT
HETATM    1  N3  UNL     1      10.579  51.241  85.677  1.00  0.00    -0.370 N 
ATOM      2  H3  UNL     1       9.840  50.839  86.254  1.00  0.00     0.161 HD
HETATM    3  C5  UNL     1      11.088  50.522  84.742  1.00  0.00     0.134 A 
HETATM    4  N4  UNL     1      12.060  50.962  83.936  1.00  0.00    -0.326 N 
ATOM      5  H4  UNL     1      12.414  51.910  84.068  1.00  0.00     0.169 HD
HETATM    6  C6  UNL     1      12.598  50.197  82.944  1.00  0.00     0.114 A 
HETATM    7  N5  UNL     1      12.127  48.949  82.776  1.00  0.00    -0.326 N 
ATOM      8  H5  UNL     1      12.527  48.373  82.035  1.00  0.00     0.169 HD
HETATM    9  C13 UNL     1      11.144  48.423  83.549  1.00  0.00     0.141 A 
HETATM   10  C14 UNL     1      10.620  49.240  84.555  1.00  0.00     0.122 A 
HETATM   11  N6  UNL     1       9.680  48.485  85.157  1.00  0.00    -0.346 N 
ATOM     12  H6  UNL     1       9.105  48.794  85.942  1.00  0.00     0.167 HD
HETATM   13  C15 UNL     1       9.602  47.272  84.585  1.00  0.00     0.185 A 
HETATM   14  N7  UNL     1      10.517  47.242  83.586  1.00  0.00    -0.327 N 
ENDROOT
BRANCH   1  15
HETATM   15  C4  UNL     1      11.005  52.599  85.952  1.00  0.00     0.083 C 
HETATM   16  C3  UNL     1      10.410  53.001  87.286  1.00  0.00     0.027 C 
HETATM   17  C2  UNL     1      11.406  52.599  88.359  1.00  0.00     0.028 C 
HETATM   18  C1  UNL     1      12.593  53.538  88.318  1.00  0.00     0.094 C 
HETATM   19  C21 UNL     1      12.940  53.885  86.896  1.00  0.00     0.028 C 
HETATM   20  C20 UNL     1      12.492  52.726  86.025  1.00  0.00     0.027 C 
BRANCH  18  21
HETATM   21  N2  UNL     1      12.441  54.668  89.176  1.00  0.00    -0.298 N 
ATOM     22  H2  UNL     1      11.556  55.165  89.281  1.00  0.00     0.174 HD
BRANCH  21  23
HETATM   23  S1  UNL     1      13.857  55.119  90.012  1.00  0.00     0.313 S 
HETATM   24  O1  UNL     1      14.090  56.599  89.945  1.00  0.00    -0.183 OA
HETATM   25  O2  UNL     1      15.066  54.385  89.566  1.00  0.00    -0.183 OA
BRANCH  23  26
HETATM   26  N1  UNL     1      13.604  54.742  91.699  1.00  0.00    -0.312 N 
ATOM     27  H12 UNL     1      14.198  55.030  92.476  1.00  0.00     0.170 HD
ATOM     28  H11 UNL     1      12.751  54.183  91.741  1.00  0.00     0.170 HD
ENDBRANCH  23  26
ENDBRANCH  21  23
ENDBRANCH  18  21
ENDBRANCH   1  15
BRANCH   6  29
HETATM   29  C7  UNL     1      13.654  50.752  82.109  1.00  0.00    -0.018 C 
HETATM   30  C8  UNL     1      13.835  50.322  80.875  1.00  0.00    -0.016 C 
HETATM   31  C9  UNL     1      14.870  50.814  79.951  1.00  0.00     0.028 C 
HETATM   32  C10 UNL     1      15.511  52.090  80.432  1.00  0.00     0.004 C 
HETATM   33  C11 UNL     1      15.864  51.885  81.895  1.00  0.00     0.005 C 
HETATM   34  C12 UNL     1      14.542  51.811  82.644  1.00  0.00     0.042 C 
ENDBRANCH   6  29
BRANCH  14  35
HETATM   35  C16 UNL     1      10.789  46.147  82.701  1.00  0.00     0.136 C 
BRANCH  35  36
HETATM   36  C17 UNL     1      11.254  44.912  83.435  1.00  0.00     0.004 A 
HETATM   37  C18 UNL     1      12.505  44.283  82.824  1.00  0.00     0.007 A 
HETATM   38  C19 UNL     1      12.536  44.979  84.184  1.00  0.00     0.007 A 
ENDBRANCH  35  36
ENDBRANCH  14  35
TORSDOF 7
ENDMDL
MODEL 4
REMARK VINA RESULT: -6.758632499      4.718      7.558
REMARK  7 active torsions:
REMARK  status: ('A' for Active; 'I' for Inactive)
REMARK    1  A    between atoms: N1_1  and  S1_4 
REMARK    2  A    between atoms: S1_4  and  N2_7 
REMARK    3  A    between atoms: N2_7  and  C1_9 
REMARK    4  A    between atoms: C4_12  and  N3_13 
REMARK    5  A    between atoms: C6_18  and  C7_19 
REMARK    6  A    between atoms: N7_32  and  C16_33 
REMARK    7  A    between atoms: C16_33  and  C17_34 
ROOT
HETATM    1  N3  UNL     1      10.141  51.933  85.884  1.00  0.00    -0.370 N 
ATOM      2  H3  UNL     1       9.327  51.709  85.311  1.00  0.00     0.161 HD
HETATM    3  C5  UNL     1       9.962  52.591  86.972  1.00  0.00     0.134 A 
HETATM    4  N4  UNL     1      10.966  52.931  87.788  1.00  0.00    -0.326 N 
ATOM      5  H4  UNL     1      11.915  52.657  87.536  1.00  0.00     0.169 HD
HETATM    6  C6  UNL     1      10.773  53.629  88.944  1.00  0.00     0.114 A 
HETATM    7  N5  UNL     1       9.519  53.987  89.269  1.00  0.00    -0.326 N 
ATOM      8  H5  UNL     1       9.371  54.509  90.132  1.00  0.00     0.169 HD
HETATM    9  C13 UNL     1       8.443  53.684  88.500  1.00  0.00     0.141 A 
HETATM   10  C14 UNL     1       8.684  52.968  87.324  1.00  0.00     0.122 A 
HETATM   11  N6  UNL     1       7.469  52.806  86.764  1.00  0.00    -0.346 N 
ATOM     12  H6  UNL     1       7.297  52.318  85.885  1.00  0.00     0.167 HD
HETATM   13  C15 UNL     1       6.515  53.374  87.521  1.00  0.00     0.185 A 
HETATM   14  N7  UNL     1       7.130  53.918  88.597  1.00  0.00    -0.327 N 
ENDROOT
BRANCH   1  15
HETATM   15  C4  UNL     1      11.445  51.493  85.430  1.00  0.00     0.083 C 
HETATM   16  C3  UNL     1      11.255  50.172  84.712  1.00  0.00     0.027 C 
HETATM   17  C2  UNL     1      10.988  50.492  83.252  1.00  0.00     0.028 C 
HETATM   18  C1  UNL     1      12.274  50.954  82.598  1.00  0.00     0.094 C 
HETATM   19  C21 UNL     1      13.067  51.812  83.544  1.00  0.00     0.028 C 
HETATM   20  C20 UNL     1      12.082  52.468  84.495  1.00  0.00     0.027 C 
BRANCH  18  21
HETATM   21  N2  UNL     1      13.017  49.886  82.013  1.00  0.00    -0.298 N 
ATOM     22  H2  UNL     1      13.239  49.028  82.517  1.00  0.00     0.174 HD
BRANCH  21  23
HETATM   23  S1  UNL     1      13.503  50.160  80.401  1.00  0.00     0.313 S 
HETATM   24  O1  UNL     1      12.814  51.354  79.812  1.00  0.00    -0.183 OA
HETATM   25  O2  UNL     1      13.330  48.978  79.523  1.00  0.00    -0.183 OA
BRANCH  23  26
HETATM   26  N1  UNL     1      15.207  50.547  80.434  1.00  0.00    -0.312 N 
ATOM     27  H12 UNL     1      15.677  51.243  79.855  1.00  0.00     0.170 HD
ATOM     28  H11 UNL     1      15.622  49.942  81.141  1.00  0.00     0.170 HD
ENDBRANCH  23  26
ENDBRANCH  21  23
ENDBRANCH  18  21
ENDBRANCH   1  15
BRANCH   6  29
HETATM   29  C7  UNL     1      11.921  53.960  89.776  1.00  0.00    -0.018 C 
HETATM   30  C8  UNL     1      13.004  54.499  89.249  1.00  0.00    -0.016 C 
HETATM   31  C9  UNL     1      14.215  54.870  90.000  1.00  0.00     0.028 C 
HETATM   32  C10 UNL     1      13.990  54.874  91.489  1.00  0.00     0.004 C 
HETATM   33  C11 UNL     1      13.275  53.579  91.833  1.00  0.00     0.005 C 
HETATM   34  C12 UNL     1      11.883  53.690  91.232  1.00  0.00     0.042 C 
ENDBRANCH   6  29
BRANCH  14  35
HETATM   35  C16 UNL     1       6.507  54.629  89.676  1.00  0.00     0.136 C 
BRANCH  35  36
HETATM   36  C17 UNL     1       5.819  53.709  90.655  1.00  0.00     0.004 A 
HETATM   37  C18 UNL     1       6.714  53.289  91.819  1.00  0.00     0.007 A 
HETATM   38  C19 UNL     1       5.521  54.225  92.016  1.00  0.00     0.007 A 
ENDBRANCH  35  36
ENDBRANCH  14  35
TORSDOF 7
ENDMDL
MODEL 5
REMARK VINA RESULT: -6.488075472      6.425     11.569
REMARK  7 active torsions:
REMARK  status: ('A' for Active; 'I' for Inactive)
REMARK    1  A    between atoms: N1_1  and  S1_4 
REMARK    2  A    between atoms: S1_4  and  N2_7 
REMARK    3  A    between atoms: N2_7  and  C1_9 
REMARK    4  A    between atoms: C4_12  and  N3_13 
REMARK    5  A    between atoms: C6_18  and  C7_19 
REMARK    6  A    between atoms: N7_32  and  C16_33 
REMARK    7  A    between atoms: C16_33  and  C17_34 
ROOT
HETATM    1  N3  UNL     1      10.406  51.285  85.292  1.00  0.00    -0.370 N 
ATOM      2  H3  UNL     1       9.609  50.900  85.798  1.00  0.00     0.161 HD
HETATM    3  C5  UNL     1      10.926  50.588  84.346  1.00  0.00     0.134 A 
HETATM    4  N4  UNL     1      11.973  51.008  83.627  1.00  0.00    -0.326 N 
ATOM      5  H4  UNL     1      12.376  51.921  83.837  1.00  0.00     0.169 HD
HETATM    6  C6  UNL     1      12.522  50.267  82.623  1.00  0.00     0.114 A 
HETATM    7  N5  UNL     1      11.986  49.065  82.352  1.00  0.00    -0.326 N 
ATOM      8  H5  UNL     1      12.394  48.507  81.603  1.00  0.00     0.169 HD
HETATM    9  C13 UNL     1      10.925  48.561  83.033  1.00  0.00     0.141 A 
HETATM   10  C14 UNL     1      10.391  49.353  84.054  1.00  0.00     0.122 A 
HETATM   11  N6  UNL     1       9.370  48.629  84.553  1.00  0.00    -0.346 N 
ATOM     12  H6  UNL     1       8.768  48.929  85.320  1.00  0.00     0.167 HD
HETATM   13  C15 UNL     1       9.253  47.458  83.904  1.00  0.00     0.185 A 
HETATM   14  N7  UNL     1      10.224  47.425  82.961  1.00  0.00    -0.327 N 
ENDROOT
BRANCH   1  15
HETATM   15  C4  UNL     1      10.899  52.594  85.674  1.00  0.00     0.083 C 
HETATM   16  C3  UNL     1      10.246  52.957  86.992  1.00  0.00     0.027 C 
HETATM   17  C2  UNL     1      11.145  52.430  88.096  1.00  0.00     0.028 C 
HETATM   18  C1  UNL     1      12.389  53.289  88.182  1.00  0.00     0.094 C 
HETATM   19  C21 UNL     1      12.846  53.692  86.807  1.00  0.00     0.028 C 
HETATM   20  C20 UNL     1      12.383  52.617  85.842  1.00  0.00     0.027 C 
BRANCH  18  21
HETATM   21  N2  UNL     1      12.254  54.376  89.097  1.00  0.00    -0.298 N 
ATOM     22  H2  UNL     1      11.535  55.093  88.999  1.00  0.00     0.174 HD
BRANCH  21  23
HETATM   23  S1  UNL     1      13.392  54.379  90.367  1.00  0.00     0.313 S 
HETATM   24  O1  UNL     1      13.337  53.107  91.161  1.00  0.00    -0.183 OA
HETATM   25  O2  UNL     1      13.273  55.554  91.264  1.00  0.00    -0.183 OA
BRANCH  23  26
HETATM   26  N1  UNL     1      14.980  54.430  89.639  1.00  0.00    -0.312 N 
ATOM     27  H12 UNL     1      15.429  53.675  89.121  1.00  0.00     0.170 HD
ATOM     28  H11 UNL     1      15.354  55.358  89.838  1.00  0.00     0.170 HD
ENDBRANCH  23  26
ENDBRANCH  21  23
ENDBRANCH  18  21
ENDBRANCH   1  15
BRANCH   6  29
HETATM   29  C7  UNL     1      13.661  50.797  81.888  1.00  0.00    -0.018 C 
HETATM   30  C8  UNL     1      13.898  50.420  80.645  1.00  0.00    -0.016 C 
HETATM   31  C9  UNL     1      15.018  50.893  79.816  1.00  0.00     0.028 C 
HETATM   32  C10 UNL     1      15.698  52.101  80.404  1.00  0.00     0.004 C 
HETATM   33  C11 UNL     1      15.942  51.802  81.873  1.00  0.00     0.005 C 
HETATM   34  C12 UNL     1      14.572  51.772  82.532  1.00  0.00     0.042 C 
ENDBRANCH   6  29
BRANCH  14  35
HETATM   35  C16 UNL     1      10.482  46.366  82.028  1.00  0.00     0.136 C 
BRANCH  35  36
HETATM   36  C17 UNL     1      11.643  45.496  82.447  1.00  0.00     0.004 A 
HETATM   37  C18 UNL     1      11.338  44.002  82.359  1.00  0.00     0.007 A 
HETATM   38  C19 UNL     1      12.322  44.681  81.407  1.00  0.00     0.007 A 
ENDBRANCH  35  36
ENDBRANCH  14  35
TORSDOF 7
ENDMDL
