MODEL 1
REMARK VINA RESULT: -7.326481782      0.000      0.000
REMARK  8 active torsions:
REMARK  status: ('A' for Active; 'I' for Inactive)
REMARK    1  A    between atoms: C2_2  and  C3_3 
REMARK    2  A    between atoms: C3_3  and  C4_4 
REMARK    3  A    between atoms: C6_6  and  C7_7 
REMARK    4  A    between atoms: C7_7  and  C8_8 
REMARK    5  A    between atoms: C8_8  and  N1_9 
REMARK    6  A    between atoms: C19_22  and  C20_23 
REMARK       I    between atoms: C20_23  and  N2_25 
REMARK    7  A    between atoms: C23_28  and  N3_29 
REMARK    8  A    between atoms: C25_34  and  N4_35 
ROOT
HETATM    1  C4  UNL     1      14.452  52.072  83.020  1.00  0.00     0.011 A 
HETATM    2  C5  UNL     1      13.350  51.273  82.820  1.00  0.00     0.033 A 
HETATM    3  C6  UNL     1      12.146  51.421  83.525  1.00  0.00    -0.035 A 
HETATM    4  C19 UNL     1      12.053  52.409  84.463  1.00  0.00     0.082 A 
HETATM    5  C25 UNL     1      13.190  53.211  84.650  1.00  0.00     0.115 A 
HETATM    6  N5  UNL     1      14.324  53.033  83.951  1.00  0.00    -0.345 N 
ATOM      7  H5  UNL     1      15.116  53.649  84.133  1.00  0.00     0.167 HD
ENDROOT
BRANCH   3   8
HETATM    8  C7  UNL     1      11.028  50.484  83.243  1.00  0.00     0.070 C 
BRANCH   8   9
HETATM    9  C8  UNL     1      10.568  50.596  81.838  1.00  0.00     0.277 C 
BRANCH   9  10
HETATM   10  N1  UNL     1      10.662  49.309  81.126  1.00  0.00     0.093 N 
HETATM   11  C9  UNL     1      11.031  48.326  82.137  1.00  0.00     0.277 C 
HETATM   12  C10 UNL     1      10.961  46.961  81.527  1.00  0.00     0.069 C 
HETATM   13  C11 UNL     1      11.825  46.913  80.343  1.00  0.00    -0.046 A 
HETATM   14  C12 UNL     1      12.322  45.719  79.847  1.00  0.00     0.047 A 
HETATM   15  C16 UNL     1      12.164  48.067  79.686  1.00  0.00    -0.021 A 
HETATM   16  C13 UNL     1      13.132  45.653  78.735  1.00  0.00     0.105 A 
HETATM   17  C14 UNL     1      13.464  46.830  78.083  1.00  0.00     0.105 A 
HETATM   18  O2  UNL     1      13.765  44.628  78.022  1.00  0.00    -0.323 OA
HETATM   19  C15 UNL     1      12.966  48.016  78.581  1.00  0.00     0.049 A 
HETATM   20  O1  UNL     1      14.289  46.480  76.996  1.00  0.00    -0.323 OA
HETATM   21  C18 UNL     1      14.030  45.101  76.691  1.00  0.00     0.352 C 
HETATM   22  C17 UNL     1      11.697  49.413  80.113  1.00  0.00     0.311 C 
ENDBRANCH   9  10
ENDBRANCH   8   9
ENDBRANCH   3   8
BRANCH   4  23
HETATM   23  C20 UNL     1      10.853  52.667  85.238  1.00  0.00     0.258 C 
HETATM   24  O3  UNL     1      10.021  53.540  84.918  1.00  0.00    -0.267 OA
HETATM   25  N2  UNL     1      10.592  51.906  86.417  1.00  0.00    -0.346 N 
HETATM   26  C21 UNL     1       9.457  52.016  87.316  1.00  0.00     0.128 C 
HETATM   27  C24 UNL     1      11.435  50.859  86.945  1.00  0.00     0.159 C 
HETATM   28  C22 UNL     1      10.165  51.888  88.670  1.00  0.00     0.054 C 
HETATM   29  C23 UNL     1      11.056  50.689  88.395  1.00  0.00     0.203 C 
BRANCH  29  30
HETATM   30  N3  UNL     1      12.204  50.638  89.273  1.00  0.00    -0.073 N 
ATOM     31  H33 UNL     1      13.031  51.023  88.817  1.00  0.00     0.274 HD
ATOM     32  H32 UNL     1      12.111  51.308  90.037  1.00  0.00     0.274 HD
ATOM     33  H31 UNL     1      12.384  49.699  89.628  1.00  0.00     0.274 HD
ENDBRANCH  29  30
ENDBRANCH   4  23
BRANCH   1  34
HETATM   34  C3  UNL     1      15.659  51.852  82.228  1.00  0.00     0.057 C 
BRANCH  34  35
HETATM   35  C2  UNL     1      15.580  52.160  80.779  1.00  0.00     0.002 C 
HETATM   36  C1  UNL     1      15.224  51.019  79.884  1.00  0.00     0.005 C 
ENDBRANCH  34  35
ENDBRANCH   1  34
BRANCH   5  37
HETATM   37  N4  UNL     1      13.081  54.143  85.546  1.00  0.00    -0.385 N 
ATOM     38  H42 UNL     1      12.709  53.951  86.477  1.00  0.00     0.157 HD
ATOM     39  H41 UNL     1      13.389  55.072  85.259  1.00  0.00     0.157 HD
ENDBRANCH   5  37
TORSDOF 8
ENDMDL
MODEL 2
REMARK VINA RESULT: -7.214509203      4.437      9.605
REMARK  8 active torsions:
REMARK  status: ('A' for Active; 'I' for Inactive)
REMARK    1  A    between atoms: C2_2  and  C3_3 
REMARK    2  A    between atoms: C3_3  and  C4_4 
REMARK    3  A    between atoms: C6_6  and  C7_7 
REMARK    4  A    between atoms: C7_7  and  C8_8 
REMARK    5  A    between atoms: C8_8  and  N1_9 
REMARK    6  A    between atoms: C19_22  and  C20_23 
REMARK       I    between atoms: C20_23  and  N2_25 
REMARK    7  A    between atoms: C23_28  and  N3_29 
REMARK    8  A    between atoms: C25_34  and  N4_35 
ROOT
HETATM    1  C4  UNL     1      14.306  52.420  83.309  1.00  0.00     0.011 A 
HETATM    2  C5  UNL     1      14.107  53.262  84.378  1.00  0.00     0.033 A 
HETATM    3  C6  UNL     1      12.904  53.332  85.098  1.00  0.00    -0.035 A 
HETATM    4  C19 UNL     1      11.869  52.524  84.724  1.00  0.00     0.082 A 
HETATM    5  C25 UNL     1      12.095  51.673  83.629  1.00  0.00     0.115 A 
HETATM    6  N5  UNL     1      13.266  51.640  82.970  1.00  0.00    -0.345 N 
ATOM      7  H5  UNL     1      13.368  51.000  82.182  1.00  0.00     0.167 HD
ENDROOT
BRANCH   3   8
HETATM    8  C7  UNL     1      12.793  54.298  86.222  1.00  0.00     0.070 C 
BRANCH   8   9
HETATM    9  C8  UNL     1      13.795  54.018  87.278  1.00  0.00     0.277 C 
BRANCH   9  10
HETATM   10  N1  UNL     1      13.398  54.591  88.576  1.00  0.00     0.093 N 
HETATM   11  C9  UNL     1      14.589  54.530  89.414  1.00  0.00     0.277 C 
HETATM   12  C10 UNL     1      14.318  55.267  90.688  1.00  0.00     0.069 C 
HETATM   13  C11 UNL     1      13.135  54.695  91.338  1.00  0.00    -0.046 A 
HETATM   14  C12 UNL     1      12.906  54.837  92.697  1.00  0.00     0.047 A 
HETATM   15  C16 UNL     1      12.211  53.999  90.604  1.00  0.00    -0.021 A 
HETATM   16  C13 UNL     1      11.799  54.310  93.325  1.00  0.00     0.105 A 
HETATM   17  C14 UNL     1      10.875  53.609  92.567  1.00  0.00     0.105 A 
HETATM   18  O2  UNL     1      11.313  54.290  94.637  1.00  0.00    -0.323 OA
HETATM   19  C15 UNL     1      11.108  53.471  91.215  1.00  0.00     0.049 A 
HETATM   20  O1  UNL     1       9.858  53.186  93.445  1.00  0.00    -0.323 OA
HETATM   21  C18 UNL     1       9.897  54.052  94.590  1.00  0.00     0.352 C 
HETATM   22  C17 UNL     1      12.337  53.776  89.139  1.00  0.00     0.311 C 
ENDBRANCH   9  10
ENDBRANCH   8   9
ENDBRANCH   3   8
BRANCH   4  23
HETATM   23  C20 UNL     1      10.588  52.496  85.404  1.00  0.00     0.258 C 
HETATM   24  O3  UNL     1       9.643  53.247  85.091  1.00  0.00    -0.267 OA
HETATM   25  N2  UNL     1      10.375  51.581  86.480  1.00  0.00    -0.346 N 
HETATM   26  C21 UNL     1       9.174  51.405  87.276  1.00  0.00     0.128 C 
HETATM   27  C24 UNL     1      11.345  50.638  86.985  1.00  0.00     0.159 C 
HETATM   28  C22 UNL     1       9.788  51.253  88.672  1.00  0.00     0.054 C 
HETATM   29  C23 UNL     1      10.893  50.255  88.372  1.00  0.00     0.203 C 
BRANCH  29  30
HETATM   30  N3  UNL     1      11.962  50.302  89.344  1.00  0.00    -0.073 N 
ATOM     31  H33 UNL     1      11.814  51.055  90.015  1.00  0.00     0.274 HD
ATOM     32  H32 UNL     1      11.916  49.504  89.979  1.00  0.00     0.274 HD
ATOM     33  H31 UNL     1      12.882  50.372  88.910  1.00  0.00     0.274 HD
ENDBRANCH  29  30
ENDBRANCH   4  23
BRANCH   1  34
HETATM   34  C3  UNL     1      15.599  52.407  82.630  1.00  0.00     0.057 C 
BRANCH  34  35
HETATM   35  C2  UNL     1      15.741  51.496  81.467  1.00  0.00     0.002 C 
HETATM   36  C1  UNL     1      15.367  52.065  80.138  1.00  0.00     0.005 C 
ENDBRANCH  34  35
ENDBRANCH   1  34
BRANCH   5  37
HETATM   37  N4  UNL     1      11.100  50.914  83.290  1.00  0.00    -0.385 N 
ATOM     38  H42 UNL     1      10.135  51.166  83.509  1.00  0.00     0.157 HD
ATOM     39  H41 UNL     1      11.345  50.057  82.794  1.00  0.00     0.157 HD
ENDBRANCH   5  37
TORSDOF 8
ENDMDL
MODEL 3
REMARK VINA RESULT: -7.211563076      2.446      5.304
REMARK  8 active torsions:
REMARK  status: ('A' for Active; 'I' for Inactive)
REMARK    1  A    between atoms: C2_2  and  C3_3 
REMARK    2  A    between atoms: C3_3  and  C4_4 
REMARK    3  A    between atoms: C6_6  and  C7_7 
REMARK    4  A    between atoms: C7_7  and  C8_8 
REMARK    5  A    between atoms: C8_8  and  N1_9 
REMARK    6  A    between atoms: C19_22  and  C20_23 
REMARK       I    between atoms: C20_23  and  N2_25 
REMARK    7  A    between atoms: C23_28  and  N3_29 
REMARK    8  A    between atoms: C25_34  and  N4_35 
ROOT
HETATM    1  C4  UNL     1      11.852  52.972  88.896  1.00  0.00     0.011 A 
HETATM    2  C5  UNL     1      11.983  53.258  87.557  1.00  0.00     0.033 A 
HETATM    3  C6  UNL     1      11.450  52.455  86.536  1.00  0.00    -0.035 A 
HETATM    4  C19 UNL     1      10.764  51.327  86.882  1.00  0.00     0.082 A 
HETATM    5  C25 UNL     1      10.644  51.055  88.254  1.00  0.00     0.115 A 
HETATM    6  N5  UNL     1      11.171  51.854  89.198  1.00  0.00    -0.345 N 
ATOM      7  H5  UNL     1      11.049  51.602  90.179  1.00  0.00     0.167 HD
ENDROOT
BRANCH   3   8
HETATM    8  C7  UNL     1      11.674  52.849  85.121  1.00  0.00     0.070 C 
BRANCH   8   9
HETATM    9  C8  UNL     1      13.091  53.212  84.878  1.00  0.00     0.277 C 
BRANCH   9  10
HETATM   10  N1  UNL     1      13.758  52.249  83.984  1.00  0.00     0.093 N 
HETATM   11  C9  UNL     1      14.730  53.026  83.225  1.00  0.00     0.277 C 
HETATM   12  C10 UNL     1      15.580  52.085  82.429  1.00  0.00     0.069 C 
HETATM   13  C11 UNL     1      14.722  51.257  81.577  1.00  0.00    -0.046 A 
HETATM   14  C12 UNL     1      15.202  50.640  80.433  1.00  0.00     0.047 A 
HETATM   15  C16 UNL     1      13.403  51.067  81.899  1.00  0.00    -0.021 A 
HETATM   16  C13 UNL     1      14.412  49.856  79.621  1.00  0.00     0.105 A 
HETATM   17  C14 UNL     1      13.081  49.675  79.963  1.00  0.00     0.105 A 
HETATM   18  O2  UNL     1      14.607  49.128  78.442  1.00  0.00    -0.323 OA
HETATM   19  C15 UNL     1      12.608  50.291  81.102  1.00  0.00     0.049 A 
HETATM   20  O1  UNL     1      12.513  48.844  78.978  1.00  0.00    -0.323 OA
HETATM   21  C18 UNL     1      13.588  48.120  78.360  1.00  0.00     0.352 C 
HETATM   22  C17 UNL     1      12.764  51.671  83.099  1.00  0.00     0.311 C 
ENDBRANCH   9  10
ENDBRANCH   8   9
ENDBRANCH   3   8
BRANCH   4  23
HETATM   23  C20 UNL     1      10.154  50.433  85.915  1.00  0.00     0.258 C 
HETATM   24  O3  UNL     1       8.966  50.543  85.552  1.00  0.00    -0.267 OA
HETATM   25  N2  UNL     1      10.924  49.377  85.340  1.00  0.00    -0.346 N 
HETATM   26  C21 UNL     1      10.496  48.390  84.365  1.00  0.00     0.128 C 
HETATM   27  C24 UNL     1      12.309  49.091  85.634  1.00  0.00     0.159 C 
HETATM   28  C22 UNL     1      11.159  47.131  84.937  1.00  0.00     0.054 C 
HETATM   29  C23 UNL     1      12.554  47.664  85.212  1.00  0.00     0.203 C 
BRANCH  29  30
HETATM   30  N3  UNL     1      13.254  46.894  86.216  1.00  0.00    -0.073 N 
ATOM     31  H33 UNL     1      13.343  47.420  87.085  1.00  0.00     0.274 HD
ATOM     32  H32 UNL     1      12.679  46.120  86.551  1.00  0.00     0.274 HD
ATOM     33  H31 UNL     1      14.162  46.562  85.892  1.00  0.00     0.274 HD
ENDBRANCH  29  30
ENDBRANCH   4  23
BRANCH   1  34
HETATM   34  C3  UNL     1      12.428  53.875  89.888  1.00  0.00     0.057 C 
BRANCH  34  35
HETATM   35  C2  UNL     1      13.266  54.990  89.380  1.00  0.00     0.002 C 
HETATM   36  C1  UNL     1      14.655  55.067  89.923  1.00  0.00     0.005 C 
ENDBRANCH  34  35
ENDBRANCH   1  34
BRANCH   5  37
HETATM   37  N4  UNL     1       9.988  49.978  88.561  1.00  0.00    -0.385 N 
ATOM     38  H42 UNL     1       9.799  49.724  89.530  1.00  0.00     0.157 HD
ATOM     39  H41 UNL     1       9.679  49.409  87.773  1.00  0.00     0.157 HD
ENDBRANCH   5  37
TORSDOF 8
ENDMDL
MODEL 4
REMARK VINA RESULT: -7.205090593      2.538      5.629
REMARK  8 active torsions:
REMARK  status: ('A' for Active; 'I' for Inactive)
REMARK    1  A    between atoms: C2_2  and  C3_3 
REMARK    2  A    between atoms: C3_3  and  C4_4 
REMARK    3  A    between atoms: C6_6  and  C7_7 
REMARK    4  A    between atoms: C7_7  and  C8_8 
REMARK    5  A    between atoms: C8_8  and  N1_9 
REMARK    6  A    between atoms: C19_22  and  C20_23 
REMARK       I    between atoms: C20_23  and  N2_25 
REMARK    7  A    between atoms: C23_28  and  N3_29 
REMARK    8  A    between atoms: C25_34  and  N4_35 
ROOT
HETATM    1  C4  UNL     1      12.051  53.129  89.408  1.00  0.00     0.011 A 
HETATM    2  C5  UNL     1      11.916  53.330  88.054  1.00  0.00     0.033 A 
HETATM    3  C6  UNL     1      11.640  52.300  87.141  1.00  0.00    -0.035 A 
HETATM    4  C19 UNL     1      11.497  51.027  87.613  1.00  0.00     0.082 A 
HETATM    5  C25 UNL     1      11.639  50.847  88.999  1.00  0.00     0.115 A 
HETATM    6  N5  UNL     1      11.904  51.864  89.836  1.00  0.00    -0.345 N 
ATOM      7  H5  UNL     1      11.996  51.669  90.833  1.00  0.00     0.167 HD
ENDROOT
BRANCH   3   8
HETATM    8  C7  UNL     1      11.539  52.628  85.696  1.00  0.00     0.070 C 
BRANCH   8   9
HETATM    9  C8  UNL     1      12.764  53.305  85.208  1.00  0.00     0.277 C 
BRANCH   9  10
HETATM   10  N1  UNL     1      13.564  52.429  84.332  1.00  0.00     0.093 N 
HETATM   11  C9  UNL     1      14.516  53.305  83.662  1.00  0.00     0.277 C 
HETATM   12  C10 UNL     1      15.488  52.462  82.898  1.00  0.00     0.069 C 
HETATM   13  C11 UNL     1      14.756  51.599  81.967  1.00  0.00    -0.046 A 
HETATM   14  C12 UNL     1      15.356  51.062  80.840  1.00  0.00     0.047 A 
HETATM   15  C16 UNL     1      13.439  51.295  82.195  1.00  0.00    -0.021 A 
HETATM   16  C13 UNL     1      14.686  50.246  79.955  1.00  0.00     0.105 A 
HETATM   17  C14 UNL     1      13.355  49.949  80.202  1.00  0.00     0.105 A 
HETATM   18  O2  UNL     1      15.014  49.576  78.771  1.00  0.00    -0.323 OA
HETATM   19  C15 UNL     1      12.762  50.486  81.325  1.00  0.00     0.049 A 
HETATM   20  O1  UNL     1      12.920  49.109  79.157  1.00  0.00    -0.323 OA
HETATM   21  C18 UNL     1      14.087  48.494  78.591  1.00  0.00     0.352 C 
HETATM   22  C17 UNL     1      12.678  51.804  83.366  1.00  0.00     0.311 C 
ENDBRANCH   9  10
ENDBRANCH   8   9
ENDBRANCH   3   8
BRANCH   4  23
HETATM   23  C20 UNL     1      11.192  49.888  86.767  1.00  0.00     0.258 C 
HETATM   24  O3  UNL     1      12.069  49.102  86.356  1.00  0.00    -0.267 OA
HETATM   25  N2  UNL     1       9.842  49.636  86.374  1.00  0.00    -0.346 N 
HETATM   26  C21 UNL     1       9.343  48.558  85.540  1.00  0.00     0.128 C 
HETATM   27  C24 UNL     1       8.697  50.431  86.748  1.00  0.00     0.159 C 
HETATM   28  C22 UNL     1       8.332  49.323  84.677  1.00  0.00     0.054 C 
HETATM   29  C23 UNL     1       7.608  50.116  85.752  1.00  0.00     0.203 C 
BRANCH  29  30
HETATM   30  N3  UNL     1       6.965  51.300  85.229  1.00  0.00    -0.073 N 
ATOM     31  H33 UNL     1       6.303  51.685  85.902  1.00  0.00     0.274 HD
ATOM     32  H32 UNL     1       7.620  52.081  85.177  1.00  0.00     0.274 HD
ATOM     33  H31 UNL     1       6.518  51.136  84.327  1.00  0.00     0.274 HD
ENDBRANCH  29  30
ENDBRANCH   4  23
BRANCH   1  34
HETATM   34  C3  UNL     1      12.325  54.266  90.284  1.00  0.00     0.057 C 
BRANCH  34  35
HETATM   35  C2  UNL     1      13.721  54.430  90.760  1.00  0.00     0.002 C 
HETATM   36  C1  UNL     1      14.640  55.180  89.853  1.00  0.00     0.005 C 
ENDBRANCH  34  35
ENDBRANCH   1  34
BRANCH   5  37
HETATM   37  N4  UNL     1      11.500  49.630  89.426  1.00  0.00    -0.385 N 
ATOM     38  H42 UNL     1      12.162  48.895  89.177  1.00  0.00     0.157 HD
ATOM     39  H41 UNL     1      10.690  49.460  90.023  1.00  0.00     0.157 HD
ENDBRANCH   5  37
TORSDOF 8
ENDMDL
MODEL 5
REMARK VINA RESULT: -7.131507413      3.994      9.717
REMARK  8 active torsions:
REMARK  status: ('A' for Active; 'I' for Inactive)
REMARK    1  A    between atoms: C2_2  and  C3_3 
REMARK    2  A    between atoms: C3_3  and  C4_4 
REMARK    3  A    between atoms: C6_6  and  C7_7 
REMARK    4  A    between atoms: C7_7  and  C8_8 
REMARK    5  A    between atoms: C8_8  and  N1_9 
REMARK    6  A    between atoms: C19_22  and  C20_23 
REMARK       I    between atoms: C20_23  and  N2_25 
REMARK    7  A    between atoms: C23_28  and  N3_29 
REMARK    8  A    between atoms: C25_34  and  N4_35 
ROOT
HETATM    1  C4  UNL     1      13.891  51.843  83.007  1.00  0.00     0.011 A 
HETATM    2  C5  UNL     1      13.286  52.477  84.068  1.00  0.00     0.033 A 
HETATM    3  C6  UNL     1      11.974  52.209  84.487  1.00  0.00    -0.035 A 
HETATM    4  C19 UNL     1      11.250  51.269  83.810  1.00  0.00     0.082 A 
HETATM    5  C25 UNL     1      11.887  50.636  82.731  1.00  0.00     0.115 A 
HETATM    6  N5  UNL     1      13.148  50.925  82.366  1.00  0.00    -0.345 N 
ATOM      7  H5  UNL     1      13.556  50.430  81.573  1.00  0.00     0.167 HD
ENDROOT
BRANCH   3   8
HETATM    8  C7  UNL     1      11.414  52.972  85.631  1.00  0.00     0.070 C 
BRANCH   8   9
HETATM    9  C8  UNL     1      11.616  52.254  86.912  1.00  0.00     0.277 C 
BRANCH   9  10
HETATM   10  N1  UNL     1      11.706  53.183  88.053  1.00  0.00     0.093 N 
HETATM   11  C9  UNL     1      13.056  53.732  88.009  1.00  0.00     0.277 C 
HETATM   12  C10 UNL     1      13.162  54.826  89.024  1.00  0.00     0.069 C 
HETATM   13  C11 UNL     1      12.805  54.300  90.345  1.00  0.00    -0.046 A 
HETATM   14  C12 UNL     1      13.232  54.907  91.515  1.00  0.00     0.047 A 
HETATM   15  C16 UNL     1      12.024  53.179  90.455  1.00  0.00    -0.021 A 
HETATM   16  C13 UNL     1      12.904  54.430  92.765  1.00  0.00     0.105 A 
HETATM   17  C14 UNL     1      12.113  53.295  92.857  1.00  0.00     0.105 A 
HETATM   18  O2  UNL     1      13.176  54.815  94.083  1.00  0.00    -0.323 OA
HETATM   19  C15 UNL     1      11.691  52.695  91.690  1.00  0.00     0.049 A 
HETATM   20  O1  UNL     1      11.932  53.029  94.229  1.00  0.00    -0.323 OA
HETATM   21  C18 UNL     1      12.162  54.259  94.935  1.00  0.00     0.352 C 
HETATM   22  C17 UNL     1      11.500  52.434  89.279  1.00  0.00     0.311 C 
ENDBRANCH   9  10
ENDBRANCH   8   9
ENDBRANCH   3   8
BRANCH   4  23
HETATM   23  C20 UNL     1       9.892  50.896  84.164  1.00  0.00     0.258 C 
HETATM   24  O3  UNL     1       9.634  49.949  84.933  1.00  0.00    -0.267 OA
HETATM   25  N2  UNL     1       8.791  51.628  83.625  1.00  0.00    -0.346 N 
HETATM   26  C21 UNL     1       7.375  51.409  83.859  1.00  0.00     0.128 C 
HETATM   27  C24 UNL     1       8.890  52.751  82.723  1.00  0.00     0.159 C 
HETATM   28  C22 UNL     1       6.828  51.604  82.440  1.00  0.00     0.054 C 
HETATM   29  C23 UNL     1       7.548  52.883  82.048  1.00  0.00     0.203 C 
BRANCH  29  30
HETATM   30  N3  UNL     1       7.652  53.043  80.615  1.00  0.00    -0.073 N 
ATOM     31  H33 UNL     1       8.558  52.719  80.276  1.00  0.00     0.274 HD
ATOM     32  H32 UNL     1       7.048  52.382  80.127  1.00  0.00     0.274 HD
ATOM     33  H31 UNL     1       7.468  54.000  80.314  1.00  0.00     0.274 HD
ENDBRANCH  29  30
ENDBRANCH   4  23
BRANCH   1  34
HETATM   34  C3  UNL     1      15.267  52.178  82.654  1.00  0.00     0.057 C 
BRANCH  34  35
HETATM   35  C2  UNL     1      15.819  51.555  81.425  1.00  0.00     0.002 C 
HETATM   36  C1  UNL     1      15.456  52.215  80.135  1.00  0.00     0.005 C 
ENDBRANCH  34  35
ENDBRANCH   1  34
BRANCH   5  37
HETATM   37  N4  UNL     1      11.182  49.748  82.102  1.00  0.00    -0.385 N 
ATOM     38  H42 UNL     1      10.674  49.016  82.599  1.00  0.00     0.157 HD
ATOM     39  H41 UNL     1      11.169  49.830  81.085  1.00  0.00     0.157 HD
ENDBRANCH   5  37
TORSDOF 8
ENDMDL
