MODEL 1
REMARK VINA RESULT: -7.059354585      0.000      0.000
REMARK  8 active torsions:
REMARK  status: ('A' for Active; 'I' for Inactive)
REMARK    1  A    between atoms: N2_5  and  C3_6 
REMARK    2  A    between atoms: C5_8  and  C6_9 
REMARK    3  A    between atoms: C9_12  and  O1_13 
REMARK    4  A    between atoms: C11_15  and  O2_16 
REMARK    5  A    between atoms: C15_21  and  C16_22 
REMARK    6  A    between atoms: C16_22  and  C17_23 
REMARK    7  A    between atoms: C18_24  and  O4_25 
REMARK    8  A    between atoms: C22_32  and  O5_33 
ROOT
HETATM    1  C6  UNL     1      11.577  53.678  91.162  1.00  0.00    -0.064 C 
HETATM    2  C7  UNL     1      12.278  54.068  92.061  1.00  0.00    -0.105 C 
HETATM    3  C8  UNL     1      13.137  54.568  93.146  1.00  0.00     0.112 C 
ENDROOT
BRANCH   1   4
HETATM    4  C5  UNL     1      10.754  53.208  90.067  1.00  0.00     0.056 A 
HETATM    5  C4  UNL     1      11.307  52.556  88.979  1.00  0.00     0.055 A 
HETATM    6  C3  UNL     1      10.549  52.100  87.923  1.00  0.00     0.064 A 
HETATM    7  C13 UNL     1       9.178  52.306  87.967  1.00  0.00     0.071 A 
HETATM    8  C11 UNL     1       8.592  52.942  89.015  1.00  0.00     0.105 A 
HETATM    9  C9  UNL     1       9.389  53.384  90.052  1.00  0.00     0.120 A 
BRANCH   6  10
HETATM   10  N2  UNL     1      11.082  51.430  86.789  1.00  0.00    -0.219 N 
HETATM   11  N1  UNL     1      11.455  50.172  86.682  1.00  0.00    -0.291 N 
HETATM   12  C2  UNL     1      11.913  49.906  85.434  1.00  0.00     0.055 A 
ATOM     13  H1  UNL     1      11.405  49.488  87.437  1.00  0.00     0.187 HD
HETATM   14  C1  UNL     1      12.342  48.705  85.101  1.00  0.00     0.045 C 
HETATM   15  C15 UNL     1      11.833  51.050  84.696  1.00  0.00     0.062 A 
HETATM   16  C14 UNL     1      11.300  51.994  85.598  1.00  0.00     0.279 A 
HETATM   17  O3  UNL     1      11.051  53.202  85.347  1.00  0.00    -0.265 OA
BRANCH  15  18
HETATM   18  C16 UNL     1      12.144  51.277  83.471  1.00  0.00     0.036 C 
BRANCH  18  19
HETATM   19  C17 UNL     1      13.369  51.626  82.827  1.00  0.00     0.028 A 
HETATM   20  C18 UNL     1      14.316  52.545  83.273  1.00  0.00     0.151 A 
HETATM   21  N3  UNL     1      15.323  52.545  82.398  1.00  0.00    -0.336 N 
HETATM   22  C19 UNL     1      15.064  51.672  81.415  1.00  0.00     0.045 A 
ATOM     23  H3  UNL     1      16.161  53.123  82.466  1.00  0.00     0.168 HD
HETATM   24  C20 UNL     1      15.764  51.294  80.285  1.00  0.00     0.033 A 
HETATM   25  C25 UNL     1      13.850  51.066  81.635  1.00  0.00     0.008 A 
HETATM   26  C21 UNL     1      15.249  50.348  79.426  1.00  0.00     0.039 A 
HETATM   27  C22 UNL     1      14.031  49.748  79.656  1.00  0.00     0.069 A 
HETATM   28  C24 UNL     1      13.318  50.114  80.781  1.00  0.00     0.051 A 
BRANCH  20  29
HETATM   29  O4  UNL     1      14.190  53.313  84.445  1.00  0.00    -0.345 OA
ATOM     30  H4  UNL     1      14.916  53.566  85.003  1.00  0.00     0.219 HD
ENDBRANCH  20  29
BRANCH  27  31
HETATM   31  O5  UNL     1      13.500  48.786  78.788  1.00  0.00    -0.356 OA
HETATM   32  C23 UNL     1      12.200  48.322  79.028  1.00  0.00     0.210 C 
ENDBRANCH  27  31
ENDBRANCH  18  19
ENDBRANCH  15  18
ENDBRANCH   6  10
BRANCH   8  33
HETATM   33  O2  UNL     1       7.226  53.152  89.063  1.00  0.00    -0.353 OA
HETATM   34  C12 UNL     1       6.625  54.070  88.172  1.00  0.00     0.210 C 
ENDBRANCH   8  33
BRANCH   9  35
HETATM   35  O1  UNL     1       8.794  54.033  91.125  1.00  0.00    -0.352 OA
HETATM   36  C10 UNL     1       8.380  53.220  92.212  1.00  0.00     0.210 C 
ENDBRANCH   9  35
ENDBRANCH   1   4
TORSDOF 8
ENDMDL
MODEL 2
REMARK VINA RESULT: -6.976210354      2.711      9.876
REMARK  8 active torsions:
REMARK  status: ('A' for Active; 'I' for Inactive)
REMARK    1  A    between atoms: N2_5  and  C3_6 
REMARK    2  A    between atoms: C5_8  and  C6_9 
REMARK    3  A    between atoms: C9_12  and  O1_13 
REMARK    4  A    between atoms: C11_15  and  O2_16 
REMARK    5  A    between atoms: C15_21  and  C16_22 
REMARK    6  A    between atoms: C16_22  and  C17_23 
REMARK    7  A    between atoms: C18_24  and  O4_25 
REMARK    8  A    between atoms: C22_32  and  O5_33 
ROOT
HETATM    1  C6  UNL     1      13.569  51.805  83.277  1.00  0.00    -0.064 C 
HETATM    2  C7  UNL     1      14.627  51.925  82.714  1.00  0.00    -0.105 C 
HETATM    3  C8  UNL     1      15.908  52.063  82.003  1.00  0.00     0.112 C 
ENDROOT
BRANCH   1   4
HETATM    4  C5  UNL     1      12.298  51.637  83.951  1.00  0.00     0.056 A 
HETATM    5  C4  UNL     1      12.060  52.202  85.190  1.00  0.00     0.055 A 
HETATM    6  C3  UNL     1      10.861  52.058  85.854  1.00  0.00     0.064 A 
HETATM    7  C13 UNL     1       9.862  51.316  85.243  1.00  0.00     0.071 A 
HETATM    8  C11 UNL     1      10.052  50.741  84.025  1.00  0.00     0.105 A 
HETATM    9  C9  UNL     1      11.268  50.910  83.396  1.00  0.00     0.120 A 
BRANCH   6  10
HETATM   10  N2  UNL     1      10.582  52.622  87.128  1.00  0.00    -0.219 N 
HETATM   11  N1  UNL     1       9.759  53.604  87.426  1.00  0.00    -0.291 N 
HETATM   12  C2  UNL     1       9.766  53.857  88.759  1.00  0.00     0.055 A 
ATOM     13  H1  UNL     1       9.192  54.110  86.745  1.00  0.00     0.187 HD
HETATM   14  C1  UNL     1       9.015  54.805  89.283  1.00  0.00     0.045 C 
HETATM   15  C15 UNL     1      10.638  52.992  89.352  1.00  0.00     0.062 A 
HETATM   16  C14 UNL     1      11.135  52.226  88.279  1.00  0.00     0.279 A 
HETATM   17  O3  UNL     1      11.977  51.295  88.359  1.00  0.00    -0.265 OA
BRANCH  15  18
HETATM   18  C16 UNL     1      10.966  52.854  90.586  1.00  0.00     0.036 C 
BRANCH  18  19
HETATM   19  C17 UNL     1      11.785  53.623  91.468  1.00  0.00     0.028 A 
HETATM   20  C18 UNL     1      13.063  54.112  91.209  1.00  0.00     0.151 A 
HETATM   21  N3  UNL     1      13.455  54.805  92.279  1.00  0.00    -0.336 N 
HETATM   22  C19 UNL     1      12.489  54.783  93.207  1.00  0.00     0.045 A 
ATOM     23  H3  UNL     1      14.353  55.279  92.375  1.00  0.00     0.168 HD
HETATM   24  C20 UNL     1      12.388  55.333  94.471  1.00  0.00     0.033 A 
HETATM   25  C25 UNL     1      11.417  54.055  92.750  1.00  0.00     0.008 A 
HETATM   26  C21 UNL     1      11.250  55.148  95.226  1.00  0.00     0.039 A 
HETATM   27  C22 UNL     1      10.182  54.416  94.758  1.00  0.00     0.069 A 
HETATM   28  C24 UNL     1      10.267  53.859  93.497  1.00  0.00     0.051 A 
BRANCH  20  29
HETATM   29  O4  UNL     1      13.775  53.888  90.016  1.00  0.00    -0.345 OA
ATOM     30  H4  UNL     1      14.605  54.295  89.801  1.00  0.00     0.219 HD
ENDBRANCH  20  29
BRANCH  27  31
HETATM   31  O5  UNL     1       9.022  54.222  95.519  1.00  0.00    -0.356 OA
HETATM   32  C23 UNL     1       8.135  55.297  95.660  1.00  0.00     0.210 C 
ENDBRANCH  27  31
ENDBRANCH  18  19
ENDBRANCH  15  18
ENDBRANCH   6  10
BRANCH   8  33
HETATM   33  O2  UNL     1       9.060  49.999  83.413  1.00  0.00    -0.353 OA
HETATM   34  C12 UNL     1       7.813  50.596  83.123  1.00  0.00     0.210 C 
ENDBRANCH   8  33
BRANCH   9  35
HETATM   35  O1  UNL     1      11.466  50.326  82.152  1.00  0.00    -0.352 OA
HETATM   36  C10 UNL     1      11.004  51.055  81.025  1.00  0.00     0.210 C 
ENDBRANCH   9  35
ENDBRANCH   1   4
TORSDOF 8
ENDMDL
MODEL 3
REMARK VINA RESULT: -6.952426964      2.813      4.325
REMARK  8 active torsions:
REMARK  status: ('A' for Active; 'I' for Inactive)
REMARK    1  A    between atoms: N2_5  and  C3_6 
REMARK    2  A    between atoms: C5_8  and  C6_9 
REMARK    3  A    between atoms: C9_12  and  O1_13 
REMARK    4  A    between atoms: C11_15  and  O2_16 
REMARK    5  A    between atoms: C15_21  and  C16_22 
REMARK    6  A    between atoms: C16_22  and  C17_23 
REMARK    7  A    between atoms: C18_24  and  O4_25 
REMARK    8  A    between atoms: C22_32  and  O5_33 
ROOT
HETATM    1  C6  UNL     1      11.904  54.724  93.897  1.00  0.00    -0.064 C 
HETATM    2  C7  UNL     1      11.640  55.709  94.539  1.00  0.00    -0.105 C 
HETATM    3  C8  UNL     1      11.297  56.897  95.336  1.00  0.00     0.112 C 
ENDROOT
BRANCH   1   4
HETATM    4  C5  UNL     1      12.200  53.542  93.115  1.00  0.00     0.056 A 
HETATM    5  C4  UNL     1      11.692  53.378  91.839  1.00  0.00     0.055 A 
HETATM    6  C3  UNL     1      11.957  52.263  91.072  1.00  0.00     0.064 A 
HETATM    7  C13 UNL     1      12.768  51.277  91.612  1.00  0.00     0.071 A 
HETATM    8  C11 UNL     1      13.289  51.396  92.863  1.00  0.00     0.105 A 
HETATM    9  C9  UNL     1      12.998  52.528  93.597  1.00  0.00     0.120 A 
BRANCH   6  10
HETATM   10  N2  UNL     1      11.450  52.059  89.760  1.00  0.00    -0.219 N 
HETATM   11  N1  UNL     1      10.588  51.155  89.347  1.00  0.00    -0.291 N 
HETATM   12  C2  UNL     1      10.351  51.280  88.018  1.00  0.00     0.055 A 
ATOM     13  H1  UNL     1      10.156  50.452  89.947  1.00  0.00     0.187 HD
HETATM   14  C1  UNL     1       9.519  50.475  87.389  1.00  0.00     0.045 C 
HETATM   15  C15 UNL     1      11.098  52.320  87.548  1.00  0.00     0.062 A 
HETATM   16  C14 UNL     1      11.782  52.786  88.689  1.00  0.00     0.279 A 
HETATM   17  O3  UNL     1      12.593  53.747  88.727  1.00  0.00    -0.265 OA
BRANCH  15  18
HETATM   18  C16 UNL     1      11.193  52.811  86.365  1.00  0.00     0.036 C 
BRANCH  18  19
HETATM   19  C17 UNL     1      12.234  52.798  85.387  1.00  0.00     0.028 A 
HETATM   20  C18 UNL     1      13.306  53.682  85.294  1.00  0.00     0.151 A 
HETATM   21  N3  UNL     1      14.060  53.297  84.263  1.00  0.00    -0.336 N 
HETATM   22  C19 UNL     1      13.521  52.210  83.695  1.00  0.00     0.045 A 
ATOM     23  H3  UNL     1      14.915  53.760  83.956  1.00  0.00     0.168 HD
HETATM   24  C20 UNL     1      13.897  51.429  82.618  1.00  0.00     0.033 A 
HETATM   25  C25 UNL     1      12.373  51.853  84.360  1.00  0.00     0.008 A 
HETATM   26  C21 UNL     1      13.138  50.341  82.243  1.00  0.00     0.039 A 
HETATM   27  C22 UNL     1      11.990  49.993  82.918  1.00  0.00     0.069 A 
HETATM   28  C24 UNL     1      11.599  50.763  83.996  1.00  0.00     0.051 A 
BRANCH  20  29
HETATM   29  O4  UNL     1      13.514  54.774  86.157  1.00  0.00    -0.345 OA
ATOM     30  H4  UNL     1      13.322  55.678  85.936  1.00  0.00     0.219 HD
ENDBRANCH  20  29
BRANCH  27  31
HETATM   31  O5  UNL     1      11.212  48.890  82.543  1.00  0.00    -0.356 OA
HETATM   32  C23 UNL     1      11.542  48.219  81.358  1.00  0.00     0.210 C 
ENDBRANCH  27  31
ENDBRANCH  18  19
ENDBRANCH  15  18
ENDBRANCH   6  10
BRANCH   8  33
HETATM   33  O2  UNL     1      14.096  50.415  93.407  1.00  0.00    -0.353 OA
HETATM   34  C12 UNL     1      13.630  49.084  93.484  1.00  0.00     0.210 C 
ENDBRANCH   8  33
BRANCH   9  35
HETATM   35  O1  UNL     1      13.528  52.654  94.873  1.00  0.00    -0.352 OA
HETATM   36  C10 UNL     1      12.777  52.084  95.934  1.00  0.00     0.210 C 
ENDBRANCH   9  35
ENDBRANCH   1   4
TORSDOF 8
ENDMDL
MODEL 4
REMARK VINA RESULT: -6.943621895      2.147      3.615
REMARK  8 active torsions:
REMARK  status: ('A' for Active; 'I' for Inactive)
REMARK    1  A    between atoms: N2_5  and  C3_6 
REMARK    2  A    between atoms: C5_8  and  C6_9 
REMARK    3  A    between atoms: C9_12  and  O1_13 
REMARK    4  A    between atoms: C11_15  and  O2_16 
REMARK    5  A    between atoms: C15_21  and  C16_22 
REMARK    6  A    between atoms: C16_22  and  C17_23 
REMARK    7  A    between atoms: C18_24  and  O4_25 
REMARK    8  A    between atoms: C22_32  and  O5_33 
ROOT
HETATM    1  C6  UNL     1      12.764  53.884  88.847  1.00  0.00    -0.064 C 
HETATM    2  C7  UNL     1      13.620  54.626  89.257  1.00  0.00    -0.105 C 
HETATM    3  C8  UNL     1      14.645  55.549  89.769  1.00  0.00     0.112 C 
ENDROOT
BRANCH   1   4
HETATM    4  C5  UNL     1      11.729  53.009  88.337  1.00  0.00     0.056 A 
HETATM    5  C4  UNL     1      11.617  52.738  86.986  1.00  0.00     0.055 A 
HETATM    6  C3  UNL     1      10.642  51.910  86.473  1.00  0.00     0.064 A 
HETATM    7  C13 UNL     1       9.745  51.331  87.359  1.00  0.00     0.071 A 
HETATM    8  C11 UNL     1       9.818  51.570  88.695  1.00  0.00     0.105 A 
HETATM    9  C9  UNL     1      10.809  52.406  89.166  1.00  0.00     0.120 A 
BRANCH   6  10
HETATM   10  N2  UNL     1      10.494  51.611  85.092  1.00  0.00    -0.219 N 
HETATM   11  N1  UNL     1       9.765  52.236  84.192  1.00  0.00    -0.291 N 
HETATM   12  C2  UNL     1       9.886  51.650  82.975  1.00  0.00     0.055 A 
ATOM     13  H1  UNL     1       9.186  53.054  84.385  1.00  0.00     0.187 HD
HETATM   14  C1  UNL     1       9.241  52.111  81.923  1.00  0.00     0.045 C 
HETATM   15  C15 UNL     1      10.738  50.591  83.095  1.00  0.00     0.062 A 
HETATM   16  C14 UNL     1      11.100  50.603  84.457  1.00  0.00     0.279 A 
HETATM   17  O3  UNL     1      11.879  49.795  85.024  1.00  0.00    -0.265 OA
BRANCH  15  18
HETATM   18  C16 UNL     1      11.155  49.753  82.216  1.00  0.00     0.036 C 
BRANCH  18  19
HETATM   19  C17 UNL     1      12.225  49.787  81.270  1.00  0.00     0.028 A 
HETATM   20  C18 UNL     1      12.278  49.129  80.044  1.00  0.00     0.151 A 
HETATM   21  N3  UNL     1      13.432  49.454  79.460  1.00  0.00    -0.336 N 
HETATM   22  C19 UNL     1      14.117  50.288  80.253  1.00  0.00     0.045 A 
ATOM     23  H3  UNL     1      13.744  49.119  78.549  1.00  0.00     0.168 HD
HETATM   24  C20 UNL     1      15.344  50.910  80.125  1.00  0.00     0.033 A 
HETATM   25  C25 UNL     1      13.405  50.531  81.404  1.00  0.00     0.008 A 
HETATM   26  C21 UNL     1      15.817  51.738  81.121  1.00  0.00     0.039 A 
HETATM   27  C22 UNL     1      15.095  51.974  82.269  1.00  0.00     0.069 A 
HETATM   28  C24 UNL     1      13.866  51.359  82.414  1.00  0.00     0.051 A 
BRANCH  20  29
HETATM   29  O4  UNL     1      11.269  48.281  79.551  1.00  0.00    -0.345 OA
ATOM     30  H4  UNL     1      10.819  47.623  80.068  1.00  0.00     0.219 HD
ENDBRANCH  20  29
BRANCH  27  31
HETATM   31  O5  UNL     1      15.568  52.813  83.286  1.00  0.00    -0.356 OA
HETATM   32  C23 UNL     1      14.632  53.525  84.046  1.00  0.00     0.210 C 
ENDBRANCH  27  31
ENDBRANCH  18  19
ENDBRANCH  15  18
ENDBRANCH   6  10
BRANCH   8  33
HETATM   33  O2  UNL     1       8.926  50.997  89.583  1.00  0.00    -0.353 OA
HETATM   34  C12 UNL     1       8.833  49.590  89.676  1.00  0.00     0.210 C 
ENDBRANCH   8  33
BRANCH   9  35
HETATM   35  O1  UNL     1      10.888  52.652  90.530  1.00  0.00    -0.352 OA
HETATM   36  C10 UNL     1      11.688  51.763  91.293  1.00  0.00     0.210 C 
ENDBRANCH   9  35
ENDBRANCH   1   4
TORSDOF 8
ENDMDL
MODEL 5
REMARK VINA RESULT: -6.934104663      3.054     10.232
REMARK  8 active torsions:
REMARK  status: ('A' for Active; 'I' for Inactive)
REMARK    1  A    between atoms: N2_5  and  C3_6 
REMARK    2  A    between atoms: C5_8  and  C6_9 
REMARK    3  A    between atoms: C9_12  and  O1_13 
REMARK    4  A    between atoms: C11_15  and  O2_16 
REMARK    5  A    between atoms: C15_21  and  C16_22 
REMARK    6  A    between atoms: C16_22  and  C17_23 
REMARK    7  A    between atoms: C18_24  and  O4_25 
REMARK    8  A    between atoms: C22_32  and  O5_33 
ROOT
HETATM    1  C6  UNL     1      12.147  51.463  83.981  1.00  0.00    -0.064 C 
HETATM    2  C7  UNL     1      12.681  51.093  82.966  1.00  0.00    -0.105 C 
HETATM    3  C8  UNL     1      13.331  50.616  81.736  1.00  0.00     0.112 C 
ENDROOT
BRANCH   1   4
HETATM    4  C5  UNL     1      11.524  51.900  85.213  1.00  0.00     0.056 A 
HETATM    5  C4  UNL     1      12.247  52.557  86.192  1.00  0.00     0.055 A 
HETATM    6  C3  UNL     1      11.680  52.983  87.373  1.00  0.00     0.064 A 
HETATM    7  C13 UNL     1      10.330  52.740  87.575  1.00  0.00     0.071 A 
HETATM    8  C11 UNL     1       9.580  52.097  86.641  1.00  0.00     0.105 A 
HETATM    9  C9  UNL     1      10.188  51.686  85.472  1.00  0.00     0.120 A 
BRANCH   6  10
HETATM   10  N2  UNL     1      12.392  53.658  88.402  1.00  0.00    -0.219 N 
HETATM   11  N1  UNL     1      13.515  54.339  88.309  1.00  0.00    -0.291 N 
HETATM   12  C2  UNL     1      13.881  54.839  89.515  1.00  0.00     0.055 A 
ATOM     13  H1  UNL     1      14.039  54.474  87.444  1.00  0.00     0.187 HD
HETATM   14  C1  UNL     1      14.978  55.555  89.657  1.00  0.00     0.045 C 
HETATM   15  C15 UNL     1      12.948  54.460  90.435  1.00  0.00     0.062 A 
HETATM   16  C14 UNL     1      12.020  53.711  89.684  1.00  0.00     0.279 A 
HETATM   17  O3  UNL     1      10.980  53.160  90.127  1.00  0.00    -0.265 OA
BRANCH  15  18
HETATM   18  C16 UNL     1      12.872  54.703  91.694  1.00  0.00     0.036 C 
BRANCH  18  19
HETATM   19  C17 UNL     1      12.806  53.860  92.845  1.00  0.00     0.028 A 
HETATM   20  C18 UNL     1      13.282  52.556  92.955  1.00  0.00     0.151 A 
HETATM   21  N3  UNL     1      13.052  52.146  94.203  1.00  0.00    -0.336 N 
HETATM   22  C19 UNL     1      12.453  53.125  94.895  1.00  0.00     0.045 A 
ATOM     23  H3  UNL     1      13.295  51.227  94.573  1.00  0.00     0.168 HD
HETATM   24  C20 UNL     1      12.010  53.217  96.200  1.00  0.00     0.033 A 
HETATM   25  C25 UNL     1      12.275  54.225  94.090  1.00  0.00     0.008 A 
HETATM   26  C21 UNL     1      11.415  54.373  96.657  1.00  0.00     0.039 A 
HETATM   27  C22 UNL     1      11.242  55.469  95.842  1.00  0.00     0.069 A 
HETATM   28  C24 UNL     1      11.679  55.394  94.534  1.00  0.00     0.051 A 
BRANCH  20  29
HETATM   29  O4  UNL     1      13.890  51.839  91.908  1.00  0.00    -0.345 OA
ATOM     30  H4  UNL     1      13.434  51.232  91.336  1.00  0.00     0.219 HD
ENDBRANCH  20  29
BRANCH  27  31
HETATM   31  O5  UNL     1      10.638  56.647  96.299  1.00  0.00    -0.356 OA
HETATM   32  C23 UNL     1      10.962  57.850  95.657  1.00  0.00     0.210 C 
ENDBRANCH  27  31
ENDBRANCH  18  19
ENDBRANCH  15  18
ENDBRANCH   6  10
BRANCH   8  33
HETATM   33  O2  UNL     1       8.235  51.850  86.837  1.00  0.00    -0.353 OA
HETATM   34  C12 UNL     1       7.349  52.926  87.070  1.00  0.00     0.210 C 
ENDBRANCH   8  33
BRANCH   9  35
HETATM   35  O1  UNL     1       9.425  51.030  84.514  1.00  0.00    -0.352 OA
HETATM   36  C10 UNL     1       8.743  51.846  83.576  1.00  0.00     0.210 C 
ENDBRANCH   9  35
ENDBRANCH   1   4
TORSDOF 8
ENDMDL
