MODEL 1
REMARK VINA RESULT: -3.523385171      0.000      0.000
REMARK  1 active torsions:
REMARK  status: ('A' for Active; 'I' for Inactive)
REMARK    1  A    between atoms: C3_9  and  N3_10 
ROOT
HETATM    1  F1  UNL     1      37.239   9.551   3.943  1.00  0.00    -0.184 F 
HETATM    2  C1  UNL     1      35.960   9.990   3.808  1.00  0.00     0.216 A 
HETATM    3  N1  UNL     1      35.395  10.104   2.571  1.00  0.00    -0.308 N 
ATOM      4  H1  UNL     1      35.926   9.863   1.735  1.00  0.00     0.170 HD
HETATM    5  C2  UNL     1      34.146  10.534   2.474  1.00  0.00     0.182 A 
HETATM    6 CL1  UNL     1      33.330  10.715   0.918  1.00  0.00    -0.045 Cl
HETATM    7  N2  UNL     1      33.469  10.844   3.563  1.00  0.00    -0.317 N 
ATOM      8  H2  UNL     1      32.510  11.172   3.453  1.00  0.00     0.170 HD
HETATM    9  C3  UNL     1      33.975  10.752   4.831  1.00  0.00     0.132 A 
HETATM   10  C8  UNL     1      35.272  10.306   4.961  1.00  0.00     0.134 A 
HETATM   11 CL2  UNL     1      36.064  10.142   6.514  1.00  0.00    -0.075 Cl
ENDROOT
BRANCH   9  12
HETATM   12  N3  UNL     1      33.195  11.092   5.957  1.00  0.00    -0.364 N 
HETATM   13  C4  UNL     1      33.014  12.445   6.429  1.00  0.00     0.134 C 
HETATM   14  C5  UNL     1      31.874  12.527   7.438  1.00  0.00     0.093 C 
HETATM   15  S1  UNL     1      30.431  11.672   6.739  1.00  0.00    -0.166 SA
HETATM   16  C6  UNL     1      31.057   9.999   6.304  1.00  0.00     0.093 C 
HETATM   17  C7  UNL     1      32.530  10.038   6.694  1.00  0.00     0.134 C 
ENDBRANCH   9  12
TORSDOF 1
ENDMDL
MODEL 2
REMARK VINA RESULT: -3.501153320      3.776      5.207
REMARK  1 active torsions:
REMARK  status: ('A' for Active; 'I' for Inactive)
REMARK    1  A    between atoms: C3_9  and  N3_10 
ROOT
HETATM    1  F1  UNL     1      30.218  10.397   7.438  1.00  0.00    -0.184 F 
HETATM    2  C1  UNL     1      30.890  11.484   6.976  1.00  0.00     0.216 A 
HETATM    3  N1  UNL     1      30.320  12.723   7.030  1.00  0.00    -0.308 N 
ATOM      4  H1  UNL     1      29.385  12.847   7.417  1.00  0.00     0.170 HD
HETATM    5  C2  UNL     1      31.001  13.762   6.572  1.00  0.00     0.182 A 
HETATM    6 CL1  UNL     1      30.349  15.404   6.600  1.00  0.00    -0.045 Cl
HETATM    7  N2  UNL     1      32.211  13.590   6.074  1.00  0.00    -0.317 N 
ATOM      8  H2  UNL     1      32.708  14.411   5.730  1.00  0.00     0.170 HD
HETATM    9  C3  UNL     1      32.839  12.378   5.990  1.00  0.00     0.132 A 
HETATM   10  C8  UNL     1      32.153  11.280   6.460  1.00  0.00     0.134 A 
HETATM   11 CL2  UNL     1      32.816   9.659   6.416  1.00  0.00    -0.075 Cl
ENDROOT
BRANCH   9  12
HETATM   12  N3  UNL     1      34.139  12.261   5.452  1.00  0.00    -0.364 N 
HETATM   13  C4  UNL     1      35.326  12.077   6.253  1.00  0.00     0.134 C 
HETATM   14  C5  UNL     1      36.510  11.657   5.390  1.00  0.00     0.093 C 
HETATM   15  S1  UNL     1      35.982  10.282   4.326  1.00  0.00    -0.166 SA
HETATM   16  C6  UNL     1      34.490  10.919   3.462  1.00  0.00     0.093 C 
HETATM   17  C7  UNL     1      34.310  12.328   4.015  1.00  0.00     0.134 C 
ENDBRANCH   9  12
TORSDOF 1
ENDMDL
MODEL 3
REMARK VINA RESULT: -3.478708100      3.355      5.153
REMARK  1 active torsions:
REMARK  status: ('A' for Active; 'I' for Inactive)
REMARK    1  A    between atoms: C3_9  and  N3_10 
ROOT
HETATM    1  F1  UNL     1      32.541   9.989   2.386  1.00  0.00    -0.184 F 
HETATM    2  C1  UNL     1      33.315  10.057   3.501  1.00  0.00     0.216 A 
HETATM    3  N1  UNL     1      32.773   9.836   4.734  1.00  0.00    -0.308 N 
ATOM      4  H1  UNL     1      31.782   9.618   4.832  1.00  0.00     0.170 HD
HETATM    5  C2  UNL     1      33.554   9.909   5.800  1.00  0.00     0.182 A 
HETATM    6 CL1  UNL     1      32.944   9.639   7.436  1.00  0.00    -0.045 Cl
HETATM    7  N2  UNL     1      34.835  10.192   5.661  1.00  0.00    -0.317 N 
ATOM      8  H2  UNL     1      35.409  10.241   6.503  1.00  0.00     0.170 HD
HETATM    9  C3  UNL     1      35.442  10.424   4.457  1.00  0.00     0.132 A 
HETATM   10  C8  UNL     1      34.652  10.353   3.330  1.00  0.00     0.134 A 
HETATM   11 CL2  UNL     1      35.276  10.632   1.718  1.00  0.00    -0.075 Cl
ENDROOT
BRANCH   9  12
HETATM   12  N3  UNL     1      36.821  10.715   4.375  1.00  0.00    -0.364 N 
HETATM   13  C4  UNL     1      37.365  12.049   4.462  1.00  0.00     0.134 C 
HETATM   14  C5  UNL     1      38.875  12.012   4.673  1.00  0.00     0.093 C 
HETATM   15  S1  UNL     1      39.233  10.859   6.030  1.00  0.00    -0.166 SA
HETATM   16  C6  UNL     1      38.412   9.293   5.529  1.00  0.00     0.093 C 
HETATM   17  C7  UNL     1      37.757   9.625   4.193  1.00  0.00     0.134 C 
ENDBRANCH   9  12
TORSDOF 1
ENDMDL
MODEL 4
REMARK VINA RESULT: -3.452353069     10.883     12.173
REMARK  1 active torsions:
REMARK  status: ('A' for Active; 'I' for Inactive)
REMARK    1  A    between atoms: C3_9  and  N3_10 
ROOT
HETATM    1  F1  UNL     1      24.482  18.685   1.769  1.00  0.00    -0.184 F 
HETATM    2  C1  UNL     1      25.235  17.595   1.465  1.00  0.00     0.216 A 
HETATM    3  N1  UNL     1      26.258  17.213   2.282  1.00  0.00    -0.308 N 
ATOM      4  H1  UNL     1      26.470  17.740   3.129  1.00  0.00     0.170 HD
HETATM    5  C2  UNL     1      26.973  16.146   1.958  1.00  0.00     0.182 A 
HETATM    6 CL1  UNL     1      28.316  15.573   2.953  1.00  0.00    -0.045 Cl
HETATM    7  N2  UNL     1      26.690  15.471   0.861  1.00  0.00    -0.317 N 
ATOM      8  H2  UNL     1      27.259  14.654   0.640  1.00  0.00     0.170 HD
HETATM    9  C3  UNL     1      25.679  15.800  -0.001  1.00  0.00     0.132 A 
HETATM   10  C8  UNL     1      24.919  16.905   0.313  1.00  0.00     0.134 A 
HETATM   11 CL2  UNL     1      23.596  17.459  -0.692  1.00  0.00    -0.075 Cl
ENDROOT
BRANCH   9  12
HETATM   12  N3  UNL     1      25.423  15.031  -1.157  1.00  0.00    -0.364 N 
HETATM   13  C4  UNL     1      24.346  14.075  -1.263  1.00  0.00     0.134 C 
HETATM   14  C5  UNL     1      24.123  13.658  -2.713  1.00  0.00     0.093 C 
HETATM   15  S1  UNL     1      24.027  15.161  -3.730  1.00  0.00    -0.166 SA
HETATM   16  C6  UNL     1      25.573  16.076  -3.342  1.00  0.00     0.093 C 
HETATM   17  C7  UNL     1      26.279  15.199  -2.313  1.00  0.00     0.134 C 
ENDBRANCH   9  12
TORSDOF 1
ENDMDL
MODEL 5
REMARK VINA RESULT: -3.420381977      3.041      4.432
REMARK  1 active torsions:
REMARK  status: ('A' for Active; 'I' for Inactive)
REMARK    1  A    between atoms: C3_9  and  N3_10 
ROOT
HETATM    1  F1  UNL     1      35.208   8.465   7.429  1.00  0.00    -0.184 F 
HETATM    2  C1  UNL     1      34.307   9.254   6.786  1.00  0.00     0.216 A 
HETATM    3  N1  UNL     1      33.004   9.286   7.190  1.00  0.00    -0.308 N 
ATOM      4  H1  UNL     1      32.692   8.719   7.978  1.00  0.00     0.170 HD
HETATM    5  C2  UNL     1      32.151  10.066   6.543  1.00  0.00     0.182 A 
HETATM    6 CL1  UNL     1      30.446  10.174   6.993  1.00  0.00    -0.045 Cl
HETATM    7  N2  UNL     1      32.566  10.795   5.526  1.00  0.00    -0.317 N 
ATOM      8  H2  UNL     1      31.884  11.385   5.049  1.00  0.00     0.170 HD
HETATM    9  C3  UNL     1      33.856  10.810   5.070  1.00  0.00     0.132 A 
HETATM   10  C8  UNL     1      34.765  10.009   5.726  1.00  0.00     0.134 A 
HETATM   11 CL2  UNL     1      36.450   9.911   5.259  1.00  0.00    -0.075 Cl
ENDROOT
BRANCH   9  12
HETATM   12  N3  UNL     1      34.239  11.620   3.979  1.00  0.00    -0.364 N 
HETATM   13  C4  UNL     1      34.811  12.938   4.120  1.00  0.00     0.134 C 
HETATM   14  C5  UNL     1      35.418  13.415   2.805  1.00  0.00     0.093 C 
HETATM   15  S1  UNL     1      36.481  12.093   2.153  1.00  0.00    -0.166 SA
HETATM   16  C6  UNL     1      35.389  10.616   2.093  1.00  0.00     0.093 C 
HETATM   17  C7  UNL     1      34.053  11.116   2.634  1.00  0.00     0.134 C 
ENDBRANCH   9  12
TORSDOF 1
ENDMDL
