MODEL 1
REMARK VINA RESULT: -3.735933204      0.000      0.000
REMARK  2 active torsions:
REMARK  status: ('A' for Active; 'I' for Inactive)
REMARK    1  A    between atoms: C2_2  and  O1_3 
REMARK    2  A    between atoms: O1_3  and  C3_4 
REMARK       I    between atoms: C3_4  and  N1_6 
ROOT
HETATM    1  C3  UNL     1      35.313  10.007   3.415  1.00  0.00     0.375 C 
HETATM    2  O2  UNL     1      36.542  10.064   3.663  1.00  0.00    -0.237 OA
HETATM    3  N1  UNL     1      34.374  10.044   4.485  1.00  0.00    -0.209 N 
HETATM    4  C4  UNL     1      34.673  10.138   5.792  1.00  0.00     0.168 A 
HETATM    5 BR1  UNL     1      36.461  10.242   6.476  1.00  0.00    -0.010 Br
HETATM    6  N2  UNL     1      33.549  10.147   6.526  1.00  0.00    -0.323 N 
ATOM      7  H2  UNL     1      33.506  10.210   7.544  1.00  0.00     0.169 HD
HETATM    8  C5  UNL     1      32.478  10.058   5.693  1.00  0.00     0.162 A 
HETATM    9 CL1  UNL     1      30.788  10.032   6.160  1.00  0.00    -0.059 Cl
HETATM   10  C6  UNL     1      33.034   9.997   4.431  1.00  0.00     0.240 A 
HETATM   11  F1  UNL     1      32.328   9.898   3.273  1.00  0.00    -0.182 F 
ENDROOT
BRANCH   1  12
HETATM   12  O1  UNL     1      34.938   9.909   2.086  1.00  0.00    -0.304 OA
BRANCH  12  13
HETATM   13  C2  UNL     1      34.816  11.031   1.232  1.00  0.00     0.176 C 
HETATM   14  C1  UNL     1      34.724  10.509  -0.188  1.00  0.00     0.034 C 
ENDBRANCH  12  13
ENDBRANCH   1  12
TORSDOF 2
ENDMDL
MODEL 2
REMARK VINA RESULT: -3.502149077      2.630      4.189
REMARK  2 active torsions:
REMARK  status: ('A' for Active; 'I' for Inactive)
REMARK    1  A    between atoms: C2_2  and  O1_3 
REMARK    2  A    between atoms: O1_3  and  C3_4 
REMARK       I    between atoms: C3_4  and  N1_6 
ROOT
HETATM    1  C3  UNL     1      34.197   9.569   6.078  1.00  0.00     0.375 C 
HETATM    2  O2  UNL     1      35.230   9.479   6.785  1.00  0.00    -0.237 OA
HETATM    3  N1  UNL     1      34.314   9.885   4.695  1.00  0.00    -0.209 N 
HETATM    4  C4  UNL     1      35.461  10.107   4.031  1.00  0.00     0.168 A 
HETATM    5 BR1  UNL     1      37.196  10.040   4.844  1.00  0.00    -0.010 Br
HETATM    6  N2  UNL     1      35.208  10.378   2.741  1.00  0.00    -0.323 N 
ATOM      7  H2  UNL     1      35.909  10.584   2.029  1.00  0.00     0.169 HD
HETATM    8  C5  UNL     1      33.863  10.335   2.538  1.00  0.00     0.162 A 
HETATM    9 CL1  UNL     1      33.024  10.617   1.025  1.00  0.00    -0.059 Cl
HETATM   10  C6  UNL     1      33.343  10.025   3.777  1.00  0.00     0.240 A 
HETATM   11  F1  UNL     1      32.019   9.877   4.052  1.00  0.00    -0.182 F 
ENDROOT
BRANCH   1  12
HETATM   12  O1  UNL     1      32.980   9.350   6.702  1.00  0.00    -0.304 OA
BRANCH  12  13
HETATM   13  C2  UNL     1      32.297  10.347   7.438  1.00  0.00     0.176 C 
HETATM   14  C1  UNL     1      30.830  10.249   7.075  1.00  0.00     0.034 C 
ENDBRANCH  12  13
ENDBRANCH   1  12
TORSDOF 2
ENDMDL
MODEL 3
REMARK VINA RESULT: -3.455450233      2.838      4.326
REMARK  2 active torsions:
REMARK  status: ('A' for Active; 'I' for Inactive)
REMARK    1  A    between atoms: C2_2  and  O1_3 
REMARK    2  A    between atoms: O1_3  and  C3_4 
REMARK       I    between atoms: C3_4  and  N1_6 
ROOT
HETATM    1  C3  UNL     1      33.584   9.951   5.568  1.00  0.00     0.375 C 
HETATM    2  O2  UNL     1      34.177   9.849   6.669  1.00  0.00    -0.237 OA
HETATM    3  N1  UNL     1      34.339  10.128   4.374  1.00  0.00    -0.209 N 
HETATM    4  C4  UNL     1      35.679  10.200   4.292  1.00  0.00     0.168 A 
HETATM    5 BR1  UNL     1      36.850  10.076   5.804  1.00  0.00    -0.010 Br
HETATM    6  N2  UNL     1      36.058  10.369   3.016  1.00  0.00    -0.323 N 
ATOM      7  H2  UNL     1      37.021  10.454   2.689  1.00  0.00     0.169 HD
HETATM    8  C5  UNL     1      34.949  10.410   2.228  1.00  0.00     0.162 A 
HETATM    9 CL1  UNL     1      34.909  10.615   0.487  1.00  0.00    -0.059 Cl
HETATM   10  C6  UNL     1      33.900  10.256   3.111  1.00  0.00     0.240 A 
HETATM   11  F1  UNL     1      32.586  10.236   2.763  1.00  0.00    -0.182 F 
ENDROOT
BRANCH   1  12
HETATM   12  O1  UNL     1      32.201   9.884   5.583  1.00  0.00    -0.304 OA
BRANCH  12  13
HETATM   13  C2  UNL     1      31.418  10.299   6.686  1.00  0.00     0.176 C 
HETATM   14  C1  UNL     1      29.983   9.912   6.391  1.00  0.00     0.034 C 
ENDBRANCH  12  13
ENDBRANCH   1  12
TORSDOF 2
ENDMDL
MODEL 4
REMARK VINA RESULT: -3.444519418      3.052      4.445
REMARK  2 active torsions:
REMARK  status: ('A' for Active; 'I' for Inactive)
REMARK    1  A    between atoms: C2_2  and  O1_3 
REMARK    2  A    between atoms: O1_3  and  C3_4 
REMARK       I    between atoms: C3_4  and  N1_6 
ROOT
HETATM    1  C3  UNL     1      32.646   9.734   6.219  1.00  0.00     0.375 C 
HETATM    2  O2  UNL     1      32.889   9.543   7.435  1.00  0.00    -0.237 OA
HETATM    3  N1  UNL     1      33.722   9.862   5.295  1.00  0.00    -0.209 N 
HETATM    4  C4  UNL     1      35.030   9.797   5.595  1.00  0.00     0.168 A 
HETATM    5 BR1  UNL     1      35.707   9.513   7.366  1.00  0.00    -0.010 Br
HETATM    6  N2  UNL     1      35.771   9.958   4.488  1.00  0.00    -0.323 N 
ATOM      7  H2  UNL     1      36.790   9.951   4.449  1.00  0.00     0.169 HD
HETATM    8  C5  UNL     1      34.940  10.133   3.424  1.00  0.00     0.162 A 
HETATM    9 CL1  UNL     1      35.415  10.385   1.756  1.00  0.00    -0.059 Cl
HETATM   10  C6  UNL     1      33.674  10.067   3.969  1.00  0.00     0.240 A 
HETATM   11  F1  UNL     1      32.516  10.192   3.266  1.00  0.00    -0.182 F 
ENDROOT
BRANCH   1  12
HETATM   12  O1  UNL     1      31.316   9.811   5.842  1.00  0.00    -0.304 OA
BRANCH  12  13
HETATM   13  C2  UNL     1      30.284  10.216   6.722  1.00  0.00     0.176 C 
HETATM   14  C1  UNL     1      30.381  11.720   6.868  1.00  0.00     0.034 C 
ENDBRANCH  12  13
ENDBRANCH   1  12
TORSDOF 2
ENDMDL
MODEL 5
REMARK VINA RESULT: -3.374738729      3.037      3.391
REMARK  2 active torsions:
REMARK  status: ('A' for Active; 'I' for Inactive)
REMARK    1  A    between atoms: C2_2  and  O1_3 
REMARK    2  A    between atoms: O1_3  and  C3_4 
REMARK       I    between atoms: C3_4  and  N1_6 
ROOT
HETATM    1  C3  UNL     1      33.860   9.849   3.818  1.00  0.00     0.375 C 
HETATM    2  O2  UNL     1      32.668   9.741   4.193  1.00  0.00    -0.237 OA
HETATM    3  N1  UNL     1      34.897   9.964   4.786  1.00  0.00    -0.209 N 
HETATM    4  C4  UNL     1      34.732   9.969   6.121  1.00  0.00     0.168 A 
HETATM    5 BR1  UNL     1      33.029   9.820   6.988  1.00  0.00    -0.010 Br
HETATM    6  N2  UNL     1      35.919  10.093   6.735  1.00  0.00    -0.323 N 
ATOM      7  H2  UNL     1      36.064  10.125   7.745  1.00  0.00     0.169 HD
HETATM    8  C5  UNL     1      36.897  10.171   5.793  1.00  0.00     0.162 A 
HETATM    9 CL1  UNL     1      38.618  10.341   6.083  1.00  0.00    -0.059 Cl
HETATM   10  C6  UNL     1      36.220  10.087   4.594  1.00  0.00     0.240 A 
HETATM   11  F1  UNL     1      36.804  10.123   3.366  1.00  0.00    -0.182 F 
ENDROOT
BRANCH   1  12
HETATM   12  O1  UNL     1      34.098   9.850   2.454  1.00  0.00    -0.304 OA
BRANCH  12  13
HETATM   13  C2  UNL     1      34.012  11.013   1.653  1.00  0.00     0.176 C 
HETATM   14  C1  UNL     1      34.856  10.773   0.417  1.00  0.00     0.034 C 
ENDBRANCH  12  13
ENDBRANCH   1  12
TORSDOF 2
ENDMDL
