MODEL 1
REMARK VINA RESULT: -4.046446821      0.000      0.000
REMARK  1 active torsions:
REMARK  status: ('A' for Active; 'I' for Inactive)
REMARK    1  A    between atoms: C5_12  and  N4_13 
ROOT
HETATM    1  N1  UNL     1      35.729   9.947   7.346  1.00  0.00    -0.191 NA
HETATM    2  C1  UNL     1      35.486  10.119   6.210  1.00  0.00     0.106 C 
HETATM    3  C2  UNL     1      35.218  10.328   4.817  1.00  0.00     0.127 A 
HETATM    4  C3  UNL     1      36.217  10.072   3.862  1.00  0.00     0.130 A 
HETATM    5 CL1  UNL     1      37.779   9.485   4.450  1.00  0.00    -0.063 Cl
HETATM    6  N2  UNL     1      35.968  10.273   2.569  1.00  0.00    -0.322 N 
ATOM      7  H2  UNL     1      36.686  10.091   1.868  1.00  0.00     0.169 HD
HETATM    8  C4  UNL     1      34.757  10.720   2.206  1.00  0.00     0.181 A 
HETATM    9 CL2  UNL     1      34.474  10.970   0.492  1.00  0.00    -0.045 Cl
HETATM   10  N3  UNL     1      33.797  10.967   3.113  1.00  0.00    -0.317 N 
ATOM     11  H3  UNL     1      32.892  11.305   2.787  1.00  0.00     0.170 HD
HETATM   12  C5  UNL     1      33.981  10.786   4.437  1.00  0.00     0.129 A 
ENDROOT
BRANCH  12  13
HETATM   13  N4  UNL     1      32.979  11.036   5.405  1.00  0.00    -0.366 N 
HETATM   14  C6  UNL     1      31.986  10.117   5.836  1.00  0.00     0.127 C 
HETATM   15  C7  UNL     1      31.679  10.395   7.284  1.00  0.00     0.057 C 
HETATM   16  C8  UNL     1      30.948  11.724   7.364  1.00  0.00     0.173 C 
HETATM   17  F1  UNL     1      29.656  11.504   6.928  1.00  0.00    -0.249 F 
HETATM   18  C9  UNL     1      31.599  12.770   6.504  1.00  0.00     0.057 C 
HETATM   19  C10 UNL     1      32.961  12.365   6.013  1.00  0.00     0.127 C 
ENDBRANCH  12  13
TORSDOF 1
ENDMDL
MODEL 2
REMARK VINA RESULT: -4.025363550     11.171     13.157
REMARK  1 active torsions:
REMARK  status: ('A' for Active; 'I' for Inactive)
REMARK    1  A    between atoms: C5_12  and  N4_13 
ROOT
HETATM    1  N1  UNL     1      35.570   7.930  -7.165  1.00  0.00    -0.191 NA
HETATM    2  C1  UNL     1      36.429   8.253  -6.433  1.00  0.00     0.106 C 
HETATM    3  C2  UNL     1      37.468   8.675  -5.540  1.00  0.00     0.127 A 
HETATM    4  C3  UNL     1      37.386   9.926  -4.906  1.00  0.00     0.130 A 
HETATM    5 CL1  UNL     1      35.968  10.926  -5.251  1.00  0.00    -0.063 Cl
HETATM    6  N2  UNL     1      38.356  10.319  -4.082  1.00  0.00    -0.322 N 
ATOM      7  H2  UNL     1      38.307  11.225  -3.617  1.00  0.00     0.169 HD
HETATM    8  C4  UNL     1      39.399   9.502  -3.874  1.00  0.00     0.181 A 
HETATM    9 CL2  UNL     1      40.652  10.060  -2.780  1.00  0.00    -0.045 Cl
HETATM   10  N3  UNL     1      39.484   8.303  -4.477  1.00  0.00    -0.317 N 
ATOM     11  H3  UNL     1      40.297   7.717  -4.287  1.00  0.00     0.170 HD
HETATM   12  C5  UNL     1      38.539   7.843  -5.323  1.00  0.00     0.129 A 
ENDROOT
BRANCH  12  13
HETATM   13  N4  UNL     1      38.611   6.583  -5.962  1.00  0.00    -0.366 N 
HETATM   14  C6  UNL     1      39.326   6.290  -7.154  1.00  0.00     0.127 C 
HETATM   15  C7  UNL     1      39.816   4.868  -7.075  1.00  0.00     0.057 C 
HETATM   16  C8  UNL     1      38.612   3.949  -7.185  1.00  0.00     0.173 C 
HETATM   17  F1  UNL     1      38.220   3.949  -8.509  1.00  0.00    -0.249 F 
HETATM   18  C9  UNL     1      37.474   4.416  -6.322  1.00  0.00     0.057 C 
HETATM   19  C10 UNL     1      37.877   5.481  -5.341  1.00  0.00     0.127 C 
ENDBRANCH  12  13
TORSDOF 1
ENDMDL
MODEL 3
REMARK VINA RESULT: -3.791498595     10.374     11.891
REMARK  1 active torsions:
REMARK  status: ('A' for Active; 'I' for Inactive)
REMARK    1  A    between atoms: C5_12  and  N4_13 
ROOT
HETATM    1  N1  UNL     1      28.465  14.108  -0.063  1.00  0.00    -0.191 NA
HETATM    2  C1  UNL     1      27.641  14.891   0.229  1.00  0.00     0.106 C 
HETATM    3  C2  UNL     1      26.644  15.849   0.612  1.00  0.00     0.127 A 
HETATM    4  C3  UNL     1      26.780  16.562   1.816  1.00  0.00     0.130 A 
HETATM    5 CL1  UNL     1      28.210  16.233   2.804  1.00  0.00    -0.063 Cl
HETATM    6  N2  UNL     1      25.850  17.446   2.173  1.00  0.00    -0.322 N 
ATOM      7  H2  UNL     1      25.939  17.968   3.044  1.00  0.00     0.169 HD
HETATM    8  C4  UNL     1      24.796  17.636   1.368  1.00  0.00     0.181 A 
HETATM    9 CL2  UNL     1      23.596  18.811   1.879  1.00  0.00    -0.045 Cl
HETATM   10  N3  UNL     1      24.658  16.958   0.215  1.00  0.00    -0.317 N 
ATOM     11  H3  UNL     1      23.839  17.139  -0.364  1.00  0.00     0.170 HD
HETATM   12  C5  UNL     1      25.561  16.049  -0.207  1.00  0.00     0.129 A 
ENDROOT
BRANCH  12  13
HETATM   13  N4  UNL     1      25.435  15.330  -1.420  1.00  0.00    -0.366 N 
HETATM   14  C6  UNL     1      25.975  15.712  -2.677  1.00  0.00     0.127 C 
HETATM   15  C7  UNL     1      26.328  14.462  -3.440  1.00  0.00     0.057 C 
HETATM   16  C8  UNL     1      25.036  13.772  -3.838  1.00  0.00     0.173 C 
HETATM   17  F1  UNL     1      24.495  14.493  -4.883  1.00  0.00    -0.249 F 
HETATM   18  C9  UNL     1      24.057  13.723  -2.699  1.00  0.00     0.057 C 
HETATM   19  C10 UNL     1      24.674  14.083  -1.376  1.00  0.00     0.127 C 
ENDBRANCH  12  13
TORSDOF 1
ENDMDL
MODEL 4
REMARK VINA RESULT: -3.771494250      1.724      3.106
REMARK  1 active torsions:
REMARK  status: ('A' for Active; 'I' for Inactive)
REMARK    1  A    between atoms: C5_12  and  N4_13 
ROOT
HETATM    1  N1  UNL     1      32.350   9.938   2.155  1.00  0.00    -0.191 NA
HETATM    2  C1  UNL     1      33.377  10.411   2.470  1.00  0.00     0.106 C 
HETATM    3  C2  UNL     1      34.642  10.983   2.828  1.00  0.00     0.127 A 
HETATM    4  C3  UNL     1      35.584  11.290   1.831  1.00  0.00     0.130 A 
HETATM    5 CL1  UNL     1      35.137  10.952   0.153  1.00  0.00    -0.063 Cl
HETATM    6  N2  UNL     1      36.761  11.815   2.167  1.00  0.00    -0.322 N 
ATOM      7  H2  UNL     1      37.451  12.041   1.451  1.00  0.00     0.169 HD
HETATM    8  C4  UNL     1      37.022  12.041   3.462  1.00  0.00     0.181 A 
HETATM    9 CL2  UNL     1      38.585  12.734   3.858  1.00  0.00    -0.045 Cl
HETATM   10  N3  UNL     1      36.127  11.750   4.422  1.00  0.00    -0.317 N 
ATOM     11  H3  UNL     1      36.373  11.940   5.393  1.00  0.00     0.170 HD
HETATM   12  C5  UNL     1      34.917  11.216   4.153  1.00  0.00     0.129 A 
ENDROOT
BRANCH  12  13
HETATM   13  N4  UNL     1      33.962  10.909   5.150  1.00  0.00    -0.366 N 
HETATM   14  C6  UNL     1      33.631   9.609   5.618  1.00  0.00     0.127 C 
HETATM   15  C7  UNL     1      33.257   9.710   7.073  1.00  0.00     0.057 C 
HETATM   16  C8  UNL     1      31.927  10.437   7.168  1.00  0.00     0.173 C 
HETATM   17  F1  UNL     1      30.948   9.546   6.775  1.00  0.00    -0.249 F 
HETATM   18  C9  UNL     1      31.891  11.650   6.282  1.00  0.00     0.057 C 
HETATM   19  C10 UNL     1      33.244  12.032   5.751  1.00  0.00     0.127 C 
ENDBRANCH  12  13
TORSDOF 1
ENDMDL
MODEL 5
REMARK VINA RESULT: -3.763180662      1.559      3.119
REMARK  1 active torsions:
REMARK  status: ('A' for Active; 'I' for Inactive)
REMARK    1  A    between atoms: C5_12  and  N4_13 
ROOT
HETATM    1  N1  UNL     1      33.723  12.357   3.396  1.00  0.00    -0.191 NA
HETATM    2  C1  UNL     1      34.347  11.651   4.095  1.00  0.00     0.106 C 
HETATM    3  C2  UNL     1      35.127  10.782   4.928  1.00  0.00     0.127 A 
HETATM    4  C3  UNL     1      36.414  10.389   4.525  1.00  0.00     0.130 A 
HETATM    5 CL1  UNL     1      37.012  11.011   2.980  1.00  0.00    -0.063 Cl
HETATM    6  N2  UNL     1      37.134   9.576   5.296  1.00  0.00    -0.322 N 
ATOM      7  H2  UNL     1      38.069   9.285   5.013  1.00  0.00     0.169 HD
HETATM    8  C4  UNL     1      36.608   9.149   6.453  1.00  0.00     0.181 A 
HETATM    9 CL2  UNL     1      37.592   8.081   7.438  1.00  0.00    -0.045 Cl
HETATM   10  N3  UNL     1      35.377   9.520   6.846  1.00  0.00    -0.317 N 
ATOM     11  H3  UNL     1      35.021   9.169   7.735  1.00  0.00     0.170 HD
HETATM   12  C5  UNL     1      34.594  10.340   6.114  1.00  0.00     0.129 A 
ENDROOT
BRANCH  12  13
HETATM   13  N4  UNL     1      33.299  10.744   6.515  1.00  0.00    -0.366 N 
HETATM   14  C6  UNL     1      32.092  10.031   6.286  1.00  0.00     0.127 C 
HETATM   15  C7  UNL     1      31.159  10.296   7.438  1.00  0.00     0.057 C 
HETATM   16  C8  UNL     1      30.703  11.741   7.351  1.00  0.00     0.173 C 
HETATM   17  F1  UNL     1      29.777  11.815   6.329  1.00  0.00    -0.249 F 
HETATM   18  C9  UNL     1      31.847  12.671   7.063  1.00  0.00     0.057 C 
HETATM   19  C10 UNL     1      33.192  12.018   7.225  1.00  0.00     0.127 C 
ENDBRANCH  12  13
TORSDOF 1
ENDMDL
