MODEL 1
REMARK VINA RESULT: -3.904071996      0.000      0.000
REMARK  2 active torsions:
REMARK  status: ('A' for Active; 'I' for Inactive)
REMARK    1  A    between atoms: N1_2  and  C3_5 
REMARK    2  A    between atoms: C3_5  and  O1_6 
ROOT
HETATM    1  C1  UNL     1      35.007  11.901  -0.131  1.00  0.00     0.171 C 
HETATM    2  N1  UNL     1      33.910  11.111   0.288  1.00  0.00    -0.268 N 
HETATM    3  C2  UNL     1      33.021  10.679  -0.814  1.00  0.00     0.185 C 
HETATM    4  N2  UNL     1      32.331  10.339  -1.643  1.00  0.00    -0.172 NA
ENDROOT
BRANCH   2   5
HETATM    5  C3  UNL     1      33.549  10.693   1.546  1.00  0.00     0.170 C 
HETATM    6  C4  UNL     1      34.101  10.531   2.859  1.00  0.00     0.081 A 
HETATM    7  S1  UNL     1      33.120   9.904   4.199  1.00  0.00    -0.070 SA
HETATM    8  C7  UNL     1      35.272  10.724   3.503  1.00  0.00     0.079 A 
HETATM    9  C5  UNL     1      34.268   9.942   5.435  1.00  0.00     0.099 A 
HETATM   10 CL1  UNL     1      33.985   9.445   7.095  1.00  0.00    -0.074 Cl
HETATM   11  C6  UNL     1      35.370  10.429   4.811  1.00  0.00     0.086 A 
HETATM   12 CL2  UNL     1      36.844  10.625   5.807  1.00  0.00    -0.080 Cl
HETATM   13 CL3  UNL     1      36.705  11.366   2.659  1.00  0.00    -0.081 Cl
BRANCH   5  14
HETATM   14  O1  UNL     1      32.258  10.308   1.545  1.00  0.00    -0.344 OA
ATOM     15  H1  UNL     1      31.773  10.809   2.190  1.00  0.00     0.219 HD
ENDBRANCH   5  14
ENDBRANCH   2   5
TORSDOF 2
ENDMDL
MODEL 2
REMARK VINA RESULT: -3.773431567      1.580      2.177
REMARK  2 active torsions:
REMARK  status: ('A' for Active; 'I' for Inactive)
REMARK    1  A    between atoms: N1_2  and  C3_5 
REMARK    2  A    between atoms: C3_5  and  O1_6 
ROOT
HETATM    1  C1  UNL     1      34.028  11.738  -2.108  1.00  0.00     0.171 C 
HETATM    2  N1  UNL     1      33.065  11.480  -1.104  1.00  0.00    -0.268 N 
HETATM    3  C2  UNL     1      31.664  11.610  -1.563  1.00  0.00     0.185 C 
HETATM    4  N2  UNL     1      30.586  11.703  -1.896  1.00  0.00    -0.172 NA
ENDROOT
BRANCH   2   5
HETATM    5  C3  UNL     1      33.232  11.135   0.215  1.00  0.00     0.170 C 
HETATM    6  C4  UNL     1      34.237  11.126   1.238  1.00  0.00     0.081 A 
HETATM    7  S1  UNL     1      33.882  10.529   2.871  1.00  0.00    -0.070 SA
HETATM    8  C7  UNL     1      35.534  11.467   1.395  1.00  0.00     0.079 A 
HETATM    9  C5  UNL     1      35.388  10.762   3.594  1.00  0.00     0.099 A 
HETATM   10 CL1  UNL     1      35.782  10.378   5.261  1.00  0.00    -0.074 Cl
HETATM   11  C6  UNL     1      36.130  11.287   2.587  1.00  0.00     0.086 A 
HETATM   12 CL2  UNL     1      37.835  11.685   2.959  1.00  0.00    -0.080 Cl
HETATM   13 CL3  UNL     1      36.485  12.157   0.055  1.00  0.00    -0.081 Cl
BRANCH   5  14
HETATM   14  O1  UNL     1      32.078  10.645   0.707  1.00  0.00    -0.344 OA
ATOM     15  H1  UNL     1      32.263  10.031   1.408  1.00  0.00     0.219 HD
ENDBRANCH   5  14
ENDBRANCH   2   5
TORSDOF 2
ENDMDL
MODEL 3
REMARK VINA RESULT: -3.712226179      3.321      5.040
REMARK  2 active torsions:
REMARK  status: ('A' for Active; 'I' for Inactive)
REMARK    1  A    between atoms: N1_2  and  C3_5 
REMARK    2  A    between atoms: C3_5  and  O1_6 
ROOT
HETATM    1  C1  UNL     1      33.361   9.743   7.310  1.00  0.00     0.171 C 
HETATM    2  N1  UNL     1      32.556   9.922   6.160  1.00  0.00    -0.268 N 
HETATM    3  C2  UNL     1      31.101   9.870   6.427  1.00  0.00     0.185 C 
HETATM    4  N2  UNL     1      29.985   9.835   6.612  1.00  0.00    -0.172 NA
ENDROOT
BRANCH   2   5
HETATM    5  C3  UNL     1      32.916  10.130   4.851  1.00  0.00     0.170 C 
HETATM    6  C4  UNL     1      33.955  10.739   4.073  1.00  0.00     0.081 A 
HETATM    7  S1  UNL     1      33.911  10.714   2.298  1.00  0.00    -0.070 SA
HETATM    8  C7  UNL     1      35.109  11.415   4.264  1.00  0.00     0.079 A 
HETATM    9  C5  UNL     1      35.338  11.549   1.966  1.00  0.00     0.099 A 
HETATM   10 CL1  UNL     1      35.950  11.907   0.360  1.00  0.00    -0.074 Cl
HETATM   11  C6  UNL     1      35.821  11.831   3.202  1.00  0.00     0.086 A 
HETATM   12 CL2  UNL     1      37.364  12.734   3.283  1.00  0.00    -0.080 Cl
HETATM   13 CL3  UNL     1      35.720  11.771   5.900  1.00  0.00    -0.081 Cl
BRANCH   5  14
HETATM   14  O1  UNL     1      31.994   9.587   4.033  1.00  0.00    -0.344 OA
ATOM     15  H1  UNL     1      31.462  10.274   3.649  1.00  0.00     0.219 HD
ENDBRANCH   5  14
ENDBRANCH   2   5
TORSDOF 2
ENDMDL
MODEL 4
REMARK VINA RESULT: -3.668270598      1.475      1.715
REMARK  2 active torsions:
REMARK  status: ('A' for Active; 'I' for Inactive)
REMARK    1  A    between atoms: N1_2  and  C3_5 
REMARK    2  A    between atoms: C3_5  and  O1_6 
ROOT
HETATM    1  C1  UNL     1      33.987  12.941  -0.272  1.00  0.00     0.171 C 
HETATM    2  N1  UNL     1      33.685  11.642   0.202  1.00  0.00    -0.268 N 
HETATM    3  C2  UNL     1      32.929  10.809  -0.760  1.00  0.00     0.185 C 
HETATM    4  N2  UNL     1      32.352  10.157  -1.483  1.00  0.00    -0.172 NA
ENDROOT
BRANCH   2   5
HETATM    5  C3  UNL     1      33.981  11.047   1.404  1.00  0.00     0.170 C 
HETATM    6  C4  UNL     1      35.053  10.937   2.350  1.00  0.00     0.081 A 
HETATM    7  S1  UNL     1      34.880   9.970   3.829  1.00  0.00    -0.070 SA
HETATM    8  C7  UNL     1      36.317  11.384   2.515  1.00  0.00     0.079 A 
HETATM    9  C5  UNL     1      36.403  10.217   4.510  1.00  0.00     0.099 A 
HETATM   10 CL1  UNL     1      36.954   9.536   6.032  1.00  0.00    -0.074 Cl
HETATM   11  C6  UNL     1      37.013  11.026   3.608  1.00  0.00     0.086 A 
HETATM   12 CL2  UNL     1      38.691  11.529   3.974  1.00  0.00    -0.080 Cl
HETATM   13 CL3  UNL     1      37.093  12.447   1.313  1.00  0.00    -0.081 Cl
BRANCH   5  14
HETATM   14  O1  UNL     1      32.922  10.334   1.832  1.00  0.00    -0.344 OA
ATOM     15  H1  UNL     1      32.547  10.747   2.601  1.00  0.00     0.219 HD
ENDBRANCH   5  14
ENDBRANCH   2   5
TORSDOF 2
ENDMDL
MODEL 5
REMARK VINA RESULT: -3.576768445      4.118      6.415
REMARK  2 active torsions:
REMARK  status: ('A' for Active; 'I' for Inactive)
REMARK    1  A    between atoms: N1_2  and  C3_5 
REMARK    2  A    between atoms: C3_5  and  O1_6 
ROOT
HETATM    1  C1  UNL     1      35.315  11.789   1.867  1.00  0.00     0.171 C 
HETATM    2  N1  UNL     1      34.128  11.107   1.511  1.00  0.00    -0.268 N 
HETATM    3  C2  UNL     1      33.560  10.276   2.596  1.00  0.00     0.185 C 
HETATM    4  N2  UNL     1      33.111   9.636   3.415  1.00  0.00    -0.172 NA
ENDROOT
BRANCH   2   5
HETATM    5  C3  UNL     1      33.433  11.097   0.326  1.00  0.00     0.170 C 
HETATM    6  C4  UNL     1      33.654  11.199  -1.088  1.00  0.00     0.081 A 
HETATM    7  S1  UNL     1      32.305  11.120  -2.238  1.00  0.00    -0.070 SA
HETATM    8  C7  UNL     1      34.682  11.354  -1.949  1.00  0.00     0.079 A 
HETATM    9  C5  UNL     1      33.155  11.289  -3.686  1.00  0.00     0.099 A 
HETATM   10 CL1  UNL     1      32.434  11.301  -5.287  1.00  0.00    -0.074 Cl
HETATM   11  C6  UNL     1      34.442  11.401  -3.272  1.00  0.00     0.086 A 
HETATM   12 CL2  UNL     1      35.687  11.602  -4.541  1.00  0.00    -0.080 Cl
HETATM   13 CL3  UNL     1      36.364  11.498  -1.378  1.00  0.00    -0.081 Cl
BRANCH   5  14
HETATM   14  O1  UNL     1      32.118  10.942   0.570  1.00  0.00    -0.344 OA
ATOM     15  H1  UNL     1      31.613  11.288  -0.158  1.00  0.00     0.219 HD
ENDBRANCH   5  14
ENDBRANCH   2   5
TORSDOF 2
ENDMDL
