MODEL 1
REMARK VINA RESULT: -3.532853633      0.000      0.000
REMARK  2 active torsions:
REMARK  status: ('A' for Active; 'I' for Inactive)
REMARK    1  A    between atoms: C1_2  and  C2_5 
REMARK    2  A    between atoms: C3_9  and  N2_10 
ROOT
HETATM    1  C2  UNL     1      33.960  10.356   5.005  1.00  0.00     0.145 A 
HETATM    2  N1  UNL     1      35.208   9.847   5.130  1.00  0.00    -0.309 N 
ATOM      3  H1  UNL     1      35.679   9.495   5.963  1.00  0.00     0.176 HD
HETATM    4  S1  UNL     1      35.787   9.947   3.537  1.00  0.00     0.024 SA
HETATM    5  C3  UNL     1      34.409  10.660   2.797  1.00  0.00     0.164 A 
HETATM    6  N3  UNL     1      33.607  10.752   3.842  1.00  0.00    -0.321 N 
ATOM      7  H3  UNL     1      32.677  11.152   3.718  1.00  0.00     0.169 HD
ENDROOT
BRANCH   5   8
HETATM    8  N2  UNL     1      34.258  10.993   1.443  1.00  0.00    -0.360 N 
HETATM    9  C4  UNL     1      35.145  11.535   0.451  1.00  0.00     0.125 C 
HETATM   10  C5  UNL     1      34.808  10.635  -0.781  1.00  0.00     0.021 C 
HETATM   11  C6  UNL     1      33.293  10.799  -0.735  1.00  0.00     0.021 C 
HETATM   12  C7  UNL     1      32.982  10.692   0.716  1.00  0.00     0.125 C 
ENDBRANCH   5   8
BRANCH   1  13
HETATM   13  C1  UNL     1      33.084  10.380   6.246  1.00  0.00     0.247 C 
HETATM   14 CL1  UNL     1      31.405   9.952   5.902  1.00  0.00    -0.075 Cl
HETATM   15 CL2  UNL     1      33.184  11.976   7.011  1.00  0.00    -0.075 Cl
HETATM   16 CL3  UNL     1      33.715   9.202   7.438  1.00  0.00    -0.075 Cl
ENDBRANCH   1  13
TORSDOF 2
ENDMDL
MODEL 2
REMARK VINA RESULT: -3.512735823      4.318      5.545
REMARK  2 active torsions:
REMARK  status: ('A' for Active; 'I' for Inactive)
REMARK    1  A    between atoms: C1_2  and  C2_5 
REMARK    2  A    between atoms: C3_9  and  N2_10 
ROOT
HETATM    1  C2  UNL     1      35.887  10.171   5.360  1.00  0.00     0.145 A 
HETATM    2  N1  UNL     1      36.101   9.242   6.321  1.00  0.00    -0.309 N 
ATOM      3  H1  UNL     1      36.955   8.731   6.543  1.00  0.00     0.176 HD
HETATM    4  S1  UNL     1      34.576   9.148   7.061  1.00  0.00     0.024 SA
HETATM    5  C3  UNL     1      33.735  10.286   6.084  1.00  0.00     0.164 A 
HETATM    6  N3  UNL     1      34.708  10.655   5.271  1.00  0.00    -0.321 N 
ATOM      7  H3  UNL     1      34.512  11.350   4.550  1.00  0.00     0.169 HD
ENDROOT
BRANCH   5   8
HETATM    8  N2  UNL     1      32.393  10.673   6.209  1.00  0.00    -0.360 N 
HETATM    9  C4  UNL     1      31.144   9.976   6.067  1.00  0.00     0.125 C 
HETATM   10  C5  UNL     1      30.356  10.514   7.304  1.00  0.00     0.021 C 
HETATM   11  C6  UNL     1      30.597  11.999   7.060  1.00  0.00     0.021 C 
HETATM   12  C7  UNL     1      32.030  12.053   6.668  1.00  0.00     0.125 C 
ENDBRANCH   5   8
BRANCH   1  13
HETATM   13  C1  UNL     1      37.072  10.577   4.500  1.00  0.00     0.247 C 
HETATM   14 CL1  UNL     1      38.196   9.246   4.217  1.00  0.00    -0.075 Cl
HETATM   15 CL2  UNL     1      37.901  11.956   5.247  1.00  0.00    -0.075 Cl
HETATM   16 CL3  UNL     1      36.480  11.141   2.906  1.00  0.00    -0.075 Cl
ENDBRANCH   1  13
TORSDOF 2
ENDMDL
MODEL 3
REMARK VINA RESULT: -3.498812593      4.310      5.545
REMARK  2 active torsions:
REMARK  status: ('A' for Active; 'I' for Inactive)
REMARK    1  A    between atoms: C1_2  and  C2_5 
REMARK    2  A    between atoms: C3_9  and  N2_10 
ROOT
HETATM    1  C2  UNL     1      35.884  10.185   5.317  1.00  0.00     0.145 A 
HETATM    2  N1  UNL     1      36.112   9.252   6.272  1.00  0.00    -0.309 N 
ATOM      3  H1  UNL     1      36.971   8.745   6.483  1.00  0.00     0.176 HD
HETATM    4  S1  UNL     1      34.595   9.147   7.026  1.00  0.00     0.024 SA
HETATM    5  C3  UNL     1      33.739  10.286   6.062  1.00  0.00     0.164 A 
HETATM    6  N3  UNL     1      34.703  10.664   5.242  1.00  0.00    -0.321 N 
ATOM      7  H3  UNL     1      34.496  11.360   4.525  1.00  0.00     0.169 HD
ENDROOT
BRANCH   5   8
HETATM    8  N2  UNL     1      32.396  10.665   6.201  1.00  0.00    -0.360 N 
HETATM    9  C4  UNL     1      31.151   9.956   6.094  1.00  0.00     0.125 C 
HETATM   10  C5  UNL     1      30.379  10.514   7.333  1.00  0.00     0.021 C 
HETATM   11  C6  UNL     1      30.604  11.996   7.054  1.00  0.00     0.021 C 
HETATM   12  C7  UNL     1      32.031  12.052   6.637  1.00  0.00     0.125 C 
ENDBRANCH   5   8
BRANCH   1  13
HETATM   13  C1  UNL     1      37.059  10.601   4.448  1.00  0.00     0.247 C 
HETATM   14 CL1  UNL     1      36.555  11.230   2.877  1.00  0.00    -0.075 Cl
HETATM   15 CL2  UNL     1      38.167   9.229   4.253  1.00  0.00    -0.075 Cl
HETATM   16 CL3  UNL     1      37.985  11.889   5.280  1.00  0.00    -0.075 Cl
ENDBRANCH   1  13
TORSDOF 2
ENDMDL
MODEL 4
REMARK VINA RESULT: -3.483432458      9.155     10.651
REMARK  2 active torsions:
REMARK  status: ('A' for Active; 'I' for Inactive)
REMARK    1  A    between atoms: C1_2  and  C2_5 
REMARK    2  A    between atoms: C3_9  and  N2_10 
ROOT
HETATM    1  C2  UNL     1      39.070   9.199  -4.456  1.00  0.00     0.145 A 
HETATM    2  N1  UNL     1      40.361   8.956  -4.787  1.00  0.00    -0.309 N 
ATOM      3  H1  UNL     1      41.194   9.500  -4.567  1.00  0.00     0.176 HD
HETATM    4  S1  UNL     1      40.230   7.508  -5.664  1.00  0.00     0.024 SA
HETATM    5  C3  UNL     1      38.524   7.302  -5.583  1.00  0.00     0.164 A 
HETATM    6  N3  UNL     1      38.196   8.366  -4.873  1.00  0.00    -0.321 N 
ATOM      7  H3  UNL     1      37.214   8.527  -4.650  1.00  0.00     0.169 HD
ENDROOT
BRANCH   5   8
HETATM    8  N2  UNL     1      37.777   6.247  -6.128  1.00  0.00    -0.360 N 
HETATM    9  C4  UNL     1      36.982   6.107  -7.317  1.00  0.00     0.125 C 
HETATM   10  C5  UNL     1      37.436   4.700  -7.820  1.00  0.00     0.021 C 
HETATM   11  C6  UNL     1      37.241   3.950  -6.507  1.00  0.00     0.021 C 
HETATM   12  C7  UNL     1      37.788   4.890  -5.493  1.00  0.00     0.125 C 
ENDBRANCH   5   8
BRANCH   1  13
HETATM   13  C1  UNL     1      38.784  10.417  -3.594  1.00  0.00     0.247 C 
HETATM   14 CL1  UNL     1      39.881  10.549  -2.216  1.00  0.00    -0.075 Cl
HETATM   15 CL2  UNL     1      37.095  10.376  -3.054  1.00  0.00    -0.075 Cl
HETATM   16 CL3  UNL     1      38.968  11.899  -4.583  1.00  0.00    -0.075 Cl
ENDBRANCH   1  13
TORSDOF 2
ENDMDL
MODEL 5
REMARK VINA RESULT: -3.457337845      9.326     10.733
REMARK  2 active torsions:
REMARK  status: ('A' for Active; 'I' for Inactive)
REMARK    1  A    between atoms: C1_2  and  C2_5 
REMARK    2  A    between atoms: C3_9  and  N2_10 
ROOT
HETATM    1  C2  UNL     1      39.281   9.163  -4.544  1.00  0.00     0.145 A 
HETATM    2  N1  UNL     1      40.554   8.880  -4.910  1.00  0.00    -0.309 N 
ATOM      3  H1  UNL     1      41.409   9.402  -4.720  1.00  0.00     0.176 HD
HETATM    4  S1  UNL     1      40.355   7.429  -5.767  1.00  0.00     0.024 SA
HETATM    5  C3  UNL     1      38.648   7.272  -5.634  1.00  0.00     0.164 A 
HETATM    6  N3  UNL     1      38.372   8.351  -4.926  1.00  0.00    -0.321 N 
ATOM      7  H3  UNL     1      37.401   8.543  -4.675  1.00  0.00     0.169 HD
ENDROOT
BRANCH   5   8
HETATM    8  N2  UNL     1      37.855   6.234  -6.147  1.00  0.00    -0.360 N 
HETATM    9  C4  UNL     1      37.023   6.106  -7.311  1.00  0.00     0.125 C 
HETATM   10  C5  UNL     1      37.421   4.680  -7.811  1.00  0.00     0.021 C 
HETATM   11  C6  UNL     1      37.242   3.950  -6.485  1.00  0.00     0.021 C 
HETATM   12  C7  UNL     1      37.844   4.884  -5.496  1.00  0.00     0.125 C 
ENDBRANCH   5   8
BRANCH   1  13
HETATM   13  C1  UNL     1      39.056  10.397  -3.685  1.00  0.00     0.247 C 
HETATM   14 CL1  UNL     1      39.281  11.901  -4.583  1.00  0.00    -0.075 Cl
HETATM   15 CL2  UNL     1      40.126  10.338  -2.272  1.00  0.00    -0.075 Cl
HETATM   16 CL3  UNL     1      37.379  10.381  -3.056  1.00  0.00    -0.075 Cl
ENDBRANCH   1  13
TORSDOF 2
ENDMDL
