MODEL 1
REMARK VINA RESULT: -3.515358945      0.000      0.000
REMARK  2 active torsions:
REMARK  status: ('A' for Active; 'I' for Inactive)
REMARK    1  A    between atoms: C3_3  and  N1_4 
REMARK    2  A    between atoms: N4_12  and  C8_13 
ROOT
HETATM    1  C1  UNL     1      36.592  12.111   1.841  1.00  0.00     0.072 C 
HETATM    2  C2  UNL     1      35.349  11.583   1.288  1.00  0.00     0.059 A 
HETATM    3  C3  UNL     1      34.939  11.541  -0.032  1.00  0.00     0.093 A 
HETATM    4  C6  UNL     1      33.678  10.944  -0.025  1.00  0.00     0.157 A 
HETATM    5  C7  UNL     1      32.817  10.663  -1.130  1.00  0.00     0.121 C 
HETATM    6  N2  UNL     1      32.093  10.421  -2.005  1.00  0.00    -0.190 NA
HETATM    7  N3  UNL     1      33.387  10.657   1.280  1.00  0.00    -0.283 N 
ATOM      8  H3  UNL     1      32.528  10.214   1.604  1.00  0.00     0.188 HD
HETATM    9  N4  UNL     1      34.378  11.037   2.053  1.00  0.00    -0.241 N 
ENDROOT
BRANCH   3  10
HETATM   10  N1  UNL     1      35.618  11.983  -1.169  1.00  0.00    -0.386 N 
HETATM   11  C4  UNL     1      36.431  11.061  -1.979  1.00  0.00     0.149 C 
HETATM   12  C5  UNL     1      35.573  13.348  -1.621  1.00  0.00     0.149 C 
ENDBRANCH   3  10
BRANCH   9  13
HETATM   13  C8  UNL     1      34.383  10.873   3.466  1.00  0.00     0.286 C 
HETATM   14 CL1  UNL     1      35.751   9.944   4.104  1.00  0.00    -0.059 Cl
HETATM   15 CL2  UNL     1      32.921   9.968   4.020  1.00  0.00    -0.059 Cl
HETATM   16 CL3  UNL     1      34.270  12.465   4.243  1.00  0.00    -0.059 Cl
ENDBRANCH   9  13
TORSDOF 2
ENDMDL
MODEL 2
REMARK VINA RESULT: -3.454429639      0.170      1.276
REMARK  2 active torsions:
REMARK  status: ('A' for Active; 'I' for Inactive)
REMARK    1  A    between atoms: C3_3  and  N1_4 
REMARK    2  A    between atoms: N4_12  and  C8_13 
ROOT
HETATM    1  C1  UNL     1      36.602  12.120   1.667  1.00  0.00     0.072 C 
HETATM    2  C2  UNL     1      35.350  11.596   1.134  1.00  0.00     0.059 A 
HETATM    3  C3  UNL     1      34.926  11.541  -0.182  1.00  0.00     0.093 A 
HETATM    4  C6  UNL     1      33.660  10.956  -0.154  1.00  0.00     0.157 A 
HETATM    5  C7  UNL     1      32.785  10.668  -1.247  1.00  0.00     0.121 C 
HETATM    6  N2  UNL     1      32.050  10.422  -2.112  1.00  0.00    -0.190 NA
HETATM    7  N3  UNL     1      33.379  10.688   1.157  1.00  0.00    -0.283 N 
ATOM      8  H3  UNL     1      32.520  10.257   1.495  1.00  0.00     0.188 HD
HETATM    9  N4  UNL     1      34.381  11.069   1.915  1.00  0.00    -0.241 N 
ENDROOT
BRANCH   3  10
HETATM   10  N1  UNL     1      35.597  11.963  -1.331  1.00  0.00    -0.386 N 
HETATM   11  C4  UNL     1      36.413  11.028  -2.124  1.00  0.00     0.149 C 
HETATM   12  C5  UNL     1      35.541  13.317  -1.813  1.00  0.00     0.149 C 
ENDBRANCH   3  10
BRANCH   9  13
HETATM   13  C8  UNL     1      34.399  10.923   3.330  1.00  0.00     0.286 C 
HETATM   14 CL1  UNL     1      34.528  12.442   4.235  1.00  0.00    -0.059 Cl
HETATM   15 CL2  UNL     1      35.825   9.952   3.865  1.00  0.00    -0.059 Cl
HETATM   16 CL3  UNL     1      32.979   9.990   3.842  1.00  0.00    -0.059 Cl
ENDBRANCH   9  13
TORSDOF 2
ENDMDL
MODEL 3
REMARK VINA RESULT: -3.370529604      0.445      1.001
REMARK  2 active torsions:
REMARK  status: ('A' for Active; 'I' for Inactive)
REMARK    1  A    between atoms: C3_3  and  N1_4 
REMARK    2  A    between atoms: N4_12  and  C8_13 
ROOT
HETATM    1  C1  UNL     1      36.951  12.207   1.753  1.00  0.00     0.072 C 
HETATM    2  C2  UNL     1      35.688  11.633   1.304  1.00  0.00     0.059 A 
HETATM    3  C3  UNL     1      35.153  11.612   0.029  1.00  0.00     0.093 A 
HETATM    4  C6  UNL     1      33.929  10.951   0.136  1.00  0.00     0.157 A 
HETATM    5  C7  UNL     1      32.978  10.661  -0.891  1.00  0.00     0.121 C 
HETATM    6  N2  UNL     1      32.184  10.410  -1.701  1.00  0.00    -0.190 NA
HETATM    7  N3  UNL     1      33.781  10.607   1.451  1.00  0.00    -0.283 N 
ATOM      8  H3  UNL     1      32.980  10.110   1.840  1.00  0.00     0.188 HD
HETATM    9  N4  UNL     1      34.824  11.013   2.138  1.00  0.00    -0.241 N 
ENDROOT
BRANCH   3  10
HETATM   10  N1  UNL     1      35.694  12.125  -1.151  1.00  0.00    -0.386 N 
HETATM   11  C4  UNL     1      35.400  13.499  -1.591  1.00  0.00     0.149 C 
HETATM   12  C5  UNL     1      36.561  11.361  -2.007  1.00  0.00     0.149 C 
ENDBRANCH   3  10
BRANCH   9  13
HETATM   13  C8  UNL     1      34.975  10.805   3.537  1.00  0.00     0.286 C 
HETATM   14 CL1  UNL     1      36.466   9.970   4.010  1.00  0.00    -0.059 Cl
HETATM   15 CL2  UNL     1      33.647   9.767   4.187  1.00  0.00    -0.059 Cl
HETATM   16 CL3  UNL     1      34.812  12.356   4.383  1.00  0.00    -0.059 Cl
ENDBRANCH   9  13
TORSDOF 2
ENDMDL
MODEL 4
REMARK VINA RESULT: -3.327813504      3.225      4.334
REMARK  2 active torsions:
REMARK  status: ('A' for Active; 'I' for Inactive)
REMARK    1  A    between atoms: C3_3  and  N1_4 
REMARK    2  A    between atoms: N4_12  and  C8_13 
ROOT
HETATM    1  C1  UNL     1      38.329  11.719   2.846  1.00  0.00     0.072 C 
HETATM    2  C2  UNL     1      37.176  10.982   3.350  1.00  0.00     0.059 A 
HETATM    3  C3  UNL     1      35.851  11.078   2.961  1.00  0.00     0.093 A 
HETATM    4  C6  UNL     1      35.151  10.166   3.752  1.00  0.00     0.157 A 
HETATM    5  C7  UNL     1      33.753   9.872   3.749  1.00  0.00     0.121 C 
HETATM    6  N2  UNL     1      32.622   9.609   3.773  1.00  0.00    -0.190 NA
HETATM    7  N3  UNL     1      36.069   9.570   4.571  1.00  0.00    -0.283 N 
ATOM      8  H3  UNL     1      35.857   8.855   5.266  1.00  0.00     0.188 HD
HETATM    9  N4  UNL     1      37.265  10.056   4.330  1.00  0.00    -0.241 N 
ENDROOT
BRANCH   3  10
HETATM   10  N1  UNL     1      35.289  11.896   1.979  1.00  0.00    -0.386 N 
HETATM   11  C4  UNL     1      35.110  11.417   0.599  1.00  0.00     0.149 C 
HETATM   12  C5  UNL     1      34.855  13.242   2.242  1.00  0.00     0.149 C 
ENDBRANCH   3  10
BRANCH   9  13
HETATM   13  C8  UNL     1      38.439   9.637   5.016  1.00  0.00     0.286 C 
HETATM   14 CL1  UNL     1      39.531  10.949   5.494  1.00  0.00    -0.059 Cl
HETATM   15 CL2  UNL     1      39.449   8.560   3.976  1.00  0.00    -0.059 Cl
HETATM   16 CL3  UNL     1      37.980   8.643   6.412  1.00  0.00    -0.059 Cl
ENDBRANCH   9  13
TORSDOF 2
ENDMDL
MODEL 5
REMARK VINA RESULT: -3.326935316      3.204      4.202
REMARK  2 active torsions:
REMARK  status: ('A' for Active; 'I' for Inactive)
REMARK    1  A    between atoms: C3_3  and  N1_4 
REMARK    2  A    between atoms: N4_12  and  C8_13 
ROOT
HETATM    1  C1  UNL     1      38.315  11.723   2.828  1.00  0.00     0.072 C 
HETATM    2  C2  UNL     1      37.163  10.987   3.336  1.00  0.00     0.059 A 
HETATM    3  C3  UNL     1      35.837  11.086   2.953  1.00  0.00     0.093 A 
HETATM    4  C6  UNL     1      35.139  10.174   3.745  1.00  0.00     0.157 A 
HETATM    5  C7  UNL     1      33.740   9.882   3.748  1.00  0.00     0.121 C 
HETATM    6  N2  UNL     1      32.609   9.621   3.777  1.00  0.00    -0.190 NA
HETATM    7  N3  UNL     1      36.060   9.574   4.558  1.00  0.00    -0.283 N 
ATOM      8  H3  UNL     1      35.850   8.856   5.252  1.00  0.00     0.188 HD
HETATM    9  N4  UNL     1      37.256  10.058   4.313  1.00  0.00    -0.241 N 
ENDROOT
BRANCH   3  10
HETATM   10  N1  UNL     1      35.272  11.908   1.977  1.00  0.00    -0.386 N 
HETATM   11  C4  UNL     1      35.079  11.431   0.597  1.00  0.00     0.149 C 
HETATM   12  C5  UNL     1      34.846  13.256   2.243  1.00  0.00     0.149 C 
ENDBRANCH   3  10
BRANCH   9  13
HETATM   13  C8  UNL     1      38.432   9.635   4.992  1.00  0.00     0.286 C 
HETATM   14 CL1  UNL     1      39.531   8.633   4.027  1.00  0.00    -0.059 Cl
HETATM   15 CL2  UNL     1      38.023   8.613   6.424  1.00  0.00    -0.059 Cl
HETATM   16 CL3  UNL     1      39.270  11.053   5.653  1.00  0.00    -0.059 Cl
ENDBRANCH   9  13
TORSDOF 2
ENDMDL
