MODEL 1
REMARK VINA RESULT: -3.496444958      0.000      0.000
REMARK  1 active torsions:
REMARK  status: ('A' for Active; 'I' for Inactive)
REMARK    1  A    between atoms: C4_7  and  C5_8 
ROOT
HETATM    1  C1  UNL     1      38.075   5.036  -8.690  1.00  0.00     0.023 C 
HETATM    2  C2  UNL     1      37.292   4.907  -7.406  1.00  0.00     0.063 C 
HETATM    3  C3  UNL     1      36.851   6.225  -6.867  1.00  0.00     0.165 C 
HETATM    4  N1  UNL     1      37.787   6.904  -6.046  1.00  0.00    -0.277 N 
HETATM    5  N2  UNL     1      37.631   8.192  -5.634  1.00  0.00    -0.282 N 
ATOM      6  H2  UNL     1      36.841   8.791  -5.876  1.00  0.00     0.188 HD
HETATM    7  C4  UNL     1      38.636   8.548  -4.887  1.00  0.00     0.153 A 
HETATM    8  N3  UNL     1      39.483   7.530  -4.773  1.00  0.00    -0.329 N 
ATOM      9  H3  UNL     1      40.358   7.513  -4.250  1.00  0.00     0.168 HD
HETATM   10  C6  UNL     1      38.935   6.507  -5.507  1.00  0.00     0.109 A 
HETATM   11  C7  UNL     1      39.542   5.144  -5.685  1.00  0.00     0.152 C 
HETATM   12  S1  UNL     1      38.239   3.995  -6.157  1.00  0.00    -0.155 SA
ENDROOT
BRANCH   7  13
HETATM   13  C5  UNL     1      38.796   9.924  -4.277  1.00  0.00     0.248 C 
HETATM   14 CL1  UNL     1      39.032  11.145  -5.579  1.00  0.00    -0.075 Cl
HETATM   15 CL2  UNL     1      40.191   9.872  -3.174  1.00  0.00    -0.075 Cl
HETATM   16 CL3  UNL     1      37.309  10.238  -3.363  1.00  0.00    -0.075 Cl
ENDBRANCH   7  13
TORSDOF 1
ENDMDL
MODEL 2
REMARK VINA RESULT: -3.466147606      0.135      1.363
REMARK  1 active torsions:
REMARK  status: ('A' for Active; 'I' for Inactive)
REMARK    1  A    between atoms: C4_7  and  C5_8 
ROOT
HETATM    1  C1  UNL     1      37.984   4.989  -8.737  1.00  0.00     0.023 C 
HETATM    2  C2  UNL     1      37.166   4.889  -7.472  1.00  0.00     0.063 C 
HETATM    3  C3  UNL     1      36.756   6.222  -6.947  1.00  0.00     0.165 C 
HETATM    4  N1  UNL     1      37.693   6.872  -6.104  1.00  0.00    -0.277 N 
HETATM    5  N2  UNL     1      37.569   8.166  -5.699  1.00  0.00    -0.282 N 
ATOM      6  H2  UNL     1      36.806   8.790  -5.961  1.00  0.00     0.188 HD
HETATM    7  C4  UNL     1      38.567   8.490  -4.928  1.00  0.00     0.153 A 
HETATM    8  N3  UNL     1      39.377   7.445  -4.791  1.00  0.00    -0.329 N 
ATOM      9  H3  UNL     1      40.238   7.400  -4.246  1.00  0.00     0.168 HD
HETATM   10  C6  UNL     1      38.814   6.438  -5.536  1.00  0.00     0.109 A 
HETATM   11  C7  UNL     1      39.379   5.056  -5.697  1.00  0.00     0.152 C 
HETATM   12  S1  UNL     1      38.051   3.949  -6.199  1.00  0.00    -0.155 SA
ENDROOT
BRANCH   7  13
HETATM   13  C5  UNL     1      38.757   9.861  -4.316  1.00  0.00     0.248 C 
HETATM   14 CL1  UNL     1      37.296  10.314  -3.366  1.00  0.00    -0.075 Cl
HETATM   15 CL2  UNL     1      39.055  11.012  -5.640  1.00  0.00    -0.075 Cl
HETATM   16 CL3  UNL     1      40.189   9.747  -3.276  1.00  0.00    -0.075 Cl
ENDBRANCH   7  13
TORSDOF 1
ENDMDL
MODEL 3
REMARK VINA RESULT: -3.329008277     11.976     13.303
REMARK  1 active torsions:
REMARK  status: ('A' for Active; 'I' for Inactive)
REMARK    1  A    between atoms: C4_7  and  C5_8 
ROOT
HETATM    1  C1  UNL     1      24.721  10.417  -5.289  1.00  0.00     0.023 C 
HETATM    2  C2  UNL     1      24.916  10.488  -6.784  1.00  0.00     0.063 C 
HETATM    3  C3  UNL     1      24.598   9.202  -7.467  1.00  0.00     0.165 C 
HETATM    4  N1  UNL     1      25.653   8.257  -7.532  1.00  0.00    -0.277 N 
HETATM    5  N2  UNL     1      25.486   6.968  -7.939  1.00  0.00    -0.282 N 
ATOM      6  H2  UNL     1      24.597   6.558  -8.229  1.00  0.00     0.188 HD
HETATM    7  C4  UNL     1      26.624   6.337  -7.905  1.00  0.00     0.153 A 
HETATM    8  N3  UNL     1      27.575   7.164  -7.484  1.00  0.00    -0.329 N 
ATOM      9  H3  UNL     1      28.565   6.951  -7.358  1.00  0.00     0.168 HD
HETATM   10  C6  UNL     1      26.949   8.364  -7.253  1.00  0.00     0.109 A 
HETATM   11  C7  UNL     1      27.620   9.612  -6.753  1.00  0.00     0.152 C 
HETATM   12  S1  UNL     1      26.598  11.027  -7.196  1.00  0.00    -0.155 SA
ENDROOT
BRANCH   7  13
HETATM   13  C5  UNL     1      26.798   4.880  -8.274  1.00  0.00     0.248 C 
HETATM   14 CL1  UNL     1      28.547   4.452  -8.264  1.00  0.00    -0.075 Cl
HETATM   15 CL2  UNL     1      26.078   4.633  -9.882  1.00  0.00    -0.075 Cl
HETATM   16 CL3  UNL     1      25.903   3.949  -7.058  1.00  0.00    -0.075 Cl
ENDBRANCH   7  13
TORSDOF 1
ENDMDL
MODEL 4
REMARK VINA RESULT: -3.326836836     10.263     11.662
REMARK  1 active torsions:
REMARK  status: ('A' for Active; 'I' for Inactive)
REMARK    1  A    between atoms: C4_7  and  C5_8 
ROOT
HETATM    1  C1  UNL     1      33.372  12.211   5.280  1.00  0.00     0.023 C 
HETATM    2  C2  UNL     1      33.322  10.713   5.108  1.00  0.00     0.063 C 
HETATM    3  C3  UNL     1      34.375  10.009   5.892  1.00  0.00     0.165 C 
HETATM    4  N1  UNL     1      35.638   9.881   5.259  1.00  0.00    -0.277 N 
HETATM    5  N2  UNL     1      36.760   9.447   5.898  1.00  0.00    -0.282 N 
ATOM      6  H2  UNL     1      36.805   9.179   6.881  1.00  0.00     0.188 HD
HETATM    7  C4  UNL     1      37.764   9.423   5.071  1.00  0.00     0.153 A 
HETATM    8  N3  UNL     1      37.360   9.831   3.872  1.00  0.00    -0.329 N 
ATOM      9  H3  UNL     1      37.924   9.916   3.027  1.00  0.00     0.168 HD
HETATM   10  C6  UNL     1      36.023  10.116   4.009  1.00  0.00     0.109 A 
HETATM   11  C7  UNL     1      35.127  10.624   2.915  1.00  0.00     0.152 C 
HETATM   12  S1  UNL     1      33.421  10.255   3.356  1.00  0.00    -0.155 SA
ENDROOT
BRANCH   7  13
HETATM   13  C5  UNL     1      39.169   9.011   5.453  1.00  0.00     0.248 C 
HETATM   14 CL1  UNL     1      40.199  10.473   5.662  1.00  0.00    -0.075 Cl
HETATM   15 CL2  UNL     1      39.796   7.953   4.166  1.00  0.00    -0.075 Cl
HETATM   16 CL3  UNL     1      39.026   8.104   6.970  1.00  0.00    -0.075 Cl
ENDBRANCH   7  13
TORSDOF 1
ENDMDL
MODEL 5
REMARK VINA RESULT: -3.239774502      1.159      2.375
REMARK  1 active torsions:
REMARK  status: ('A' for Active; 'I' for Inactive)
REMARK    1  A    between atoms: C4_7  and  C5_8 
ROOT
HETATM    1  C1  UNL     1      37.471   3.949  -6.063  1.00  0.00     0.023 C 
HETATM    2  C2  UNL     1      38.387   4.805  -6.903  1.00  0.00     0.063 C 
HETATM    3  C3  UNL     1      39.177   5.770  -6.088  1.00  0.00     0.165 C 
HETATM    4  N1  UNL     1      38.543   7.006  -5.801  1.00  0.00    -0.277 N 
HETATM    5  N2  UNL     1      39.033   7.916  -4.914  1.00  0.00    -0.282 N 
ATOM      6  H2  UNL     1      39.890   7.800  -4.372  1.00  0.00     0.188 HD
HETATM    7  C4  UNL     1      38.250   8.954  -4.860  1.00  0.00     0.153 A 
HETATM    8  N3  UNL     1      37.229   8.781  -5.693  1.00  0.00    -0.329 N 
ATOM      9  H3  UNL     1      36.457   9.426  -5.864  1.00  0.00     0.168 HD
HETATM   10  C6  UNL     1      37.428   7.552  -6.274  1.00  0.00     0.109 A 
HETATM   11  C7  UNL     1      36.520   6.914  -7.287  1.00  0.00     0.152 C 
HETATM   12  S1  UNL     1      37.459   5.675  -8.196  1.00  0.00    -0.155 SA
ENDROOT
BRANCH   7  13
HETATM   13  C5  UNL     1      38.483  10.148  -3.961  1.00  0.00     0.248 C 
HETATM   14 CL1  UNL     1      40.002   9.916  -3.020  1.00  0.00    -0.075 Cl
HETATM   15 CL2  UNL     1      37.073  10.307  -2.888  1.00  0.00    -0.075 Cl
HETATM   16 CL3  UNL     1      38.599  11.560  -5.028  1.00  0.00    -0.075 Cl
ENDBRANCH   7  13
TORSDOF 1
ENDMDL
