MODEL 1
REMARK VINA RESULT: -3.712337760      0.000      0.000
REMARK  2 active torsions:
REMARK  status: ('A' for Active; 'I' for Inactive)
REMARK    1  A    between atoms: C1_2  and  C2_5 
REMARK    2  A    between atoms: N3_11  and  N4_12 
ROOT
HETATM    1  C2  UNL     1      34.552  12.325   3.194  1.00  0.00     0.178 A 
HETATM    2  N1  UNL     1      34.940  13.533   2.853  1.00  0.00    -0.335 N 
ATOM      3  H1  UNL     1      35.415  13.756   1.978  1.00  0.00     0.168 HD
HETATM    4  C3  UNL     1      34.637  14.437   3.794  1.00  0.00     0.201 A 
HETATM    5  N2  UNL     1      34.021  13.736   4.778  1.00  0.00    -0.274 N 
ATOM      6  H2  UNL     1      33.659  14.132   5.646  1.00  0.00     0.190 HD
HETATM    7  N3  UNL     1      33.963  12.447   4.432  1.00  0.00    -0.177 N 
ENDROOT
BRANCH   7   8
HETATM    8  N4  UNL     1      33.403  11.437   5.152  1.00  0.00    -0.261 N 
HETATM    9  C4  UNL     1      32.579  11.453   6.090  1.00  0.00     0.134 C 
HETATM   10  C5  UNL     1      32.184  10.097   6.649  1.00  0.00     0.086 C 
HETATM   11  O1  UNL     1      32.027  12.590   6.643  1.00  0.00    -0.338 OA
HETATM   12  C6  UNL     1      30.688   9.973   6.823  1.00  0.00     0.010 C 
HETATM   13  C7  UNL     1      30.021  11.326   6.693  1.00  0.00     0.027 C 
HETATM   14  C8  UNL     1      30.784  12.418   7.343  1.00  0.00     0.177 C 
ATOM     15  H4  UNL     1      33.711  10.504   4.879  1.00  0.00     0.191 HD
ENDBRANCH   7   8
BRANCH   1  16
HETATM   16  C1  UNL     1      34.698  11.031   2.474  1.00  0.00     0.250 C 
HETATM   17 CL1  UNL     1      35.478  11.362   0.867  1.00  0.00    -0.075 Cl
HETATM   18 CL2  UNL     1      35.778   9.975   3.368  1.00  0.00    -0.075 Cl
HETATM   19 CL3  UNL     1      33.111  10.266   2.221  1.00  0.00    -0.075 Cl
ENDBRANCH   1  16
TORSDOF 2
ENDMDL
MODEL 2
REMARK VINA RESULT: -3.584019764     11.984     13.508
REMARK  2 active torsions:
REMARK  status: ('A' for Active; 'I' for Inactive)
REMARK    1  A    between atoms: C1_2  and  C2_5 
REMARK    2  A    between atoms: N3_11  and  N4_12 
ROOT
HETATM    1  C2  UNL     1      37.102   5.652  -7.396  1.00  0.00     0.178 A 
HETATM    2  N1  UNL     1      37.240   4.348  -7.316  1.00  0.00    -0.335 N 
ATOM      3  H1  UNL     1      37.181   3.716  -8.115  1.00  0.00     0.168 HD
HETATM    4  C3  UNL     1      37.466   3.949  -6.058  1.00  0.00     0.201 A 
HETATM    5  N2  UNL     1      37.467   5.084  -5.316  1.00  0.00    -0.274 N 
ATOM      6  H2  UNL     1      37.616   5.130  -4.308  1.00  0.00     0.190 HD
HETATM    7  N3  UNL     1      37.244   6.132  -6.114  1.00  0.00    -0.177 N 
ENDROOT
BRANCH   7   8
HETATM    8  N4  UNL     1      37.190   7.440  -5.741  1.00  0.00    -0.261 N 
HETATM    9  C4  UNL     1      38.033   8.173  -5.183  1.00  0.00     0.134 C 
HETATM   10  C5  UNL     1      37.600   9.606  -4.926  1.00  0.00     0.086 C 
HETATM   11  O1  UNL     1      39.293   7.774  -4.786  1.00  0.00    -0.338 OA
HETATM   12  C6  UNL     1      38.663  10.598  -5.337  1.00  0.00     0.010 C 
HETATM   13  C7  UNL     1      39.978   9.895  -5.596  1.00  0.00     0.027 C 
HETATM   14  C8  UNL     1      40.266   8.817  -4.621  1.00  0.00     0.177 C 
ATOM     15  H4  UNL     1      36.306   7.903  -5.955  1.00  0.00     0.191 HD
ENDBRANCH   7   8
BRANCH   1  16
HETATM   16  C1  UNL     1      36.821   6.517  -8.575  1.00  0.00     0.250 C 
HETATM   17 CL1  UNL     1      36.657   5.448 -10.034  1.00  0.00    -0.075 Cl
HETATM   18 CL2  UNL     1      35.284   7.336  -8.355  1.00  0.00    -0.075 Cl
HETATM   19 CL3  UNL     1      38.141   7.681  -8.832  1.00  0.00    -0.075 Cl
ENDBRANCH   1  16
TORSDOF 2
ENDMDL
MODEL 3
REMARK VINA RESULT: -3.560806694      3.490      5.644
REMARK  2 active torsions:
REMARK  status: ('A' for Active; 'I' for Inactive)
REMARK    1  A    between atoms: C1_2  and  C2_5 
REMARK    2  A    between atoms: N3_11  and  N4_12 
ROOT
HETATM    1  C2  UNL     1      34.937  10.456   5.125  1.00  0.00     0.178 A 
HETATM    2  N1  UNL     1      36.040  10.172   5.780  1.00  0.00    -0.335 N 
ATOM      3  H1  UNL     1      36.143  10.257   6.791  1.00  0.00     0.168 HD
HETATM    4  C3  UNL     1      37.014   9.759   4.958  1.00  0.00     0.201 A 
HETATM    5  N2  UNL     1      36.472   9.791   3.716  1.00  0.00    -0.274 N 
ATOM      6  H2  UNL     1      36.953   9.531   2.854  1.00  0.00     0.190 HD
HETATM    7  N3  UNL     1      35.207  10.216   3.797  1.00  0.00    -0.177 N 
ENDROOT
BRANCH   7   8
HETATM    8  N4  UNL     1      34.332  10.364   2.765  1.00  0.00    -0.261 N 
HETATM    9  C4  UNL     1      34.452  10.931   1.659  1.00  0.00     0.134 C 
HETATM   10  C5  UNL     1      33.233  10.884   0.754  1.00  0.00     0.086 C 
HETATM   11  O1  UNL     1      35.584  11.588   1.221  1.00  0.00    -0.338 OA
HETATM   12  C6  UNL     1      33.597  10.503  -0.663  1.00  0.00     0.010 C 
HETATM   13  C7  UNL     1      35.095  10.578  -0.868  1.00  0.00     0.027 C 
HETATM   14  C8  UNL     1      35.718  11.745  -0.201  1.00  0.00     0.177 C 
ATOM     15  H4  UNL     1      33.419   9.938   2.922  1.00  0.00     0.191 HD
ENDBRANCH   7   8
BRANCH   1  16
HETATM   16  C1  UNL     1      33.629  10.962   5.622  1.00  0.00     0.250 C 
HETATM   17 CL1  UNL     1      33.665  10.938   7.438  1.00  0.00    -0.075 Cl
HETATM   18 CL2  UNL     1      33.415  12.633   5.129  1.00  0.00    -0.075 Cl
HETATM   19 CL3  UNL     1      32.293   9.942   5.037  1.00  0.00    -0.075 Cl
ENDBRANCH   1  16
TORSDOF 2
ENDMDL
MODEL 4
REMARK VINA RESULT: -3.554192471      9.075      9.984
REMARK  2 active torsions:
REMARK  status: ('A' for Active; 'I' for Inactive)
REMARK    1  A    between atoms: C1_2  and  C2_5 
REMARK    2  A    between atoms: N3_11  and  N4_12 
ROOT
HETATM    1  C2  UNL     1      25.324  16.996   0.306  1.00  0.00     0.178 A 
HETATM    2  N1  UNL     1      25.121  16.485  -0.887  1.00  0.00    -0.335 N 
ATOM      3  H1  UNL     1      24.582  16.945  -1.622  1.00  0.00     0.168 HD
HETATM    4  C3  UNL     1      25.706  15.289  -1.023  1.00  0.00     0.201 A 
HETATM    5  N2  UNL     1      26.310  15.048   0.168  1.00  0.00    -0.274 N 
ATOM      6  H2  UNL     1      26.850  14.214   0.398  1.00  0.00     0.190 HD
HETATM    7  N3  UNL     1      26.086  16.077   0.991  1.00  0.00    -0.177 N 
ENDROOT
BRANCH   7   8
HETATM    8  N4  UNL     1      26.543  16.210   2.266  1.00  0.00    -0.261 N 
HETATM    9  C4  UNL     1      27.703  16.213   2.729  1.00  0.00     0.134 C 
HETATM   10  C5  UNL     1      27.816  16.392   4.233  1.00  0.00     0.086 C 
HETATM   11  O1  UNL     1      28.855  16.058   1.986  1.00  0.00    -0.338 OA
HETATM   12  C6  UNL     1      28.869  17.412   4.601  1.00  0.00     0.010 C 
HETATM   13  C7  UNL     1      29.734  17.744   3.403  1.00  0.00     0.027 C 
HETATM   14  C8  UNL     1      30.065  16.560   2.577  1.00  0.00     0.177 C 
ATOM     15  H4  UNL     1      25.811  16.329   2.966  1.00  0.00     0.191 HD
ENDBRANCH   7   8
BRANCH   1  16
HETATM   16  C1  UNL     1      24.850  18.278   0.896  1.00  0.00     0.250 C 
HETATM   17 CL1  UNL     1      24.095  19.265  -0.428  1.00  0.00    -0.075 Cl
HETATM   18 CL2  UNL     1      23.597  17.955   2.083  1.00  0.00    -0.075 Cl
HETATM   19 CL3  UNL     1      26.204  19.180   1.617  1.00  0.00    -0.075 Cl
ENDBRANCH   1  16
TORSDOF 2
ENDMDL
MODEL 5
REMARK VINA RESULT: -3.480225108      2.277      2.928
REMARK  2 active torsions:
REMARK  status: ('A' for Active; 'I' for Inactive)
REMARK    1  A    between atoms: C1_2  and  C2_5 
REMARK    2  A    between atoms: N3_11  and  N4_12 
ROOT
HETATM    1  C2  UNL     1      35.229  10.143   4.781  1.00  0.00     0.178 A 
HETATM    2  N1  UNL     1      36.521   9.918   4.851  1.00  0.00    -0.335 N 
ATOM      3  H1  UNL     1      37.184  10.157   4.113  1.00  0.00     0.168 HD
HETATM    4  C3  UNL     1      36.863   9.337   6.008  1.00  0.00     0.201 A 
HETATM    5  N2  UNL     1      35.702   9.195   6.695  1.00  0.00    -0.274 N 
ATOM      6  H2  UNL     1      35.612   8.785   7.625  1.00  0.00     0.190 HD
HETATM    7  N3  UNL     1      34.694   9.678   5.961  1.00  0.00    -0.177 N 
ENDROOT
BRANCH   7   8
HETATM    8  N4  UNL     1      33.381   9.728   6.317  1.00  0.00    -0.261 N 
HETATM    9  C4  UNL     1      32.712  10.625   6.871  1.00  0.00     0.134 C 
HETATM   10  C5  UNL     1      31.246  10.308   7.108  1.00  0.00     0.086 C 
HETATM   11  O1  UNL     1      33.206  11.847   7.280  1.00  0.00    -0.338 OA
HETATM   12  C6  UNL     1      30.348  11.450   6.691  1.00  0.00     0.010 C 
HETATM   13  C7  UNL     1      31.158  12.706   6.448  1.00  0.00     0.027 C 
HETATM   14  C8  UNL     1      32.243  12.901   7.438  1.00  0.00     0.177 C 
ATOM     15  H4  UNL     1      32.852   8.886   6.093  1.00  0.00     0.191 HD
ENDBRANCH   7   8
BRANCH   1  16
HETATM   16  C1  UNL     1      34.416  10.742   3.687  1.00  0.00     0.250 C 
HETATM   17 CL1  UNL     1      34.093  12.479   4.108  1.00  0.00    -0.075 Cl
HETATM   18 CL2  UNL     1      35.337  10.732   2.192  1.00  0.00    -0.075 Cl
HETATM   19 CL3  UNL     1      32.873   9.876   3.499  1.00  0.00    -0.075 Cl
ENDBRANCH   1  16
TORSDOF 2
ENDMDL
