MODEL 1
REMARK VINA RESULT: -9.408020286      0.000      0.000
REMARK  6 active torsions:
REMARK  status: ('A' for Active; 'I' for Inactive)
REMARK    1  A    between atoms: S1_2  and  C2_3 
REMARK    2  A    between atoms: C5_8  and  C6_9 
REMARK    3  A    between atoms: C9_13  and  O1_14 
REMARK    4  A    between atoms: C11_17  and  N1_18 
REMARK    5  A    between atoms: N1_18  and  S3_20 
REMARK    6  A    between atoms: S3_20  and  C12_23 
ROOT
HETATM    1  C6  UNL     1     -77.534 -19.210  84.595  1.00  0.00    -0.006 A 
HETATM    2  C7  UNL     1     -76.771 -18.651  83.596  1.00  0.00     0.040 A 
HETATM    3  C8  UNL     1     -77.297 -18.254  82.379  1.00  0.00     0.068 A 
HETATM    4 CL2  UNL     1     -76.254 -17.549  81.165  1.00  0.00    -0.081 Cl
HETATM    5  C9  UNL     1     -78.639 -18.427  82.154  1.00  0.00     0.089 A 
HETATM    6  C10 UNL     1     -79.439 -18.989  83.140  1.00  0.00     0.069 A 
HETATM    7  C11 UNL     1     -78.918 -19.380  84.344  1.00  0.00     0.055 A 
ENDROOT
BRANCH   7   8
HETATM    8  N1  UNL     1     -79.649 -19.940  85.416  1.00  0.00    -0.279 N 
ATOM      9  H1  UNL     1     -79.190 -19.990  86.325  1.00  0.00     0.179 HD
BRANCH   8  10
HETATM   10  S3  UNL     1     -81.239 -20.537  85.302  1.00  0.00     0.269 S 
HETATM   11  O2  UNL     1     -81.630 -20.823  83.870  1.00  0.00    -0.200 OA
HETATM   12  O3  UNL     1     -81.357 -21.880  86.016  1.00  0.00    -0.200 OA
BRANCH  10  13
HETATM   13  C12 UNL     1     -82.452 -19.508  86.054  1.00  0.00     0.121 A 
HETATM   14  C13 UNL     1     -82.948 -18.316  85.575  1.00  0.00     0.035 A 
HETATM   15  C14 UNL     1     -83.885 -17.704  86.301  1.00  0.00     0.033 A 
HETATM   16  C15 UNL     1     -84.282 -18.309  87.466  1.00  0.00     0.075 A 
HETATM   17 CL3  UNL     1     -85.500 -17.724  88.616  1.00  0.00    -0.076 Cl
HETATM   18  S4  UNL     1     -83.324 -19.719  87.505  1.00  0.00    -0.064 SA
ENDBRANCH  10  13
ENDBRANCH   8  10
ENDBRANCH   7   8
BRANCH   1  19
HETATM   19  C5  UNL     1     -76.961 -19.609  85.861  1.00  0.00     0.036 C 
HETATM   20  C4  UNL     1     -76.095 -18.843  86.496  1.00  0.00     0.059 A 
HETATM   21  S2  UNL     1     -75.447 -17.245  86.020  1.00  0.00    -0.072 SA
HETATM   22  C16 UNL     1     -75.413 -19.098  87.761  1.00  0.00     0.207 A 
HETATM   23  C3  UNL     1     -74.412 -17.010  87.442  1.00  0.00     0.096 A 
HETATM   24  C2  UNL     1     -74.529 -18.074  88.202  1.00  0.00     0.080 A 
HETATM   25 CL1  UNL     1     -73.426 -15.575  87.674  1.00  0.00    -0.075 Cl
HETATM   26  O4  UNL     1     -75.612 -20.192  88.423  1.00  0.00    -0.285 OA
BRANCH  24  27
HETATM   27  S1  UNL     1     -73.566 -18.172  89.751  1.00  0.00    -0.128 SA
HETATM   28  C1  UNL     1     -72.333 -19.494  89.654  1.00  0.00     0.096 C 
ENDBRANCH  24  27
ENDBRANCH   1  19
BRANCH   5  29
HETATM   29  O1  UNL     1     -79.195 -18.035  80.929  1.00  0.00    -0.359 OA
ATOM     30  H1  UNL     1     -80.112 -18.208  80.752  1.00  0.00     0.217 HD
ENDBRANCH   5  29
TORSDOF 6
ENDMDL
MODEL 2
REMARK VINA RESULT: -8.796780678      3.086      6.982
REMARK  6 active torsions:
REMARK  status: ('A' for Active; 'I' for Inactive)
REMARK    1  A    between atoms: S1_2  and  C2_3 
REMARK    2  A    between atoms: C5_8  and  C6_9 
REMARK    3  A    between atoms: C9_13  and  O1_14 
REMARK    4  A    between atoms: C11_17  and  N1_18 
REMARK    5  A    between atoms: N1_18  and  S3_20 
REMARK    6  A    between atoms: S3_20  and  C12_23 
ROOT
HETATM    1  C6  UNL     1     -76.223 -18.713  84.149  1.00  0.00    -0.006 A 
HETATM    2  C7  UNL     1     -77.174 -18.387  83.211  1.00  0.00     0.040 A 
HETATM    3  C8  UNL     1     -76.857 -17.939  81.941  1.00  0.00     0.068 A 
HETATM    4 CL2  UNL     1     -78.132 -17.549  80.809  1.00  0.00    -0.081 Cl
HETATM    5  C9  UNL     1     -75.535 -17.811  81.600  1.00  0.00     0.089 A 
HETATM    6  C10 UNL     1     -74.548 -18.131  82.522  1.00  0.00     0.069 A 
HETATM    7  C11 UNL     1     -74.862 -18.575  83.779  1.00  0.00     0.055 A 
ENDROOT
BRANCH   7   8
HETATM    8  N1  UNL     1     -73.936 -18.945  84.778  1.00  0.00    -0.279 N 
ATOM      9  H1  UNL     1     -73.796 -19.941  84.947  1.00  0.00     0.179 HD
BRANCH   8  10
HETATM   10  S3  UNL     1     -73.035 -17.852  85.722  1.00  0.00     0.269 S 
HETATM   11  O2  UNL     1     -71.598 -18.294  85.875  1.00  0.00    -0.200 OA
HETATM   12  O3  UNL     1     -72.955 -16.492  85.034  1.00  0.00    -0.200 OA
BRANCH  10  13
HETATM   13  C12 UNL     1     -73.728 -17.525  87.306  1.00  0.00     0.121 A 
HETATM   14  C13 UNL     1     -74.355 -18.420  88.143  1.00  0.00     0.035 A 
HETATM   15  C14 UNL     1     -74.793 -17.961  89.317  1.00  0.00     0.033 A 
HETATM   16  C15 UNL     1     -74.584 -16.635  89.599  1.00  0.00     0.075 A 
HETATM   17 CL3  UNL     1     -75.056 -15.766  91.072  1.00  0.00    -0.076 Cl
HETATM   18  S4  UNL     1     -73.780 -16.075  88.204  1.00  0.00    -0.064 SA
ENDBRANCH  10  13
ENDBRANCH   8  10
ENDBRANCH   7   8
BRANCH   1  19
HETATM   19  C5  UNL     1     -76.582 -19.187  85.468  1.00  0.00     0.036 C 
HETATM   20  C4  UNL     1     -77.776 -19.688  85.718  1.00  0.00     0.059 A 
HETATM   21  S2  UNL     1     -79.159 -19.908  84.604  1.00  0.00    -0.072 SA
HETATM   22  C16 UNL     1     -78.304 -20.191  86.982  1.00  0.00     0.207 A 
HETATM   23  C3  UNL     1     -80.264 -20.634  85.788  1.00  0.00     0.096 A 
HETATM   24  C2  UNL     1     -79.640 -20.679  86.941  1.00  0.00     0.080 A 
HETATM   25 CL1  UNL     1     -81.894 -21.142  85.378  1.00  0.00    -0.075 Cl
HETATM   26  O4  UNL     1     -77.587 -20.183  88.060  1.00  0.00    -0.285 OA
BRANCH  24  27
HETATM   27  S1  UNL     1     -80.511 -21.353  88.398  1.00  0.00    -0.128 SA
HETATM   28  C1  UNL     1     -81.982 -20.367  88.776  1.00  0.00     0.096 C 
ENDBRANCH  24  27
ENDBRANCH   1  19
BRANCH   5  29
HETATM   29  O1  UNL     1     -75.188 -17.357  80.320  1.00  0.00    -0.359 OA
ATOM     30  H1  UNL     1     -74.921 -16.453  80.198  1.00  0.00     0.217 HD
ENDBRANCH   5  29
TORSDOF 6
ENDMDL
MODEL 3
REMARK VINA RESULT: -8.677573726      2.860      3.273
REMARK  6 active torsions:
REMARK  status: ('A' for Active; 'I' for Inactive)
REMARK    1  A    between atoms: S1_2  and  C2_3 
REMARK    2  A    between atoms: C5_8  and  C6_9 
REMARK    3  A    between atoms: C9_13  and  O1_14 
REMARK    4  A    between atoms: C11_17  and  N1_18 
REMARK    5  A    between atoms: N1_18  and  S3_20 
REMARK    6  A    between atoms: S3_20  and  C12_23 
ROOT
HETATM    1  C6  UNL     1     -75.443 -18.461  84.203  1.00  0.00    -0.006 A 
HETATM    2  C7  UNL     1     -74.276 -18.412  83.478  1.00  0.00     0.040 A 
HETATM    3  C8  UNL     1     -74.236 -18.084  82.134  1.00  0.00     0.068 A 
HETATM    4 CL2  UNL     1     -72.706 -18.043  81.289  1.00  0.00    -0.081 Cl
HETATM    5  C9  UNL     1     -75.414 -17.796  81.492  1.00  0.00     0.089 A 
HETATM    6  C10 UNL     1     -76.612 -17.837  82.194  1.00  0.00     0.069 A 
HETATM    7  C11 UNL     1     -76.650 -18.160  83.523  1.00  0.00     0.055 A 
ENDROOT
BRANCH   7   8
HETATM    8  N1  UNL     1     -77.810 -18.208  84.327  1.00  0.00    -0.279 N 
ATOM      9  H1  UNL     1     -77.943 -17.461  85.009  1.00  0.00     0.179 HD
BRANCH   8  10
HETATM   10  S3  UNL     1     -79.002 -19.420  84.243  1.00  0.00     0.269 S 
HETATM   11  O2  UNL     1     -80.227 -18.951  83.490  1.00  0.00    -0.200 OA
HETATM   12  O3  UNL     1     -78.491 -20.618  83.449  1.00  0.00    -0.200 OA
BRANCH  10  13
HETATM   13  C12 UNL     1     -79.479 -20.074  85.805  1.00  0.00     0.121 A 
HETATM   14  C13 UNL     1     -80.732 -20.506  86.181  1.00  0.00     0.035 A 
HETATM   15  C14 UNL     1     -80.870 -20.986  87.418  1.00  0.00     0.033 A 
HETATM   16  C15 UNL     1     -79.756 -21.014  88.217  1.00  0.00     0.075 A 
HETATM   17 CL3  UNL     1     -79.652 -21.597  89.890  1.00  0.00    -0.076 Cl
HETATM   18  S4  UNL     1     -78.550 -20.361  87.206  1.00  0.00    -0.064 SA
ENDBRANCH  10  13
ENDBRANCH   8  10
ENDBRANCH   7   8
BRANCH   1  19
HETATM   19  C5  UNL     1     -75.455 -18.799  85.609  1.00  0.00     0.036 C 
HETATM   20  C4  UNL     1     -75.034 -17.949  86.524  1.00  0.00     0.059 A 
HETATM   21  S2  UNL     1     -74.393 -16.292  86.310  1.00  0.00    -0.072 SA
HETATM   22  C16 UNL     1     -74.962 -18.132  87.971  1.00  0.00     0.207 A 
HETATM   23  C3  UNL     1     -74.120 -15.953  88.031  1.00  0.00     0.096 A 
HETATM   24  C2  UNL     1     -74.463 -17.022  88.708  1.00  0.00     0.080 A 
HETATM   25 CL1  UNL     1     -73.475 -14.423  88.607  1.00  0.00    -0.075 Cl
HETATM   26  O4  UNL     1     -75.332 -19.241  88.526  1.00  0.00    -0.285 OA
BRANCH  24  27
HETATM   27  S1  UNL     1     -74.280 -17.022  90.526  1.00  0.00    -0.128 SA
HETATM   28  C1  UNL     1     -75.349 -15.767  91.276  1.00  0.00     0.096 C 
ENDBRANCH  24  27
ENDBRANCH   1  19
BRANCH   5  29
HETATM   29  O1  UNL     1     -75.401 -17.464  80.131  1.00  0.00    -0.359 OA
ATOM     30  H1  UNL     1     -75.119 -18.108  79.492  1.00  0.00     0.217 HD
ENDBRANCH   5  29
TORSDOF 6
ENDMDL
MODEL 4
REMARK VINA RESULT: -8.607524941      2.508      4.440
REMARK  6 active torsions:
REMARK  status: ('A' for Active; 'I' for Inactive)
REMARK    1  A    between atoms: S1_2  and  C2_3 
REMARK    2  A    between atoms: C5_8  and  C6_9 
REMARK    3  A    between atoms: C9_13  and  O1_14 
REMARK    4  A    between atoms: C11_17  and  N1_18 
REMARK    5  A    between atoms: N1_18  and  S3_20 
REMARK    6  A    between atoms: S3_20  and  C12_23 
ROOT
HETATM    1  C6  UNL     1     -77.665 -19.819  86.122  1.00  0.00    -0.006 A 
HETATM    2  C7  UNL     1     -76.792 -19.867  87.184  1.00  0.00     0.040 A 
HETATM    3  C8  UNL     1     -77.158 -20.312  88.442  1.00  0.00     0.068 A 
HETATM    4 CL2  UNL     1     -75.981 -20.341  89.735  1.00  0.00    -0.081 Cl
HETATM    5  C9  UNL     1     -78.451 -20.724  88.643  1.00  0.00     0.089 A 
HETATM    6  C10 UNL     1     -79.360 -20.689  87.594  1.00  0.00     0.069 A 
HETATM    7  C11 UNL     1     -78.996 -20.249  86.349  1.00  0.00     0.055 A 
ENDROOT
BRANCH   7   8
HETATM    8  N1  UNL     1     -79.837 -20.195  85.216  1.00  0.00    -0.279 N 
ATOM      9  H1  UNL     1     -79.443 -19.822  84.352  1.00  0.00     0.179 HD
BRANCH   8  10
HETATM   10  S3  UNL     1     -81.460 -20.707  85.184  1.00  0.00     0.269 S 
HETATM   11  O2  UNL     1     -81.940 -20.963  83.773  1.00  0.00    -0.200 OA
HETATM   12  O3  UNL     1     -81.612 -22.047  85.898  1.00  0.00    -0.200 OA
BRANCH  10  13
HETATM   13  C12 UNL     1     -82.576 -19.621  86.003  1.00  0.00     0.121 A 
HETATM   14  C13 UNL     1     -82.934 -18.348  85.619  1.00  0.00     0.035 A 
HETATM   15  C14 UNL     1     -83.818 -17.702  86.381  1.00  0.00     0.033 A 
HETATM   16  C15 UNL     1     -84.302 -18.356  87.486  1.00  0.00     0.075 A 
HETATM   17 CL3  UNL     1     -85.478 -17.742  88.664  1.00  0.00    -0.076 Cl
HETATM   18  S4  UNL     1     -83.497 -19.857  87.419  1.00  0.00    -0.064 SA
ENDBRANCH  10  13
ENDBRANCH   8  10
ENDBRANCH   7   8
BRANCH   1  19
HETATM   19  C5  UNL     1     -77.254 -19.357  84.815  1.00  0.00     0.036 C 
HETATM   20  C4  UNL     1     -76.047 -18.872  84.605  1.00  0.00     0.059 A 
HETATM   21  S2  UNL     1     -74.699 -18.669  85.765  1.00  0.00    -0.072 SA
HETATM   22  C16 UNL     1     -75.479 -18.350  83.365  1.00  0.00     0.207 A 
HETATM   23  C3  UNL     1     -73.535 -17.987  84.611  1.00  0.00     0.096 A 
HETATM   24  C2  UNL     1     -74.133 -17.896  83.447  1.00  0.00     0.080 A 
HETATM   25 CL1  UNL     1     -71.902 -17.528  85.068  1.00  0.00    -0.075 Cl
HETATM   26  O4  UNL     1     -76.173 -18.312  82.273  1.00  0.00    -0.285 OA
BRANCH  24  27
HETATM   27  S1  UNL     1     -73.217 -17.202  82.027  1.00  0.00    -0.128 SA
HETATM   28  C1  UNL     1     -72.148 -18.457  81.280  1.00  0.00     0.096 C 
ENDBRANCH  24  27
ENDBRANCH   1  19
BRANCH   5  29
HETATM   29  O1  UNL     1     -78.847 -21.176  89.909  1.00  0.00    -0.359 OA
ATOM     30  H1  UNL     1     -78.466 -20.788  90.688  1.00  0.00     0.217 HD
ENDBRANCH   5  29
TORSDOF 6
ENDMDL
MODEL 5
REMARK VINA RESULT: -8.457762177      2.401      2.675
REMARK  6 active torsions:
REMARK  status: ('A' for Active; 'I' for Inactive)
REMARK    1  A    between atoms: S1_2  and  C2_3 
REMARK    2  A    between atoms: C5_8  and  C6_9 
REMARK    3  A    between atoms: C9_13  and  O1_14 
REMARK    4  A    between atoms: C11_17  and  N1_18 
REMARK    5  A    between atoms: N1_18  and  S3_20 
REMARK    6  A    between atoms: S3_20  and  C12_23 
ROOT
HETATM    1  C6  UNL     1     -76.867 -18.466  84.146  1.00  0.00    -0.006 A 
HETATM    2  C7  UNL     1     -75.826 -18.280  83.267  1.00  0.00     0.040 A 
HETATM    3  C8  UNL     1     -76.013 -17.980  81.929  1.00  0.00     0.068 A 
HETATM    4 CL2  UNL     1     -74.630 -17.757  80.883  1.00  0.00    -0.081 Cl
HETATM    5  C9  UNL     1     -77.295 -17.863  81.455  1.00  0.00     0.089 A 
HETATM    6  C10 UNL     1     -78.370 -18.045  82.314  1.00  0.00     0.069 A 
HETATM    7  C11 UNL     1     -78.184 -18.342  83.637  1.00  0.00     0.055 A 
ENDROOT
BRANCH   7   8
HETATM    8  N1  UNL     1     -79.208 -18.524  84.593  1.00  0.00    -0.279 N 
ATOM      9  H1  UNL     1     -79.435 -17.734  85.197  1.00  0.00     0.179 HD
BRANCH   8  10
HETATM   10  S3  UNL     1     -80.090 -19.963  84.812  1.00  0.00     0.269 S 
HETATM   11  O2  UNL     1     -81.455 -19.888  84.165  1.00  0.00    -0.200 OA
HETATM   12  O3  UNL     1     -79.391 -21.128  84.116  1.00  0.00    -0.200 OA
BRANCH  10  13
HETATM   13  C12 UNL     1     -80.254 -20.462  86.491  1.00  0.00     0.121 A 
HETATM   14  C13 UNL     1     -81.423 -20.653  87.193  1.00  0.00     0.035 A 
HETATM   15  C14 UNL     1     -81.319 -21.054  88.462  1.00  0.00     0.033 A 
HETATM   16  C15 UNL     1     -80.058 -21.245  88.966  1.00  0.00     0.075 A 
HETATM   17 CL3  UNL     1     -79.628 -21.772  90.605  1.00  0.00    -0.076 Cl
HETATM   18  S4  UNL     1     -79.058 -20.853  87.642  1.00  0.00    -0.064 SA
ENDBRANCH  10  13
ENDBRANCH   8  10
ENDBRANCH   7   8
BRANCH   1  19
HETATM   19  C5  UNL     1     -76.644 -18.772  85.542  1.00  0.00     0.036 C 
HETATM   20  C4  UNL     1     -75.819 -18.054  86.279  1.00  0.00     0.059 A 
HETATM   21  S2  UNL     1     -74.839 -16.633  85.812  1.00  0.00    -0.072 SA
HETATM   22  C16 UNL     1     -75.468 -18.234  87.685  1.00  0.00     0.207 A 
HETATM   23  C3  UNL     1     -74.102 -16.358  87.402  1.00  0.00     0.096 A 
HETATM   24  C2  UNL     1     -74.545 -17.289  88.214  1.00  0.00     0.080 A 
HETATM   25 CL1  UNL     1     -72.970 -15.050  87.712  1.00  0.00    -0.075 Cl
HETATM   26  O4  UNL     1     -75.974 -19.196  88.387  1.00  0.00    -0.285 OA
BRANCH  24  27
HETATM   27  S1  UNL     1     -73.956 -17.316  89.943  1.00  0.00    -0.128 SA
HETATM   28  C1  UNL     1     -74.763 -16.017  90.913  1.00  0.00     0.096 C 
ENDBRANCH  24  27
ENDBRANCH   1  19
BRANCH   5  29
HETATM   29  O1  UNL     1     -77.511 -17.562  80.103  1.00  0.00    -0.359 OA
ATOM     30  H1  UNL     1     -78.111 -18.093  79.593  1.00  0.00     0.217 HD
ENDBRANCH   5  29
TORSDOF 6
ENDMDL
