MODEL 1
REMARK VINA RESULT: -8.845268612      0.000      0.000
REMARK  5 active torsions:
REMARK  status: ('A' for Active; 'I' for Inactive)
REMARK    1  A    between atoms: C6_10  and  N3_11 
REMARK    2  A    between atoms: N3_11  and  C7_13 
REMARK    3  A    between atoms: C10_19  and  C11_20 
REMARK    4  A    between atoms: C11_20  and  C12_22 
REMARK    5  A    between atoms: C14_24  and  C15_25 
ROOT
HETATM    1  C1  UNL     1     -72.065 -19.063  88.800  1.00  0.00     0.159 C 
HETATM    2  N1  UNL     1     -73.468 -19.195  88.480  1.00  0.00    -0.326 N 
HETATM    3  C2  UNL     1     -74.359 -19.898  89.262  1.00  0.00     0.141 A 
HETATM    4  C3  UNL     1     -74.000 -20.550  90.477  1.00  0.00     0.119 C 
HETATM    5  N2  UNL     1     -73.726 -21.093  91.478  1.00  0.00    -0.190 NA
HETATM    6  C4  UNL     1     -75.586 -19.862  88.701  1.00  0.00     0.097 A 
HETATM    7 CL1  UNL     1     -77.064 -20.607  89.310  1.00  0.00    -0.079 Cl
HETATM    8  C5  UNL     1     -75.453 -19.125  87.554  1.00  0.00     0.102 A 
HETATM    9 CL2  UNL     1     -76.774 -18.778  86.448  1.00  0.00    -0.078 Cl
HETATM   10  C6  UNL     1     -74.103 -18.704  87.420  1.00  0.00     0.128 A 
ENDROOT
BRANCH  10  11
HETATM   11  N3  UNL     1     -73.707 -17.902  86.329  1.00  0.00    -0.368 N 
ATOM     12  H3  UNL     1     -74.062 -16.945  86.323  1.00  0.00     0.161 HD
BRANCH  11  13
HETATM   13  C7  UNL     1     -72.874 -18.265  85.238  1.00  0.00     0.109 C 
HETATM   14  C8  UNL     1     -72.054 -17.150  84.650  1.00  0.00     0.257 C 
HETATM   15  N4  UNL     1     -72.446 -16.760  83.321  1.00  0.00    -0.072 N 
HETATM   16  C9  UNL     1     -73.843 -16.407  83.296  1.00  0.00     0.244 C 
ATOM     17  H42 UNL     1     -71.857 -16.011  82.955  1.00  0.00     0.277 HD
ATOM     18  H41 UNL     1     -72.222 -17.477  82.632  1.00  0.00     0.277 HD
HETATM   19  C10 UNL     1     -74.669 -17.664  83.578  1.00  0.00     0.088 C 
HETATM   20  C20 UNL     1     -73.763 -18.759  84.075  1.00  0.00     0.041 C 
BRANCH  19  21
HETATM   21  C11 UNL     1     -75.318 -18.124  82.360  1.00  0.00     0.172 C 
HETATM   22  O1  UNL     1     -74.668 -18.424  81.343  1.00  0.00    -0.291 OA
BRANCH  21  23
HETATM   23  C12 UNL     1     -76.794 -18.240  82.321  1.00  0.00     0.051 A 
HETATM   24  C13 UNL     1     -77.603 -18.734  83.307  1.00  0.00     0.036 A 
HETATM   25  C14 UNL     1     -78.930 -18.751  83.068  1.00  0.00    -0.011 A 
HETATM   26  C19 UNL     1     -79.341 -18.265  81.847  1.00  0.00     0.063 A 
HETATM   27  S2  UNL     1     -77.889 -17.813  81.093  1.00  0.00    -0.098 SA
BRANCH  25  28
HETATM   28  C15 UNL     1     -79.925 -19.267  84.069  1.00  0.00     0.017 A 
HETATM   29  C16 UNL     1     -79.760 -20.194  85.048  1.00  0.00     0.022 A 
HETATM   30  C17 UNL     1     -80.822 -20.480  85.816  1.00  0.00     0.033 A 
HETATM   31  C18 UNL     1     -81.985 -19.809  85.546  1.00  0.00     0.075 A 
HETATM   32 CL3  UNL     1     -83.548 -19.958  86.368  1.00  0.00    -0.076 Cl
HETATM   33  S1  UNL     1     -81.551 -18.809  84.233  1.00  0.00    -0.077 SA
ENDBRANCH  25  28
ENDBRANCH  21  23
ENDBRANCH  19  21
ENDBRANCH  11  13
ENDBRANCH  10  11
TORSDOF 5
ENDMDL
MODEL 2
REMARK VINA RESULT: -8.538432672      4.025      7.070
REMARK  5 active torsions:
REMARK  status: ('A' for Active; 'I' for Inactive)
REMARK    1  A    between atoms: C6_10  and  N3_11 
REMARK    2  A    between atoms: N3_11  and  C7_13 
REMARK    3  A    between atoms: C10_19  and  C11_20 
REMARK    4  A    between atoms: C11_20  and  C12_22 
REMARK    5  A    between atoms: C14_24  and  C15_25 
ROOT
HETATM    1  C1  UNL     1     -81.538 -20.356  84.222  1.00  0.00     0.159 C 
HETATM    2  N1  UNL     1     -80.671 -20.454  85.374  1.00  0.00    -0.326 N 
HETATM    3  C2  UNL     1     -81.116 -20.821  86.625  1.00  0.00     0.141 A 
HETATM    4  C3  UNL     1     -82.469 -21.163  86.915  1.00  0.00     0.119 C 
HETATM    5  N2  UNL     1     -83.576 -21.447  87.173  1.00  0.00    -0.190 NA
HETATM    6  C4  UNL     1     -80.088 -20.804  87.500  1.00  0.00     0.097 A 
HETATM    7 CL1  UNL     1     -80.137 -21.192  89.218  1.00  0.00    -0.079 Cl
HETATM    8  C5  UNL     1     -78.988 -20.420  86.778  1.00  0.00     0.102 A 
HETATM    9 CL2  UNL     1     -77.378 -20.242  87.456  1.00  0.00    -0.078 Cl
HETATM   10  C6  UNL     1     -79.367 -20.200  85.426  1.00  0.00     0.128 A 
ENDROOT
BRANCH  10  11
HETATM   11  N3  UNL     1     -78.406 -19.821  84.465  1.00  0.00    -0.368 N 
ATOM     12  H3  UNL     1     -77.637 -20.475  84.318  1.00  0.00     0.161 HD
BRANCH  11  13
HETATM   13  C7  UNL     1     -78.382 -18.640  83.676  1.00  0.00     0.109 C 
HETATM   14  C8  UNL     1     -77.814 -18.797  82.293  1.00  0.00     0.257 C 
HETATM   15  N4  UNL     1     -76.555 -18.131  82.086  1.00  0.00    -0.072 N 
HETATM   16  C9  UNL     1     -75.592 -18.569  83.064  1.00  0.00     0.244 C 
ATOM     17  H42 UNL     1     -76.213 -18.252  81.132  1.00  0.00     0.277 HD
ATOM     18  H41 UNL     1     -76.658 -17.116  82.081  1.00  0.00     0.277 HD
HETATM   19  C10 UNL     1     -76.047 -18.094  84.445  1.00  0.00     0.088 C 
HETATM   20  C20 UNL     1     -77.468 -17.602  84.364  1.00  0.00     0.041 C 
BRANCH  19  21
HETATM   21  C11 UNL     1     -75.208 -16.998  84.902  1.00  0.00     0.172 C 
HETATM   22  O1  UNL     1     -74.865 -16.073  84.144  1.00  0.00    -0.291 OA
BRANCH  21  23
HETATM   23  C12 UNL     1     -74.742 -16.974  86.308  1.00  0.00     0.051 A 
HETATM   24  C13 UNL     1     -74.564 -18.053  87.130  1.00  0.00     0.036 A 
HETATM   25  C14 UNL     1     -74.129 -17.812  88.384  1.00  0.00    -0.011 A 
HETATM   26  C19 UNL     1     -73.906 -16.494  88.713  1.00  0.00     0.063 A 
HETATM   27  S2  UNL     1     -74.304 -15.658  87.290  1.00  0.00    -0.098 SA
BRANCH  25  28
HETATM   28  C15 UNL     1     -73.894 -18.909  89.382  1.00  0.00     0.017 A 
HETATM   29  C16 UNL     1     -74.789 -19.736  89.982  1.00  0.00     0.022 A 
HETATM   30  C17 UNL     1     -74.313 -20.642  90.848  1.00  0.00     0.033 A 
HETATM   31  C18 UNL     1     -72.958 -20.657  91.054  1.00  0.00     0.075 A 
HETATM   32 CL3  UNL     1     -72.027 -21.719  92.123  1.00  0.00    -0.076 Cl
HETATM   33  S1  UNL     1     -72.406 -19.405  90.032  1.00  0.00    -0.077 SA
ENDBRANCH  25  28
ENDBRANCH  21  23
ENDBRANCH  19  21
ENDBRANCH  11  13
ENDBRANCH  10  11
TORSDOF 5
ENDMDL
MODEL 3
REMARK VINA RESULT: -8.435832628      2.342      2.775
REMARK  5 active torsions:
REMARK  status: ('A' for Active; 'I' for Inactive)
REMARK    1  A    between atoms: C6_10  and  N3_11 
REMARK    2  A    between atoms: N3_11  and  C7_13 
REMARK    3  A    between atoms: C10_19  and  C11_20 
REMARK    4  A    between atoms: C11_20  and  C12_22 
REMARK    5  A    between atoms: C14_24  and  C15_25 
ROOT
HETATM    1  C1  UNL     1     -71.467 -14.353  87.324  1.00  0.00     0.159 C 
HETATM    2  N1  UNL     1     -72.542 -15.230  87.733  1.00  0.00    -0.326 N 
HETATM    3  C2  UNL     1     -73.014 -15.294  89.026  1.00  0.00     0.141 A 
HETATM    4  C3  UNL     1     -72.511 -14.493  90.092  1.00  0.00     0.119 C 
HETATM    5  N2  UNL     1     -72.111 -13.844  90.982  1.00  0.00    -0.190 NA
HETATM    6  C4  UNL     1     -74.000 -16.212  89.107  1.00  0.00     0.097 A 
HETATM    7 CL1  UNL     1     -74.924 -16.667  90.538  1.00  0.00    -0.079 Cl
HETATM    8  C5  UNL     1     -74.141 -16.723  87.844  1.00  0.00     0.102 A 
HETATM    9 CL2  UNL     1     -75.306 -17.964  87.409  1.00  0.00    -0.078 Cl
HETATM   10  C6  UNL     1     -73.210 -16.094  86.975  1.00  0.00     0.128 A 
ENDROOT
BRANCH  10  11
HETATM   11  N3  UNL     1     -73.171 -16.425  85.604  1.00  0.00    -0.368 N 
ATOM     12  H3  UNL     1     -73.685 -15.805  84.978  1.00  0.00     0.161 HD
BRANCH  11  13
HETATM   13  C7  UNL     1     -72.502 -17.518  84.991  1.00  0.00     0.109 C 
HETATM   14  C8  UNL     1     -71.370 -17.151  84.072  1.00  0.00     0.257 C 
HETATM   15  N4  UNL     1     -71.621 -17.422  82.681  1.00  0.00    -0.072 N 
HETATM   16  C9  UNL     1     -72.832 -16.766  82.254  1.00  0.00     0.244 C 
ATOM     17  H42 UNL     1     -70.825 -17.170  82.094  1.00  0.00     0.277 HD
ATOM     18  H41 UNL     1     -71.641 -18.422  82.485  1.00  0.00     0.277 HD
HETATM   19  C10 UNL     1     -74.016 -17.406  82.982  1.00  0.00     0.088 C 
HETATM   20  C20 UNL     1     -73.507 -18.279  84.099  1.00  0.00     0.041 C 
BRANCH  19  21
HETATM   21  C11 UNL     1     -74.782 -18.235  82.066  1.00  0.00     0.172 C 
HETATM   22  O1  UNL     1     -74.231 -18.948  81.208  1.00  0.00    -0.291 OA
BRANCH  21  23
HETATM   23  C12 UNL     1     -76.261 -18.236  82.147  1.00  0.00     0.051 A 
HETATM   24  C13 UNL     1     -77.026 -18.788  83.138  1.00  0.00     0.036 A 
HETATM   25  C14 UNL     1     -78.365 -18.677  83.021  1.00  0.00    -0.011 A 
HETATM   26  C19 UNL     1     -78.831 -18.013  81.909  1.00  0.00     0.063 A 
HETATM   27  S2  UNL     1     -77.412 -17.579  81.084  1.00  0.00    -0.098 SA
BRANCH  25  28
HETATM   28  C15 UNL     1     -79.314 -19.239  84.041  1.00  0.00     0.017 A 
HETATM   29  C16 UNL     1     -79.048 -19.955  85.164  1.00  0.00     0.022 A 
HETATM   30  C17 UNL     1     -80.090 -20.344  85.913  1.00  0.00     0.033 A 
HETATM   31  C18 UNL     1     -81.339 -19.983  85.479  1.00  0.00     0.075 A 
HETATM   32 CL3  UNL     1     -82.902 -20.338  86.234  1.00  0.00    -0.076 Cl
HETATM   33  S1  UNL     1     -81.008 -19.119  84.045  1.00  0.00    -0.077 SA
ENDBRANCH  25  28
ENDBRANCH  21  23
ENDBRANCH  19  21
ENDBRANCH  11  13
ENDBRANCH  10  11
TORSDOF 5
ENDMDL
MODEL 4
REMARK VINA RESULT: -8.364954502      4.734      7.815
REMARK  5 active torsions:
REMARK  status: ('A' for Active; 'I' for Inactive)
REMARK    1  A    between atoms: C6_10  and  N3_11 
REMARK    2  A    between atoms: N3_11  and  C7_13 
REMARK    3  A    between atoms: C10_19  and  C11_20 
REMARK    4  A    between atoms: C11_20  and  C12_22 
REMARK    5  A    between atoms: C14_24  and  C15_25 
ROOT
HETATM    1  C1  UNL     1     -81.607 -20.354  84.204  1.00  0.00     0.159 C 
HETATM    2  N1  UNL     1     -80.762 -20.465  85.371  1.00  0.00    -0.326 N 
HETATM    3  C2  UNL     1     -81.233 -20.830  86.613  1.00  0.00     0.141 A 
HETATM    4  C3  UNL     1     -82.595 -21.156  86.878  1.00  0.00     0.119 C 
HETATM    5  N2  UNL     1     -83.709 -21.428  87.116  1.00  0.00    -0.190 NA
HETATM    6  C4  UNL     1     -80.220 -20.827  87.506  1.00  0.00     0.097 A 
HETATM    7 CL1  UNL     1     -80.303 -21.219  89.222  1.00  0.00    -0.079 Cl
HETATM    8  C5  UNL     1     -79.103 -20.455  86.804  1.00  0.00     0.102 A 
HETATM    9 CL2  UNL     1     -77.503 -20.298  87.511  1.00  0.00    -0.078 Cl
HETATM   10  C6  UNL     1     -79.455 -20.227  85.447  1.00  0.00     0.128 A 
ENDROOT
BRANCH  10  11
HETATM   11  N3  UNL     1     -78.474 -19.858  84.503  1.00  0.00    -0.368 N 
ATOM     12  H3  UNL     1     -77.700 -20.511  84.382  1.00  0.00     0.161 HD
BRANCH  11  13
HETATM   13  C7  UNL     1     -78.433 -18.686  83.702  1.00  0.00     0.109 C 
HETATM   14  C8  UNL     1     -77.845 -18.861  82.329  1.00  0.00     0.257 C 
HETATM   15  N4  UNL     1     -76.581 -18.201  82.134  1.00  0.00    -0.072 N 
HETATM   16  C9  UNL     1     -75.634 -18.631  83.132  1.00  0.00     0.244 C 
ATOM     17  H42 UNL     1     -76.224 -18.334  81.187  1.00  0.00     0.277 HD
ATOM     18  H41 UNL     1     -76.680 -17.186  82.116  1.00  0.00     0.277 HD
HETATM   19  C10 UNL     1     -76.108 -18.138  84.500  1.00  0.00     0.088 C 
HETATM   20  C20 UNL     1     -77.526 -17.643  84.392  1.00  0.00     0.041 C 
BRANCH  19  21
HETATM   21  C11 UNL     1     -75.273 -17.039  84.958  1.00  0.00     0.172 C 
HETATM   22  O1  UNL     1     -74.942 -16.107  84.203  1.00  0.00    -0.291 OA
BRANCH  21  23
HETATM   23  C12 UNL     1     -74.797 -17.021  86.360  1.00  0.00     0.051 A 
HETATM   24  C13 UNL     1     -74.045 -16.048  86.957  1.00  0.00     0.036 A 
HETATM   25  C14 UNL     1     -73.717 -16.225  88.253  1.00  0.00    -0.011 A 
HETATM   26  C19 UNL     1     -74.176 -17.378  88.851  1.00  0.00     0.063 A 
HETATM   27  S2  UNL     1     -75.030 -18.154  87.605  1.00  0.00    -0.098 SA
BRANCH  25  28
HETATM   28  C15 UNL     1     -72.896 -15.230  89.023  1.00  0.00     0.017 A 
HETATM   29  C16 UNL     1     -71.962 -14.352  88.574  1.00  0.00     0.022 A 
HETATM   30  C17 UNL     1     -71.366 -13.563  89.480  1.00  0.00     0.033 A 
HETATM   31  C18 UNL     1     -71.752 -13.711  90.786  1.00  0.00     0.075 A 
HETATM   32 CL3  UNL     1     -71.163 -12.831  92.206  1.00  0.00    -0.076 Cl
HETATM   33  S1  UNL     1     -72.930 -14.944  90.696  1.00  0.00    -0.077 SA
ENDBRANCH  25  28
ENDBRANCH  21  23
ENDBRANCH  19  21
ENDBRANCH  11  13
ENDBRANCH  10  11
TORSDOF 5
ENDMDL
MODEL 5
REMARK VINA RESULT: -8.332208115      1.735      1.971
REMARK  5 active torsions:
REMARK  status: ('A' for Active; 'I' for Inactive)
REMARK    1  A    between atoms: C6_10  and  N3_11 
REMARK    2  A    between atoms: N3_11  and  C7_13 
REMARK    3  A    between atoms: C10_19  and  C11_20 
REMARK    4  A    between atoms: C11_20  and  C12_22 
REMARK    5  A    between atoms: C14_24  and  C15_25 
ROOT
HETATM    1  C1  UNL     1     -70.496 -18.081  88.150  1.00  0.00     0.159 C 
HETATM    2  N1  UNL     1     -71.933 -17.973  88.275  1.00  0.00    -0.326 N 
HETATM    3  C2  UNL     1     -72.561 -17.540  89.422  1.00  0.00     0.141 A 
HETATM    4  C3  UNL     1     -71.867 -17.133  90.598  1.00  0.00     0.119 C 
HETATM    5  N2  UNL     1     -71.316 -16.795  91.575  1.00  0.00    -0.190 NA
HETATM    6  C4  UNL     1     -73.900 -17.565  89.247  1.00  0.00     0.097 A 
HETATM    7 CL1  UNL     1     -75.141 -17.109  90.413  1.00  0.00    -0.079 Cl
HETATM    8  C5  UNL     1     -74.102 -18.021  87.971  1.00  0.00     0.102 A 
HETATM    9 CL2  UNL     1     -75.687 -18.237  87.243  1.00  0.00    -0.078 Cl
HETATM   10  C6  UNL     1     -72.847 -18.278  87.358  1.00  0.00     0.128 A 
ENDROOT
BRANCH  10  11
HETATM   11  N3  UNL     1     -72.779 -18.732  86.024  1.00  0.00    -0.368 N 
ATOM     12  H3  UNL     1     -73.142 -19.669  85.850  1.00  0.00     0.161 HD
BRANCH  11  13
HETATM   13  C7  UNL     1     -72.266 -18.041  84.894  1.00  0.00     0.109 C 
HETATM   14  C8  UNL     1     -72.421 -16.546  84.924  1.00  0.00     0.257 C 
HETATM   15  N4  UNL     1     -73.347 -16.023  83.954  1.00  0.00    -0.072 N 
HETATM   16  C9  UNL     1     -74.635 -16.653  84.104  1.00  0.00     0.244 C 
ATOM     17  H42 UNL     1     -73.413 -15.006  84.000  1.00  0.00     0.277 HD
ATOM     18  H41 UNL     1     -72.990 -16.108  83.003  1.00  0.00     0.277 HD
HETATM   19  C10 UNL     1     -74.501 -18.133  83.738  1.00  0.00     0.088 C 
HETATM   20  C20 UNL     1     -73.043 -18.495  83.639  1.00  0.00     0.041 C 
BRANCH  19  21
HETATM   21  C11 UNL     1     -75.126 -18.392  82.451  1.00  0.00     0.172 C 
HETATM   22  O1  UNL     1     -74.455 -18.648  81.434  1.00  0.00    -0.291 OA
BRANCH  21  23
HETATM   23  C12 UNL     1     -76.602 -18.350  82.336  1.00  0.00     0.051 A 
HETATM   24  C13 UNL     1     -77.508 -18.787  83.263  1.00  0.00     0.036 A 
HETATM   25  C14 UNL     1     -78.816 -18.656  82.961  1.00  0.00    -0.011 A 
HETATM   26  C19 UNL     1     -79.110 -18.091  81.740  1.00  0.00     0.063 A 
HETATM   27  S2  UNL     1     -77.581 -17.771  81.074  1.00  0.00    -0.098 SA
BRANCH  25  28
HETATM   28  C15 UNL     1     -79.908 -19.096  83.893  1.00  0.00     0.017 A 
HETATM   29  C16 UNL     1     -81.218 -18.737  83.917  1.00  0.00     0.022 A 
HETATM   30  C17 UNL     1     -81.993 -19.282  84.866  1.00  0.00     0.033 A 
HETATM   31  C18 UNL     1     -81.395 -20.157  85.733  1.00  0.00     0.075 A 
HETATM   32 CL3  UNL     1     -82.135 -21.035  87.083  1.00  0.00    -0.076 Cl
HETATM   33  S1  UNL     1     -79.777 -20.184  85.190  1.00  0.00    -0.077 SA
ENDBRANCH  25  28
ENDBRANCH  21  23
ENDBRANCH  19  21
ENDBRANCH  11  13
ENDBRANCH  10  11
TORSDOF 5
ENDMDL
