MODEL 1
REMARK VINA RESULT: -6.889879110      0.000      0.000
REMARK  6 active torsions:
REMARK  status: ('A' for Active; 'I' for Inactive)
REMARK    1  A    between atoms: O1_2  and  C2_3 
REMARK    2  A    between atoms: C4_5  and  C5_6 
REMARK    3  A    between atoms: C10_12  and  O2_13 
REMARK    4  A    between atoms: C11_15  and  O3_16 
REMARK    5  A    between atoms: C21_30  and  O5_31 
REMARK    6  A    between atoms: C23_33  and  O6_34 
ROOT
HETATM    1  C5  UNL     1     -72.089 -17.880  82.870  1.00  0.00     0.001 C 
HETATM    2  C6  UNL     1     -71.423 -16.569  82.447  1.00  0.00     0.045 A 
HETATM    3  C7  UNL     1     -70.560 -16.558  81.399  1.00  0.00     0.084 A 
HETATM    4  C8  UNL     1     -70.143 -15.431  80.752  1.00  0.00     0.064 A 
HETATM    5  C9  UNL     1     -70.576 -14.179  81.149  1.00  0.00     0.072 A 
HETATM    6 CL1  UNL     1     -70.061 -12.771  80.275  1.00  0.00    -0.081 Cl
HETATM    7  C10 UNL     1     -71.427 -14.129  82.199  1.00  0.00     0.121 A 
HETATM    8  C11 UNL     1     -71.850 -15.319  82.860  1.00  0.00     0.114 A 
HETATM    9  O4  UNL     1     -69.974 -17.834  80.991  1.00  0.00    -0.346 OA
HETATM   10  C12 UNL     1     -69.811 -18.480  82.349  1.00  0.00     0.216 C 
HETATM   11  C13 UNL     1     -71.355 -18.977  82.359  1.00  0.00    -0.010 C 
HETATM   12  C14 UNL     1     -71.101 -20.220  81.782  1.00  0.00    -0.005 A 
HETATM   13  C15 UNL     1     -70.326 -21.187  82.411  1.00  0.00     0.014 A 
HETATM   14  C16 UNL     1     -69.622 -22.145  81.690  1.00  0.00     0.001 A 
HETATM   15  C17 UNL     1     -69.681 -22.166  80.335  1.00  0.00     0.002 A 
HETATM   16  C18 UNL     1     -70.451 -21.240  79.655  1.00  0.00     0.024 A 
HETATM   17  C19 UNL     1     -71.126 -20.311  80.376  1.00  0.00     0.044 A 
HETATM   18 CL2  UNL     1     -72.191 -19.253  79.591  1.00  0.00    -0.083 Cl
ENDROOT
BRANCH   1  19
HETATM   19  C4  UNL     1     -73.545 -18.041  82.845  1.00  0.00     0.003 A 
HETATM   20  C3  UNL     1     -73.990 -18.670  84.078  1.00  0.00     0.054 A 
HETATM   21  C2  UNL     1     -75.302 -18.678  84.498  1.00  0.00     0.105 A 
HETATM   22  C23 UNL     1     -76.311 -18.028  83.692  1.00  0.00     0.136 A 
HETATM   23  C21 UNL     1     -75.896 -17.446  82.526  1.00  0.00     0.127 A 
HETATM   24  C20 UNL     1     -74.569 -17.508  82.189  1.00  0.00     0.081 A 
HETATM   25 CL3  UNL     1     -74.348 -17.272  80.431  1.00  0.00    -0.080 Cl
BRANCH  21  26
HETATM   26  O1  UNL     1     -75.874 -19.223  85.570  1.00  0.00    -0.353 OA
HETATM   27  C1  UNL     1     -75.580 -19.571  86.816  1.00  0.00     0.210 C 
ENDBRANCH  21  26
BRANCH  22  28
HETATM   28  O6  UNL     1     -77.606 -17.999  84.079  1.00  0.00    -0.351 OA
HETATM   29  C24 UNL     1     -78.575 -19.017  83.967  1.00  0.00     0.210 C 
ENDBRANCH  22  28
BRANCH  23  30
HETATM   30  O5  UNL     1     -76.877 -16.822  81.759  1.00  0.00    -0.351 OA
HETATM   31  C22 UNL     1     -77.684 -17.552  80.920  1.00  0.00     0.210 C 
ENDBRANCH  23  30
ENDBRANCH   1  19
BRANCH   8  32
HETATM   32  O3  UNL     1     -72.674 -15.241  83.963  1.00  0.00    -0.357 OA
ATOM     33  H3  UNL     1     -73.466 -15.764  83.972  1.00  0.00     0.217 HD
ENDBRANCH   8  32
BRANCH   7  34
HETATM   34  O2  UNL     1     -71.925 -12.881  82.661  1.00  0.00    -0.356 OA
ATOM     35  H2  UNL     1     -71.602 -12.505  83.472  1.00  0.00     0.218 HD
ENDBRANCH   7  34
TORSDOF 6
ENDMDL
MODEL 2
REMARK VINA RESULT: -6.815248515      5.118      8.695
REMARK  6 active torsions:
REMARK  status: ('A' for Active; 'I' for Inactive)
REMARK    1  A    between atoms: O1_2  and  C2_3 
REMARK    2  A    between atoms: C4_5  and  C5_6 
REMARK    3  A    between atoms: C10_12  and  O2_13 
REMARK    4  A    between atoms: C11_15  and  O3_16 
REMARK    5  A    between atoms: C21_30  and  O5_31 
REMARK    6  A    between atoms: C23_33  and  O6_34 
ROOT
HETATM    1  C5  UNL     1     -74.181 -17.831  88.666  1.00  0.00     0.001 C 
HETATM    2  C6  UNL     1     -75.090 -17.756  87.439  1.00  0.00     0.045 A 
HETATM    3  C7  UNL     1     -74.813 -16.874  86.445  1.00  0.00     0.084 A 
HETATM    4  C8  UNL     1     -75.360 -16.918  85.195  1.00  0.00     0.064 A 
HETATM    5  C9  UNL     1     -76.281 -17.892  84.854  1.00  0.00     0.072 A 
HETATM    6 CL1  UNL     1     -76.923 -17.945  83.243  1.00  0.00    -0.081 Cl
HETATM    7  C10 UNL     1     -76.607 -18.790  85.812  1.00  0.00     0.121 A 
HETATM    8  C11 UNL     1     -76.022 -18.725  87.110  1.00  0.00     0.114 A 
HETATM    9  O4  UNL     1     -73.931 -15.752  86.763  1.00  0.00    -0.346 OA
HETATM   10  C12 UNL     1     -74.378 -15.476  88.181  1.00  0.00     0.216 C 
HETATM   11  C13 UNL     1     -73.418 -16.642  88.770  1.00  0.00    -0.010 C 
HETATM   12  C14 UNL     1     -72.321 -15.813  88.998  1.00  0.00    -0.005 A 
HETATM   13  C15 UNL     1     -72.357 -14.769  89.916  1.00  0.00     0.014 A 
HETATM   14  C16 UNL     1     -71.550 -13.645  89.778  1.00  0.00     0.001 A 
HETATM   15  C17 UNL     1     -70.690 -13.540  88.735  1.00  0.00     0.002 A 
HETATM   16  C18 UNL     1     -70.599 -14.555  87.800  1.00  0.00     0.024 A 
HETATM   17  C19 UNL     1     -71.397 -15.642  87.949  1.00  0.00     0.044 A 
HETATM   18 CL2  UNL     1     -71.212 -16.966  86.909  1.00  0.00    -0.083 Cl
ENDROOT
BRANCH   1  19
HETATM   19  C4  UNL     1     -73.464 -19.060  89.015  1.00  0.00     0.003 A 
HETATM   20  C3  UNL     1     -72.278 -19.188  88.184  1.00  0.00     0.054 A 
HETATM   21  C2  UNL     1     -71.241 -20.050  88.466  1.00  0.00     0.105 A 
HETATM   22  C23 UNL     1     -71.306 -20.879  89.649  1.00  0.00     0.136 A 
HETATM   23  C21 UNL     1     -72.426 -20.768  90.425  1.00  0.00     0.127 A 
HETATM   24  C20 UNL     1     -73.411 -19.893  90.047  1.00  0.00     0.081 A 
HETATM   25 CL3  UNL     1     -74.976 -20.338  90.789  1.00  0.00    -0.080 Cl
BRANCH  21  26
HETATM   26  O1  UNL     1     -70.112 -20.305  87.807  1.00  0.00    -0.353 OA
HETATM   27  C1  UNL     1     -69.627 -20.291  86.572  1.00  0.00     0.210 C 
ENDBRANCH  21  26
BRANCH  22  28
HETATM   28  O6  UNL     1     -70.300 -21.724  89.969  1.00  0.00    -0.351 OA
HETATM   29  C24 UNL     1     -70.218 -23.112  89.738  1.00  0.00     0.210 C 
ENDBRANCH  22  28
BRANCH  23  30
HETATM   30  O5  UNL     1     -72.476 -21.571  91.562  1.00  0.00    -0.351 OA
HETATM   31  C22 UNL     1     -71.928 -21.146  92.748  1.00  0.00     0.210 C 
ENDBRANCH  23  30
ENDBRANCH   1  19
BRANCH   8  32
HETATM   32  O3  UNL     1     -76.410 -19.618  88.087  1.00  0.00    -0.357 OA
ATOM     33  H3  UNL     1     -76.873 -20.403  87.822  1.00  0.00     0.217 HD
ENDBRANCH   8  32
BRANCH   7  34
HETATM   34  O2  UNL     1     -77.538 -19.827  85.536  1.00  0.00    -0.356 OA
ATOM     35  H2  UNL     1     -77.709 -20.093  84.640  1.00  0.00     0.218 HD
ENDBRANCH   7  34
TORSDOF 6
ENDMDL
MODEL 3
REMARK VINA RESULT: -6.752954443      3.085      5.619
REMARK  6 active torsions:
REMARK  status: ('A' for Active; 'I' for Inactive)
REMARK    1  A    between atoms: O1_2  and  C2_3 
REMARK    2  A    between atoms: C4_5  and  C5_6 
REMARK    3  A    between atoms: C10_12  and  O2_13 
REMARK    4  A    between atoms: C11_15  and  O3_16 
REMARK    5  A    between atoms: C21_30  and  O5_31 
REMARK    6  A    between atoms: C23_33  and  O6_34 
ROOT
HETATM    1  C5  UNL     1     -74.647 -17.466  84.089  1.00  0.00     0.001 C 
HETATM    2  C6  UNL     1     -73.383 -18.045  83.450  1.00  0.00     0.045 A 
HETATM    3  C7  UNL     1     -72.328 -18.388  84.231  1.00  0.00     0.084 A 
HETATM    4  C8  UNL     1     -71.286 -19.172  83.826  1.00  0.00     0.064 A 
HETATM    5  C9  UNL     1     -71.230 -19.672  82.537  1.00  0.00     0.072 A 
HETATM    6 CL1  UNL     1     -69.914 -20.702  82.069  1.00  0.00    -0.081 Cl
HETATM    7  C10 UNL     1     -72.249 -19.349  81.709  1.00  0.00     0.121 A 
HETATM    8  C11 UNL     1     -73.327 -18.530  82.155  1.00  0.00     0.114 A 
HETATM    9  O4  UNL     1     -72.262 -17.809  85.572  1.00  0.00    -0.346 OA
HETATM   10  C12 UNL     1     -72.819 -16.434  85.278  1.00  0.00     0.216 C 
HETATM   11  C13 UNL     1     -74.346 -16.971  85.381  1.00  0.00    -0.010 C 
HETATM   12  C14 UNL     1     -74.496 -16.697  86.739  1.00  0.00    -0.005 A 
HETATM   13  C15 UNL     1     -74.452 -15.403  87.245  1.00  0.00     0.014 A 
HETATM   14  C16 UNL     1     -74.052 -15.140  88.551  1.00  0.00     0.001 A 
HETATM   15  C17 UNL     1     -73.698 -16.155  89.378  1.00  0.00     0.002 A 
HETATM   16  C18 UNL     1     -73.739 -17.464  88.935  1.00  0.00     0.024 A 
HETATM   17  C19 UNL     1     -74.128 -17.699  87.657  1.00  0.00     0.044 A 
HETATM   18 CL2  UNL     1     -74.329 -19.295  87.123  1.00  0.00    -0.083 Cl
ENDROOT
BRANCH   1  19
HETATM   19  C4  UNL     1     -75.943 -18.139  83.968  1.00  0.00     0.003 A 
HETATM   20  C3  UNL     1     -76.165 -18.985  85.129  1.00  0.00     0.054 A 
HETATM   21  C2  UNL     1     -77.397 -19.500  85.471  1.00  0.00     0.105 A 
HETATM   22  C23 UNL     1     -78.548 -19.193  84.652  1.00  0.00     0.136 A 
HETATM   23  C21 UNL     1     -78.338 -18.407  83.552  1.00  0.00     0.127 A 
HETATM   24  C20 UNL     1     -77.070 -17.959  83.291  1.00  0.00     0.081 A 
HETATM   25 CL3  UNL     1     -76.897 -17.515  81.567  1.00  0.00    -0.080 Cl
BRANCH  21  26
HETATM   26  O1  UNL     1     -77.764 -20.300  86.470  1.00  0.00    -0.353 OA
HETATM   27  C1  UNL     1     -77.697 -20.376  87.793  1.00  0.00     0.210 C 
ENDBRANCH  21  26
BRANCH  22  28
HETATM   28  O6  UNL     1     -79.776 -19.665  84.963  1.00  0.00    -0.351 OA
HETATM   29  C24 UNL     1     -80.372 -20.880  84.569  1.00  0.00     0.210 C 
ENDBRANCH  22  28
BRANCH  23  30
HETATM   30  O5  UNL     1     -79.456 -18.118  82.773  1.00  0.00    -0.351 OA
HETATM   31  C22 UNL     1     -79.635 -18.720  81.550  1.00  0.00     0.210 C 
ENDBRANCH  23  30
ENDBRANCH   1  19
BRANCH   8  32
HETATM   32  O3  UNL     1     -74.328 -18.168  81.277  1.00  0.00    -0.357 OA
ATOM     33  H3  UNL     1     -74.084 -17.914  80.395  1.00  0.00     0.217 HD
ENDBRANCH   8  32
BRANCH   7  34
HETATM   34  O2  UNL     1     -72.270 -19.833  80.373  1.00  0.00    -0.356 OA
ATOM     35  H2  UNL     1     -72.600 -19.286  79.670  1.00  0.00     0.218 HD
ENDBRANCH   7  34
TORSDOF 6
ENDMDL
MODEL 4
REMARK VINA RESULT: -6.706390718      3.300      6.178
REMARK  6 active torsions:
REMARK  status: ('A' for Active; 'I' for Inactive)
REMARK    1  A    between atoms: O1_2  and  C2_3 
REMARK    2  A    between atoms: C4_5  and  C5_6 
REMARK    3  A    between atoms: C10_12  and  O2_13 
REMARK    4  A    between atoms: C11_15  and  O3_16 
REMARK    5  A    between atoms: C21_30  and  O5_31 
REMARK    6  A    between atoms: C23_33  and  O6_34 
ROOT
HETATM    1  C5  UNL     1     -74.994 -17.656  85.161  1.00  0.00     0.001 C 
HETATM    2  C6  UNL     1     -73.862 -17.953  84.176  1.00  0.00     0.045 A 
HETATM    3  C7  UNL     1     -72.576 -17.967  84.609  1.00  0.00     0.084 A 
HETATM    4  C8  UNL     1     -71.530 -18.499  83.913  1.00  0.00     0.064 A 
HETATM    5  C9  UNL     1     -71.718 -19.064  82.665  1.00  0.00     0.072 A 
HETATM    6 CL1  UNL     1     -70.372 -19.771  81.827  1.00  0.00    -0.081 Cl
HETATM    7  C10 UNL     1     -72.979 -19.064  82.176  1.00  0.00     0.121 A 
HETATM    8  C11 UNL     1     -74.057 -18.504  82.922  1.00  0.00     0.114 A 
HETATM    9  O4  UNL     1     -72.281 -17.290  85.872  1.00  0.00    -0.346 OA
HETATM   10  C12 UNL     1     -73.232 -16.121  85.758  1.00  0.00     0.216 C 
HETATM   11  C13 UNL     1     -74.475 -17.007  86.307  1.00  0.00    -0.010 C 
HETATM   12  C14 UNL     1     -74.294 -16.677  87.649  1.00  0.00    -0.005 A 
HETATM   13  C15 UNL     1     -74.441 -15.378  88.122  1.00  0.00     0.014 A 
HETATM   14  C16 UNL     1     -73.766 -14.929  89.251  1.00  0.00     0.001 A 
HETATM   15  C17 UNL     1     -72.942 -15.761  89.935  1.00  0.00     0.002 A 
HETATM   16  C18 UNL     1     -72.770 -17.070  89.522  1.00  0.00     0.024 A 
HETATM   17  C19 UNL     1     -73.434 -17.488  88.416  1.00  0.00     0.044 A 
HETATM   18 CL2  UNL     1     -73.364 -19.119  87.963  1.00  0.00    -0.083 Cl
ENDROOT
BRANCH   1  19
HETATM   19  C4  UNL     1     -76.053 -18.634  85.428  1.00  0.00     0.003 A 
HETATM   20  C3  UNL     1     -75.713 -19.414  86.607  1.00  0.00     0.054 A 
HETATM   21  C2  UNL     1     -76.622 -20.187  87.296  1.00  0.00     0.105 A 
HETATM   22  C23 UNL     1     -77.996 -20.237  86.849  1.00  0.00     0.136 A 
HETATM   23  C21 UNL     1     -78.315 -19.513  85.733  1.00  0.00     0.127 A 
HETATM   24  C20 UNL     1     -77.332 -18.790  85.110  1.00  0.00     0.081 A 
HETATM   25 CL3  UNL     1     -77.772 -18.455  83.409  1.00  0.00    -0.080 Cl
BRANCH  21  26
HETATM   26  O1  UNL     1     -76.473 -20.970  88.362  1.00  0.00    -0.353 OA
HETATM   27  C1  UNL     1     -76.057 -20.912  89.621  1.00  0.00     0.210 C 
ENDBRANCH  21  26
BRANCH  22  28
HETATM   28  O6  UNL     1     -78.921 -20.970  87.509  1.00  0.00    -0.351 OA
HETATM   29  C24 UNL     1     -79.744 -20.578  88.584  1.00  0.00     0.210 C 
ENDBRANCH  22  28
BRANCH  23  30
HETATM   30  O5  UNL     1     -79.642 -19.570  85.314  1.00  0.00    -0.351 OA
HETATM   31  C22 UNL     1     -80.110 -20.652  84.608  1.00  0.00     0.210 C 
ENDBRANCH  23  30
ENDBRANCH   1  19
BRANCH   8  32
HETATM   32  O3  UNL     1     -75.324 -18.466  82.380  1.00  0.00    -0.357 OA
ATOM     33  H3  UNL     1     -75.569 -19.141  81.758  1.00  0.00     0.217 HD
ENDBRANCH   8  32
BRANCH   7  34
HETATM   34  O2  UNL     1     -73.256 -19.636  80.905  1.00  0.00    -0.356 OA
ATOM     35  H2  UNL     1     -72.834 -19.297  80.124  1.00  0.00     0.218 HD
ENDBRANCH   7  34
TORSDOF 6
ENDMDL
MODEL 5
REMARK VINA RESULT: -6.568276806      3.390      5.500
REMARK  6 active torsions:
REMARK  status: ('A' for Active; 'I' for Inactive)
REMARK    1  A    between atoms: O1_2  and  C2_3 
REMARK    2  A    between atoms: C4_5  and  C5_6 
REMARK    3  A    between atoms: C10_12  and  O2_13 
REMARK    4  A    between atoms: C11_15  and  O3_16 
REMARK    5  A    between atoms: C21_30  and  O5_31 
REMARK    6  A    between atoms: C23_33  and  O6_34 
ROOT
HETATM    1  C5  UNL     1     -74.652 -18.618  85.933  1.00  0.00     0.001 C 
HETATM    2  C6  UNL     1     -74.094 -17.586  86.914  1.00  0.00     0.045 A 
HETATM    3  C7  UNL     1     -73.304 -16.580  86.460  1.00  0.00     0.084 A 
HETATM    4  C8  UNL     1     -72.999 -15.454  87.169  1.00  0.00     0.064 A 
HETATM    5  C9  UNL     1     -73.479 -15.269  88.453  1.00  0.00     0.072 A 
HETATM    6 CL1  UNL     1     -73.106 -13.806  89.310  1.00  0.00    -0.081 Cl
HETATM    7  C10 UNL     1     -74.260 -16.248  88.964  1.00  0.00     0.121 A 
HETATM    8  C11 UNL     1     -74.567 -17.414  88.204  1.00  0.00     0.114 A 
HETATM    9  O4  UNL     1     -72.672 -16.754  85.153  1.00  0.00    -0.346 OA
HETATM   10  C12 UNL     1     -72.382 -18.237  85.211  1.00  0.00     0.216 C 
HETATM   11  C13 UNL     1     -73.889 -18.606  84.741  1.00  0.00    -0.010 C 
HETATM   12  C14 UNL     1     -73.600 -18.644  83.377  1.00  0.00    -0.005 A 
HETATM   13  C15 UNL     1     -72.729 -19.578  82.828  1.00  0.00     0.014 A 
HETATM   14  C16 UNL     1     -72.018 -19.319  81.662  1.00  0.00     0.001 A 
HETATM   15  C17 UNL     1     -72.165 -18.136  81.016  1.00  0.00     0.002 A 
HETATM   16  C18 UNL     1     -73.032 -17.175  81.506  1.00  0.00     0.024 A 
HETATM   17  C19 UNL     1     -73.712 -17.445  82.647  1.00  0.00     0.044 A 
HETATM   18 CL2  UNL     1     -74.887 -16.356  83.199  1.00  0.00    -0.083 Cl
ENDROOT
BRANCH   1  19
HETATM   19  C4  UNL     1     -76.094 -18.795  85.746  1.00  0.00     0.003 A 
HETATM   20  C3  UNL     1     -76.516 -18.123  84.528  1.00  0.00     0.054 A 
HETATM   21  C2  UNL     1     -77.725 -18.356  83.910  1.00  0.00     0.105 A 
HETATM   22  C23 UNL     1     -78.641 -19.320  84.478  1.00  0.00     0.136 A 
HETATM   23  C21 UNL     1     -78.251 -19.944  85.631  1.00  0.00     0.127 A 
HETATM   24  C20 UNL     1     -77.033 -19.629  86.176  1.00  0.00     0.081 A 
HETATM   25 CL3  UNL     1     -76.990 -20.044  87.915  1.00  0.00    -0.080 Cl
BRANCH  21  26
HETATM   26  O1  UNL     1     -78.269 -17.816  82.821  1.00  0.00    -0.353 OA
HETATM   27  C1  UNL     1     -78.097 -17.779  81.506  1.00  0.00     0.210 C 
ENDBRANCH  21  26
BRANCH  22  28
HETATM   28  O6  UNL     1     -79.829 -19.588  83.892  1.00  0.00    -0.351 OA
HETATM   29  C24 UNL     1     -81.068 -18.946  84.092  1.00  0.00     0.210 C 
ENDBRANCH  22  28
BRANCH  23  30
HETATM   30  O5  UNL     1     -79.141 -20.871  86.168  1.00  0.00    -0.351 OA
HETATM   31  C22 UNL     1     -79.995 -20.518  87.185  1.00  0.00     0.210 C 
ENDBRANCH  23  30
ENDBRANCH   1  19
BRANCH   8  32
HETATM   32  O3  UNL     1     -75.320 -18.425  88.765  1.00  0.00    -0.357 OA
ATOM     33  H3  UNL     1     -74.876 -19.076  89.295  1.00  0.00     0.217 HD
ENDBRANCH   8  32
BRANCH   7  34
HETATM   34  O2  UNL     1     -74.800 -16.127  90.272  1.00  0.00    -0.356 OA
ATOM     35  H2  UNL     1     -74.225 -16.022  91.021  1.00  0.00     0.218 HD
ENDBRANCH   7  34
TORSDOF 6
ENDMDL
