MODEL 1
REMARK VINA RESULT: -8.034619763      0.000      0.000
REMARK  7 active torsions:
REMARK  status: ('A' for Active; 'I' for Inactive)
REMARK    1  A    between atoms: C7_8  and  O2_9 
REMARK    2  A    between atoms: C13_17  and  O4_18 
REMARK    3  A    between atoms: O4_18  and  C14_19 
REMARK    4  A    between atoms: C14_19  and  C15_21 
REMARK    5  A    between atoms: C16_22  and  O6_23 
REMARK    6  A    between atoms: C20_31  and  O7_32 
REMARK    7  A    between atoms: O7_32  and  C21_33 
ROOT
HETATM    1  C1  UNL     1     -97.405 -14.686  47.692  1.00  0.00     0.017 C 
HETATM    2  C2  UNL     1     -96.412 -15.492  47.988  1.00  0.00    -0.059 C 
HETATM    3  C3  UNL     1     -95.440 -15.469  46.848  1.00  0.00     0.037 C 
HETATM    4  C4  UNL     1     -94.220 -14.568  47.140  1.00  0.00     0.020 C 
HETATM    5  C5  UNL     1     -94.179 -14.450  48.541  1.00  0.00     0.095 C 
HETATM    6  C6  UNL     1     -93.966 -15.847  49.109  1.00  0.00     0.196 C 
HETATM    7  O1  UNL     1     -93.602 -16.825  48.551  1.00  0.00    -0.291 OA
HETATM    8  C7  UNL     1     -94.361 -15.496  50.489  1.00  0.00     0.232 C 
HETATM    9  O3  UNL     1     -93.771 -14.241  50.668  1.00  0.00    -0.337 OA
HETATM   10  C8  UNL     1     -93.180 -13.850  49.430  1.00  0.00     0.068 C 
HETATM   11  C9  UNL     1     -91.817 -14.463  49.289  1.00  0.00     0.046 C 
HETATM   12  C10 UNL     1     -93.067 -12.363  49.373  1.00  0.00     0.046 C 
HETATM   13  C11 UNL     1     -95.874 -15.438  50.459  1.00  0.00     0.086 C 
HETATM   14  C12 UNL     1     -96.312 -16.199  51.722  1.00  0.00     0.019 C 
HETATM   15  C13 UNL     1     -96.516 -16.181  49.315  1.00  0.00     0.170 C 
ENDROOT
BRANCH  15  16
HETATM   16  O4  UNL     1     -97.820 -16.617  49.601  1.00  0.00    -0.307 OA
BRANCH  16  17
HETATM   17  C14 UNL     1     -98.317 -17.858  49.420  1.00  0.00     0.299 C 
HETATM   18  O5  UNL     1     -97.457 -18.693  48.974  1.00  0.00    -0.259 OA
BRANCH  17  19
HETATM   19  C15 UNL     1     -99.682 -18.294  49.679  1.00  0.00     0.109 A 
HETATM   20  C16 UNL     1    -100.099 -18.560  50.970  1.00  0.00     0.108 A 
HETATM   21  C17 UNL     1    -101.429 -18.942  51.227  1.00  0.00     0.091 A 
HETATM   22 CL1  UNL     1    -101.957 -19.282  52.877  1.00  0.00    -0.079 Cl
HETATM   23  C18 UNL     1    -102.309 -19.051  50.191  1.00  0.00     0.083 A 
HETATM   24 CL2  UNL     1    -103.975 -19.530  50.535  1.00  0.00    -0.081 Cl
HETATM   25  C19 UNL     1    -101.892 -18.785  48.901  1.00  0.00     0.092 A 
HETATM   26 CL3  UNL     1    -103.093 -18.950  47.633  1.00  0.00    -0.079 Cl
HETATM   27  C20 UNL     1    -100.592 -18.410  48.625  1.00  0.00     0.111 A 
BRANCH  20  28
HETATM   28  O6  UNL     1     -99.298 -18.483  52.073  1.00  0.00    -0.358 OA
ATOM     29  H6  UNL     1     -99.593 -18.213  52.934  1.00  0.00     0.217 HD
ENDBRANCH  20  28
BRANCH  27  30
HETATM   30  O7  UNL     1    -100.243 -18.170  47.311  1.00  0.00    -0.349 OA
BRANCH  30  31
HETATM   31  C21 UNL     1    -100.353 -16.898  46.702  1.00  0.00     0.171 C 
HETATM   32  C22 UNL     1     -99.494 -16.760  45.489  1.00  0.00     0.034 C 
ENDBRANCH  30  31
ENDBRANCH  27  30
ENDBRANCH  17  19
ENDBRANCH  16  17
ENDBRANCH  15  16
BRANCH   8  33
HETATM   33  O2  UNL     1     -93.865 -16.455  51.340  1.00  0.00    -0.359 OA
ATOM     34  H2  UNL     1     -94.570 -17.053  51.562  1.00  0.00     0.213 HD
ENDBRANCH   8  33
TORSDOF 7
ENDMDL
MODEL 2
REMARK VINA RESULT: -8.026954629      1.304      1.734
REMARK  7 active torsions:
REMARK  status: ('A' for Active; 'I' for Inactive)
REMARK    1  A    between atoms: C7_8  and  O2_9 
REMARK    2  A    between atoms: C13_17  and  O4_18 
REMARK    3  A    between atoms: O4_18  and  C14_19 
REMARK    4  A    between atoms: C14_19  and  C15_21 
REMARK    5  A    between atoms: C16_22  and  O6_23 
REMARK    6  A    between atoms: C20_31  and  O7_32 
REMARK    7  A    between atoms: O7_32  and  C21_33 
ROOT
HETATM    1  C1  UNL     1     -97.330 -16.433  45.552  1.00  0.00     0.017 C 
HETATM    2  C2  UNL     1     -96.345 -16.784  46.347  1.00  0.00    -0.059 C 
HETATM    3  C3  UNL     1     -95.245 -17.347  45.499  1.00  0.00     0.037 C 
HETATM    4  C4  UNL     1     -94.110 -16.326  45.264  1.00  0.00     0.020 C 
HETATM    5  C5  UNL     1     -94.244 -15.384  46.300  1.00  0.00     0.095 C 
HETATM    6  C6  UNL     1     -94.039 -16.124  47.615  1.00  0.00     0.196 C 
HETATM    7  O1  UNL     1     -93.568 -17.194  47.798  1.00  0.00    -0.291 OA
HETATM    8  C7  UNL     1     -94.613 -15.057  48.463  1.00  0.00     0.232 C 
HETATM    9  O3  UNL     1     -94.106 -13.893  47.878  1.00  0.00    -0.337 OA
HETATM   10  C8  UNL     1     -93.387 -14.265  46.704  1.00  0.00     0.068 C 
HETATM   11  C9  UNL     1     -91.991 -14.687  47.061  1.00  0.00     0.046 C 
HETATM   12  C10 UNL     1     -93.333 -13.112  45.758  1.00  0.00     0.046 C 
HETATM   13  C11 UNL     1     -96.112 -15.195  48.300  1.00  0.00     0.086 C 
HETATM   14  C12 UNL     1     -96.666 -15.083  49.731  1.00  0.00     0.019 C 
HETATM   15  C13 UNL     1     -96.579 -16.541  47.807  1.00  0.00     0.170 C 
ENDROOT
BRANCH  15  16
HETATM   16  O4  UNL     1     -97.887 -16.854  48.209  1.00  0.00    -0.307 OA
BRANCH  16  17
HETATM   17  C14 UNL     1     -98.306 -18.005  48.774  1.00  0.00     0.299 C 
HETATM   18  O5  UNL     1     -97.379 -18.875  48.911  1.00  0.00    -0.259 OA
BRANCH  17  19
HETATM   19  C15 UNL     1     -99.659 -18.315  49.215  1.00  0.00     0.109 A 
HETATM   20  C16 UNL     1     -99.903 -18.676  50.527  1.00  0.00     0.108 A 
HETATM   21  C17 UNL     1    -101.214 -18.936  50.965  1.00  0.00     0.091 A 
HETATM   22 CL1  UNL     1    -101.521 -19.396  52.641  1.00  0.00    -0.079 Cl
HETATM   23  C18 UNL     1    -102.250 -18.831  50.083  1.00  0.00     0.083 A 
HETATM   24 CL2  UNL     1    -103.890 -19.160  50.654  1.00  0.00    -0.081 Cl
HETATM   25  C19 UNL     1    -102.006 -18.472  48.773  1.00  0.00     0.092 A 
HETATM   26 CL3  UNL     1    -103.400 -18.362  47.712  1.00  0.00    -0.079 Cl
HETATM   27  C20 UNL     1    -100.727 -18.213  48.320  1.00  0.00     0.111 A 
BRANCH  20  28
HETATM   28  O6  UNL     1     -98.938 -18.810  51.484  1.00  0.00    -0.358 OA
ATOM     29  H6  UNL     1     -98.399 -18.097  51.808  1.00  0.00     0.217 HD
ENDBRANCH  20  28
BRANCH  27  30
HETATM   30  O7  UNL     1    -100.558 -17.869  46.994  1.00  0.00    -0.349 OA
BRANCH  30  31
HETATM   31  C21 UNL     1    -100.877 -16.590  46.481  1.00  0.00     0.171 C 
HETATM   32  C22 UNL     1    -100.938 -16.562  44.990  1.00  0.00     0.034 C 
ENDBRANCH  30  31
ENDBRANCH  27  30
ENDBRANCH  17  19
ENDBRANCH  16  17
ENDBRANCH  15  16
BRANCH   8  33
HETATM   33  O2  UNL     1     -94.182 -15.250  49.754  1.00  0.00    -0.359 OA
ATOM     34  H2  UNL     1     -93.389 -14.743  49.885  1.00  0.00     0.213 HD
ENDBRANCH   8  33
TORSDOF 7
ENDMDL
MODEL 3
REMARK VINA RESULT: -7.942456168      1.244      1.671
REMARK  7 active torsions:
REMARK  status: ('A' for Active; 'I' for Inactive)
REMARK    1  A    between atoms: C7_8  and  O2_9 
REMARK    2  A    between atoms: C13_17  and  O4_18 
REMARK    3  A    between atoms: O4_18  and  C14_19 
REMARK    4  A    between atoms: C14_19  and  C15_21 
REMARK    5  A    between atoms: C16_22  and  O6_23 
REMARK    6  A    between atoms: C20_31  and  O7_32 
REMARK    7  A    between atoms: O7_32  and  C21_33 
ROOT
HETATM    1  C1  UNL     1     -96.946 -13.910  47.668  1.00  0.00     0.017 C 
HETATM    2  C2  UNL     1     -95.910 -14.696  47.850  1.00  0.00    -0.059 C 
HETATM    3  C3  UNL     1     -94.939 -14.445  46.736  1.00  0.00     0.037 C 
HETATM    4  C4  UNL     1     -93.771 -13.534  47.175  1.00  0.00     0.020 C 
HETATM    5  C5  UNL     1     -93.740 -13.629  48.578  1.00  0.00     0.095 C 
HETATM    6  C6  UNL     1     -93.450 -15.082  48.929  1.00  0.00     0.196 C 
HETATM    7  O1  UNL     1     -93.031 -15.942  48.233  1.00  0.00    -0.291 OA
HETATM    8  C7  UNL     1     -93.867 -14.967  50.343  1.00  0.00     0.232 C 
HETATM    9  O3  UNL     1     -93.349 -13.723  50.716  1.00  0.00    -0.337 OA
HETATM   10  C8  UNL     1     -92.778 -13.117  49.559  1.00  0.00     0.068 C 
HETATM   11  C9  UNL     1     -91.382 -13.625  49.341  1.00  0.00     0.046 C 
HETATM   12  C10 UNL     1     -92.748 -11.634  49.728  1.00  0.00     0.046 C 
HETATM   13  C11 UNL     1     -95.381 -14.989  50.305  1.00  0.00     0.086 C 
HETATM   14  C12 UNL     1     -95.778 -15.956  51.434  1.00  0.00     0.019 C 
HETATM   15  C13 UNL     1     -95.978 -15.583  49.055  1.00  0.00     0.170 C 
ENDROOT
BRANCH  15  16
HETATM   16  O4  UNL     1     -97.256 -16.128  49.258  1.00  0.00    -0.307 OA
BRANCH  16  17
HETATM   17  C14 UNL     1     -97.744 -17.268  48.726  1.00  0.00     0.299 C 
HETATM   18  O5  UNL     1     -96.844 -18.139  48.469  1.00  0.00    -0.259 OA
BRANCH  17  19
HETATM   19  C15 UNL     1     -99.140 -17.565  48.437  1.00  0.00     0.109 A 
HETATM   20  C16 UNL     1     -99.874 -18.375  49.283  1.00  0.00     0.108 A 
HETATM   21  C17 UNL     1    -101.233 -18.630  49.028  1.00  0.00     0.091 A 
HETATM   22 CL1  UNL     1    -102.166 -19.666  50.112  1.00  0.00    -0.079 Cl
HETATM   23  C18 UNL     1    -101.828 -18.072  47.935  1.00  0.00     0.083 A 
HETATM   24 CL2  UNL     1    -103.538 -18.403  47.634  1.00  0.00    -0.081 Cl
HETATM   25  C19 UNL     1    -101.096 -17.263  47.090  1.00  0.00     0.092 A 
HETATM   26 CL3  UNL     1    -101.945 -16.588  45.710  1.00  0.00    -0.079 Cl
HETATM   27  C20 UNL     1     -99.759 -16.999  47.319  1.00  0.00     0.111 A 
BRANCH  20  28
HETATM   28  O6  UNL     1     -99.373 -18.982  50.400  1.00  0.00    -0.358 OA
ATOM     29  H6  UNL     1     -99.426 -18.621  51.277  1.00  0.00     0.217 HD
ENDBRANCH  20  28
BRANCH  27  30
HETATM   30  O7  UNL     1     -99.087 -16.190  46.426  1.00  0.00    -0.349 OA
BRANCH  30  31
HETATM   31  C21 UNL     1     -98.513 -16.673  45.226  1.00  0.00     0.171 C 
HETATM   32  C22 UNL     1     -98.737 -15.759  44.068  1.00  0.00     0.034 C 
ENDBRANCH  30  31
ENDBRANCH  27  30
ENDBRANCH  17  19
ENDBRANCH  16  17
ENDBRANCH  15  16
BRANCH   8  33
HETATM   33  O2  UNL     1     -93.320 -16.016  51.043  1.00  0.00    -0.359 OA
ATOM     34  H2  UNL     1     -93.786 -16.810  50.806  1.00  0.00     0.213 HD
ENDBRANCH   8  33
TORSDOF 7
ENDMDL
MODEL 4
REMARK VINA RESULT: -7.794429513      1.426      3.208
REMARK  7 active torsions:
REMARK  status: ('A' for Active; 'I' for Inactive)
REMARK    1  A    between atoms: C7_8  and  O2_9 
REMARK    2  A    between atoms: C13_17  and  O4_18 
REMARK    3  A    between atoms: O4_18  and  C14_19 
REMARK    4  A    between atoms: C14_19  and  C15_21 
REMARK    5  A    between atoms: C16_22  and  O6_23 
REMARK    6  A    between atoms: C20_31  and  O7_32 
REMARK    7  A    between atoms: O7_32  and  C21_33 
ROOT
HETATM    1  C1  UNL     1     -97.842 -16.217  45.815  1.00  0.00     0.017 C 
HETATM    2  C2  UNL     1     -96.807 -16.725  46.444  1.00  0.00    -0.059 C 
HETATM    3  C3  UNL     1     -95.873 -17.288  45.416  1.00  0.00     0.037 C 
HETATM    4  C4  UNL     1     -94.684 -16.345  45.131  1.00  0.00     0.020 C 
HETATM    5  C5  UNL     1     -94.605 -15.504  46.255  1.00  0.00     0.095 C 
HETATM    6  C6  UNL     1     -94.315 -16.386  47.462  1.00  0.00     0.196 C 
HETATM    7  O1  UNL     1     -93.928 -17.504  47.487  1.00  0.00    -0.291 OA
HETATM    8  C7  UNL     1     -94.682 -15.366  48.468  1.00  0.00     0.232 C 
HETATM    9  O3  UNL     1     -94.141 -14.195  47.930  1.00  0.00    -0.337 OA
HETATM   10  C8  UNL     1     -93.606 -14.505  46.645  1.00  0.00     0.068 C 
HETATM   11  C9  UNL     1     -92.222 -15.073  46.782  1.00  0.00     0.046 C 
HETATM   12  C10 UNL     1     -93.557 -13.271  45.807  1.00  0.00     0.046 C 
HETATM   13  C11 UNL     1     -96.196 -15.364  48.486  1.00  0.00     0.086 C 
HETATM   14  C12 UNL     1     -96.563 -15.351  49.980  1.00  0.00     0.019 C 
HETATM   15  C13 UNL     1     -96.842 -16.611  47.938  1.00  0.00     0.170 C 
ENDROOT
BRANCH  15  16
HETATM   16  O4  UNL     1     -98.116 -16.856  48.473  1.00  0.00    -0.307 OA
BRANCH  16  17
HETATM   17  C14 UNL     1     -98.573 -18.021  48.977  1.00  0.00     0.299 C 
HETATM   18  O5  UNL     1     -97.675 -18.927  49.065  1.00  0.00    -0.259 OA
BRANCH  17  19
HETATM   19  C15 UNL     1     -99.935 -18.310  49.404  1.00  0.00     0.109 A 
HETATM   20  C16 UNL     1    -100.954 -18.408  48.474  1.00  0.00     0.108 A 
HETATM   21  C17 UNL     1    -102.262 -18.727  48.879  1.00  0.00     0.091 A 
HETATM   22 CL1  UNL     1    -103.561 -18.851  47.689  1.00  0.00    -0.079 Cl
HETATM   23  C18 UNL     1    -102.524 -18.938  50.201  1.00  0.00     0.083 A 
HETATM   24 CL2  UNL     1    -104.175 -19.340  50.689  1.00  0.00    -0.081 Cl
HETATM   25  C19 UNL     1    -101.507 -18.840  51.129  1.00  0.00     0.092 A 
HETATM   26 CL3  UNL     1    -101.936 -19.130  52.806  1.00  0.00    -0.079 Cl
HETATM   27  C20 UNL     1    -100.214 -18.527  50.755  1.00  0.00     0.111 A 
BRANCH  20  28
HETATM   28  O6  UNL     1    -100.797 -18.213  47.132  1.00  0.00    -0.358 OA
ATOM     29  H6  UNL     1    -101.350 -17.651  46.602  1.00  0.00     0.217 HD
ENDBRANCH  20  28
BRANCH  27  30
HETATM   30  O7  UNL     1     -99.250 -18.435  51.739  1.00  0.00    -0.349 OA
BRANCH  30  31
HETATM   31  C21 UNL     1     -98.542 -19.556  52.233  1.00  0.00     0.171 C 
HETATM   32  C22 UNL     1     -97.460 -19.181  53.191  1.00  0.00     0.034 C 
ENDBRANCH  30  31
ENDBRANCH  27  30
ENDBRANCH  17  19
ENDBRANCH  16  17
ENDBRANCH  15  16
BRANCH   8  33
HETATM   33  O2  UNL     1     -94.120 -15.722  49.672  1.00  0.00    -0.359 OA
ATOM     34  H2  UNL     1     -93.782 -14.938  50.089  1.00  0.00     0.213 HD
ENDBRANCH   8  33
TORSDOF 7
ENDMDL
MODEL 5
REMARK VINA RESULT: -7.791448067      0.865      2.796
REMARK  7 active torsions:
REMARK  status: ('A' for Active; 'I' for Inactive)
REMARK    1  A    between atoms: C7_8  and  O2_9 
REMARK    2  A    between atoms: C13_17  and  O4_18 
REMARK    3  A    between atoms: O4_18  and  C14_19 
REMARK    4  A    between atoms: C14_19  and  C15_21 
REMARK    5  A    between atoms: C16_22  and  O6_23 
REMARK    6  A    between atoms: C20_31  and  O7_32 
REMARK    7  A    between atoms: O7_32  and  C21_33 
ROOT
HETATM    1  C1  UNL     1     -97.213 -14.307  47.611  1.00  0.00     0.017 C 
HETATM    2  C2  UNL     1     -96.220 -15.112  47.912  1.00  0.00    -0.059 C 
HETATM    3  C3  UNL     1     -95.210 -15.035  46.807  1.00  0.00     0.037 C 
HETATM    4  C4  UNL     1     -94.012 -14.132  47.173  1.00  0.00     0.020 C 
HETATM    5  C5  UNL     1     -94.021 -14.065  48.578  1.00  0.00     0.095 C 
HETATM    6  C6  UNL     1     -93.809 -15.479  49.102  1.00  0.00     0.196 C 
HETATM    7  O1  UNL     1     -93.414 -16.432  48.521  1.00  0.00    -0.291 OA
HETATM    8  C7  UNL     1     -94.255 -15.184  50.480  1.00  0.00     0.232 C 
HETATM    9  O3  UNL     1     -93.688 -13.929  50.724  1.00  0.00    -0.337 OA
HETATM   10  C8  UNL     1     -93.061 -13.486  49.523  1.00  0.00     0.068 C 
HETATM   11  C9  UNL     1     -91.685 -14.077  49.406  1.00  0.00     0.046 C 
HETATM   12  C10 UNL     1     -92.965 -11.996  49.523  1.00  0.00     0.046 C 
HETATM   13  C11 UNL     1     -95.766 -15.143  50.399  1.00  0.00     0.086 C 
HETATM   14  C12 UNL     1     -96.237 -15.956  51.618  1.00  0.00     0.019 C 
HETATM   15  C13 UNL     1     -96.360 -15.851  49.208  1.00  0.00     0.170 C 
ENDROOT
BRANCH  15  16
HETATM   16  O4  UNL     1     -97.667 -16.312  49.433  1.00  0.00    -0.307 OA
BRANCH  16  17
HETATM   17  C14 UNL     1     -98.150 -17.542  49.160  1.00  0.00     0.299 C 
HETATM   18  O5  UNL     1     -97.317 -18.294  48.546  1.00  0.00    -0.259 OA
BRANCH  17  19
HETATM   19  C15 UNL     1     -99.473 -18.050  49.493  1.00  0.00     0.109 A 
HETATM   20  C16 UNL     1    -100.436 -18.192  48.511  1.00  0.00     0.108 A 
HETATM   21  C17 UNL     1    -101.702 -18.720  48.822  1.00  0.00     0.091 A 
HETATM   22 CL1  UNL     1    -102.929 -18.899  47.565  1.00  0.00    -0.079 Cl
HETATM   23  C18 UNL     1    -101.977 -19.094  50.105  1.00  0.00     0.083 A 
HETATM   24 CL2  UNL     1    -103.573 -19.757  50.475  1.00  0.00    -0.081 Cl
HETATM   25  C19 UNL     1    -101.016 -18.952  51.085  1.00  0.00     0.092 A 
HETATM   26 CL3  UNL     1    -101.460 -19.459  52.705  1.00  0.00    -0.079 Cl
HETATM   27  C20 UNL     1     -99.767 -18.434  50.804  1.00  0.00     0.111 A 
BRANCH  20  28
HETATM   28  O6  UNL     1    -100.261 -17.847  47.201  1.00  0.00    -0.358 OA
ATOM     29  H6  UNL     1    -100.896 -18.009  46.513  1.00  0.00     0.217 HD
ENDBRANCH  20  28
BRANCH  27  30
HETATM   30  O7  UNL     1     -98.859 -18.312  51.836  1.00  0.00    -0.349 OA
BRANCH  30  31
HETATM   31  C21 UNL     1     -98.079 -19.392  52.311  1.00  0.00     0.171 C 
HETATM   32  C22 UNL     1     -97.313 -19.054  53.547  1.00  0.00     0.034 C 
ENDBRANCH  30  31
ENDBRANCH  27  30
ENDBRANCH  17  19
ENDBRANCH  16  17
ENDBRANCH  15  16
BRANCH   8  33
HETATM   33  O2  UNL     1     -93.776 -16.168  51.311  1.00  0.00    -0.359 OA
ATOM     34  H2  UNL     1     -93.158 -16.700  50.822  1.00  0.00     0.213 HD
ENDBRANCH   8  33
TORSDOF 7
ENDMDL
