MODEL 1
REMARK VINA RESULT: -8.535029037      0.000      0.000
REMARK  7 active torsions:
REMARK  status: ('A' for Active; 'I' for Inactive)
REMARK    1  A    between atoms: C3_3  and  C4_4 
REMARK    2  A    between atoms: C4_4  and  O2_6 
REMARK    3  A    between atoms: O2_6  and  C5_7 
REMARK    4  A    between atoms: C10_13  and  C11_14 
REMARK    5  A    between atoms: C12_15  and  C13_16 
REMARK    6  A    between atoms: N1_19  and  C14_20 
REMARK    7  A    between atoms: C20_29  and  N2_30 
ROOT
HETATM    1  C1  UNL     1     -99.283 -18.844  51.473  1.00  0.00     0.071 C 
HETATM    2  C2  UNL     1     -99.754 -18.533  50.051  1.00  0.00     0.054 A 
HETATM    3  C3  UNL     1    -101.051 -18.729  49.701  1.00  0.00     0.105 A 
HETATM    4  S1  UNL     1    -101.017 -18.243  48.035  1.00  0.00    -0.061 SA
HETATM    5  C9  UNL     1     -99.368 -17.836  47.929  1.00  0.00     0.127 A 
HETATM    6  C10 UNL     1     -98.366 -17.357  47.029  1.00  0.00     0.092 A 
HETATM    7  N1  UNL     1     -97.286 -17.325  47.775  1.00  0.00    -0.143 N 
HETATM    8  C20 UNL     1     -97.577 -17.753  49.050  1.00  0.00     0.691 A 
HETATM    9  N3  UNL     1     -98.896 -18.073  49.134  1.00  0.00    -0.141 N 
ENDROOT
BRANCH   7  10
HETATM   10  C14 UNL     1     -95.987 -16.877  47.452  1.00  0.00     0.081 A 
HETATM   11  C15 UNL     1     -95.022 -17.772  47.031  1.00  0.00     0.058 A 
HETATM   12  C16 UNL     1     -93.759 -17.307  46.752  1.00  0.00     0.058 A 
HETATM   13 CL1  UNL     1     -92.509 -18.405  46.216  1.00  0.00    -0.082 Cl
HETATM   14  C17 UNL     1     -93.435 -15.954  46.884  1.00  0.00     0.057 A 
HETATM   15 CL2  UNL     1     -91.811 -15.398  46.518  1.00  0.00    -0.082 Cl
HETATM   16  C18 UNL     1     -94.430 -15.082  47.310  1.00  0.00     0.051 A 
HETATM   17  C19 UNL     1     -95.723 -15.537  47.600  1.00  0.00     0.063 A 
HETATM   18 CL3  UNL     1     -96.857 -14.325  48.152  1.00  0.00    -0.082 Cl
ENDBRANCH   7  10
BRANCH   6  19
HETATM   19  C11 UNL     1     -98.741 -16.987  45.709  1.00  0.00     0.040 C 
HETATM   20  C12 UNL     1     -98.312 -16.388  44.672  1.00  0.00     0.087 C 
BRANCH  20  21
HETATM   21  C13 UNL     1     -97.161 -15.718  44.198  1.00  0.00     0.198 C 
HETATM   22  O3  UNL     1     -95.990 -16.088  44.157  1.00  0.00    -0.645 OA
HETATM   23  O4  UNL     1     -97.337 -14.386  43.669  1.00  0.00    -0.645 OA
ENDBRANCH  20  21
ENDBRANCH   6  19
BRANCH   8  24
HETATM   24  N2  UNL     1     -96.655 -17.805  49.964  1.00  0.00    -0.233 N 
ATOM     25  H22 UNL     1     -96.675 -18.253  50.880  1.00  0.00     0.174 HD
ATOM     26  H21 UNL     1     -95.750 -17.355  49.823  1.00  0.00     0.174 HD
ENDBRANCH   8  24
BRANCH   3  27
HETATM   27  C4  UNL     1    -102.239 -19.200  50.414  1.00  0.00     0.303 C 
HETATM   28  O1  UNL     1    -102.504 -18.891  51.549  1.00  0.00    -0.259 OA
BRANCH  27  29
HETATM   29  O2  UNL     1    -103.108 -20.054  49.737  1.00  0.00    -0.307 OA
BRANCH  29  30
HETATM   30  C5  UNL     1    -104.290 -19.686  49.109  1.00  0.00     0.060 C 
HETATM   31  C6  UNL     1    -104.397 -18.251  48.709  1.00  0.00     0.046 C 
HETATM   32  C7  UNL     1    -104.393 -20.515  47.822  1.00  0.00     0.046 C 
HETATM   33  C8  UNL     1    -105.513 -20.042  49.926  1.00  0.00     0.046 C 
ENDBRANCH  29  30
ENDBRANCH  27  29
ENDBRANCH   3  27
TORSDOF 7
ENDMDL
MODEL 2
REMARK VINA RESULT: -8.272271118      3.661      9.056
REMARK  7 active torsions:
REMARK  status: ('A' for Active; 'I' for Inactive)
REMARK    1  A    between atoms: C3_3  and  C4_4 
REMARK    2  A    between atoms: C4_4  and  O2_6 
REMARK    3  A    between atoms: O2_6  and  C5_7 
REMARK    4  A    between atoms: C10_13  and  C11_14 
REMARK    5  A    between atoms: C12_15  and  C13_16 
REMARK    6  A    between atoms: N1_19  and  C14_20 
REMARK    7  A    between atoms: C20_29  and  N2_30 
ROOT
HETATM    1  C1  UNL     1    -100.048 -15.920  44.209  1.00  0.00     0.071 C 
HETATM    2  C2  UNL     1     -99.354 -16.493  45.446  1.00  0.00     0.054 A 
HETATM    3  C3  UNL     1     -98.001 -16.449  45.555  1.00  0.00     0.105 A 
HETATM    4  S1  UNL     1     -97.772 -17.221  47.092  1.00  0.00    -0.061 SA
HETATM    5  C9  UNL     1     -99.404 -17.530  47.461  1.00  0.00     0.127 A 
HETATM    6  C10 UNL     1    -100.262 -18.107  48.448  1.00  0.00     0.092 A 
HETATM    7  N1  UNL     1    -101.460 -17.935  47.939  1.00  0.00    -0.143 N 
HETATM    8  C20 UNL     1    -101.372 -17.300  46.722  1.00  0.00     0.691 A 
HETATM    9  N3  UNL     1    -100.067 -17.049  46.431  1.00  0.00    -0.141 N 
ENDROOT
BRANCH   7  10
HETATM   10  C14 UNL     1    -102.721 -18.248  48.491  1.00  0.00     0.081 A 
HETATM   11  C15 UNL     1    -103.510 -17.255  49.040  1.00  0.00     0.058 A 
HETATM   12  C16 UNL     1    -104.720 -17.597  49.595  1.00  0.00     0.058 A 
HETATM   13 CL1  UNL     1    -105.750 -16.372  50.299  1.00  0.00    -0.082 Cl
HETATM   14  C17 UNL     1    -105.164 -18.922  49.614  1.00  0.00     0.057 A 
HETATM   15 CL2  UNL     1    -106.716 -19.320  50.333  1.00  0.00    -0.082 Cl
HETATM   16  C18 UNL     1    -104.344 -19.895  49.054  1.00  0.00     0.051 A 
HETATM   17  C19 UNL     1    -103.108 -19.566  48.484  1.00  0.00     0.063 A 
HETATM   18 CL3  UNL     1    -102.177 -20.903  47.846  1.00  0.00    -0.082 Cl
ENDBRANCH   7  10
BRANCH   6  19
HETATM   19  C11 UNL     1     -99.694 -18.603  49.654  1.00  0.00     0.040 C 
HETATM   20  C12 UNL     1     -99.981 -18.874  50.862  1.00  0.00     0.087 C 
BRANCH  20  21
HETATM   21  C13 UNL     1    -101.077 -18.850  51.755  1.00  0.00     0.198 C 
HETATM   22  O3  UNL     1    -102.118 -18.198  51.714  1.00  0.00    -0.645 OA
HETATM   23  O4  UNL     1    -101.011 -19.711  52.913  1.00  0.00    -0.645 OA
ENDBRANCH  20  21
ENDBRANCH   6  19
BRANCH   8  24
HETATM   24  N2  UNL     1    -102.439 -17.025  46.033  1.00  0.00    -0.233 N 
ATOM     25  H22 UNL     1    -103.218 -17.630  45.777  1.00  0.00     0.174 HD
ATOM     26  H21 UNL     1    -102.594 -16.090  45.657  1.00  0.00     0.174 HD
ENDBRANCH   8  24
BRANCH   3  27
HETATM   27  C4  UNL     1     -96.927 -15.930  44.706  1.00  0.00     0.303 C 
HETATM   28  O1  UNL     1     -96.957 -14.846  44.179  1.00  0.00    -0.259 OA
BRANCH  27  29
HETATM   29  O2  UNL     1     -95.812 -16.740  44.501  1.00  0.00    -0.307 OA
BRANCH  29  30
HETATM   30  C5  UNL     1     -94.553 -16.552  45.054  1.00  0.00     0.060 C 
HETATM   31  C6  UNL     1     -94.500 -15.702  46.281  1.00  0.00     0.046 C 
HETATM   32  C7  UNL     1     -94.022 -17.935  45.449  1.00  0.00     0.046 C 
HETATM   33  C8  UNL     1     -93.560 -16.000  44.054  1.00  0.00     0.046 C 
ENDBRANCH  29  30
ENDBRANCH  27  29
ENDBRANCH   3  27
TORSDOF 7
ENDMDL
MODEL 3
REMARK VINA RESULT: -8.153575564      3.737      9.083
REMARK  7 active torsions:
REMARK  status: ('A' for Active; 'I' for Inactive)
REMARK    1  A    between atoms: C3_3  and  C4_4 
REMARK    2  A    between atoms: C4_4  and  O2_6 
REMARK    3  A    between atoms: O2_6  and  C5_7 
REMARK    4  A    between atoms: C10_13  and  C11_14 
REMARK    5  A    between atoms: C12_15  and  C13_16 
REMARK    6  A    between atoms: N1_19  and  C14_20 
REMARK    7  A    between atoms: C20_29  and  N2_30 
ROOT
HETATM    1  C1  UNL     1     -99.903 -16.186  44.826  1.00  0.00     0.071 C 
HETATM    2  C2  UNL     1     -99.314 -16.750  46.120  1.00  0.00     0.054 A 
HETATM    3  C3  UNL     1     -97.975 -16.705  46.341  1.00  0.00     0.105 A 
HETATM    4  S1  UNL     1     -97.875 -17.467  47.897  1.00  0.00    -0.061 SA
HETATM    5  C9  UNL     1     -99.532 -17.773  48.132  1.00  0.00     0.127 A 
HETATM    6  C10 UNL     1    -100.469 -18.344  49.048  1.00  0.00     0.092 A 
HETATM    7  N1  UNL     1    -101.620 -18.176  48.440  1.00  0.00    -0.143 N 
HETATM    8  C20 UNL     1    -101.432 -17.549  47.229  1.00  0.00     0.691 A 
HETATM    9  N3  UNL     1    -100.107 -17.300  47.047  1.00  0.00    -0.141 N 
ENDROOT
BRANCH   7  10
HETATM   10  C14 UNL     1    -102.923 -18.486  48.887  1.00  0.00     0.081 A 
HETATM   11  C15 UNL     1    -103.699 -17.522  49.502  1.00  0.00     0.058 A 
HETATM   12  C16 UNL     1    -104.952 -17.862  49.952  1.00  0.00     0.058 A 
HETATM   13 CL1  UNL     1    -105.967 -16.674  50.734  1.00  0.00    -0.082 Cl
HETATM   14  C17 UNL     1    -105.453 -19.158  49.799  1.00  0.00     0.057 A 
HETATM   15 CL2  UNL     1    -107.059 -19.556  50.387  1.00  0.00    -0.082 Cl
HETATM   16  C18 UNL     1    -104.645 -20.103  49.176  1.00  0.00     0.051 A 
HETATM   17  C19 UNL     1    -103.365 -19.774  48.712  1.00  0.00     0.063 A 
HETATM   18 CL3  UNL     1    -102.458 -21.076  47.976  1.00  0.00    -0.082 Cl
ENDBRANCH   7  10
BRANCH   6  19
HETATM   19  C11 UNL     1    -100.004 -18.831  50.300  1.00  0.00     0.040 C 
HETATM   20  C12 UNL     1    -100.389 -19.091  51.483  1.00  0.00     0.087 C 
BRANCH  20  21
HETATM   21  C13 UNL     1    -101.554 -19.054  52.284  1.00  0.00     0.198 C 
HETATM   22  O3  UNL     1    -102.554 -18.343  52.195  1.00  0.00    -0.645 OA
HETATM   23  O4  UNL     1    -101.630 -19.976  53.392  1.00  0.00    -0.645 OA
ENDBRANCH  20  21
ENDBRANCH   6  19
BRANCH   8  24
HETATM   24  N2  UNL     1    -102.437 -17.279  46.453  1.00  0.00    -0.233 N 
ATOM     25  H22 UNL     1    -103.406 -17.073  46.695  1.00  0.00     0.174 HD
ATOM     26  H21 UNL     1    -102.325 -17.250  45.439  1.00  0.00     0.174 HD
ENDBRANCH   8  24
BRANCH   3  27
HETATM   27  C4  UNL     1     -96.834 -16.192  45.582  1.00  0.00     0.303 C 
HETATM   28  O1  UNL     1     -96.309 -16.791  44.677  1.00  0.00    -0.259 OA
BRANCH  27  29
HETATM   29  O2  UNL     1     -96.332 -14.940  45.930  1.00  0.00    -0.307 OA
BRANCH  29  30
HETATM   30  C5  UNL     1     -95.443 -14.674  46.963  1.00  0.00     0.060 C 
HETATM   31  C6  UNL     1     -94.613 -15.829  47.422  1.00  0.00     0.046 C 
HETATM   32  C7  UNL     1     -94.471 -13.602  46.456  1.00  0.00     0.046 C 
HETATM   33  C8  UNL     1     -96.125 -14.073  48.172  1.00  0.00     0.046 C 
ENDBRANCH  29  30
ENDBRANCH  27  29
ENDBRANCH   3  27
TORSDOF 7
ENDMDL
MODEL 4
REMARK VINA RESULT: -8.026591403      1.607      2.061
REMARK  7 active torsions:
REMARK  status: ('A' for Active; 'I' for Inactive)
REMARK    1  A    between atoms: C3_3  and  C4_4 
REMARK    2  A    between atoms: C4_4  and  O2_6 
REMARK    3  A    between atoms: O2_6  and  C5_7 
REMARK    4  A    between atoms: C10_13  and  C11_14 
REMARK    5  A    between atoms: C12_15  and  C13_16 
REMARK    6  A    between atoms: N1_19  and  C14_20 
REMARK    7  A    between atoms: C20_29  and  N2_30 
ROOT
HETATM    1  C1  UNL     1    -100.628 -18.928  49.636  1.00  0.00     0.071 C 
HETATM    2  C2  UNL     1    -100.543 -18.125  48.336  1.00  0.00     0.054 A 
HETATM    3  C3  UNL     1    -101.663 -17.874  47.611  1.00  0.00     0.105 A 
HETATM    4  S1  UNL     1    -100.999 -16.972  46.285  1.00  0.00    -0.061 SA
HETATM    5  C9  UNL     1     -99.367 -16.992  46.763  1.00  0.00     0.127 A 
HETATM    6  C10 UNL     1     -98.060 -16.559  46.380  1.00  0.00     0.092 A 
HETATM    7  N1  UNL     1     -97.299 -17.016  47.348  1.00  0.00    -0.143 N 
HETATM    8  C20 UNL     1     -98.061 -17.689  48.274  1.00  0.00     0.691 A 
HETATM    9  N3  UNL     1     -99.367 -17.667  47.893  1.00  0.00    -0.141 N 
ENDROOT
BRANCH   7  10
HETATM   10  C14 UNL     1     -95.912 -16.847  47.553  1.00  0.00     0.081 A 
HETATM   11  C15 UNL     1     -95.012 -17.753  47.026  1.00  0.00     0.058 A 
HETATM   12  C16 UNL     1     -93.671 -17.577  47.268  1.00  0.00     0.058 A 
HETATM   13 CL1  UNL     1     -92.497 -18.700  46.620  1.00  0.00    -0.082 Cl
HETATM   14  C17 UNL     1     -93.203 -16.503  48.031  1.00  0.00     0.057 A 
HETATM   15 CL2  UNL     1     -91.482 -16.310  48.318  1.00  0.00    -0.082 Cl
HETATM   16  C18 UNL     1     -94.137 -15.610  48.545  1.00  0.00     0.051 A 
HETATM   17  C19 UNL     1     -95.508 -15.775  48.310  1.00  0.00     0.063 A 
HETATM   18 CL3  UNL     1     -96.560 -14.587  49.047  1.00  0.00    -0.082 Cl
ENDBRANCH   7  10
BRANCH   6  19
HETATM   19  C11 UNL     1     -97.910 -15.754  45.218  1.00  0.00     0.040 C 
HETATM   20  C12 UNL     1     -97.030 -15.253  44.449  1.00  0.00     0.087 C 
BRANCH  20  21
HETATM   21  C13 UNL     1     -95.627 -15.203  44.283  1.00  0.00     0.198 C 
HETATM   22  O3  UNL     1     -94.910 -15.734  43.438  1.00  0.00    -0.645 OA
HETATM   23  O4  UNL     1     -94.872 -14.418  45.233  1.00  0.00    -0.645 OA
ENDBRANCH  20  21
ENDBRANCH   6  19
BRANCH   8  24
HETATM   24  N2  UNL     1     -97.517 -18.228  49.323  1.00  0.00    -0.233 N 
ATOM     25  H22 UNL     1     -96.539 -18.459  49.499  1.00  0.00     0.174 HD
ATOM     26  H21 UNL     1     -98.081 -18.491  50.132  1.00  0.00     0.174 HD
ENDBRANCH   8  24
BRANCH   3  27
HETATM   27  C4  UNL     1    -103.080 -18.200  47.780  1.00  0.00     0.303 C 
HETATM   28  O1  UNL     1    -103.570 -19.248  47.439  1.00  0.00    -0.259 OA
BRANCH  27  29
HETATM   29  O2  UNL     1    -103.902 -17.241  48.368  1.00  0.00    -0.307 OA
BRANCH  29  30
HETATM   30  C5  UNL     1    -104.527 -17.347  49.603  1.00  0.00     0.060 C 
HETATM   31  C6  UNL     1    -103.640 -17.689  50.756  1.00  0.00     0.046 C 
HETATM   32  C7  UNL     1    -105.149 -15.980  49.913  1.00  0.00     0.046 C 
HETATM   33  C8  UNL     1    -105.678 -18.329  49.586  1.00  0.00     0.046 C 
ENDBRANCH  29  30
ENDBRANCH  27  29
ENDBRANCH   3  27
TORSDOF 7
ENDMDL
MODEL 5
REMARK VINA RESULT: -7.972656578      1.877      2.687
REMARK  7 active torsions:
REMARK  status: ('A' for Active; 'I' for Inactive)
REMARK    1  A    between atoms: C3_3  and  C4_4 
REMARK    2  A    between atoms: C4_4  and  O2_6 
REMARK    3  A    between atoms: O2_6  and  C5_7 
REMARK    4  A    between atoms: C10_13  and  C11_14 
REMARK    5  A    between atoms: C12_15  and  C13_16 
REMARK    6  A    between atoms: N1_19  and  C14_20 
REMARK    7  A    between atoms: C20_29  and  N2_30 
ROOT
HETATM    1  C1  UNL     1    -100.411 -19.010  50.733  1.00  0.00     0.071 C 
HETATM    2  C2  UNL     1    -100.360 -18.389  49.335  1.00  0.00     0.054 A 
HETATM    3  C3  UNL     1    -101.380 -18.585  48.461  1.00  0.00     0.105 A 
HETATM    4  S1  UNL     1    -100.806 -17.698  47.084  1.00  0.00    -0.061 SA
HETATM    5  C9  UNL     1     -99.330 -17.159  47.734  1.00  0.00     0.127 A 
HETATM    6  C10 UNL     1     -98.157 -16.399  47.430  1.00  0.00     0.092 A 
HETATM    7  N1  UNL     1     -97.456 -16.476  48.537  1.00  0.00    -0.143 N 
HETATM    8  C20 UNL     1     -98.128 -17.229  49.474  1.00  0.00     0.691 A 
HETATM    9  N3  UNL     1     -99.310 -17.654  48.953  1.00  0.00    -0.141 N 
ENDROOT
BRANCH   7  10
HETATM   10  C14 UNL     1     -96.224 -15.868  48.861  1.00  0.00     0.081 A 
HETATM   11  C15 UNL     1     -96.190 -14.728  49.642  1.00  0.00     0.058 A 
HETATM   12  C16 UNL     1     -94.977 -14.144  49.915  1.00  0.00     0.058 A 
HETATM   13 CL1  UNL     1     -94.889 -12.701  50.899  1.00  0.00    -0.082 Cl
HETATM   14  C17 UNL     1     -93.784 -14.679  49.422  1.00  0.00     0.057 A 
HETATM   15 CL2  UNL     1     -92.252 -13.904  49.793  1.00  0.00    -0.082 Cl
HETATM   16  C18 UNL     1     -93.855 -15.826  48.640  1.00  0.00     0.051 A 
HETATM   17  C19 UNL     1     -95.082 -16.435  48.350  1.00  0.00     0.063 A 
HETATM   18 CL3  UNL     1     -95.012 -17.855  47.330  1.00  0.00    -0.082 Cl
ENDBRANCH   7  10
BRANCH   6  19
HETATM   19  C11 UNL     1     -98.067 -15.740  46.174  1.00  0.00     0.040 C 
HETATM   20  C12 UNL     1     -97.262 -15.089  45.436  1.00  0.00     0.087 C 
BRANCH  20  21
HETATM   21  C13 UNL     1     -95.927 -14.624  45.424  1.00  0.00     0.198 C 
HETATM   22  O3  UNL     1     -94.963 -15.000  44.760  1.00  0.00    -0.645 OA
HETATM   23  O4  UNL     1     -95.592 -13.537  46.315  1.00  0.00    -0.645 OA
ENDBRANCH  20  21
ENDBRANCH   6  19
BRANCH   8  24
HETATM   24  N2  UNL     1     -97.620 -17.439  50.650  1.00  0.00    -0.233 N 
ATOM     25  H22 UNL     1     -97.671 -16.863  51.490  1.00  0.00     0.174 HD
ATOM     26  H21 UNL     1     -97.075 -18.279  50.845  1.00  0.00     0.174 HD
ENDBRANCH   8  24
BRANCH   3  27
HETATM   27  C4  UNL     1    -102.654 -19.304  48.526  1.00  0.00     0.303 C 
HETATM   28  O1  UNL     1    -102.744 -20.507  48.512  1.00  0.00    -0.259 OA
BRANCH  27  29
HETATM   29  O2  UNL     1    -103.823 -18.550  48.607  1.00  0.00    -0.307 OA
BRANCH  29  30
HETATM   30  C5  UNL     1    -104.622 -18.401  49.732  1.00  0.00     0.060 C 
HETATM   31  C6  UNL     1    -103.928 -18.543  51.048  1.00  0.00     0.046 C 
HETATM   32  C7  UNL     1    -105.203 -16.983  49.688  1.00  0.00     0.046 C 
HETATM   33  C8  UNL     1    -105.813 -19.334  49.723  1.00  0.00     0.046 C 
ENDBRANCH  29  30
ENDBRANCH  27  29
ENDBRANCH   3  27
TORSDOF 7
ENDMDL
