MODEL 1
REMARK VINA RESULT: -7.960994807      0.000      0.000
REMARK  6 active torsions:
REMARK  status: ('A' for Active; 'I' for Inactive)
REMARK    1  A    between atoms: C2_2  and  O1_3 
REMARK    2  A    between atoms: O1_3  and  C3_4 
REMARK    3  A    between atoms: C8_9  and  O2_10 
REMARK    4  A    between atoms: C9_14  and  C10_15 
REMARK    5  A    between atoms: C18_25  and  C19_26 
REMARK    6  A    between atoms: N2_31  and  C22_32 
ROOT
HETATM    1  C3  UNL     1      16.324  90.961  -4.339  1.00  0.00     0.104 A 
HETATM    2  C4  UNL     1      16.853  89.876  -4.994  1.00  0.00     0.078 A 
HETATM    3  C5  UNL     1      17.857  89.090  -4.471  1.00  0.00     0.099 A 
HETATM    4  C6  UNL     1      18.345  89.417  -3.228  1.00  0.00     0.065 A 
HETATM    5  C7  UNL     1      17.844  90.493  -2.540  1.00  0.00     0.071 A 
HETATM    6  C8  UNL     1      16.840  91.264  -3.086  1.00  0.00     0.101 A 
HETATM    7  N1  UNL     1      19.374  88.712  -2.539  1.00  0.00    -0.379 N 
ATOM      8  H1  UNL     1      19.414  88.908  -1.539  1.00  0.00     0.160 HD
HETATM    9  C9  UNL     1      20.367  87.775  -2.992  1.00  0.00     0.118 C 
HETATM   10  C17 UNL     1      19.907  86.832  -4.069  1.00  0.00     0.067 C 
HETATM   11  C18 UNL     1      19.585  87.485  -5.376  1.00  0.00     0.170 C 
HETATM   12  O6  UNL     1      18.258  88.039  -5.288  1.00  0.00    -0.339 OA
ENDROOT
BRANCH  11  13
HETATM   13  C19 UNL     1      19.514  86.456  -6.458  1.00  0.00     0.053 A 
HETATM   14  C20 UNL     1      20.529  86.241  -7.396  1.00  0.00     0.086 A 
HETATM   15 CL1  UNL     1      22.064  87.090  -7.497  1.00  0.00    -0.080 Cl
HETATM   16  C21 UNL     1      20.103  85.236  -8.230  1.00  0.00     0.137 A 
HETATM   17 CL2  UNL     1      21.030  84.588  -9.591  1.00  0.00    -0.062 Cl
HETATM   18  N2  UNL     1      18.884  84.813  -7.868  1.00  0.00    -0.253 N 
HETATM   19  C23 UNL     1      18.533  85.562  -6.789  1.00  0.00     0.208 A 
HETATM   20  F1  UNL     1      17.339  85.406  -6.160  1.00  0.00    -0.185 F 
BRANCH  18  21
HETATM   21  C22 UNL     1      18.123  83.791  -8.494  1.00  0.00     0.363 C 
HETATM   22  O5  UNL     1      17.059  84.056  -9.106  1.00  0.00    -0.283 OA
ENDBRANCH  18  21
ENDBRANCH  11  13
BRANCH   9  23
HETATM   23  C10 UNL     1      20.813  87.015  -1.806  1.00  0.00    -0.033 A 
HETATM   24  C11 UNL     1      20.948  85.648  -1.931  1.00  0.00     0.012 A 
HETATM   25  C12 UNL     1      21.377  84.895  -0.842  1.00  0.00     0.040 A 
HETATM   26  C13 UNL     1      21.678  85.466   0.375  1.00  0.00     0.105 A 
HETATM   27  C14 UNL     1      21.547  86.829   0.511  1.00  0.00     0.105 A 
HETATM   28  O4  UNL     1      22.117  84.997   1.617  1.00  0.00    -0.323 OA
HETATM   29  C15 UNL     1      21.119  87.565  -0.581  1.00  0.00     0.049 A 
HETATM   30  O3  UNL     1      21.902  87.200   1.823  1.00  0.00    -0.323 OA
HETATM   31  C16 UNL     1      22.629  86.112   2.364  1.00  0.00     0.352 C 
ENDBRANCH   9  23
BRANCH   1  32
HETATM   32  O1  UNL     1      15.331  91.753  -4.835  1.00  0.00    -0.349 OA
BRANCH  32  33
HETATM   33  C2  UNL     1      14.026  91.392  -5.165  1.00  0.00     0.171 C 
HETATM   34  C1  UNL     1      13.080  91.561  -4.005  1.00  0.00     0.034 C 
ENDBRANCH  32  33
ENDBRANCH   1  32
BRANCH   6  35
HETATM   35  O2  UNL     1      16.354  92.349  -2.358  1.00  0.00    -0.358 OA
ATOM     36  H2  UNL     1      15.535  92.286  -1.881  1.00  0.00     0.217 HD
ENDBRANCH   6  35
TORSDOF 6
ENDMDL
MODEL 2
REMARK VINA RESULT: -7.873303536      2.501      7.043
REMARK  6 active torsions:
REMARK  status: ('A' for Active; 'I' for Inactive)
REMARK    1  A    between atoms: C2_2  and  O1_3 
REMARK    2  A    between atoms: O1_3  and  C3_4 
REMARK    3  A    between atoms: C8_9  and  O2_10 
REMARK    4  A    between atoms: C9_14  and  C10_15 
REMARK    5  A    between atoms: C18_25  and  C19_26 
REMARK    6  A    between atoms: N2_31  and  C22_32 
ROOT
HETATM    1  C3  UNL     1      23.393  86.263  -2.208  1.00  0.00     0.104 A 
HETATM    2  C4  UNL     1      22.751  86.171  -3.419  1.00  0.00     0.078 A 
HETATM    3  C5  UNL     1      21.531  86.759  -3.677  1.00  0.00     0.099 A 
HETATM    4  C6  UNL     1      20.938  87.474  -2.664  1.00  0.00     0.065 A 
HETATM    5  C7  UNL     1      21.546  87.591  -1.439  1.00  0.00     0.071 A 
HETATM    6  C8  UNL     1      22.765  86.992  -1.207  1.00  0.00     0.101 A 
HETATM    7  N1  UNL     1      19.685  88.147  -2.760  1.00  0.00    -0.379 N 
ATOM      8  H1  UNL     1      19.533  88.846  -2.033  1.00  0.00     0.160 HD
HETATM    9  C9  UNL     1      18.597  88.025  -3.692  1.00  0.00     0.118 C 
HETATM   10  C17 UNL     1      19.005  87.763  -5.115  1.00  0.00     0.067 C 
HETATM   11  C18 UNL     1      19.660  86.439  -5.343  1.00  0.00     0.170 C 
HETATM   12  O6  UNL     1      21.045  86.549  -4.963  1.00  0.00    -0.339 OA
ENDROOT
BRANCH  11  13
HETATM   13  C19 UNL     1      19.675  86.120  -6.804  1.00  0.00     0.053 A 
HETATM   14  C20 UNL     1      18.669  85.397  -7.453  1.00  0.00     0.086 A 
HETATM   15 CL1  UNL     1      17.211  84.740  -6.727  1.00  0.00    -0.080 Cl
HETATM   16  C21 UNL     1      19.034  85.294  -8.774  1.00  0.00     0.137 A 
HETATM   17 CL2  UNL     1      18.093  84.467 -10.024  1.00  0.00    -0.062 Cl
HETATM   18  N2  UNL     1      20.207  85.909  -8.985  1.00  0.00    -0.253 N 
HETATM   19  C23 UNL     1      20.589  86.408  -7.780  1.00  0.00     0.208 A 
HETATM   20  F1  UNL     1      21.751  87.094  -7.620  1.00  0.00    -0.185 F 
BRANCH  18  21
HETATM   21  C22 UNL     1      20.898  86.010 -10.221  1.00  0.00     0.363 C 
HETATM   22  O5  UNL     1      22.069  85.574 -10.347  1.00  0.00    -0.283 OA
ENDBRANCH  18  21
ENDBRANCH  11  13
BRANCH   9  23
HETATM   23  C10 UNL     1      17.816  89.277  -3.608  1.00  0.00    -0.033 A 
HETATM   24  C11 UNL     1      18.318  90.297  -2.826  1.00  0.00     0.012 A 
HETATM   25  C12 UNL     1      17.621  91.498  -2.729  1.00  0.00     0.040 A 
HETATM   26  C13 UNL     1      16.432  91.715  -3.390  1.00  0.00     0.105 A 
HETATM   27  C14 UNL     1      15.922  90.704  -4.172  1.00  0.00     0.105 A 
HETATM   28  O4  UNL     1      15.524  92.773  -3.491  1.00  0.00    -0.323 OA
HETATM   29  C15 UNL     1      16.626  89.515  -4.260  1.00  0.00     0.049 A 
HETATM   30  O3  UNL     1      14.712  91.132  -4.752  1.00  0.00    -0.323 OA
HETATM   31  C16 UNL     1      14.690  92.543  -4.638  1.00  0.00     0.352 C 
ENDBRANCH   9  23
BRANCH   1  32
HETATM   32  O1  UNL     1      24.599  85.692  -1.929  1.00  0.00    -0.349 OA
BRANCH  32  33
HETATM   33  C2  UNL     1      25.649  85.424  -2.806  1.00  0.00     0.171 C 
HETATM   34  C1  UNL     1      26.110  83.993  -2.717  1.00  0.00     0.034 C 
ENDBRANCH  32  33
ENDBRANCH   1  32
BRANCH   6  35
HETATM   35  O2  UNL     1      23.355  87.133   0.049  1.00  0.00    -0.358 OA
ATOM     36  H2  UNL     1      23.038  87.783   0.664  1.00  0.00     0.217 HD
ENDBRANCH   6  35
TORSDOF 6
ENDMDL
MODEL 3
REMARK VINA RESULT: -7.731212335      1.995      6.824
REMARK  6 active torsions:
REMARK  status: ('A' for Active; 'I' for Inactive)
REMARK    1  A    between atoms: C2_2  and  O1_3 
REMARK    2  A    between atoms: O1_3  and  C3_4 
REMARK    3  A    between atoms: C8_9  and  O2_10 
REMARK    4  A    between atoms: C9_14  and  C10_15 
REMARK    5  A    between atoms: C18_25  and  C19_26 
REMARK    6  A    between atoms: N2_31  and  C22_32 
ROOT
HETATM    1  C3  UNL     1      23.408  86.281  -2.231  1.00  0.00     0.104 A 
HETATM    2  C4  UNL     1      22.766  86.187  -3.442  1.00  0.00     0.078 A 
HETATM    3  C5  UNL     1      21.544  86.771  -3.699  1.00  0.00     0.099 A 
HETATM    4  C6  UNL     1      20.948  87.484  -2.686  1.00  0.00     0.065 A 
HETATM    5  C7  UNL     1      21.557  87.602  -1.461  1.00  0.00     0.071 A 
HETATM    6  C8  UNL     1      22.778  87.008  -1.229  1.00  0.00     0.101 A 
HETATM    7  N1  UNL     1      19.694  88.153  -2.781  1.00  0.00    -0.379 N 
ATOM      8  H1  UNL     1      19.539  88.851  -2.054  1.00  0.00     0.160 HD
HETATM    9  C9  UNL     1      18.605  88.027  -3.713  1.00  0.00     0.118 C 
HETATM   10  C17 UNL     1      19.014  87.767  -5.136  1.00  0.00     0.067 C 
HETATM   11  C18 UNL     1      19.674  86.445  -5.365  1.00  0.00     0.170 C 
HETATM   12  O6  UNL     1      21.058  86.560  -4.985  1.00  0.00    -0.339 OA
ENDROOT
BRANCH  11  13
HETATM   13  C19 UNL     1      19.689  86.127  -6.826  1.00  0.00     0.053 A 
HETATM   14  C20 UNL     1      20.767  86.407  -7.672  1.00  0.00     0.086 A 
HETATM   15 CL1  UNL     1      22.292  87.154  -7.221  1.00  0.00    -0.080 Cl
HETATM   16  C21 UNL     1      20.411  85.989  -8.932  1.00  0.00     0.137 A 
HETATM   17 CL2  UNL     1      21.434  86.120 -10.370  1.00  0.00    -0.062 Cl
HETATM   18  N2  UNL     1      19.177  85.465  -8.919  1.00  0.00    -0.253 N 
HETATM   19  C23 UNL     1      18.745  85.554  -7.633  1.00  0.00     0.208 A 
HETATM   20  F1  UNL     1      17.516  85.119  -7.254  1.00  0.00    -0.185 F 
BRANCH  18  21
HETATM   21  C22 UNL     1      18.474  84.931 -10.032  1.00  0.00     0.363 C 
HETATM   22  O5  UNL     1      17.803  85.671 -10.792  1.00  0.00    -0.283 OA
ENDBRANCH  18  21
ENDBRANCH  11  13
BRANCH   9  23
HETATM   23  C10 UNL     1      17.821  89.277  -3.628  1.00  0.00    -0.033 A 
HETATM   24  C11 UNL     1      18.322  90.300  -2.851  1.00  0.00     0.012 A 
HETATM   25  C12 UNL     1      17.621  91.499  -2.753  1.00  0.00     0.040 A 
HETATM   26  C13 UNL     1      16.429  91.710  -3.410  1.00  0.00     0.105 A 
HETATM   27  C14 UNL     1      15.919  90.695  -4.188  1.00  0.00     0.105 A 
HETATM   28  O4  UNL     1      15.516  92.764  -3.510  1.00  0.00    -0.323 OA
HETATM   29  C15 UNL     1      16.627  89.509  -4.276  1.00  0.00     0.049 A 
HETATM   30  O3  UNL     1      14.705  91.118  -4.764  1.00  0.00    -0.323 OA
HETATM   31  C16 UNL     1      14.678  92.529  -4.653  1.00  0.00     0.352 C 
ENDBRANCH   9  23
BRANCH   1  32
HETATM   32  O1  UNL     1      24.616  85.714  -1.953  1.00  0.00    -0.349 OA
BRANCH  32  33
HETATM   33  C2  UNL     1      25.653  85.418  -2.836  1.00  0.00     0.171 C 
HETATM   34  C1  UNL     1      26.161  84.011  -2.662  1.00  0.00     0.034 C 
ENDBRANCH  32  33
ENDBRANCH   1  32
BRANCH   6  35
HETATM   35  O2  UNL     1      23.368  87.150   0.026  1.00  0.00    -0.358 OA
ATOM     36  H2  UNL     1      24.212  87.573   0.120  1.00  0.00     0.217 HD
ENDBRANCH   6  35
TORSDOF 6
ENDMDL
MODEL 4
REMARK VINA RESULT: -7.716392307      2.425      7.063
REMARK  6 active torsions:
REMARK  status: ('A' for Active; 'I' for Inactive)
REMARK    1  A    between atoms: C2_2  and  O1_3 
REMARK    2  A    between atoms: O1_3  and  C3_4 
REMARK    3  A    between atoms: C8_9  and  O2_10 
REMARK    4  A    between atoms: C9_14  and  C10_15 
REMARK    5  A    between atoms: C18_25  and  C19_26 
REMARK    6  A    between atoms: N2_31  and  C22_32 
ROOT
HETATM    1  C3  UNL     1      22.163  86.877  -0.705  1.00  0.00     0.104 A 
HETATM    2  C4  UNL     1      22.122  86.822  -2.077  1.00  0.00     0.078 A 
HETATM    3  C5  UNL     1      21.056  87.277  -2.823  1.00  0.00     0.099 A 
HETATM    4  C6  UNL     1      19.984  87.813  -2.148  1.00  0.00     0.065 A 
HETATM    5  C7  UNL     1      19.985  87.887  -0.778  1.00  0.00     0.071 A 
HETATM    6  C8  UNL     1      21.064  87.424  -0.056  1.00  0.00     0.101 A 
HETATM    7  N1  UNL     1      18.807  88.333  -2.760  1.00  0.00    -0.379 N 
ATOM      8  H1  UNL     1      18.253  88.935  -2.150  1.00  0.00     0.160 HD
HETATM    9  C9  UNL     1      18.254  88.167  -4.077  1.00  0.00     0.118 C 
HETATM   10  C17 UNL     1      19.266  88.095  -5.187  1.00  0.00     0.067 C 
HETATM   11  C18 UNL     1      20.150  86.889  -5.148  1.00  0.00     0.170 C 
HETATM   12  O6  UNL     1      21.204  87.133  -4.198  1.00  0.00    -0.339 OA
ENDROOT
BRANCH  11  13
HETATM   13  C19 UNL     1      20.836  86.716  -6.465  1.00  0.00     0.053 A 
HETATM   14  C20 UNL     1      20.206  86.223  -7.612  1.00  0.00     0.086 A 
HETATM   15 CL1  UNL     1      18.526  85.730  -7.760  1.00  0.00    -0.080 Cl
HETATM   16  C21 UNL     1      21.150  86.194  -8.611  1.00  0.00     0.137 A 
HETATM   17 CL2  UNL     1      20.855  85.647 -10.268  1.00  0.00    -0.062 Cl
HETATM   18  N2  UNL     1      22.329  86.639  -8.154  1.00  0.00    -0.253 N 
HETATM   19  C23 UNL     1      22.128  86.954  -6.846  1.00  0.00     0.208 A 
HETATM   20  F1  UNL     1      23.126  87.435  -6.059  1.00  0.00    -0.185 F 
BRANCH  18  21
HETATM   21  C22 UNL     1      23.535  86.753  -8.895  1.00  0.00     0.363 C 
HETATM   22  O5  UNL     1      24.493  85.964  -8.700  1.00  0.00    -0.283 OA
ENDBRANCH  18  21
ENDBRANCH  11  13
BRANCH   9  23
HETATM   23  C10 UNL     1      17.332  89.299  -4.302  1.00  0.00    -0.033 A 
HETATM   24  C11 UNL     1      17.882  90.536  -4.565  1.00  0.00     0.012 A 
HETATM   25  C12 UNL     1      17.050  91.628  -4.794  1.00  0.00     0.040 A 
HETATM   26  C13 UNL     1      15.676  91.524  -4.769  1.00  0.00     0.105 A 
HETATM   27  C14 UNL     1      15.115  90.295  -4.507  1.00  0.00     0.105 A 
HETATM   28  O4  UNL     1      14.605  92.403  -4.952  1.00  0.00    -0.323 OA
HETATM   29  C15 UNL     1      15.956  89.218  -4.281  1.00  0.00     0.049 A 
HETATM   30  O3  UNL     1      13.712  90.412  -4.528  1.00  0.00    -0.323 OA
HETATM   31  C16 UNL     1      13.421  91.626  -5.196  1.00  0.00     0.352 C 
ENDBRANCH   9  23
BRANCH   1  32
HETATM   32  O1  UNL     1      23.205  86.435   0.054  1.00  0.00    -0.349 OA
BRANCH  32  33
HETATM   33  C2  UNL     1      24.290  87.165   0.536  1.00  0.00     0.171 C 
HETATM   34  C1  UNL     1      24.894  88.049  -0.523  1.00  0.00     0.034 C 
ENDBRANCH  32  33
ENDBRANCH   1  32
BRANCH   6  35
HETATM   35  O2  UNL     1      21.031  87.515   1.335  1.00  0.00    -0.358 OA
ATOM     36  H2  UNL     1      21.211  86.756   1.876  1.00  0.00     0.217 HD
ENDBRANCH   6  35
TORSDOF 6
ENDMDL
MODEL 5
REMARK VINA RESULT: -7.575446158      1.689      1.821
REMARK  6 active torsions:
REMARK  status: ('A' for Active; 'I' for Inactive)
REMARK    1  A    between atoms: C2_2  and  O1_3 
REMARK    2  A    between atoms: O1_3  and  C3_4 
REMARK    3  A    between atoms: C8_9  and  O2_10 
REMARK    4  A    between atoms: C9_14  and  C10_15 
REMARK    5  A    between atoms: C18_25  and  C19_26 
REMARK    6  A    between atoms: N2_31  and  C22_32 
ROOT
HETATM    1  C3  UNL     1      16.398  91.200  -4.268  1.00  0.00     0.104 A 
HETATM    2  C4  UNL     1      16.905  90.128  -4.961  1.00  0.00     0.078 A 
HETATM    3  C5  UNL     1      17.884  89.297  -4.461  1.00  0.00     0.099 A 
HETATM    4  C6  UNL     1      18.369  89.563  -3.202  1.00  0.00     0.065 A 
HETATM    5  C7  UNL     1      17.889  90.624  -2.477  1.00  0.00     0.071 A 
HETATM    6  C8  UNL     1      16.910  91.441  -3.000  1.00  0.00     0.101 A 
HETATM    7  N1  UNL     1      19.375  88.806  -2.533  1.00  0.00    -0.379 N 
ATOM      8  H1  UNL     1      19.411  88.962  -1.526  1.00  0.00     0.160 HD
HETATM    9  C9  UNL     1      20.347  87.863  -3.014  1.00  0.00     0.118 C 
HETATM   10  C17 UNL     1      19.873  86.974  -4.131  1.00  0.00     0.067 C 
HETATM   11  C18 UNL     1      19.579  87.685  -5.413  1.00  0.00     0.170 C 
HETATM   12  O6  UNL     1      18.266  88.268  -5.315  1.00  0.00    -0.339 OA
ENDROOT
BRANCH  11  13
HETATM   13  C19 UNL     1      19.492  86.700  -6.535  1.00  0.00     0.053 A 
HETATM   14  C20 UNL     1      18.451  85.778  -6.682  1.00  0.00     0.086 A 
HETATM   15 CL1  UNL     1      17.056  85.590  -5.630  1.00  0.00    -0.080 Cl
HETATM   16  C21 UNL     1      18.720  85.041  -7.811  1.00  0.00     0.137 A 
HETATM   17 CL2  UNL     1      17.701  83.737  -8.436  1.00  0.00    -0.062 Cl
HETATM   18  N2  UNL     1      19.867  85.449  -8.373  1.00  0.00    -0.253 N 
HETATM   19  C23 UNL     1      20.330  86.459  -7.589  1.00  0.00     0.208 A 
HETATM   20  F1  UNL     1      21.492  87.108  -7.861  1.00  0.00    -0.185 F 
BRANCH  18  21
HETATM   21  C22 UNL     1      20.466  84.923  -9.548  1.00  0.00     0.363 C 
HETATM   22  O5  UNL     1      21.600  84.386  -9.514  1.00  0.00    -0.283 OA
ENDBRANCH  18  21
ENDBRANCH  11  13
BRANCH   9  23
HETATM   23  C10 UNL     1      20.764  87.046  -1.855  1.00  0.00    -0.033 A 
HETATM   24  C11 UNL     1      20.799  85.676  -2.011  1.00  0.00     0.012 A 
HETATM   25  C12 UNL     1      21.197  84.871  -0.949  1.00  0.00     0.040 A 
HETATM   26  C13 UNL     1      21.563  85.391   0.273  1.00  0.00     0.105 A 
HETATM   27  C14 UNL     1      21.531  86.757   0.441  1.00  0.00     0.105 A 
HETATM   28  O4  UNL     1      21.994  84.865   1.494  1.00  0.00    -0.323 OA
HETATM   29  C15 UNL     1      21.133  87.546  -0.625  1.00  0.00     0.049 A 
HETATM   30  O3  UNL     1      21.940  87.072   1.751  1.00  0.00    -0.323 OA
HETATM   31  C16 UNL     1      22.599  85.924   2.253  1.00  0.00     0.352 C 
ENDBRANCH   9  23
BRANCH   1  32
HETATM   32  O1  UNL     1      15.429  92.035  -4.741  1.00  0.00    -0.349 OA
BRANCH  32  33
HETATM   33  C2  UNL     1      14.068  92.030  -4.443  1.00  0.00     0.171 C 
HETATM   34  C1  UNL     1      13.343  90.898  -5.122  1.00  0.00     0.034 C 
ENDBRANCH  32  33
ENDBRANCH   1  32
BRANCH   6  35
HETATM   35  O2  UNL     1      16.445  92.509  -2.235  1.00  0.00    -0.358 OA
ATOM     36  H2  UNL     1      15.909  93.189  -2.625  1.00  0.00     0.217 HD
ENDBRANCH   6  35
TORSDOF 6
ENDMDL
