MODEL 1
REMARK VINA RESULT: -8.439739771      0.000      0.000
REMARK  7 active torsions:
REMARK  status: ('A' for Active; 'I' for Inactive)
REMARK    1  A    between atoms: C2_2  and  O1_3 
REMARK    2  A    between atoms: O1_3  and  C3_4 
REMARK    3  A    between atoms: C3_4  and  C4_6 
REMARK    4  A    between atoms: C5_7  and  N1_8 
REMARK    5  A    between atoms: N2_10  and  C6_12 
REMARK    6  A    between atoms: C10_17  and  S1_18 
REMARK    7  A    between atoms: C14_26  and  O6_27 
ROOT
HETATM    1  C4  UNL     1      16.880  91.343  -3.670  1.00  0.00     0.092 A 
HETATM    2  C5  UNL     1      17.533  91.186  -2.469  1.00  0.00     0.067 A 
HETATM    3  C12 UNL     1      18.441  90.135  -2.290  1.00  0.00     0.054 A 
HETATM    4  C13 UNL     1      18.675  89.257  -3.328  1.00  0.00     0.048 A 
HETATM    5 BR1  UNL     1      19.915  87.833  -3.060  1.00  0.00    -0.048 Br
HETATM    6  C14 UNL     1      18.021  89.413  -4.532  1.00  0.00     0.105 A 
HETATM    7  C15 UNL     1      17.121  90.460  -4.704  1.00  0.00     0.087 A 
HETATM    8 CL2  UNL     1      16.255  90.719  -6.203  1.00  0.00    -0.080 Cl
ENDROOT
BRANCH   2   9
HETATM    9  N1  UNL     1      17.250  92.123  -1.436  1.00  0.00    -0.299 N 
HETATM   10  N2  UNL     1      18.169  92.404  -0.634  1.00  0.00    -0.300 N 
ATOM     11  H2  UNL     1      19.071  91.947  -0.763  1.00  0.00     0.187 HD
ATOM     12  H1  UNL     1      16.328  92.551  -1.352  1.00  0.00     0.187 HD
BRANCH  10  13
HETATM   13  C6  UNL     1      18.036  93.318   0.443  1.00  0.00     0.049 A 
HETATM   14  C7  UNL     1      16.805  93.744   0.910  1.00  0.00     0.033 A 
HETATM   15  C8  UNL     1      16.684  94.633   1.957  1.00  0.00     0.028 A 
HETATM   16  C9  UNL     1      17.821  95.117   2.564  1.00  0.00     0.058 A 
HETATM   17 CL1  UNL     1      17.717  96.257   3.910  1.00  0.00    -0.083 Cl
HETATM   18  C10 UNL     1      19.066  94.716   2.128  1.00  0.00     0.104 A 
HETATM   19  C11 UNL     1      19.144  93.839   1.091  1.00  0.00     0.059 A 
BRANCH  18  20
HETATM   20  S1  UNL     1      20.495  95.369   2.943  1.00  0.00     0.139 S 
HETATM   21  O3  UNL     1      20.326  96.840   3.188  1.00  0.00    -0.591 OA
HETATM   22  O4  UNL     1      21.681  95.118   2.057  1.00  0.00    -0.591 OA
HETATM   23  O5  UNL     1      20.687  94.588   4.411  1.00  0.00    -0.591 OA
ENDBRANCH  18  20
ENDBRANCH  10  13
ENDBRANCH   2   9
BRANCH   1  24
HETATM   24  C3  UNL     1      15.942  92.440  -3.838  1.00  0.00     0.297 C 
HETATM   25  O2  UNL     1      16.226  93.520  -4.417  1.00  0.00    -0.259 OA
BRANCH  24  26
HETATM   26  O1  UNL     1      14.671  92.287  -3.335  1.00  0.00    -0.318 OA
BRANCH  26  27
HETATM   27  C2  UNL     1      13.693  91.425  -3.867  1.00  0.00     0.174 C 
HETATM   28  C1  UNL     1      12.993  92.010  -5.064  1.00  0.00     0.034 C 
ENDBRANCH  26  27
ENDBRANCH  24  26
ENDBRANCH   1  24
BRANCH   6  29
HETATM   29  O6  UNL     1      18.230  88.552  -5.597  1.00  0.00    -0.358 OA
ATOM     30  H6  UNL     1      17.899  88.739  -6.467  1.00  0.00     0.217 HD
ENDBRANCH   6  29
TORSDOF 7
ENDMDL
MODEL 2
REMARK VINA RESULT: -7.617666292      7.238      9.955
REMARK  7 active torsions:
REMARK  status: ('A' for Active; 'I' for Inactive)
REMARK    1  A    between atoms: C2_2  and  O1_3 
REMARK    2  A    between atoms: O1_3  and  C3_4 
REMARK    3  A    between atoms: C3_4  and  C4_6 
REMARK    4  A    between atoms: C5_7  and  N1_8 
REMARK    5  A    between atoms: N2_10  and  C6_12 
REMARK    6  A    between atoms: C10_17  and  S1_18 
REMARK    7  A    between atoms: C14_26  and  O6_27 
ROOT
HETATM    1  C4  UNL     1      18.693  93.918   5.451  1.00  0.00     0.092 A 
HETATM    2  C5  UNL     1      18.249  93.726   6.740  1.00  0.00     0.067 A 
HETATM    3  C12 UNL     1      18.551  92.540   7.421  1.00  0.00     0.054 A 
HETATM    4  C13 UNL     1      19.294  91.565   6.789  1.00  0.00     0.048 A 
HETATM    5 BR1  UNL     1      19.690  89.958   7.736  1.00  0.00    -0.048 Br
HETATM    6  C14 UNL     1      19.738  91.757   5.497  1.00  0.00     0.105 A 
HETATM    7  C15 UNL     1      19.437  92.938   4.827  1.00  0.00     0.087 A 
HETATM    8 CL2  UNL     1      19.967  93.250   3.188  1.00  0.00    -0.080 Cl
ENDROOT
BRANCH   2   9
HETATM    9  N1  UNL     1      17.487  94.767   7.339  1.00  0.00    -0.299 N 
HETATM   10  N2  UNL     1      17.037  94.574   8.491  1.00  0.00    -0.300 N 
ATOM     11  H2  UNL     1      17.240  93.681   8.939  1.00  0.00     0.187 HD
ATOM     12  H1  UNL     1      17.313  95.643   6.845  1.00  0.00     0.187 HD
BRANCH  10  13
HETATM   13  C6  UNL     1      16.262  95.518   9.213  1.00  0.00     0.049 A 
HETATM   14  C7  UNL     1      15.711  96.639   8.619  1.00  0.00     0.033 A 
HETATM   15  C8  UNL     1      14.959  97.552   9.328  1.00  0.00     0.028 A 
HETATM   16  C9  UNL     1      14.745  97.347  10.673  1.00  0.00     0.058 A 
HETATM   17 CL1  UNL     1      13.788  98.488  11.623  1.00  0.00    -0.083 Cl
HETATM   18  C10 UNL     1      15.276  96.241  11.301  1.00  0.00     0.104 A 
HETATM   19  C11 UNL     1      16.013  95.365  10.567  1.00  0.00     0.059 A 
BRANCH  18  20
HETATM   20  S1  UNL     1      14.970  96.027  13.031  1.00  0.00     0.139 S 
HETATM   21  O3  UNL     1      15.507  97.198  13.802  1.00  0.00    -0.591 OA
HETATM   22  O4  UNL     1      15.650  94.760  13.462  1.00  0.00    -0.591 OA
HETATM   23  O5  UNL     1      13.319  95.917  13.281  1.00  0.00    -0.591 OA
ENDBRANCH  18  20
ENDBRANCH  10  13
ENDBRANCH   2   9
BRANCH   1  24
HETATM   24  C3  UNL     1      18.372  95.156   4.761  1.00  0.00     0.297 C 
HETATM   25  O2  UNL     1      19.088  96.190   4.811  1.00  0.00    -0.259 OA
BRANCH  24  26
HETATM   26  O1  UNL     1      17.221  95.199   4.010  1.00  0.00    -0.318 OA
BRANCH  26  27
HETATM   27  C2  UNL     1      17.134  95.702   2.697  1.00  0.00     0.174 C 
HETATM   28  C1  UNL     1      16.854  94.627   1.682  1.00  0.00     0.034 C 
ENDBRANCH  26  27
ENDBRANCH  24  26
ENDBRANCH   1  24
BRANCH   6  29
HETATM   29  O6  UNL     1      20.488  90.801   4.830  1.00  0.00    -0.358 OA
ATOM     30  H6  UNL     1      20.840  90.955   3.962  1.00  0.00     0.217 HD
ENDBRANCH   6  29
TORSDOF 7
ENDMDL
MODEL 3
REMARK VINA RESULT: -7.613342158      3.709      8.460
REMARK  7 active torsions:
REMARK  status: ('A' for Active; 'I' for Inactive)
REMARK    1  A    between atoms: C2_2  and  O1_3 
REMARK    2  A    between atoms: O1_3  and  C3_4 
REMARK    3  A    between atoms: C3_4  and  C4_6 
REMARK    4  A    between atoms: C5_7  and  N1_8 
REMARK    5  A    between atoms: N2_10  and  C6_12 
REMARK    6  A    between atoms: C10_17  and  S1_18 
REMARK    7  A    between atoms: C14_26  and  O6_27 
ROOT
HETATM    1  C4  UNL     1      18.873  93.866   2.308  1.00  0.00     0.092 A 
HETATM    2  C5  UNL     1      17.876  94.532   1.633  1.00  0.00     0.067 A 
HETATM    3  C12 UNL     1      17.112  95.508   2.284  1.00  0.00     0.054 A 
HETATM    4  C13 UNL     1      17.367  95.796   3.610  1.00  0.00     0.048 A 
HETATM    5 BR1  UNL     1      16.312  97.128   4.476  1.00  0.00    -0.048 Br
HETATM    6  C14 UNL     1      18.365  95.129   4.287  1.00  0.00     0.105 A 
HETATM    7  C15 UNL     1      19.121  94.161   3.634  1.00  0.00     0.087 A 
HETATM    8 CL2  UNL     1      20.404  93.274   4.430  1.00  0.00    -0.080 Cl
ENDROOT
BRANCH   2   9
HETATM    9  N1  UNL     1      17.661  94.191   0.269  1.00  0.00    -0.299 N 
HETATM   10  N2  UNL     1      17.277  93.028   0.010  1.00  0.00    -0.300 N 
ATOM     11  H2  UNL     1      17.139  92.386   0.791  1.00  0.00     0.187 HD
ATOM     12  H1  UNL     1      17.815  94.872  -0.475  1.00  0.00     0.187 HD
BRANCH  10  13
HETATM   13  C6  UNL     1      17.022  92.544  -1.299  1.00  0.00     0.049 A 
HETATM   14  C7  UNL     1      16.106  93.142  -2.147  1.00  0.00     0.033 A 
HETATM   15  C8  UNL     1      15.862  92.666  -3.419  1.00  0.00     0.028 A 
HETATM   16  C9  UNL     1      16.549  91.560  -3.865  1.00  0.00     0.058 A 
HETATM   17 CL1  UNL     1      16.272  90.913  -5.486  1.00  0.00    -0.083 Cl
HETATM   18  C10 UNL     1      17.470  90.936  -3.050  1.00  0.00     0.104 A 
HETATM   19  C11 UNL     1      17.681  91.436  -1.802  1.00  0.00     0.059 A 
BRANCH  18  20
HETATM   20  S1  UNL     1      18.325  89.518  -3.674  1.00  0.00     0.139 S 
HETATM   21  O3  UNL     1      17.356  88.574  -4.327  1.00  0.00    -0.591 OA
HETATM   22  O4  UNL     1      19.008  88.850  -2.517  1.00  0.00    -0.591 OA
HETATM   23  O5  UNL     1      19.450  90.018  -4.808  1.00  0.00    -0.591 OA
ENDBRANCH  18  20
ENDBRANCH  10  13
ENDBRANCH   2   9
BRANCH   1  24
HETATM   24  C3  UNL     1      19.657  92.857   1.616  1.00  0.00     0.297 C 
HETATM   25  O2  UNL     1      19.347  91.638   1.573  1.00  0.00    -0.259 OA
BRANCH  24  26
HETATM   26  O1  UNL     1      20.803  93.258   0.971  1.00  0.00    -0.318 OA
BRANCH  26  27
HETATM   27  C2  UNL     1      21.067  94.574   0.543  1.00  0.00     0.174 C 
HETATM   28  C1  UNL     1      21.935  95.335   1.508  1.00  0.00     0.034 C 
ENDBRANCH  26  27
ENDBRANCH  24  26
ENDBRANCH   1  24
BRANCH   6  29
HETATM   29  O6  UNL     1      18.650  95.390   5.617  1.00  0.00    -0.358 OA
ATOM     30  H6  UNL     1      18.328  94.837   6.319  1.00  0.00     0.217 HD
ENDBRANCH   6  29
TORSDOF 7
ENDMDL
MODEL 4
REMARK VINA RESULT: -7.562830373      8.311     11.593
REMARK  7 active torsions:
REMARK  status: ('A' for Active; 'I' for Inactive)
REMARK    1  A    between atoms: C2_2  and  O1_3 
REMARK    2  A    between atoms: O1_3  and  C3_4 
REMARK    3  A    between atoms: C3_4  and  C4_6 
REMARK    4  A    between atoms: C5_7  and  N1_8 
REMARK    5  A    between atoms: N2_10  and  C6_12 
REMARK    6  A    between atoms: C10_17  and  S1_18 
REMARK    7  A    between atoms: C14_26  and  O6_27 
ROOT
HETATM    1  C4  UNL     1      18.182  93.857   6.860  1.00  0.00     0.092 A 
HETATM    2  C5  UNL     1      17.225  94.794   7.173  1.00  0.00     0.067 A 
HETATM    3  C12 UNL     1      16.808  95.725   6.212  1.00  0.00     0.054 A 
HETATM    4  C13 UNL     1      17.366  95.694   4.951  1.00  0.00     0.048 A 
HETATM    5 BR1  UNL     1      16.783  96.972   3.661  1.00  0.00    -0.048 Br
HETATM    6  C14 UNL     1      18.326  94.755   4.637  1.00  0.00     0.105 A 
HETATM    7  C15 UNL     1      18.735  93.833   5.595  1.00  0.00     0.087 A 
HETATM    8 CL2  UNL     1      19.947  92.613   5.268  1.00  0.00    -0.080 Cl
ENDROOT
BRANCH   2   9
HETATM    9  N1  UNL     1      16.687  94.776   8.489  1.00  0.00    -0.299 N 
HETATM   10  N2  UNL     1      16.203  95.840   8.938  1.00  0.00    -0.300 N 
ATOM     11  H2  UNL     1      16.220  96.663   8.336  1.00  0.00     0.187 HD
ATOM     12  H1  UNL     1      16.695  93.924   9.050  1.00  0.00     0.187 HD
BRANCH  10  13
HETATM   13  C6  UNL     1      15.632  95.975  10.230  1.00  0.00     0.049 A 
HETATM   14  C7  UNL     1      15.966  97.009  11.086  1.00  0.00     0.033 A 
HETATM   15  C8  UNL     1      15.407  97.134  12.341  1.00  0.00     0.028 A 
HETATM   16  C9  UNL     1      14.486  96.202  12.762  1.00  0.00     0.058 A 
HETATM   17 CL1  UNL     1      13.742  96.319  14.360  1.00  0.00    -0.083 Cl
HETATM   18  C10 UNL     1      14.126  95.157  11.938  1.00  0.00     0.104 A 
HETATM   19  C11 UNL     1      14.701  95.068  10.708  1.00  0.00     0.059 A 
BRANCH  18  20
HETATM   20  S1  UNL     1      12.938  93.987  12.529  1.00  0.00     0.139 S 
HETATM   21  O3  UNL     1      13.470  93.272  13.738  1.00  0.00    -0.591 OA
HETATM   22  O4  UNL     1      12.666  93.012  11.421  1.00  0.00    -0.591 OA
HETATM   23  O5  UNL     1      11.536  94.801  12.947  1.00  0.00    -0.591 OA
ENDBRANCH  18  20
ENDBRANCH  10  13
ENDBRANCH   2   9
BRANCH   1  24
HETATM   24  C3  UNL     1      18.602  92.898   7.869  1.00  0.00     0.297 C 
HETATM   25  O2  UNL     1      19.154  93.220   8.952  1.00  0.00    -0.259 OA
BRANCH  24  26
HETATM   26  O1  UNL     1      18.382  91.562   7.623  1.00  0.00    -0.318 OA
BRANCH  26  27
HETATM   27  C2  UNL     1      19.053  90.505   8.267  1.00  0.00     0.174 C 
HETATM   28  C1  UNL     1      20.465  90.330   7.777  1.00  0.00     0.034 C 
ENDBRANCH  26  27
ENDBRANCH  24  26
ENDBRANCH   1  24
BRANCH   6  29
HETATM   29  O6  UNL     1      18.908  94.692   3.382  1.00  0.00    -0.358 OA
ATOM     30  H6  UNL     1      19.791  94.368   3.253  1.00  0.00     0.217 HD
ENDBRANCH   6  29
TORSDOF 7
ENDMDL
MODEL 5
REMARK VINA RESULT: -7.462470402      8.623     12.430
REMARK  7 active torsions:
REMARK  status: ('A' for Active; 'I' for Inactive)
REMARK    1  A    between atoms: C2_2  and  O1_3 
REMARK    2  A    between atoms: O1_3  and  C3_4 
REMARK    3  A    between atoms: C3_4  and  C4_6 
REMARK    4  A    between atoms: C5_7  and  N1_8 
REMARK    5  A    between atoms: N2_10  and  C6_12 
REMARK    6  A    between atoms: C10_17  and  S1_18 
REMARK    7  A    between atoms: C14_26  and  O6_27 
ROOT
HETATM    1  C4  UNL     1      15.395  96.427  10.361  1.00  0.00     0.092 A 
HETATM    2  C5  UNL     1      16.234  95.337  10.406  1.00  0.00     0.067 A 
HETATM    3  C12 UNL     1      16.673  94.835  11.638  1.00  0.00     0.054 A 
HETATM    4  C13 UNL     1      16.258  95.442  12.805  1.00  0.00     0.048 A 
HETATM    5 BR1  UNL     1      16.870  94.741  14.469  1.00  0.00    -0.048 Br
HETATM    6  C14 UNL     1      15.417  96.534  12.760  1.00  0.00     0.105 A 
HETATM    7  C15 UNL     1      14.984  97.028  11.534  1.00  0.00     0.087 A 
HETATM    8 CL2  UNL     1      13.917  98.409  11.400  1.00  0.00    -0.080 Cl
ENDROOT
BRANCH   2   9
HETATM    9  N1  UNL     1      16.628  94.755   9.170  1.00  0.00    -0.299 N 
HETATM   10  N2  UNL     1      17.746  94.193   9.118  1.00  0.00    -0.300 N 
ATOM     11  H2  UNL     1      18.315  94.184   9.964  1.00  0.00     0.187 HD
ATOM     12  H1  UNL     1      16.020  94.793   8.352  1.00  0.00     0.187 HD
BRANCH  10  13
HETATM   13  C6  UNL     1      18.273  93.570   7.958  1.00  0.00     0.049 A 
HETATM   14  C7  UNL     1      18.680  92.247   7.944  1.00  0.00     0.033 A 
HETATM   15  C8  UNL     1      19.192  91.647   6.812  1.00  0.00     0.028 A 
HETATM   16  C9  UNL     1      19.304  92.383   5.654  1.00  0.00     0.058 A 
HETATM   17 CL1  UNL     1      19.953  91.659   4.178  1.00  0.00    -0.083 Cl
HETATM   18  C10 UNL     1      18.908  93.703   5.627  1.00  0.00     0.104 A 
HETATM   19  C11 UNL     1      18.409  94.259   6.764  1.00  0.00     0.059 A 
BRANCH  18  20
HETATM   20  S1  UNL     1      19.074  94.602   4.112  1.00  0.00     0.139 S 
HETATM   21  O3  UNL     1      18.564  93.781   2.962  1.00  0.00    -0.591 OA
HETATM   22  O4  UNL     1      20.529  94.919   3.925  1.00  0.00    -0.591 OA
HETATM   23  O5  UNL     1      18.178  96.012   4.216  1.00  0.00    -0.591 OA
ENDBRANCH  18  20
ENDBRANCH  10  13
ENDBRANCH   2   9
BRANCH   1  24
HETATM   24  C3  UNL     1      14.949  96.934   9.074  1.00  0.00     0.297 C 
HETATM   25  O2  UNL     1      13.864  96.602   8.530  1.00  0.00    -0.259 OA
BRANCH  24  26
HETATM   26  O1  UNL     1      15.759  97.828   8.414  1.00  0.00    -0.318 OA
BRANCH  26  27
HETATM   27  C2  UNL     1      16.519  97.530   7.266  1.00  0.00     0.174 C 
HETATM   28  C1  UNL     1      15.855  97.988   5.996  1.00  0.00     0.034 C 
ENDBRANCH  26  27
ENDBRANCH  24  26
ENDBRANCH   1  24
BRANCH   6  29
HETATM   29  O6  UNL     1      14.979  97.170  13.910  1.00  0.00    -0.358 OA
ATOM     30  H6  UNL     1      14.110  97.024  14.265  1.00  0.00     0.217 HD
ENDBRANCH   6  29
TORSDOF 7
ENDMDL
