MODEL 1
REMARK VINA RESULT: -7.445927570      0.000      0.000
REMARK  7 active torsions:
REMARK  status: ('A' for Active; 'I' for Inactive)
REMARK    1  A    between atoms: O1_2  and  C2_3 
REMARK    2  A    between atoms: C2_3  and  C3_5 
REMARK    3  A    between atoms: C7_10  and  N1_11 
REMARK    4  A    between atoms: C9_16  and  O6_17 
REMARK    5  A    between atoms: C10_19  and  N2_20 
REMARK    6  A    between atoms: N2_20  and  S1_22 
REMARK    7  A    between atoms: C14_28  and  C15_29 
ROOT
HETATM    1  C3  UNL     1      15.539  96.753  10.111  1.00  0.00     0.054 A 
HETATM    2  C4  UNL     1      15.850  97.177   8.812  1.00  0.00     0.056 A 
HETATM    3  C5  UNL     1      16.525  96.385   7.907  1.00  0.00     0.088 A 
HETATM    4  O3  UNL     1      16.925  96.539   6.670  1.00  0.00    -0.306 OA
HETATM    5  C6  UNL     1      17.538  95.470   6.237  1.00  0.00     0.124 A 
HETATM    6  C7  UNL     1      18.120  95.178   5.006  1.00  0.00     0.162 A 
HETATM    7  C8  UNL     1      18.703  93.958   4.813  1.00  0.00     0.105 A 
HETATM    8 CL1  UNL     1      19.439  93.576   3.272  1.00  0.00    -0.079 Cl
HETATM    9  C9  UNL     1      18.726  93.009   5.819  1.00  0.00     0.118 A 
HETATM   10  C10 UNL     1      18.159  93.279   7.038  1.00  0.00     0.092 A 
HETATM   11  C11 UNL     1      17.571  94.493   7.246  1.00  0.00     0.044 A 
HETATM   12  C12 UNL     1      16.910  95.119   8.302  1.00  0.00     0.014 A 
HETATM   13  C13 UNL     1      16.628  94.654   9.565  1.00  0.00     0.029 A 
HETATM   14  C14 UNL     1      15.933  95.504  10.456  1.00  0.00     0.004 A 
ENDROOT
BRANCH  10  15
HETATM   15  N2  UNL     1      18.215  92.312   8.052  1.00  0.00    -0.267 N 
ATOM     16  H2  UNL     1      17.396  91.745   8.271  1.00  0.00     0.180 HD
BRANCH  15  17
HETATM   17  S1  UNL     1      19.707  92.087   8.939  1.00  0.00     0.359 S 
HETATM   18  O7  UNL     1      20.493  90.935   8.382  1.00  0.00    -0.187 OA
HETATM   19  O8  UNL     1      19.409  91.779  10.374  1.00  0.00    -0.187 OA
ENDBRANCH  15  17
ENDBRANCH  10  15
BRANCH   9  20
HETATM   20  O6  UNL     1      19.338  91.782   5.556  1.00  0.00    -0.357 OA
ATOM     21  H6  UNL     1      19.346  91.127   6.243  1.00  0.00     0.218 HD
ENDBRANCH   9  20
BRANCH   6  22
HETATM   22  N1  UNL     1      18.109  96.140   3.959  1.00  0.00    -0.111 N 
HETATM   23  O4  UNL     1      17.042  96.476   3.411  1.00  0.00    -0.532 OA
HETATM   24  O5  UNL     1      19.260  96.734   3.513  1.00  0.00    -0.532 OA
ENDBRANCH   6  22
BRANCH  14  25
HETATM   25  C15 UNL     1      15.595  94.909  11.737  1.00  0.00     0.062 C 
HETATM   26 CL2  UNL     1      16.728  95.139  13.084  1.00  0.00    -0.082 Cl
HETATM   27  C16 UNL     1      14.494  94.276  11.989  1.00  0.00     0.030 C 
HETATM   28  C17 UNL     1      14.222  93.701  13.315  1.00  0.00     0.064 C 
HETATM   29 CL3  UNL     1      13.308  94.087  10.725  1.00  0.00    -0.088 Cl
ENDBRANCH  14  25
BRANCH   1  30
HETATM   30  C2  UNL     1      14.892  97.654  11.037  1.00  0.00     0.293 C 
HETATM   31  O2  UNL     1      13.730  98.078  11.006  1.00  0.00    -0.259 OA
BRANCH  30  32
HETATM   32  O1  UNL     1      15.651  98.133  12.128  1.00  0.00    -0.322 OA
HETATM   33  C1  UNL     1      15.064  98.392  13.390  1.00  0.00     0.213 C 
ENDBRANCH  30  32
ENDBRANCH   1  30
TORSDOF 7
ENDMDL
MODEL 2
REMARK VINA RESULT: -7.375634116      0.949      1.073
REMARK  7 active torsions:
REMARK  status: ('A' for Active; 'I' for Inactive)
REMARK    1  A    between atoms: O1_2  and  C2_3 
REMARK    2  A    between atoms: C2_3  and  C3_5 
REMARK    3  A    between atoms: C7_10  and  N1_11 
REMARK    4  A    between atoms: C9_16  and  O6_17 
REMARK    5  A    between atoms: C10_19  and  N2_20 
REMARK    6  A    between atoms: N2_20  and  S1_22 
REMARK    7  A    between atoms: C14_28  and  C15_29 
ROOT
HETATM    1  C3  UNL     1      15.037  96.858  10.655  1.00  0.00     0.054 A 
HETATM    2  C4  UNL     1      15.111  97.309   9.330  1.00  0.00     0.056 A 
HETATM    3  C5  UNL     1      15.837  96.656   8.355  1.00  0.00     0.088 A 
HETATM    4  O3  UNL     1      16.061  96.863   7.083  1.00  0.00    -0.306 OA
HETATM    5  C6  UNL     1      16.835  95.936   6.584  1.00  0.00     0.124 A 
HETATM    6  C7  UNL     1      17.330  95.745   5.297  1.00  0.00     0.162 A 
HETATM    7  C8  UNL     1      18.132  94.670   5.040  1.00  0.00     0.105 A 
HETATM    8 CL1  UNL     1      18.763  94.416   3.427  1.00  0.00    -0.079 Cl
HETATM    9  C9  UNL     1      18.462  93.769   6.037  1.00  0.00     0.118 A 
HETATM   10  C10 UNL     1      17.984  93.941   7.311  1.00  0.00     0.092 A 
HETATM   11  C11 UNL     1      17.180  95.010   7.583  1.00  0.00     0.044 A 
HETATM   12  C12 UNL     1      16.519  95.508   8.705  1.00  0.00     0.014 A 
HETATM   13  C13 UNL     1      16.478  95.022   9.991  1.00  0.00     0.029 A 
HETATM   14  C14 UNL     1      15.719  95.727  10.953  1.00  0.00     0.004 A 
ENDROOT
BRANCH  10  15
HETATM   15  N2  UNL     1      18.351  93.030   8.312  1.00  0.00    -0.267 N 
ATOM     16  H2  UNL     1      18.001  93.140   9.263  1.00  0.00     0.180 HD
BRANCH  15  17
HETATM   17  S1  UNL     1      19.416  91.701   7.911  1.00  0.00     0.359 S 
HETATM   18  O7  UNL     1      18.630  90.466   7.578  1.00  0.00    -0.187 OA
HETATM   19  O8  UNL     1      20.293  91.377   9.080  1.00  0.00    -0.187 OA
ENDBRANCH  15  17
ENDBRANCH  10  15
BRANCH   9  20
HETATM   20  O6  UNL     1      19.286  92.691   5.707  1.00  0.00    -0.357 OA
ATOM     21  H6  UNL     1      19.062  91.834   6.046  1.00  0.00     0.218 HD
ENDBRANCH   9  20
BRANCH   6  22
HETATM   22  N1  UNL     1      17.005  96.661   4.258  1.00  0.00    -0.111 N 
HETATM   23  O4  UNL     1      16.724  97.846   4.516  1.00  0.00    -0.532 OA
HETATM   24  O5  UNL     1      16.988  96.281   2.942  1.00  0.00    -0.532 OA
ENDBRANCH   6  22
BRANCH  14  25
HETATM   25  C15 UNL     1      15.653  95.103  12.263  1.00  0.00     0.062 C 
HETATM   26 CL2  UNL     1      16.911  95.517  13.445  1.00  0.00    -0.082 Cl
HETATM   27  C16 UNL     1      14.705  94.314  12.657  1.00  0.00     0.030 C 
HETATM   28  C17 UNL     1      14.706  93.720  14.002  1.00  0.00     0.064 C 
HETATM   29 CL3  UNL     1      13.400  93.933  11.564  1.00  0.00    -0.088 Cl
ENDBRANCH  14  25
BRANCH   1  30
HETATM   30  C2  UNL     1      14.318  97.624  11.647  1.00  0.00     0.293 C 
HETATM   31  O2  UNL     1      13.099  97.649  11.858  1.00  0.00    -0.259 OA
BRANCH  30  32
HETATM   32  O1  UNL     1      15.068  98.463  12.501  1.00  0.00    -0.322 OA
HETATM   33  C1  UNL     1      14.831  98.513  13.895  1.00  0.00     0.213 C 
ENDBRANCH  30  32
ENDBRANCH   1  30
TORSDOF 7
ENDMDL
MODEL 3
REMARK VINA RESULT: -7.202328594      0.556      1.335
REMARK  7 active torsions:
REMARK  status: ('A' for Active; 'I' for Inactive)
REMARK    1  A    between atoms: O1_2  and  C2_3 
REMARK    2  A    between atoms: C2_3  and  C3_5 
REMARK    3  A    between atoms: C7_10  and  N1_11 
REMARK    4  A    between atoms: C9_16  and  O6_17 
REMARK    5  A    between atoms: C10_19  and  N2_20 
REMARK    6  A    between atoms: N2_20  and  S1_22 
REMARK    7  A    between atoms: C14_28  and  C15_29 
ROOT
HETATM    1  C3  UNL     1      15.322  96.692   9.850  1.00  0.00     0.054 A 
HETATM    2  C4  UNL     1      15.835  97.132   8.623  1.00  0.00     0.056 A 
HETATM    3  C5  UNL     1      16.572  96.323   7.784  1.00  0.00     0.088 A 
HETATM    4  O3  UNL     1      17.146  96.486   6.620  1.00  0.00    -0.306 OA
HETATM    5  C6  UNL     1      17.739  95.389   6.229  1.00  0.00     0.124 A 
HETATM    6  C7  UNL     1      18.462  95.094   5.076  1.00  0.00     0.162 A 
HETATM    7  C8  UNL     1      18.982  93.842   4.914  1.00  0.00     0.105 A 
HETATM    8 CL1  UNL     1      19.894  93.455   3.470  1.00  0.00    -0.079 Cl
HETATM    9  C9  UNL     1      18.804  92.863   5.875  1.00  0.00     0.118 A 
HETATM   10  C10 UNL     1      18.096  93.135   7.017  1.00  0.00     0.092 A 
HETATM   11  C11 UNL     1      17.569  94.381   7.194  1.00  0.00     0.044 A 
HETATM   12  C12 UNL     1      16.814  95.021   8.176  1.00  0.00     0.014 A 
HETATM   13  C13 UNL     1      16.333  94.539   9.370  1.00  0.00     0.029 A 
HETATM   14  C14 UNL     1      15.581  95.408  10.194  1.00  0.00     0.004 A 
ENDROOT
BRANCH  10  15
HETATM   15  N2  UNL     1      17.950  92.135   7.990  1.00  0.00    -0.267 N 
ATOM     16  H2  UNL     1      17.087  91.594   8.046  1.00  0.00     0.180 HD
BRANCH  15  17
HETATM   17  S1  UNL     1      19.261  91.828   9.106  1.00  0.00     0.359 S 
HETATM   18  O7  UNL     1      19.866  93.115   9.589  1.00  0.00    -0.187 OA
HETATM   19  O8  UNL     1      20.342  91.048   8.424  1.00  0.00    -0.187 OA
ENDBRANCH  15  17
ENDBRANCH  10  15
BRANCH   9  20
HETATM   20  O6  UNL     1      19.363  91.604   5.646  1.00  0.00    -0.357 OA
ATOM     21  H6  UNL     1      19.517  91.337   4.748  1.00  0.00     0.218 HD
ENDBRANCH   9  20
BRANCH   6  22
HETATM   22  N1  UNL     1      18.658  96.087   4.076  1.00  0.00    -0.111 N 
HETATM   23  O4  UNL     1      17.694  96.547   3.436  1.00  0.00    -0.532 OA
HETATM   24  O5  UNL     1      19.903  96.575   3.780  1.00  0.00    -0.532 OA
ENDBRANCH   6  22
BRANCH  14  25
HETATM   25  C15 UNL     1      15.033  94.800  11.393  1.00  0.00     0.062 C 
HETATM   26 CL2  UNL     1      13.481  93.950  11.260  1.00  0.00    -0.082 Cl
HETATM   27  C16 UNL     1      15.626  94.775  12.545  1.00  0.00     0.030 C 
HETATM   28  C17 UNL     1      15.007  94.138  13.717  1.00  0.00     0.064 C 
HETATM   29 CL3  UNL     1      17.191  95.527  12.717  1.00  0.00    -0.088 Cl
ENDBRANCH  14  25
BRANCH   1  30
HETATM   30  C2  UNL     1      14.618  97.608  10.718  1.00  0.00     0.293 C 
HETATM   31  O2  UNL     1      13.454  98.015  10.616  1.00  0.00    -0.259 OA
BRANCH  30  32
HETATM   32  O1  UNL     1      15.314  98.126  11.833  1.00  0.00    -0.322 OA
HETATM   33  C1  UNL     1      14.673  98.351  13.075  1.00  0.00     0.213 C 
ENDBRANCH  30  32
ENDBRANCH   1  30
TORSDOF 7
ENDMDL
MODEL 4
REMARK VINA RESULT: -6.938489631      2.897      8.229
REMARK  7 active torsions:
REMARK  status: ('A' for Active; 'I' for Inactive)
REMARK    1  A    between atoms: O1_2  and  C2_3 
REMARK    2  A    between atoms: C2_3  and  C3_5 
REMARK    3  A    between atoms: C7_10  and  N1_11 
REMARK    4  A    between atoms: C9_16  and  O6_17 
REMARK    5  A    between atoms: C10_19  and  N2_20 
REMARK    6  A    between atoms: N2_20  and  S1_22 
REMARK    7  A    between atoms: C14_28  and  C15_29 
ROOT
HETATM    1  C3  UNL     1      19.136  92.561   5.486  1.00  0.00     0.054 A 
HETATM    2  C4  UNL     1      18.539  92.505   6.753  1.00  0.00     0.056 A 
HETATM    3  C5  UNL     1      17.843  93.561   7.301  1.00  0.00     0.088 A 
HETATM    4  O3  UNL     1      17.210  93.758   8.430  1.00  0.00    -0.306 OA
HETATM    5  C6  UNL     1      16.698  94.960   8.479  1.00  0.00     0.124 A 
HETATM    6  C7  UNL     1      15.951  95.602   9.463  1.00  0.00     0.162 A 
HETATM    7  C8  UNL     1      15.530  96.884   9.254  1.00  0.00     0.105 A 
HETATM    8 CL1  UNL     1      14.590  97.705  10.481  1.00  0.00    -0.079 Cl
HETATM    9  C9  UNL     1      15.834  97.556   8.084  1.00  0.00     0.118 A 
HETATM   10  C10 UNL     1      16.570  96.940   7.104  1.00  0.00     0.092 A 
HETATM   11  C11 UNL     1      16.997  95.658   7.297  1.00  0.00     0.044 A 
HETATM   12  C12 UNL     1      17.733  94.725   6.566  1.00  0.00     0.014 A 
HETATM   13  C13 UNL     1      18.299  94.832   5.318  1.00  0.00     0.029 A 
HETATM   14  C14 UNL     1      19.002  93.720   4.800  1.00  0.00     0.004 A 
ENDROOT
BRANCH  10  15
HETATM   15  N2  UNL     1      16.888  97.647   5.936  1.00  0.00    -0.267 N 
ATOM     16  H2  UNL     1      17.708  98.253   5.907  1.00  0.00     0.180 HD
BRANCH  15  17
HETATM   17  S1  UNL     1      15.864  97.480   4.528  1.00  0.00     0.359 S 
HETATM   18  O7  UNL     1      16.668  97.085   3.323  1.00  0.00    -0.187 OA
HETATM   19  O8  UNL     1      15.200  98.787   4.219  1.00  0.00    -0.187 OA
ENDBRANCH  15  17
ENDBRANCH  10  15
BRANCH   9  20
HETATM   20  O6  UNL     1      15.373  98.865   7.935  1.00  0.00    -0.357 OA
ATOM     21  H6  UNL     1      15.395  99.253   7.068  1.00  0.00     0.218 HD
ENDBRANCH   9  20
BRANCH   6  22
HETATM   22  N1  UNL     1      15.629  94.930  10.674  1.00  0.00    -0.111 N 
HETATM   23  O4  UNL     1      16.505  94.692  11.526  1.00  0.00    -0.532 OA
HETATM   24  O5  UNL     1      14.351  94.520  10.953  1.00  0.00    -0.532 OA
ENDBRANCH   6  22
BRANCH  14  25
HETATM   25  C15 UNL     1      19.493  93.881   3.443  1.00  0.00     0.062 C 
HETATM   26 CL2  UNL     1      18.615  93.057   2.138  1.00  0.00    -0.082 Cl
HETATM   27  C16 UNL     1      20.490  94.634   3.103  1.00  0.00     0.030 C 
HETATM   28  C17 UNL     1      20.930  94.746   1.704  1.00  0.00     0.064 C 
HETATM   29 CL3  UNL     1      21.342  95.530   4.334  1.00  0.00    -0.088 Cl
ENDBRANCH  14  25
BRANCH   1  30
HETATM   30  C2  UNL     1      19.913  91.446   4.996  1.00  0.00     0.293 C 
HETATM   31  O2  UNL     1      19.724  90.772   3.975  1.00  0.00    -0.259 OA
BRANCH  30  32
HETATM   32  O1  UNL     1      21.038  91.045   5.750  1.00  0.00    -0.322 OA
HETATM   33  C1  UNL     1      21.549  89.726   5.687  1.00  0.00     0.213 C 
ENDBRANCH  30  32
ENDBRANCH   1  30
TORSDOF 7
ENDMDL
MODEL 5
REMARK VINA RESULT: -6.440663912     13.595     17.362
REMARK  7 active torsions:
REMARK  status: ('A' for Active; 'I' for Inactive)
REMARK    1  A    between atoms: O1_2  and  C2_3 
REMARK    2  A    between atoms: C2_3  and  C3_5 
REMARK    3  A    between atoms: C7_10  and  N1_11 
REMARK    4  A    between atoms: C9_16  and  O6_17 
REMARK    5  A    between atoms: C10_19  and  N2_20 
REMARK    6  A    between atoms: N2_20  and  S1_22 
REMARK    7  A    between atoms: C14_28  and  C15_29 
ROOT
HETATM    1  C3  UNL     1      18.837  85.342  -5.152  1.00  0.00     0.054 A 
HETATM    2  C4  UNL     1      18.918  85.445  -3.757  1.00  0.00     0.056 A 
HETATM    3  C5  UNL     1      20.061  85.849  -3.100  1.00  0.00     0.088 A 
HETATM    4  O3  UNL     1      20.387  86.024  -1.844  1.00  0.00    -0.306 OA
HETATM    5  C6  UNL     1      21.624  86.429  -1.731  1.00  0.00     0.124 A 
HETATM    6  C7  UNL     1      22.390  86.742  -0.611  1.00  0.00     0.162 A 
HETATM    7  C8  UNL     1      23.682  87.152  -0.778  1.00  0.00     0.105 A 
HETATM    8 CL1  UNL     1      24.659  87.549   0.619  1.00  0.00    -0.079 Cl
HETATM    9  C9  UNL     1      24.242  87.260  -2.038  1.00  0.00     0.118 A 
HETATM   10  C10 UNL     1      23.503  86.955  -3.152  1.00  0.00     0.092 A 
HETATM   11  C11 UNL     1      22.210  86.545  -3.003  1.00  0.00     0.044 A 
HETATM   12  C12 UNL     1      21.174  86.164  -3.855  1.00  0.00     0.014 A 
HETATM   13  C13 UNL     1      21.147  86.081  -5.227  1.00  0.00     0.029 A 
HETATM   14  C14 UNL     1      19.951  85.663  -5.853  1.00  0.00     0.004 A 
ENDROOT
BRANCH  10  15
HETATM   15  N2  UNL     1      24.098  87.047  -4.419  1.00  0.00    -0.267 N 
ATOM     16  H2  UNL     1      24.215  87.955  -4.869  1.00  0.00     0.180 HD
BRANCH  15  17
HETATM   17  S1  UNL     1      24.638  85.588  -5.219  1.00  0.00     0.359 S 
HETATM   18  O7  UNL     1      26.096  85.341  -4.955  1.00  0.00    -0.187 OA
HETATM   19  O8  UNL     1      24.464  85.722  -6.700  1.00  0.00    -0.187 OA
ENDBRANCH  15  17
ENDBRANCH  10  15
BRANCH   9  20
HETATM   20  O6  UNL     1      25.569  87.685  -2.137  1.00  0.00    -0.357 OA
ATOM     21  H6  UNL     1      26.216  87.066  -2.453  1.00  0.00     0.218 HD
ENDBRANCH   9  20
BRANCH   6  22
HETATM   22  N1  UNL     1      21.834  86.637   0.693  1.00  0.00    -0.111 N 
HETATM   23  O4  UNL     1      22.004  85.611   1.379  1.00  0.00    -0.532 OA
HETATM   24  O5  UNL     1      21.095  87.650   1.246  1.00  0.00    -0.532 OA
ENDBRANCH   6  22
BRANCH  14  25
HETATM   25  C15 UNL     1      19.974  85.686  -7.305  1.00  0.00     0.062 C 
HETATM   26 CL2  UNL     1      19.000  86.918  -8.132  1.00  0.00    -0.082 Cl
HETATM   27  C16 UNL     1      20.706  84.914  -8.043  1.00  0.00     0.030 C 
HETATM   28  C17 UNL     1      20.677  84.997  -9.511  1.00  0.00     0.064 C 
HETATM   29 CL3  UNL     1      21.744  83.736  -7.282  1.00  0.00    -0.088 Cl
ENDBRANCH  14  25
BRANCH   1  30
HETATM   30  C2  UNL     1      17.633  84.844  -5.778  1.00  0.00     0.293 C 
HETATM   31  O2  UNL     1      16.472  85.241  -5.624  1.00  0.00    -0.259 OA
BRANCH  30  32
HETATM   32  O1  UNL     1      17.759  83.770  -6.687  1.00  0.00    -0.322 OA
HETATM   33  C1  UNL     1      17.044  83.736  -7.908  1.00  0.00     0.213 C 
ENDBRANCH  30  32
ENDBRANCH   1  30
TORSDOF 7
ENDMDL
