MODEL 1
REMARK VINA RESULT: -7.678492474      0.000      0.000
REMARK  7 active torsions:
REMARK  status: ('A' for Active; 'I' for Inactive)
REMARK    1  A    between atoms: O1_2  and  C2_3 
REMARK    2  A    between atoms: C5_7  and  C6_8 
REMARK    3  A    between atoms: C10_13  and  O3_14 
REMARK    4  A    between atoms: C12_16  and  O4_17 
REMARK    5  A    between atoms: C14_19  and  O5_20 
REMARK    6  A    between atoms: C19_25  and  O6_26 
REMARK    7  A    between atoms: C21_30  and  O7_31 
ROOT
HETATM    1  C6  UNL     1      15.642  95.590  10.551  1.00  0.00    -0.055 C 
HETATM    2  C7  UNL     1      15.900  96.916  11.146  1.00  0.00     0.119 C 
HETATM    3  C8  UNL     1      15.002  97.443  12.185  1.00  0.00     0.167 C 
HETATM    4  O2  UNL     1      15.310  98.623  12.493  1.00  0.00    -0.292 OA
HETATM    5  C9  UNL     1      13.860  96.903  12.908  1.00  0.00     0.057 A 
HETATM    6  C10 UNL     1      13.056  97.849  13.515  1.00  0.00     0.118 A 
HETATM    7  C12 UNL     1      11.885  97.429  14.131  1.00  0.00     0.136 A 
HETATM    8  C14 UNL     1      11.547  96.098  14.131  1.00  0.00     0.111 A 
HETATM    9  C16 UNL     1      12.317  95.120  13.545  1.00  0.00    -0.014 A 
HETATM   10  C17 UNL     1      11.917  93.696  13.573  1.00  0.00     0.052 C 
HETATM   11  C18 UNL     1      13.467  95.544  12.941  1.00  0.00     0.017 A 
HETATM   12  C19 UNL     1      14.289  94.503  12.347  1.00  0.00     0.167 C 
HETATM   13 CL2  UNL     1      15.957  94.784  13.035  1.00  0.00    -0.083 Cl
HETATM   14  C20 UNL     1      14.423  94.851  10.849  1.00  0.00     0.095 C 
ENDROOT
BRANCH   1  15
HETATM   15  C5  UNL     1      16.054  95.683   9.111  1.00  0.00     0.004 A 
HETATM   16  C4  UNL     1      16.762  94.598   8.555  1.00  0.00     0.041 A 
HETATM   17  C3  UNL     1      17.131  94.527   7.241  1.00  0.00     0.070 A 
HETATM   18  C2  UNL     1      16.791  95.568   6.411  1.00  0.00     0.114 A 
HETATM   19 CL1  UNL     1      18.023  93.122   6.632  1.00  0.00    -0.081 Cl
HETATM   20  C22 UNL     1      16.095  96.647   6.935  1.00  0.00     0.102 A 
HETATM   21  C21 UNL     1      15.723  96.712   8.284  1.00  0.00     0.100 A 
HETATM   22 CL3  UNL     1      15.653  97.986   5.902  1.00  0.00    -0.078 Cl
BRANCH  18  23
HETATM   23  O1  UNL     1      17.146  95.523   5.085  1.00  0.00    -0.352 OA
HETATM   24  C1  UNL     1      18.406  95.772   4.539  1.00  0.00     0.210 C 
ENDBRANCH  18  23
BRANCH  21  25
HETATM   25  O7  UNL     1      15.040  97.830   8.683  1.00  0.00    -0.358 OA
ATOM     26  H7  UNL     1      14.723  98.501   8.090  1.00  0.00     0.217 HD
ENDBRANCH  21  25
ENDBRANCH   1  15
BRANCH  12  27
HETATM   27  O6  UNL     1      14.086  93.210  12.612  1.00  0.00    -0.370 OA
ATOM     28  H6  UNL     1      13.660  92.924  13.411  1.00  0.00     0.212 HD
ENDBRANCH  12  27
BRANCH   6  29
HETATM   29  O3  UNL     1      13.391  99.203  13.534  1.00  0.00    -0.352 OA
HETATM   30  C11 UNL     1      13.668  99.899  14.763  1.00  0.00     0.210 C 
ENDBRANCH   6  29
BRANCH   7  31
HETATM   31  O4  UNL     1      11.044  98.302  14.747  1.00  0.00    -0.351 OA
HETATM   32  C13 UNL     1       9.870  98.878  14.196  1.00  0.00     0.210 C 
ENDBRANCH   7  31
BRANCH   8  33
HETATM   33  O5  UNL     1      10.347  95.695  14.763  1.00  0.00    -0.352 OA
HETATM   34  C15 UNL     1       9.215  95.352  13.968  1.00  0.00     0.210 C 
ENDBRANCH   8  33
TORSDOF 7
ENDMDL
MODEL 2
REMARK VINA RESULT: -7.315878241      2.485      8.638
REMARK  7 active torsions:
REMARK  status: ('A' for Active; 'I' for Inactive)
REMARK    1  A    between atoms: O1_2  and  C2_3 
REMARK    2  A    between atoms: C5_7  and  C6_8 
REMARK    3  A    between atoms: C10_13  and  O3_14 
REMARK    4  A    between atoms: C12_16  and  O4_17 
REMARK    5  A    between atoms: C14_19  and  O5_20 
REMARK    6  A    between atoms: C19_25  and  O6_26 
REMARK    7  A    between atoms: C21_30  and  O7_31 
ROOT
HETATM    1  C6  UNL     1      15.310  95.882  10.097  1.00  0.00    -0.055 C 
HETATM    2  C7  UNL     1      16.475  94.984  10.232  1.00  0.00     0.119 C 
HETATM    3  C8  UNL     1      17.315  94.689   9.061  1.00  0.00     0.167 C 
HETATM    4  O2  UNL     1      18.186  93.825   9.337  1.00  0.00    -0.292 OA
HETATM    5  C9  UNL     1      17.345  95.168   7.687  1.00  0.00     0.057 A 
HETATM    6  C10 UNL     1      18.032  94.357   6.803  1.00  0.00     0.118 A 
HETATM    7  C12 UNL     1      18.015  94.682   5.454  1.00  0.00     0.136 A 
HETATM    8  C14 UNL     1      17.329  95.790   5.021  1.00  0.00     0.111 A 
HETATM    9  C16 UNL     1      16.635  96.629   5.863  1.00  0.00    -0.014 A 
HETATM   10  C17 UNL     1      15.912  97.815   5.354  1.00  0.00     0.052 C 
HETATM   11  C18 UNL     1      16.656  96.300   7.189  1.00  0.00     0.017 A 
HETATM   12  C19 UNL     1      15.944  97.204   8.075  1.00  0.00     0.167 C 
HETATM   13 CL2  UNL     1      17.153  97.617   9.381  1.00  0.00    -0.083 Cl
HETATM   14  C20 UNL     1      14.871  96.359   8.794  1.00  0.00     0.095 C 
ENDROOT
BRANCH   1  15
HETATM   15  C5  UNL     1      14.257  95.353  11.027  1.00  0.00     0.004 A 
HETATM   16  C4  UNL     1      13.900  93.994  10.915  1.00  0.00     0.041 A 
HETATM   17  C3  UNL     1      13.010  93.373  11.745  1.00  0.00     0.070 A 
HETATM   18  C2  UNL     1      12.431  94.111  12.749  1.00  0.00     0.114 A 
HETATM   19 CL1  UNL     1      12.620  91.659  11.525  1.00  0.00    -0.081 Cl
HETATM   20  C22 UNL     1      12.767  95.450  12.880  1.00  0.00     0.102 A 
HETATM   21  C21 UNL     1      13.679  96.079  12.022  1.00  0.00     0.100 A 
HETATM   22 CL3  UNL     1      12.043  96.412  14.147  1.00  0.00    -0.078 Cl
BRANCH  18  23
HETATM   23  O1  UNL     1      11.535  93.512  13.601  1.00  0.00    -0.352 OA
HETATM   24  C1  UNL     1      11.823  92.791  14.761  1.00  0.00     0.210 C 
ENDBRANCH  18  23
BRANCH  21  25
HETATM   25  O7  UNL     1      13.927  97.406  12.250  1.00  0.00    -0.358 OA
ATOM     26  H7  UNL     1      13.314  98.104  12.053  1.00  0.00     0.217 HD
ENDBRANCH  21  25
ENDBRANCH   1  15
BRANCH  12  27
HETATM   27  O6  UNL     1      15.539  98.411   7.672  1.00  0.00    -0.370 OA
ATOM     28  H6  UNL     1      14.876  98.900   8.145  1.00  0.00     0.212 HD
ENDBRANCH  12  27
BRANCH   6  29
HETATM   29  O3  UNL     1      18.744  93.236   7.228  1.00  0.00    -0.352 OA
HETATM   30  C11 UNL     1      18.371  91.904   6.827  1.00  0.00     0.210 C 
ENDBRANCH   6  29
BRANCH   7  31
HETATM   31  O4  UNL     1      18.667  93.931   4.526  1.00  0.00    -0.351 OA
HETATM   32  C13 UNL     1      20.032  94.040   4.157  1.00  0.00     0.210 C 
ENDBRANCH   7  31
BRANCH   8  33
HETATM   33  O5  UNL     1      17.325  96.098   3.640  1.00  0.00    -0.352 OA
HETATM   34  C15 UNL     1      16.650  95.234   2.729  1.00  0.00     0.210 C 
ENDBRANCH   8  33
TORSDOF 7
ENDMDL
MODEL 3
REMARK VINA RESULT: -7.199026596      2.335      4.496
REMARK  7 active torsions:
REMARK  status: ('A' for Active; 'I' for Inactive)
REMARK    1  A    between atoms: O1_2  and  C2_3 
REMARK    2  A    between atoms: C5_7  and  C6_8 
REMARK    3  A    between atoms: C10_13  and  O3_14 
REMARK    4  A    between atoms: C12_16  and  O4_17 
REMARK    5  A    between atoms: C14_19  and  O5_20 
REMARK    6  A    between atoms: C19_25  and  O6_26 
REMARK    7  A    between atoms: C21_30  and  O7_31 
ROOT
HETATM    1  C6  UNL     1      16.569  95.020   8.222  1.00  0.00    -0.055 C 
HETATM    2  C7  UNL     1      15.295  94.281   8.124  1.00  0.00     0.119 C 
HETATM    3  C8  UNL     1      14.365  94.266   9.264  1.00  0.00     0.167 C 
HETATM    4  O2  UNL     1      13.391  93.501   9.042  1.00  0.00    -0.292 OA
HETATM    5  C9  UNL     1      14.337  94.926  10.561  1.00  0.00     0.057 A 
HETATM    6  C10 UNL     1      13.497  94.345  11.492  1.00  0.00     0.118 A 
HETATM    7  C12 UNL     1      13.495  94.844  12.787  1.00  0.00     0.136 A 
HETATM    8  C14 UNL     1      14.314  95.894  13.121  1.00  0.00     0.111 A 
HETATM    9  C16 UNL     1      15.162  96.508  12.228  1.00  0.00    -0.014 A 
HETATM   10  C17 UNL     1      16.025  97.641  12.630  1.00  0.00     0.052 C 
HETATM   11  C18 UNL     1      15.158  96.009  10.956  1.00  0.00     0.017 A 
HETATM   12  C19 UNL     1      16.037  96.678  10.012  1.00  0.00     0.167 C 
HETATM   13 CL2  UNL     1      14.966  97.073   8.587  1.00  0.00    -0.083 Cl
HETATM   14  C20 UNL     1      17.009  95.604   9.481  1.00  0.00     0.095 C 
ENDROOT
BRANCH   1  15
HETATM   15  C5  UNL     1      17.578  94.230   7.441  1.00  0.00     0.004 A 
HETATM   16  C4  UNL     1      18.227  93.161   8.092  1.00  0.00     0.041 A 
HETATM   17  C3  UNL     1      19.111  92.322   7.474  1.00  0.00     0.070 A 
HETATM   18  C2  UNL     1      19.382  92.526   6.142  1.00  0.00     0.114 A 
HETATM   19 CL1  UNL     1      19.882  91.006   8.375  1.00  0.00    -0.081 Cl
HETATM   20  C22 UNL     1      18.756  93.571   5.480  1.00  0.00     0.102 A 
HETATM   21  C21 UNL     1      17.853  94.428   6.123  1.00  0.00     0.100 A 
HETATM   22 CL3  UNL     1      19.085  93.855   3.787  1.00  0.00    -0.078 Cl
BRANCH  18  23
HETATM   23  O1  UNL     1      20.265  91.696   5.494  1.00  0.00    -0.352 OA
HETATM   24  C1  UNL     1      19.998  90.440   4.948  1.00  0.00     0.210 C 
ENDBRANCH  18  23
BRANCH  21  25
HETATM   25  O7  UNL     1      17.301  95.425   5.364  1.00  0.00    -0.358 OA
ATOM     26  H7  UNL     1      17.060  95.328   4.450  1.00  0.00     0.217 HD
ENDBRANCH  21  25
ENDBRANCH   1  15
BRANCH  12  27
HETATM   27  O6  UNL     1      16.593  97.861  10.286  1.00  0.00    -0.370 OA
ATOM     28  H6  UNL     1      16.971  98.405   9.605  1.00  0.00     0.212 HD
ENDBRANCH  12  27
BRANCH   6  29
HETATM   29  O3  UNL     1      12.651  93.285  11.165  1.00  0.00    -0.352 OA
HETATM   30  C11 UNL     1      12.673  92.044  11.897  1.00  0.00     0.210 C 
ENDBRANCH   6  29
BRANCH   7  31
HETATM   31  O4  UNL     1      12.697  94.322  13.756  1.00  0.00    -0.351 OA
HETATM   32  C13 UNL     1      11.345  94.666  14.016  1.00  0.00     0.210 C 
ENDBRANCH   7  31
BRANCH   8  33
HETATM   33  O5  UNL     1      14.295  96.383  14.449  1.00  0.00    -0.352 OA
HETATM   34  C15 UNL     1      13.513  97.533  14.763  1.00  0.00     0.210 C 
ENDBRANCH   8  33
TORSDOF 7
ENDMDL
MODEL 4
REMARK VINA RESULT: -7.118339479     15.318     19.113
REMARK  7 active torsions:
REMARK  status: ('A' for Active; 'I' for Inactive)
REMARK    1  A    between atoms: O1_2  and  C2_3 
REMARK    2  A    between atoms: C5_7  and  C6_8 
REMARK    3  A    between atoms: C10_13  and  O3_14 
REMARK    4  A    between atoms: C12_16  and  O4_17 
REMARK    5  A    between atoms: C14_19  and  O5_20 
REMARK    6  A    between atoms: C19_25  and  O6_26 
REMARK    7  A    between atoms: C21_30  and  O7_31 
ROOT
HETATM    1  C6  UNL     1      18.155  88.355  -3.943  1.00  0.00    -0.055 C 
HETATM    2  C7  UNL     1      18.801  88.390  -5.270  1.00  0.00     0.119 C 
HETATM    3  C8  UNL     1      20.152  87.835  -5.444  1.00  0.00     0.167 C 
HETATM    4  O2  UNL     1      20.583  88.050  -6.606  1.00  0.00    -0.292 OA
HETATM    5  C9  UNL     1      21.073  87.114  -4.577  1.00  0.00     0.057 A 
HETATM    6  C10 UNL     1      22.390  87.116  -4.998  1.00  0.00     0.118 A 
HETATM    7  C12 UNL     1      23.351  86.547  -4.173  1.00  0.00     0.136 A 
HETATM    8  C14 UNL     1      22.986  85.997  -2.969  1.00  0.00     0.111 A 
HETATM    9  C16 UNL     1      21.689  85.967  -2.511  1.00  0.00    -0.014 A 
HETATM   10  C17 UNL     1      21.339  85.359  -1.208  1.00  0.00     0.052 C 
HETATM   11  C18 UNL     1      20.750  86.530  -3.329  1.00  0.00     0.017 A 
HETATM   12  C19 UNL     1      19.379  86.472  -2.851  1.00  0.00     0.167 C 
HETATM   13 CL2  UNL     1      18.437  85.757  -4.243  1.00  0.00    -0.083 Cl
HETATM   14  C20 UNL     1      18.885  87.931  -2.757  1.00  0.00     0.095 C 
ENDROOT
BRANCH   1  15
HETATM   15  C5  UNL     1      17.340  89.611  -3.835  1.00  0.00     0.004 A 
HETATM   16  C4  UNL     1      16.227  89.751  -4.690  1.00  0.00     0.041 A 
HETATM   17  C3  UNL     1      15.364  90.809  -4.644  1.00  0.00     0.070 A 
HETATM   18  C2  UNL     1      15.588  91.792  -3.710  1.00  0.00     0.114 A 
HETATM   19 CL1  UNL     1      13.993  90.901  -5.763  1.00  0.00    -0.081 Cl
HETATM   20  C22 UNL     1      16.675  91.677  -2.858  1.00  0.00     0.102 A 
HETATM   21  C21 UNL     1      17.556  90.589  -2.914  1.00  0.00     0.100 A 
HETATM   22 CL3  UNL     1      16.984  92.916  -1.664  1.00  0.00    -0.078 Cl
BRANCH  18  23
HETATM   23  O1  UNL     1      14.734  92.867  -3.639  1.00  0.00    -0.352 OA
HETATM   24  C1  UNL     1      14.847  94.082  -4.317  1.00  0.00     0.210 C 
ENDBRANCH  18  23
BRANCH  21  25
HETATM   25  O7  UNL     1      18.595  90.589  -2.022  1.00  0.00    -0.358 OA
ATOM     26  H7  UNL     1      18.832  91.332  -1.479  1.00  0.00     0.217 HD
ENDBRANCH  21  25
ENDBRANCH   1  15
BRANCH  12  27
HETATM   27  O6  UNL     1      19.022  85.686  -1.833  1.00  0.00    -0.370 OA
ATOM     28  H6  UNL     1      18.569  86.029  -1.072  1.00  0.00     0.212 HD
ENDBRANCH  12  27
BRANCH   6  29
HETATM   29  O3  UNL     1      22.775  87.661  -6.223  1.00  0.00    -0.352 OA
HETATM   30  C11 UNL     1      23.213  86.833  -7.316  1.00  0.00     0.210 C 
ENDBRANCH   6  29
BRANCH   7  31
HETATM   31  O4  UNL     1      24.665  86.514  -4.519  1.00  0.00    -0.351 OA
HETATM   32  C13 UNL     1      25.413  85.368  -4.894  1.00  0.00     0.210 C 
ENDBRANCH   7  31
BRANCH   8  33
HETATM   33  O5  UNL     1      23.985  85.426  -2.145  1.00  0.00    -0.352 OA
HETATM   34  C15 UNL     1      24.779  86.271  -1.316  1.00  0.00     0.210 C 
ENDBRANCH   8  33
TORSDOF 7
ENDMDL
MODEL 5
REMARK VINA RESULT: -6.806656983     15.216     19.794
REMARK  7 active torsions:
REMARK  status: ('A' for Active; 'I' for Inactive)
REMARK    1  A    between atoms: O1_2  and  C2_3 
REMARK    2  A    between atoms: C5_7  and  C6_8 
REMARK    3  A    between atoms: C10_13  and  O3_14 
REMARK    4  A    between atoms: C12_16  and  O4_17 
REMARK    5  A    between atoms: C14_19  and  O5_20 
REMARK    6  A    between atoms: C19_25  and  O6_26 
REMARK    7  A    between atoms: C21_30  and  O7_31 
ROOT
HETATM    1  C6  UNL     1      18.329  88.498  -3.830  1.00  0.00    -0.055 C 
HETATM    2  C7  UNL     1      18.195  87.973  -5.204  1.00  0.00     0.119 C 
HETATM    3  C8  UNL     1      19.363  87.395  -5.886  1.00  0.00     0.167 C 
HETATM    4  O2  UNL     1      19.090  87.103  -7.079  1.00  0.00    -0.292 OA
HETATM    5  C9  UNL     1      20.732  87.104  -5.486  1.00  0.00     0.057 A 
HETATM    6  C10 UNL     1      21.619  86.928  -6.531  1.00  0.00     0.118 A 
HETATM    7  C12 UNL     1      22.965  86.758  -6.237  1.00  0.00     0.136 A 
HETATM    8  C14 UNL     1      23.391  86.763  -4.931  1.00  0.00     0.111 A 
HETATM    9  C16 UNL     1      22.545  86.928  -3.859  1.00  0.00    -0.014 A 
HETATM   10  C17 UNL     1      23.046  86.923  -2.467  1.00  0.00     0.052 C 
HETATM   11  C18 UNL     1      21.222  87.097  -4.158  1.00  0.00     0.017 A 
HETATM   12  C19 UNL     1      20.331  87.245  -3.020  1.00  0.00     0.167 C 
HETATM   13 CL2  UNL     1      19.013  86.013  -3.304  1.00  0.00    -0.083 Cl
HETATM   14  C20 UNL     1      19.630  88.609  -3.187  1.00  0.00     0.095 C 
ENDROOT
BRANCH   1  15
HETATM   15  C5  UNL     1      17.413  89.683  -3.739  1.00  0.00     0.004 A 
HETATM   16  C4  UNL     1      16.319  89.742  -4.626  1.00  0.00     0.041 A 
HETATM   17  C3  UNL     1      15.373  90.728  -4.599  1.00  0.00     0.070 A 
HETATM   18  C2  UNL     1      15.489  91.717  -3.652  1.00  0.00     0.114 A 
HETATM   19 CL1  UNL     1      14.034  90.721  -5.759  1.00  0.00    -0.081 Cl
HETATM   20  C22 UNL     1      16.556  91.680  -2.767  1.00  0.00     0.102 A 
HETATM   21  C21 UNL     1      17.522  90.667  -2.804  1.00  0.00     0.100 A 
HETATM   22 CL3  UNL     1      16.728  92.928  -1.555  1.00  0.00    -0.078 Cl
BRANCH  18  23
HETATM   23  O1  UNL     1      14.550  92.719  -3.599  1.00  0.00    -0.352 OA
HETATM   24  C1  UNL     1      14.581  93.941  -4.272  1.00  0.00     0.210 C 
ENDBRANCH  18  23
BRANCH  21  25
HETATM   25  O7  UNL     1      18.530  90.740  -1.881  1.00  0.00    -0.358 OA
ATOM     26  H7  UNL     1      18.697  90.078  -1.220  1.00  0.00     0.217 HD
ENDBRANCH  21  25
ENDBRANCH   1  15
BRANCH  12  27
HETATM   27  O6  UNL     1      20.724  86.959  -1.777  1.00  0.00    -0.370 OA
ATOM     28  H6  UNL     1      21.458  86.381  -1.605  1.00  0.00     0.212 HD
ENDBRANCH  12  27
BRANCH   6  29
HETATM   29  O3  UNL     1      21.201  86.909  -7.861  1.00  0.00    -0.352 OA
HETATM   30  C11 UNL     1      21.108  85.682  -8.609  1.00  0.00     0.210 C 
ENDBRANCH   6  29
BRANCH   7  31
HETATM   31  O4  UNL     1      23.896  86.581  -7.212  1.00  0.00    -0.351 OA
HETATM   32  C13 UNL     1      24.344  85.343  -7.741  1.00  0.00     0.210 C 
ENDBRANCH   7  31
BRANCH   8  33
HETATM   33  O5  UNL     1      24.768  86.589  -4.658  1.00  0.00    -0.352 OA
HETATM   34  C15 UNL     1      25.260  85.293  -4.325  1.00  0.00     0.210 C 
ENDBRANCH   8  33
TORSDOF 7
ENDMDL
