MODEL 1
REMARK VINA RESULT: -9.887587208      0.000      0.000
REMARK  8 active torsions:
REMARK  status: ('A' for Active; 'I' for Inactive)
REMARK    1  A    between atoms: C4_4  and  S1_5 
REMARK    2  A    between atoms: S1_5  and  N1_6 
REMARK    3  A    between atoms: N1_6  and  C5_8 
REMARK    4  A    between atoms: C6_11  and  C7_12 
REMARK    5  A    between atoms: C11_16  and  C12_17 
REMARK    6  A    between atoms: C12_17  and  N3_18 
REMARK    7  A    between atoms: N4_20  and  N5_22 
REMARK    8  A    between atoms: N6_25  and  O1_27 
ROOT
HETATM    1  C1  UNL     1      19.144  93.045   5.948  1.00  0.00     0.050 C 
HETATM    2  C2  UNL     1      18.196  94.011   6.550  1.00  0.00    -0.038 A 
HETATM    3  C3  UNL     1      17.509  94.935   5.750  1.00  0.00     0.030 A 
HETATM    4  C4  UNL     1      16.639  95.834   6.263  1.00  0.00     0.045 A 
HETATM    5  C14 UNL     1      16.411  95.845   7.623  1.00  0.00     0.075 A 
HETATM    6 CL2  UNL     1      15.286  97.030   8.288  1.00  0.00    -0.081 Cl
HETATM    7  C15 UNL     1      17.069  94.953   8.422  1.00  0.00     0.078 A 
HETATM    8 CL3  UNL     1      16.796  94.968  10.168  1.00  0.00    -0.081 Cl
HETATM    9  C16 UNL     1      17.966  94.025   7.918  1.00  0.00     0.074 A 
HETATM   10  C17 UNL     1      18.657  93.105   8.771  1.00  0.00     0.102 C 
HETATM   11  N7  UNL     1      19.227  92.379   9.465  1.00  0.00    -0.191 NA
ENDROOT
BRANCH   4  12
HETATM   12  S1  UNL     1      15.849  97.080   5.239  1.00  0.00    -0.011 SA
BRANCH  12  13
HETATM   13  N1  UNL     1      16.974  97.399   3.902  1.00  0.00    -0.306 N 
ATOM     14  H1  UNL     1      17.165  98.353   3.595  1.00  0.00     0.176 HD
BRANCH  13  15
HETATM   15  C5  UNL     1      17.552  96.379   3.324  1.00  0.00     0.156 A 
HETATM   16  N2  UNL     1      18.855  96.075   3.319  1.00  0.00    -0.338 N 
HETATM   17  C6  UNL     1      19.263  95.013   2.682  1.00  0.00     0.037 A 
ATOM     18  H2  UNL     1      19.523  96.668   3.810  1.00  0.00     0.168 HD
HETATM   19  C11 UNL     1      18.264  94.264   2.033  1.00  0.00     0.078 A 
HETATM   20  S2  UNL     1      16.855  95.138   2.396  1.00  0.00    -0.048 SA
BRANCH  17  21
HETATM   21  C7  UNL     1      20.712  94.626   2.475  1.00  0.00     0.041 A 
HETATM   22  C8  UNL     1      21.852  95.503   2.244  1.00  0.00     0.016 A 
HETATM   23  C9  UNL     1      21.157  95.064   1.052  1.00  0.00    -0.008 A 
HETATM   24  C10 UNL     1      21.621  94.011   0.109  1.00  0.00     0.011 C 
ENDBRANCH  17  21
BRANCH  19  25
HETATM   25  C12 UNL     1      18.391  92.991   1.299  1.00  0.00     0.160 C 
HETATM   26  N6  UNL     1      19.112  92.102   1.854  1.00  0.00    -0.251 N 
ATOM     27  H6  UNL     1      19.502  92.410   2.744  1.00  0.00     0.196 HD
BRANCH  25  28
HETATM   28  N3  UNL     1      17.780  92.732   0.061  1.00  0.00    -0.268 N 
HETATM   29  N4  UNL     1      18.308  92.004  -0.846  1.00  0.00    -0.229 N 
ATOM     30  H4  UNL     1      19.218  91.559  -0.722  1.00  0.00     0.209 HD
ATOM     31  H3  UNL     1      16.866  93.147  -0.123  1.00  0.00     0.190 HD
BRANCH  29  32
HETATM   32  N5  UNL     1      17.555  91.855  -2.028  1.00  0.00    -0.223 N 
HETATM   33  C13 UNL     1      16.394  92.686  -2.191  1.00  0.00     0.195 C 
HETATM   34 CL1  UNL     1      17.978  90.704  -3.261  1.00  0.00     0.031 Cl
ENDBRANCH  29  32
ENDBRANCH  25  28
BRANCH  26  35
HETATM   35  O1  UNL     1      19.468  90.874   1.538  1.00  0.00    -0.288 OA
ATOM     36  H1  UNL     1      19.770  90.121   2.033  1.00  0.00     0.244 HD
ENDBRANCH  26  35
ENDBRANCH  19  25
ENDBRANCH  13  15
ENDBRANCH  12  13
ENDBRANCH   4  12
TORSDOF 8
ENDMDL
MODEL 2
REMARK VINA RESULT: -9.542748799      5.604      9.979
REMARK  8 active torsions:
REMARK  status: ('A' for Active; 'I' for Inactive)
REMARK    1  A    between atoms: C4_4  and  S1_5 
REMARK    2  A    between atoms: S1_5  and  N1_6 
REMARK    3  A    between atoms: N1_6  and  C5_8 
REMARK    4  A    between atoms: C6_11  and  C7_12 
REMARK    5  A    between atoms: C11_16  and  C12_17 
REMARK    6  A    between atoms: C12_17  and  N3_18 
REMARK    7  A    between atoms: N4_20  and  N5_22 
REMARK    8  A    between atoms: N6_25  and  O1_27 
ROOT
HETATM    1  C1  UNL     1      18.879  92.165   8.449  1.00  0.00     0.050 C 
HETATM    2  C2  UNL     1      18.471  93.180   7.448  1.00  0.00    -0.038 A 
HETATM    3  C3  UNL     1      17.624  94.238   7.806  1.00  0.00     0.030 A 
HETATM    4  C4  UNL     1      17.227  95.181   6.920  1.00  0.00     0.045 A 
HETATM    5  C14 UNL     1      17.673  95.106   5.618  1.00  0.00     0.075 A 
HETATM    6 CL2  UNL     1      17.140  96.329   4.464  1.00  0.00    -0.081 Cl
HETATM    7  C15 UNL     1      18.500  94.083   5.248  1.00  0.00     0.078 A 
HETATM    8 CL3  UNL     1      19.066  93.969   3.578  1.00  0.00    -0.081 Cl
HETATM    9  C16 UNL     1      18.917  93.106   6.137  1.00  0.00     0.074 A 
HETATM   10  C17 UNL     1      19.774  92.033   5.730  1.00  0.00     0.102 C 
HETATM   11  N7  UNL     1      20.450  91.159   5.392  1.00  0.00    -0.191 NA
ENDROOT
BRANCH   4  12
HETATM   12  S1  UNL     1      16.057  96.468   7.367  1.00  0.00    -0.011 SA
BRANCH  12  13
HETATM   13  N1  UNL     1      16.424  96.900   9.050  1.00  0.00    -0.306 N 
ATOM     14  H1  UNL     1      17.127  97.606   9.268  1.00  0.00     0.176 HD
BRANCH  13  15
HETATM   15  C5  UNL     1      15.769  96.288  10.003  1.00  0.00     0.156 A 
HETATM   16  N2  UNL     1      15.977  96.376  11.321  1.00  0.00    -0.338 N 
HETATM   17  C6  UNL     1      15.227  95.687  12.136  1.00  0.00     0.037 A 
ATOM     18  H2  UNL     1      16.715  96.977  11.686  1.00  0.00     0.168 HD
HETATM   19  C11 UNL     1      14.241  94.885  11.532  1.00  0.00     0.078 A 
HETATM   20  S2  UNL     1      14.476  95.193   9.880  1.00  0.00    -0.048 SA
BRANCH  17  21
HETATM   21  C7  UNL     1      15.437  95.580  13.631  1.00  0.00     0.041 A 
HETATM   22  C8  UNL     1      16.671  95.769  14.381  1.00  0.00     0.016 A 
HETATM   23  C9  UNL     1      16.424  94.417  13.925  1.00  0.00    -0.008 A 
HETATM   24  C10 UNL     1      15.944  93.286  14.763  1.00  0.00     0.011 C 
ENDBRANCH  17  21
BRANCH  19  25
HETATM   25  C12 UNL     1      13.203  94.055  12.173  1.00  0.00     0.160 C 
HETATM   26  N6  UNL     1      12.166  94.675  12.570  1.00  0.00    -0.251 N 
ATOM     27  H6  UNL     1      12.208  95.676  12.380  1.00  0.00     0.196 HD
BRANCH  25  28
HETATM   28  N3  UNL     1      13.311  92.667  12.361  1.00  0.00    -0.268 N 
HETATM   29  N4  UNL     1      12.335  91.858  12.202  1.00  0.00    -0.229 N 
ATOM     30  H4  UNL     1      11.407  92.176  11.924  1.00  0.00     0.209 HD
ATOM     31  H3  UNL     1      14.215  92.285  12.638  1.00  0.00     0.190 HD
BRANCH  29  32
HETATM   32  N5  UNL     1      12.622  90.498  12.436  1.00  0.00    -0.223 N 
HETATM   33  C13 UNL     1      12.966  90.108  13.776  1.00  0.00     0.195 C 
HETATM   34 CL1  UNL     1      12.586  89.308  11.169  1.00  0.00     0.031 Cl
ENDBRANCH  29  32
ENDBRANCH  25  28
BRANCH  26  35
HETATM   35  O1  UNL     1      11.050  94.316  13.170  1.00  0.00    -0.288 OA
ATOM     36  H1  UNL     1      10.675  94.476  14.028  1.00  0.00     0.244 HD
ENDBRANCH  26  35
ENDBRANCH  19  25
ENDBRANCH  13  15
ENDBRANCH  12  13
ENDBRANCH   4  12
TORSDOF 8
ENDMDL
MODEL 3
REMARK VINA RESULT: -9.436228283      4.476      6.197
REMARK  8 active torsions:
REMARK  status: ('A' for Active; 'I' for Inactive)
REMARK    1  A    between atoms: C4_4  and  S1_5 
REMARK    2  A    between atoms: S1_5  and  N1_6 
REMARK    3  A    between atoms: N1_6  and  C5_8 
REMARK    4  A    between atoms: C6_11  and  C7_12 
REMARK    5  A    between atoms: C11_16  and  C12_17 
REMARK    6  A    between atoms: C12_17  and  N3_18 
REMARK    7  A    between atoms: N4_20  and  N5_22 
REMARK    8  A    between atoms: N6_25  and  O1_27 
ROOT
HETATM    1  C1  UNL     1      12.635  92.455  12.046  1.00  0.00     0.050 C 
HETATM    2  C2  UNL     1      13.074  93.866  12.152  1.00  0.00    -0.038 A 
HETATM    3  C3  UNL     1      14.058  94.377  11.295  1.00  0.00     0.030 A 
HETATM    4  C4  UNL     1      14.487  95.658  11.364  1.00  0.00     0.045 A 
HETATM    5  C14 UNL     1      13.937  96.498  12.309  1.00  0.00     0.075 A 
HETATM    6 CL2  UNL     1      14.511  98.163  12.404  1.00  0.00    -0.081 Cl
HETATM    7  C15 UNL     1      12.975  96.022  13.154  1.00  0.00     0.078 A 
HETATM    8 CL3  UNL     1      12.273  97.086  14.377  1.00  0.00    -0.081 Cl
HETATM    9  C16 UNL     1      12.523  94.713  13.102  1.00  0.00     0.074 A 
HETATM   10  C17 UNL     1      11.523  94.226  14.005  1.00  0.00     0.102 C 
HETATM   11  N7  UNL     1      10.731  93.832  14.747  1.00  0.00    -0.191 NA
ENDROOT
BRANCH   4  12
HETATM   12  S1  UNL     1      15.824  96.267  10.331  1.00  0.00    -0.011 SA
BRANCH  12  13
HETATM   13  N1  UNL     1      15.363  95.884   8.659  1.00  0.00    -0.306 N 
ATOM     14  H1  UNL     1      14.395  95.975   8.348  1.00  0.00     0.176 HD
BRANCH  13  15
HETATM   15  C5  UNL     1      16.297  95.483   7.836  1.00  0.00     0.156 A 
HETATM   16  N2  UNL     1      16.998  94.345   7.892  1.00  0.00    -0.338 N 
HETATM   17  C6  UNL     1      17.903  94.104   6.985  1.00  0.00     0.037 A 
ATOM     18  H2  UNL     1      16.825  93.670   8.637  1.00  0.00     0.168 HD
HETATM   19  C11 UNL     1      18.068  95.100   6.004  1.00  0.00     0.078 A 
HETATM   20  S2  UNL     1      16.924  96.265   6.465  1.00  0.00    -0.048 SA
BRANCH  17  21
HETATM   21  C7  UNL     1      18.863  92.933   7.002  1.00  0.00     0.041 A 
HETATM   22  C8  UNL     1      18.546  91.512   6.950  1.00  0.00     0.016 A 
HETATM   23  C9  UNL     1      18.607  92.085   8.279  1.00  0.00    -0.008 A 
HETATM   24  C10 UNL     1      19.725  91.925   9.247  1.00  0.00     0.011 C 
ENDBRANCH  17  21
BRANCH  19  25
HETATM   25  C12 UNL     1      18.948  95.094   4.819  1.00  0.00     0.160 C 
HETATM   26  N6  UNL     1      20.039  95.736   4.937  1.00  0.00    -0.251 N 
ATOM     27  H6  UNL     1      20.145  96.168   5.854  1.00  0.00     0.196 HD
BRANCH  25  28
HETATM   28  N3  UNL     1      18.639  94.441   3.614  1.00  0.00    -0.268 N 
HETATM   29  N4  UNL     1      18.816  94.967   2.464  1.00  0.00    -0.229 N 
ATOM     30  H4  UNL     1      19.199  95.905   2.350  1.00  0.00     0.209 HD
ATOM     31  H3  UNL     1      18.254  93.497   3.661  1.00  0.00     0.190 HD
BRANCH  29  32
HETATM   32  N5  UNL     1      18.448  94.169   1.362  1.00  0.00    -0.223 N 
HETATM   33  C13 UNL     1      19.501  93.570   0.588  1.00  0.00     0.195 C 
HETATM   34 CL1  UNL     1      16.787  93.907   0.916  1.00  0.00     0.031 Cl
ENDBRANCH  29  32
ENDBRANCH  25  28
BRANCH  26  35
HETATM   35  O1  UNL     1      21.062  95.969   4.141  1.00  0.00    -0.288 OA
ATOM     36  H1  UNL     1      21.282  96.657   3.524  1.00  0.00     0.244 HD
ENDBRANCH  26  35
ENDBRANCH  19  25
ENDBRANCH  13  15
ENDBRANCH  12  13
ENDBRANCH   4  12
TORSDOF 8
ENDMDL
MODEL 4
REMARK VINA RESULT: -9.274685525      4.640      6.570
REMARK  8 active torsions:
REMARK  status: ('A' for Active; 'I' for Inactive)
REMARK    1  A    between atoms: C4_4  and  S1_5 
REMARK    2  A    between atoms: S1_5  and  N1_6 
REMARK    3  A    between atoms: N1_6  and  C5_8 
REMARK    4  A    between atoms: C6_11  and  C7_12 
REMARK    5  A    between atoms: C11_16  and  C12_17 
REMARK    6  A    between atoms: C12_17  and  N3_18 
REMARK    7  A    between atoms: N4_20  and  N5_22 
REMARK    8  A    between atoms: N6_25  and  O1_27 
ROOT
HETATM    1  C1  UNL     1      12.723  92.643  12.141  1.00  0.00     0.050 C 
HETATM    2  C2  UNL     1      13.068  94.076  12.290  1.00  0.00    -0.038 A 
HETATM    3  C3  UNL     1      14.109  94.644  11.541  1.00  0.00     0.030 A 
HETATM    4  C4  UNL     1      14.455  95.946  11.652  1.00  0.00     0.045 A 
HETATM    5  C14 UNL     1      13.760  96.752  12.528  1.00  0.00     0.075 A 
HETATM    6 CL2  UNL     1      14.227  98.446  12.679  1.00  0.00    -0.081 Cl
HETATM    7  C15 UNL     1      12.741  96.220  13.267  1.00  0.00     0.078 A 
HETATM    8 CL3  UNL     1      11.854  97.240  14.404  1.00  0.00    -0.081 Cl
HETATM    9  C16 UNL     1      12.371  94.889  13.172  1.00  0.00     0.074 A 
HETATM   10  C17 UNL     1      11.309  94.344  13.963  1.00  0.00     0.102 C 
HETATM   11  N7  UNL     1      10.465  93.904  14.617  1.00  0.00    -0.191 NA
ENDROOT
BRANCH   4  12
HETATM   12  S1  UNL     1      15.859  96.632  10.766  1.00  0.00    -0.011 SA
BRANCH  12  13
HETATM   13  N1  UNL     1      15.282  96.967   9.120  1.00  0.00    -0.306 N 
ATOM     14  H1  UNL     1      14.444  97.528   8.962  1.00  0.00     0.176 HD
BRANCH  13  15
HETATM   15  C5  UNL     1      15.961  96.477   8.115  1.00  0.00     0.156 A 
HETATM   16  N2  UNL     1      16.768  95.411   8.120  1.00  0.00    -0.338 N 
HETATM   17  C6  UNL     1      17.376  95.062   7.020  1.00  0.00     0.037 A 
ATOM     18  H2  UNL     1      16.908  94.875   8.977  1.00  0.00     0.168 HD
HETATM   19  C11 UNL     1      17.121  95.869   5.896  1.00  0.00     0.078 A 
HETATM   20  S2  UNL     1      16.048  97.030   6.511  1.00  0.00    -0.048 SA
BRANCH  17  21
HETATM   21  C7  UNL     1      18.420  93.971   6.912  1.00  0.00     0.041 A 
HETATM   22  C8  UNL     1      18.213  92.551   6.661  1.00  0.00     0.016 A 
HETATM   23  C9  UNL     1      18.201  92.941   8.055  1.00  0.00    -0.008 A 
HETATM   24  C10 UNL     1      19.305  92.733   9.029  1.00  0.00     0.011 C 
ENDBRANCH  17  21
BRANCH  19  25
HETATM   25  C12 UNL     1      17.593  95.697   4.508  1.00  0.00     0.160 C 
HETATM   26  N6  UNL     1      16.687  95.519   3.634  1.00  0.00    -0.251 N 
ATOM     27  H6  UNL     1      15.748  95.522   4.032  1.00  0.00     0.196 HD
BRANCH  25  28
HETATM   28  N3  UNL     1      18.946  95.716   4.130  1.00  0.00    -0.268 N 
HETATM   29  N4  UNL     1      19.380  95.198   3.046  1.00  0.00    -0.229 N 
ATOM     30  H4  UNL     1      18.761  94.735   2.380  1.00  0.00     0.209 HD
ATOM     31  H3  UNL     1      19.616  96.167   4.753  1.00  0.00     0.190 HD
BRANCH  29  32
HETATM   32  N5  UNL     1      20.768  95.306   2.828  1.00  0.00    -0.223 N 
HETATM   33  C13 UNL     1      21.585  95.751   3.924  1.00  0.00     0.195 C 
HETATM   34 CL1  UNL     1      21.501  94.936   1.295  1.00  0.00     0.031 Cl
ENDBRANCH  29  32
ENDBRANCH  25  28
BRANCH  26  35
HETATM   35  O1  UNL     1      16.688  95.331   2.330  1.00  0.00    -0.288 OA
ATOM     36  H1  UNL     1      16.314  95.796   1.591  1.00  0.00     0.244 HD
ENDBRANCH  26  35
ENDBRANCH  19  25
ENDBRANCH  13  15
ENDBRANCH  12  13
ENDBRANCH   4  12
TORSDOF 8
ENDMDL
MODEL 5
REMARK VINA RESULT: -8.922747048      4.541      6.268
REMARK  8 active torsions:
REMARK  status: ('A' for Active; 'I' for Inactive)
REMARK    1  A    between atoms: C4_4  and  S1_5 
REMARK    2  A    between atoms: S1_5  and  N1_6 
REMARK    3  A    between atoms: N1_6  and  C5_8 
REMARK    4  A    between atoms: C6_11  and  C7_12 
REMARK    5  A    between atoms: C11_16  and  C12_17 
REMARK    6  A    between atoms: C12_17  and  N3_18 
REMARK    7  A    between atoms: N4_20  and  N5_22 
REMARK    8  A    between atoms: N6_25  and  O1_27 
ROOT
HETATM    1  C1  UNL     1      11.795  93.700  12.468  1.00  0.00     0.050 C 
HETATM    2  C2  UNL     1      12.837  94.753  12.435  1.00  0.00    -0.038 A 
HETATM    3  C3  UNL     1      13.971  94.613  11.623  1.00  0.00     0.030 A 
HETATM    4  C4  UNL     1      14.946  95.550  11.569  1.00  0.00     0.045 A 
HETATM    5  C14 UNL     1      14.822  96.689  12.337  1.00  0.00     0.075 A 
HETATM    6 CL2  UNL     1      16.103  97.900  12.274  1.00  0.00    -0.081 Cl
HETATM    7  C15 UNL     1      13.725  96.846  13.135  1.00  0.00     0.078 A 
HETATM    8 CL3  UNL     1      13.564  98.295  14.134  1.00  0.00    -0.081 Cl
HETATM    9  C16 UNL     1      12.717  95.899  13.207  1.00  0.00     0.074 A 
HETATM   10  C17 UNL     1      11.579  96.073  14.059  1.00  0.00     0.102 C 
HETATM   11  N7  UNL     1      10.673  96.209  14.763  1.00  0.00    -0.191 NA
ENDROOT
BRANCH   4  12
HETATM   12  S1  UNL     1      16.442  95.307  10.606  1.00  0.00    -0.011 SA
BRANCH  12  13
HETATM   13  N1  UNL     1      15.925  95.241   8.908  1.00  0.00    -0.306 N 
ATOM     14  H1  UNL     1      14.956  95.426   8.648  1.00  0.00     0.176 HD
BRANCH  13  15
HETATM   15  C5  UNL     1      16.820  94.949   8.000  1.00  0.00     0.156 A 
HETATM   16  N2  UNL     1      17.519  93.815   7.880  1.00  0.00    -0.338 N 
HETATM   17  C6  UNL     1      18.382  93.693   6.910  1.00  0.00     0.037 A 
ATOM     18  H2  UNL     1      17.378  93.051   8.541  1.00  0.00     0.168 HD
HETATM   19  C11 UNL     1      18.506  94.805   6.056  1.00  0.00     0.078 A 
HETATM   20  S2  UNL     1      17.387  95.900   6.712  1.00  0.00    -0.048 SA
BRANCH  17  21
HETATM   21  C7  UNL     1      19.338  92.532   6.736  1.00  0.00     0.041 A 
HETATM   22  C8  UNL     1      19.201  91.382   5.851  1.00  0.00     0.016 A 
HETATM   23  C9  UNL     1      18.627  91.219   7.171  1.00  0.00    -0.008 A 
HETATM   24  C10 UNL     1      19.221  90.442   8.291  1.00  0.00     0.011 C 
ENDBRANCH  17  21
BRANCH  19  25
HETATM   25  C12 UNL     1      19.331  94.951   4.842  1.00  0.00     0.160 C 
HETATM   26  N6  UNL     1      20.388  95.646   4.972  1.00  0.00    -0.251 N 
ATOM     27  H6  UNL     1      20.510  96.006   5.918  1.00  0.00     0.196 HD
BRANCH  25  28
HETATM   28  N3  UNL     1      19.008  94.383   3.598  1.00  0.00    -0.268 N 
HETATM   29  N4  UNL     1      19.005  95.041   2.504  1.00  0.00    -0.229 N 
ATOM     30  H4  UNL     1      19.243  96.033   2.467  1.00  0.00     0.209 HD
ATOM     31  H3  UNL     1      18.763  93.393   3.568  1.00  0.00     0.190 HD
BRANCH  29  32
HETATM   32  N5  UNL     1      18.652  94.312   1.351  1.00  0.00    -0.223 N 
HETATM   33  C13 UNL     1      19.712  93.714   0.586  1.00  0.00     0.195 C 
HETATM   34 CL1  UNL     1      17.002  94.131   0.833  1.00  0.00     0.031 Cl
ENDBRANCH  29  32
ENDBRANCH  25  28
BRANCH  26  35
HETATM   35  O1  UNL     1      21.361  96.006   4.159  1.00  0.00    -0.288 OA
ATOM     36  H1  UNL     1      21.910  96.777   4.080  1.00  0.00     0.244 HD
ENDBRANCH  26  35
ENDBRANCH  19  25
ENDBRANCH  13  15
ENDBRANCH  12  13
ENDBRANCH   4  12
TORSDOF 8
ENDMDL
