MODEL 1
REMARK VINA RESULT: -6.711086434      0.000      0.000
REMARK  6 active torsions:
REMARK  status: ('A' for Active; 'I' for Inactive)
REMARK    1  A    between atoms: O1_1  and  C1_3 
REMARK    2  A    between atoms: C4_6  and  O2_7 
REMARK    3  A    between atoms: N1_9  and  C5_10 
REMARK    4  A    between atoms: C5_10  and  O3_11 
REMARK    5  A    between atoms: O3_11  and  C6_12 
REMARK    6  A    between atoms: C6_12  and  C7_13 
ROOT
HETATM    1  C1  UNL     1      -4.368   4.855 111.110  1.00  0.00     0.156 A 
HETATM    2  C2  UNL     1      -3.552   5.896 111.545  1.00  0.00     0.045 A 
HETATM    3  C3  UNL     1      -4.114   7.105 111.113  1.00  0.00     0.047 A 
HETATM    4  C4  UNL     1      -5.260   6.745 110.427  1.00  0.00     0.156 A 
HETATM    5  N1  UNL     1      -5.383   5.407 110.443  1.00  0.00    -0.285 N 
HETATM    6  C8  UNL     1      -3.196   8.191 111.603  1.00  0.00     0.138 C 
HETATM    7  O4  UNL     1      -2.680   7.561 112.745  1.00  0.00    -0.348 OA
HETATM    8  C9  UNL     1      -2.341   6.270 112.267  1.00  0.00     0.223 C 
HETATM    9  S1  UNL     1      -1.119   6.838 111.009  1.00  0.00    -0.123 SA
HETATM   10  C10 UNL     1      -2.130   8.326 110.585  1.00  0.00     0.104 C 
HETATM   11  C11 UNL     1      -1.236   9.504 110.663  1.00  0.00     0.098 C 
HETATM   12  S2  UNL     1      -2.344  10.937 110.306  1.00  0.00    -0.128 SA
HETATM   13  C12 UNL     1      -3.699  10.653 111.439  1.00  0.00     0.012 A 
HETATM   14  C13 UNL     1      -4.457  11.731 111.796  1.00  0.00     0.021 A 
HETATM   15  C14 UNL     1      -5.503  11.606 112.669  1.00  0.00     0.022 A 
HETATM   16  C15 UNL     1      -5.779  10.358 113.183  1.00  0.00     0.033 A 
HETATM   17 BR1  UNL     1      -7.247  10.191 114.406  1.00  0.00    -0.049 Br
HETATM   18  C16 UNL     1      -5.006   9.266 112.817  1.00  0.00     0.062 A 
HETATM   19 CL2  UNL     1      -5.465   7.742 113.563  1.00  0.00    -0.082 Cl
HETATM   20  C17 UNL     1      -3.954   9.407 111.937  1.00  0.00     0.022 A 
ENDROOT
BRANCH   5  21
HETATM   21  C5  UNL     1      -6.470   4.632 109.822  1.00  0.00     0.303 C 
BRANCH  21  22
HETATM   22  O3  UNL     1      -5.932   3.503 109.282  1.00  0.00    -0.370 OA
BRANCH  22  23
HETATM   23  C6  UNL     1      -5.627   3.493 107.963  1.00  0.00     0.185 C 
BRANCH  23  24
HETATM   24  C7  UNL     1      -4.182   3.121 107.757  1.00  0.00     0.141 C 
HETATM   25 CL1  UNL     1      -3.787   3.220 106.026  1.00  0.00    -0.128 Cl
ENDBRANCH  23  24
ENDBRANCH  22  23
ENDBRANCH  21  22
ENDBRANCH   5  21
BRANCH   1  26
HETATM   26  O1  UNL     1      -4.152   3.500 111.338  1.00  0.00    -0.345 OA
ATOM     27  H1  UNL     1      -3.669   2.912 110.770  1.00  0.00     0.219 HD
ENDBRANCH   1  26
BRANCH   4  28
HETATM   28  O2  UNL     1      -6.127   7.646 109.826  1.00  0.00    -0.345 OA
ATOM     29  H2  UNL     1      -6.954   7.407 109.426  1.00  0.00     0.219 HD
ENDBRANCH   4  28
TORSDOF 6
ENDMDL
MODEL 2
REMARK VINA RESULT: -6.603314468      0.939      1.019
REMARK  6 active torsions:
REMARK  status: ('A' for Active; 'I' for Inactive)
REMARK    1  A    between atoms: O1_1  and  C1_3 
REMARK    2  A    between atoms: C4_6  and  O2_7 
REMARK    3  A    between atoms: N1_9  and  C5_10 
REMARK    4  A    between atoms: C5_10  and  O3_11 
REMARK    5  A    between atoms: O3_11  and  C6_12 
REMARK    6  A    between atoms: C6_12  and  C7_13 
ROOT
HETATM    1  C1  UNL     1      -3.727   4.810 110.406  1.00  0.00     0.156 A 
HETATM    2  C2  UNL     1      -3.122   5.901 111.024  1.00  0.00     0.045 A 
HETATM    3  C3  UNL     1      -4.006   6.988 110.962  1.00  0.00     0.047 A 
HETATM    4  C4  UNL     1      -5.122   6.506 110.304  1.00  0.00     0.156 A 
HETATM    5  N1  UNL     1      -4.927   5.215 109.988  1.00  0.00    -0.285 N 
HETATM    6  C8  UNL     1      -3.305   8.135 111.637  1.00  0.00     0.138 C 
HETATM    7  O4  UNL     1      -2.498   7.419 112.534  1.00  0.00    -0.348 OA
HETATM    8  C9  UNL     1      -1.941   6.405 111.716  1.00  0.00     0.223 C 
HETATM    9  S1  UNL     1      -1.077   7.541 110.548  1.00  0.00    -0.123 SA
HETATM   10  C10 UNL     1      -2.457   8.770 110.603  1.00  0.00     0.104 C 
HETATM   11  C11 UNL     1      -1.860  10.091 110.906  1.00  0.00     0.098 C 
HETATM   12  S2  UNL     1      -3.311  11.228 111.019  1.00  0.00    -0.128 SA
HETATM   13  C12 UNL     1      -4.385  10.352 112.149  1.00  0.00     0.012 A 
HETATM   14  C13 UNL     1      -5.313  11.084 112.830  1.00  0.00     0.021 A 
HETATM   15  C14 UNL     1      -6.165  10.496 113.725  1.00  0.00     0.022 A 
HETATM   16  C15 UNL     1      -6.067   9.137 113.924  1.00  0.00     0.033 A 
HETATM   17 BR1  UNL     1      -7.265   8.321 115.180  1.00  0.00    -0.049 Br
HETATM   18  C16 UNL     1      -5.122   8.397 113.229  1.00  0.00     0.062 A 
HETATM   19 CL2  UNL     1      -5.102   6.678 113.597  1.00  0.00    -0.082 Cl
HETATM   20  C17 UNL     1      -4.269   9.002 112.331  1.00  0.00     0.022 A 
ENDROOT
BRANCH   5  21
HETATM   21  C5  UNL     1      -5.882   4.345 109.281  1.00  0.00     0.303 C 
BRANCH  21  22
HETATM   22  O3  UNL     1      -5.302   3.935 108.119  1.00  0.00    -0.370 OA
BRANCH  22  23
HETATM   23  C6  UNL     1      -5.469   2.650 107.725  1.00  0.00     0.185 C 
BRANCH  23  24
HETATM   24  C7  UNL     1      -4.181   2.093 107.179  1.00  0.00     0.141 C 
HETATM   25 CL1  UNL     1      -3.573   3.160 105.892  1.00  0.00    -0.128 Cl
ENDBRANCH  23  24
ENDBRANCH  22  23
ENDBRANCH  21  22
ENDBRANCH   5  21
BRANCH   1  26
HETATM   26  O1  UNL     1      -3.171   3.544 110.262  1.00  0.00    -0.345 OA
ATOM     27  H1  UNL     1      -2.634   3.096 110.904  1.00  0.00     0.219 HD
ENDBRANCH   1  26
BRANCH   4  28
HETATM   28  O2  UNL     1      -6.253   7.262 110.026  1.00  0.00    -0.345 OA
ATOM     29  H2  UNL     1      -7.064   7.210 110.517  1.00  0.00     0.219 HD
ENDBRANCH   4  28
TORSDOF 6
ENDMDL
MODEL 3
REMARK VINA RESULT: -6.579446299     13.355     15.142
REMARK  6 active torsions:
REMARK  status: ('A' for Active; 'I' for Inactive)
REMARK    1  A    between atoms: O1_1  and  C1_3 
REMARK    2  A    between atoms: C4_6  and  O2_7 
REMARK    3  A    between atoms: N1_9  and  C5_10 
REMARK    4  A    between atoms: C5_10  and  O3_11 
REMARK    5  A    between atoms: O3_11  and  C6_12 
REMARK    6  A    between atoms: C6_12  and  C7_13 
ROOT
HETATM    1  C1  UNL     1       6.136   9.150 100.483  1.00  0.00     0.156 A 
HETATM    2  C2  UNL     1       7.047   8.126 100.730  1.00  0.00     0.045 A 
HETATM    3  C3  UNL     1       6.532   7.317 101.752  1.00  0.00     0.047 A 
HETATM    4  C4  UNL     1       5.318   7.887 102.086  1.00  0.00     0.156 A 
HETATM    5  N1  UNL     1       5.111   8.970 101.318  1.00  0.00    -0.285 N 
HETATM    6  C8  UNL     1       7.552   6.234 101.981  1.00  0.00     0.138 C 
HETATM    7  O4  UNL     1       8.111   6.167 100.696  1.00  0.00    -0.348 OA
HETATM    8  C9  UNL     1       8.330   7.530 100.375  1.00  0.00     0.223 C 
HETATM    9  S1  UNL     1       9.488   7.879 101.767  1.00  0.00    -0.123 SA
HETATM   10  C10 UNL     1       8.545   6.792 102.927  1.00  0.00     0.104 C 
HETATM   11  C11 UNL     1       9.515   5.861 103.548  1.00  0.00     0.098 C 
HETATM   12  S2  UNL     1       8.476   4.774 104.619  1.00  0.00    -0.128 SA
HETATM   13  C12 UNL     1       7.196   4.248 103.487  1.00  0.00     0.012 A 
HETATM   14  C13 UNL     1       6.537   3.088 103.776  1.00  0.00     0.021 A 
HETATM   15  C14 UNL     1       5.554   2.605 102.957  1.00  0.00     0.022 A 
HETATM   16  C15 UNL     1       5.238   3.322 101.823  1.00  0.00     0.033 A 
HETATM   17 BR1  UNL     1       3.858   2.638 100.680  1.00  0.00    -0.049 Br
HETATM   18  C16 UNL     1       5.910   4.500 101.533  1.00  0.00     0.062 A 
HETATM   19 CL2  UNL     1       5.413   5.297 100.048  1.00  0.00    -0.082 Cl
HETATM   20  C17 UNL     1       6.900   4.974 102.368  1.00  0.00     0.022 A 
ENDROOT
BRANCH   5  21
HETATM   21  C5  UNL     1       3.934   9.853 101.367  1.00  0.00     0.303 C 
BRANCH  21  22
HETATM   22  O3  UNL     1       3.549  10.119 100.088  1.00  0.00    -0.370 OA
BRANCH  22  23
HETATM   23  C6  UNL     1       2.796  11.219  99.849  1.00  0.00     0.185 C 
BRANCH  23  24
HETATM   24  C7  UNL     1       1.533  10.846  99.120  1.00  0.00     0.141 C 
HETATM   25 CL1  UNL     1       0.703  12.324  98.582  1.00  0.00    -0.128 Cl
ENDBRANCH  23  24
ENDBRANCH  22  23
ENDBRANCH  21  22
ENDBRANCH   5  21
BRANCH   1  26
HETATM   26  O1  UNL     1       6.282  10.161  99.540  1.00  0.00    -0.345 OA
ATOM     27  H1  UNL     1       5.576  10.594  99.075  1.00  0.00     0.219 HD
ENDBRANCH   1  26
BRANCH   4  28
HETATM   28  O2  UNL     1       4.467   7.397 103.066  1.00  0.00    -0.345 OA
ATOM     29  H2  UNL     1       3.550   7.632 103.145  1.00  0.00     0.219 HD
ENDBRANCH   4  28
TORSDOF 6
ENDMDL
MODEL 4
REMARK VINA RESULT: -6.546262763      1.846      2.239
REMARK  6 active torsions:
REMARK  status: ('A' for Active; 'I' for Inactive)
REMARK    1  A    between atoms: O1_1  and  C1_3 
REMARK    2  A    between atoms: C4_6  and  O2_7 
REMARK    3  A    between atoms: N1_9  and  C5_10 
REMARK    4  A    between atoms: C5_10  and  O3_11 
REMARK    5  A    between atoms: O3_11  and  C6_12 
REMARK    6  A    between atoms: C6_12  and  C7_13 
ROOT
HETATM    1  C1  UNL     1      -4.461   4.868 111.022  1.00  0.00     0.156 A 
HETATM    2  C2  UNL     1      -3.654   5.896 111.503  1.00  0.00     0.045 A 
HETATM    3  C3  UNL     1      -4.189   7.117 111.066  1.00  0.00     0.047 A 
HETATM    4  C4  UNL     1      -5.310   6.776 110.332  1.00  0.00     0.156 A 
HETATM    5  N1  UNL     1      -5.445   5.439 110.324  1.00  0.00    -0.285 N 
HETATM    6  C8  UNL     1      -3.281   8.187 111.607  1.00  0.00     0.138 C 
HETATM    7  O4  UNL     1      -2.815   7.536 112.759  1.00  0.00    -0.348 OA
HETATM    8  C9  UNL     1      -2.469   6.250 112.276  1.00  0.00     0.223 C 
HETATM    9  S1  UNL     1      -1.194   6.824 111.073  1.00  0.00    -0.123 SA
HETATM   10  C10 UNL     1      -2.176   8.327 110.632  1.00  0.00     0.104 C 
HETATM   11  C11 UNL     1      -1.275   9.496 110.761  1.00  0.00     0.098 C 
HETATM   12  S2  UNL     1      -2.357  10.943 110.383  1.00  0.00    -0.128 SA
HETATM   13  C12 UNL     1      -3.756  10.656 111.459  1.00  0.00     0.012 A 
HETATM   14  C13 UNL     1      -4.518  11.735 111.802  1.00  0.00     0.021 A 
HETATM   15  C14 UNL     1      -5.598  11.607 112.632  1.00  0.00     0.022 A 
HETATM   16  C15 UNL     1      -5.905  10.355 113.118  1.00  0.00     0.033 A 
HETATM   17 BR1  UNL     1      -7.420  10.184 114.280  1.00  0.00    -0.049 Br
HETATM   18  C16 UNL     1      -5.127   9.261 112.766  1.00  0.00     0.062 A 
HETATM   19 CL2  UNL     1      -5.627   7.731 113.472  1.00  0.00    -0.082 Cl
HETATM   20  C17 UNL     1      -4.041   9.405 111.929  1.00  0.00     0.022 A 
ENDROOT
BRANCH   5  21
HETATM   21  C5  UNL     1      -6.514   4.682 109.651  1.00  0.00     0.303 C 
BRANCH  21  22
HETATM   22  O3  UNL     1      -7.205   3.991 110.599  1.00  0.00    -0.370 OA
BRANCH  22  23
HETATM   23  C6  UNL     1      -8.471   4.373 110.891  1.00  0.00     0.185 C 
BRANCH  23  24
HETATM   24  C7  UNL     1      -8.509   5.118 112.199  1.00  0.00     0.141 C 
HETATM   25 CL1  UNL     1      -8.688   6.859 111.883  1.00  0.00    -0.128 Cl
ENDBRANCH  23  24
ENDBRANCH  22  23
ENDBRANCH  21  22
ENDBRANCH   5  21
BRANCH   1  26
HETATM   26  O1  UNL     1      -4.265   3.509 111.238  1.00  0.00    -0.345 OA
ATOM     27  H1  UNL     1      -3.493   3.013 110.995  1.00  0.00     0.219 HD
ENDBRANCH   1  26
BRANCH   4  28
HETATM   28  O2  UNL     1      -6.146   7.693 109.712  1.00  0.00    -0.345 OA
ATOM     29  H2  UNL     1      -7.025   7.497 109.410  1.00  0.00     0.219 HD
ENDBRANCH   4  28
TORSDOF 6
ENDMDL
MODEL 5
REMARK VINA RESULT: -6.507299510      3.410      5.897
REMARK  6 active torsions:
REMARK  status: ('A' for Active; 'I' for Inactive)
REMARK    1  A    between atoms: O1_1  and  C1_3 
REMARK    2  A    between atoms: C4_6  and  O2_7 
REMARK    3  A    between atoms: N1_9  and  C5_10 
REMARK    4  A    between atoms: C5_10  and  O3_11 
REMARK    5  A    between atoms: O3_11  and  C6_12 
REMARK    6  A    between atoms: C6_12  and  C7_13 
ROOT
HETATM    1  C1  UNL     1      -7.039   7.133 113.491  1.00  0.00     0.156 A 
HETATM    2  C2  UNL     1      -6.407   7.829 112.463  1.00  0.00     0.045 A 
HETATM    3  C3  UNL     1      -5.022   7.657 112.602  1.00  0.00     0.047 A 
HETATM    4  C4  UNL     1      -4.869   6.856 113.719  1.00  0.00     0.156 A 
HETATM    5  N1  UNL     1      -6.080   6.562 114.223  1.00  0.00    -0.285 N 
HETATM    6  C8  UNL     1      -4.391   8.428 111.476  1.00  0.00     0.138 C 
HETATM    7  O4  UNL     1      -5.424   8.344 110.530  1.00  0.00    -0.348 OA
HETATM    8  C9  UNL     1      -6.574   8.676 111.288  1.00  0.00     0.223 C 
HETATM    9  S1  UNL     1      -6.019  10.370 111.763  1.00  0.00    -0.123 SA
HETATM   10  C10 UNL     1      -4.262   9.825 111.949  1.00  0.00     0.104 C 
HETATM   11  C11 UNL     1      -3.426  10.756 111.156  1.00  0.00     0.098 C 
HETATM   12  S2  UNL     1      -1.714  10.089 111.337  1.00  0.00    -0.128 SA
HETATM   13  C12 UNL     1      -1.937   8.365 110.916  1.00  0.00     0.012 A 
HETATM   14  C13 UNL     1      -0.841   7.676 110.481  1.00  0.00     0.021 A 
HETATM   15  C14 UNL     1      -0.926   6.358 110.125  1.00  0.00     0.022 A 
HETATM   16  C15 UNL     1      -2.151   5.734 110.215  1.00  0.00     0.033 A 
HETATM   17 BR1  UNL     1      -2.261   3.887 109.714  1.00  0.00    -0.049 Br
HETATM   18  C16 UNL     1      -3.262   6.439 110.657  1.00  0.00     0.062 A 
HETATM   19 CL2  UNL     1      -4.759   5.519 110.707  1.00  0.00    -0.082 Cl
HETATM   20  C17 UNL     1      -3.162   7.767 111.013  1.00  0.00     0.022 A 
ENDROOT
BRANCH   5  21
HETATM   21  C5  UNL     1      -6.344   5.733 115.410  1.00  0.00     0.303 C 
BRANCH  21  22
HETATM   22  O3  UNL     1      -7.206   6.410 116.218  1.00  0.00    -0.370 OA
BRANCH  22  23
HETATM   23  C6  UNL     1      -6.701   7.270 117.134  1.00  0.00     0.185 C 
BRANCH  23  24
HETATM   24  C7  UNL     1      -7.335   8.628 116.990  1.00  0.00     0.141 C 
HETATM   25 CL1  UNL     1      -6.299   9.660 115.977  1.00  0.00    -0.128 Cl
ENDBRANCH  23  24
ENDBRANCH  22  23
ENDBRANCH  21  22
ENDBRANCH   5  21
BRANCH   1  26
HETATM   26  O1  UNL     1      -8.411   7.057 113.701  1.00  0.00    -0.345 OA
ATOM     27  H1  UNL     1      -9.030   6.581 113.160  1.00  0.00     0.219 HD
ENDBRANCH   1  26
BRANCH   4  28
HETATM   28  O2  UNL     1      -3.644   6.437 114.218  1.00  0.00    -0.345 OA
ATOM     29  H2  UNL     1      -3.262   6.749 115.030  1.00  0.00     0.219 HD
ENDBRANCH   4  28
TORSDOF 6
ENDMDL
