MODEL 1
REMARK VINA RESULT: -7.657666677      0.000      0.000
REMARK  9 active torsions:
REMARK  status: ('A' for Active; 'I' for Inactive)
REMARK    1  A    between atoms: C8_8  and  O1_9 
REMARK    2  A    between atoms: C9_11  and  C11_13 
REMARK    3  A    between atoms: C11_13  and  C13_16 
REMARK    4  A    between atoms: C13_16  and  C14_17 
REMARK    5  A    between atoms: C14_17  and  O3_19 
REMARK    6  A    between atoms: O3_19  and  C15_20 
REMARK    7  A    between atoms: C15_20  and  O4_21 
REMARK    8  A    between atoms: O4_21  and  C16_22 
REMARK    9  A    between atoms: C24_33  and  C25_34 
ROOT
HETATM    1  C11 UNL     1      -6.244  10.061 113.312  1.00  0.00     0.112 C 
HETATM    2  C12 UNL     1      -7.405  10.790 113.845  1.00  0.00     0.065 C 
HETATM    3  N1  UNL     1      -8.309  11.361 114.280  1.00  0.00    -0.197 NA
ENDROOT
BRANCH   1   4
HETATM    4  C9  UNL     1      -6.454   8.558 113.438  1.00  0.00    -0.001 C 
HETATM    5  C8  UNL     1      -5.305   7.869 112.890  1.00  0.00     0.136 C 
HETATM    6  C6  UNL     1      -5.501   6.764 111.867  1.00  0.00    -0.006 C 
HETATM    7  C5  UNL     1      -4.076   6.396 111.512  1.00  0.00     0.048 C 
HETATM    8  C7  UNL     1      -6.064   7.354 110.646  1.00  0.00     0.019 C 
HETATM    9  C20 UNL     1      -6.147   5.555 112.458  1.00  0.00    -0.026 C 
HETATM   10  C4  UNL     1      -3.947   5.088 110.778  1.00  0.00    -0.064 C 
HETATM   11  C2  UNL     1      -2.760   4.901 110.260  1.00  0.00    -0.084 C 
HETATM   12  C26 UNL     1      -5.042   4.126 110.668  1.00  0.00     0.015 A 
HETATM   13  C1  UNL     1      -1.722   5.996 110.471  1.00  0.00     0.043 C 
HETATM   14  C3  UNL     1      -2.318   3.738 109.505  1.00  0.00     0.043 C 
HETATM   15  C22 UNL     1      -6.263   4.439 111.499  1.00  0.00     0.035 A 
HETATM   16  C24 UNL     1      -5.968   4.232 109.518  1.00  0.00    -0.033 A 
HETATM   17  C27 UNL     1      -4.650   2.636 110.827  1.00  0.00     0.026 C 
HETATM   18  C23 UNL     1      -7.007   4.495 110.298  1.00  0.00    -0.010 A 
HETATM   19  C19 UNL     1      -7.425   5.809 113.176  1.00  0.00     0.011 C 
HETATM   20  C21 UNL     1      -5.267   4.939 113.559  1.00  0.00     0.016 C 
HETATM   21  C18 UNL     1      -8.297   6.924 112.803  1.00  0.00     0.002 C 
HETATM   22  C17 UNL     1      -7.826   8.298 112.947  1.00  0.00     0.013 C 
HETATM   23  C10 UNL     1      -6.501   8.334 114.965  1.00  0.00     0.019 C 
BRANCH   5  24
HETATM   24  O1  UNL     1      -4.443   7.385 113.888  1.00  0.00    -0.394 OA
ATOM     25  H1  UNL     1      -4.552   7.931 114.657  1.00  0.00     0.210 HD
ENDBRANCH   5  24
BRANCH  16  26
HETATM   26  C25 UNL     1      -5.824   4.096 108.077  1.00  0.00     0.088 C 
HETATM   27  N2  UNL     1      -5.414   2.967 107.588  1.00  0.00    -0.407 N 
ATOM     28  H22 UNL     1      -5.201   2.195 108.219  1.00  0.00     0.155 HD
ATOM     29  H21 UNL     1      -5.313   2.873 106.577  1.00  0.00     0.155 HD
ENDBRANCH  16  26
ENDBRANCH   1   4
BRANCH   1  30
HETATM   30  C13 UNL     1      -6.030  10.556 111.923  1.00  0.00     0.131 C 
BRANCH  30  31
HETATM   31  C14 UNL     1      -5.229  11.837 111.999  1.00  0.00     0.262 C 
HETATM   32  O2  UNL     1      -5.790  12.962 111.986  1.00  0.00    -0.265 OA
BRANCH  31  33
HETATM   33  O3  UNL     1      -3.850  11.817 112.086  1.00  0.00    -0.295 OA
BRANCH  33  34
HETATM   34  C15 UNL     1      -3.074  11.727 110.904  1.00  0.00     0.357 C 
BRANCH  34  35
HETATM   35  O4  UNL     1      -1.969  10.949 111.178  1.00  0.00    -0.272 OA
BRANCH  35  36
HETATM   36  C16 UNL     1      -2.204   9.591 111.004  1.00  0.00     0.526 C 
HETATM   37  F1  UNL     1      -1.157   9.101 110.242  1.00  0.00    -0.144 F 
HETATM   38  F2  UNL     1      -2.164   8.970 112.233  1.00  0.00    -0.144 F 
HETATM   39  F3  UNL     1      -3.369   9.306 110.357  1.00  0.00    -0.144 F 
ENDBRANCH  35  36
ENDBRANCH  34  35
ENDBRANCH  33  34
ENDBRANCH  31  33
ENDBRANCH  30  31
ENDBRANCH   1  30
TORSDOF 9
ENDMDL
MODEL 2
REMARK VINA RESULT: -7.621787882      3.282      4.317
REMARK  9 active torsions:
REMARK  status: ('A' for Active; 'I' for Inactive)
REMARK    1  A    between atoms: C8_8  and  O1_9 
REMARK    2  A    between atoms: C9_11  and  C11_13 
REMARK    3  A    between atoms: C11_13  and  C13_16 
REMARK    4  A    between atoms: C13_16  and  C14_17 
REMARK    5  A    between atoms: C14_17  and  O3_19 
REMARK    6  A    between atoms: O3_19  and  C15_20 
REMARK    7  A    between atoms: C15_20  and  O4_21 
REMARK    8  A    between atoms: O4_21  and  C16_22 
REMARK    9  A    between atoms: C24_33  and  C25_34 
ROOT
HETATM    1  C11 UNL     1      -2.419   8.038 110.950  1.00  0.00     0.112 C 
HETATM    2  C12 UNL     1      -1.072   7.697 110.467  1.00  0.00     0.065 C 
HETATM    3  N1  UNL     1      -0.022   7.423 110.073  1.00  0.00    -0.197 NA
ENDROOT
BRANCH   1   4
HETATM    4  C9  UNL     1      -3.054   6.842 111.646  1.00  0.00    -0.001 C 
HETATM    5  C8  UNL     1      -3.269   5.787 110.679  1.00  0.00     0.136 C 
HETATM    6  C6  UNL     1      -4.633   5.130 110.566  1.00  0.00    -0.006 C 
HETATM    7  C5  UNL     1      -4.438   4.176 109.407  1.00  0.00     0.048 C 
HETATM    8  C7  UNL     1      -5.595   6.131 110.086  1.00  0.00     0.019 C 
HETATM    9  C20 UNL     1      -4.969   4.315 111.771  1.00  0.00    -0.026 C 
HETATM   10  C4  UNL     1      -5.517   3.133 109.284  1.00  0.00    -0.064 C 
HETATM   11  C2  UNL     1      -5.478   2.480 108.151  1.00  0.00    -0.084 C 
HETATM   12  C26 UNL     1      -6.499   2.878 110.336  1.00  0.00     0.015 A 
HETATM   13  C1  UNL     1      -4.385   2.860 107.159  1.00  0.00     0.043 C 
HETATM   14  C3  UNL     1      -6.373   1.410 107.736  1.00  0.00     0.043 C 
HETATM   15  C22 UNL     1      -6.253   3.597 111.639  1.00  0.00     0.035 A 
HETATM   16  C24 UNL     1      -7.772   3.634 110.319  1.00  0.00    -0.033 A 
HETATM   17  C27 UNL     1      -6.835   1.388 110.598  1.00  0.00     0.026 C 
HETATM   18  C23 UNL     1      -7.506   4.230 111.472  1.00  0.00    -0.010 A 
HETATM   19  C19 UNL     1      -4.862   5.033 113.070  1.00  0.00     0.011 C 
HETATM   20  C21 UNL     1      -3.974   3.156 111.952  1.00  0.00     0.016 C 
HETATM   21  C18 UNL     1      -5.068   6.480 113.157  1.00  0.00     0.002 C 
HETATM   22  C17 UNL     1      -4.160   7.389 112.463  1.00  0.00     0.013 C 
HETATM   23  C10 UNL     1      -1.966   6.399 112.649  1.00  0.00     0.019 C 
BRANCH   5  24
HETATM   24  O1  UNL     1      -2.307   4.768 110.772  1.00  0.00    -0.394 OA
ATOM     25  H1  UNL     1      -1.773   4.800 109.987  1.00  0.00     0.210 HD
ENDBRANCH   5  24
BRANCH  16  26
HETATM   26  C25 UNL     1      -8.902   3.708 109.406  1.00  0.00     0.088 C 
HETATM   27  N2  UNL     1      -9.622   2.648 109.207  1.00  0.00    -0.407 N 
ATOM     28  H22 UNL     1      -9.386   1.783 109.692  1.00  0.00     0.155 HD
ATOM     29  H21 UNL     1     -10.414   2.701 108.566  1.00  0.00     0.155 HD
ENDBRANCH  16  26
ENDBRANCH   1   4
BRANCH   1  30
HETATM   30  C13 UNL     1      -2.273   9.257 111.794  1.00  0.00     0.131 C 
BRANCH  30  31
HETATM   31  C14 UNL     1      -1.848  10.400 110.899  1.00  0.00     0.262 C 
HETATM   32  O2  UNL     1      -2.649  10.930 110.087  1.00  0.00    -0.265 OA
BRANCH  31  33
HETATM   33  O3  UNL     1      -0.562  10.905 110.942  1.00  0.00    -0.295 OA
BRANCH  33  34
HETATM   34  C15 UNL     1       0.074  11.305 109.740  1.00  0.00     0.357 C 
BRANCH  34  35
HETATM   35  O4  UNL     1       0.829  12.427 110.011  1.00  0.00    -0.272 OA
BRANCH  35  36
HETATM   36  C16 UNL     1       2.128  12.128 110.401  1.00  0.00     0.526 C 
HETATM   37  F1  UNL     1       2.677  11.355 109.391  1.00  0.00    -0.144 F 
HETATM   38  F2  UNL     1       2.850  13.297 110.483  1.00  0.00    -0.144 F 
HETATM   39  F3  UNL     1       2.211  11.425 111.566  1.00  0.00    -0.144 F 
ENDBRANCH  35  36
ENDBRANCH  34  35
ENDBRANCH  33  34
ENDBRANCH  31  33
ENDBRANCH  30  31
ENDBRANCH   1  30
TORSDOF 9
ENDMDL
MODEL 3
REMARK VINA RESULT: -7.594271094      2.743      4.056
REMARK  9 active torsions:
REMARK  status: ('A' for Active; 'I' for Inactive)
REMARK    1  A    between atoms: C8_8  and  O1_9 
REMARK    2  A    between atoms: C9_11  and  C11_13 
REMARK    3  A    between atoms: C11_13  and  C13_16 
REMARK    4  A    between atoms: C13_16  and  C14_17 
REMARK    5  A    between atoms: C14_17  and  O3_19 
REMARK    6  A    between atoms: O3_19  and  C15_20 
REMARK    7  A    between atoms: C15_20  and  O4_21 
REMARK    8  A    between atoms: O4_21  and  C16_22 
REMARK    9  A    between atoms: C24_33  and  C25_34 
ROOT
HETATM    1  C11 UNL     1      -2.487   8.248 110.926  1.00  0.00     0.112 C 
HETATM    2  C12 UNL     1      -1.137   7.890 110.466  1.00  0.00     0.065 C 
HETATM    3  N1  UNL     1      -0.085   7.602 110.088  1.00  0.00    -0.197 NA
ENDROOT
BRANCH   1   4
HETATM    4  C9  UNL     1      -3.136   7.072 111.642  1.00  0.00    -0.001 C 
HETATM    5  C8  UNL     1      -3.290   5.974 110.712  1.00  0.00     0.136 C 
HETATM    6  C6  UNL     1      -4.638   5.289 110.564  1.00  0.00    -0.006 C 
HETATM    7  C5  UNL     1      -4.375   4.293 109.456  1.00  0.00     0.048 C 
HETATM    8  C7  UNL     1      -5.591   6.254 109.999  1.00  0.00     0.019 C 
HETATM    9  C20 UNL     1      -5.017   4.519 111.785  1.00  0.00    -0.026 C 
HETATM   10  C4  UNL     1      -5.431   3.228 109.327  1.00  0.00    -0.064 C 
HETATM   11  C2  UNL     1      -5.330   2.530 108.225  1.00  0.00    -0.084 C 
HETATM   12  C26 UNL     1      -6.456   2.999 110.343  1.00  0.00     0.015 A 
HETATM   13  C1  UNL     1      -4.198   2.886 107.269  1.00  0.00     0.043 C 
HETATM   14  C3  UNL     1      -6.189   1.428 107.815  1.00  0.00     0.043 C 
HETATM   15  C22 UNL     1      -6.282   3.775 111.625  1.00  0.00     0.035 A 
HETATM   16  C24 UNL     1      -7.739   3.732 110.236  1.00  0.00    -0.033 A 
HETATM   17  C27 UNL     1      -6.782   1.515 110.651  1.00  0.00     0.026 C 
HETATM   18  C23 UNL     1      -7.535   4.379 111.375  1.00  0.00    -0.010 A 
HETATM   19  C19 UNL     1      -4.981   5.292 113.056  1.00  0.00     0.011 C 
HETATM   20  C21 UNL     1      -4.013   3.386 112.059  1.00  0.00     0.016 C 
HETATM   21  C18 UNL     1      -5.212   6.738 113.073  1.00  0.00     0.002 C 
HETATM   22  C17 UNL     1      -4.286   7.632 112.385  1.00  0.00     0.013 C 
HETATM   23  C10 UNL     1      -2.089   6.688 112.711  1.00  0.00     0.019 C 
BRANCH   5  24
HETATM   24  O1  UNL     1      -2.318   4.976 110.890  1.00  0.00    -0.394 OA
ATOM     25  H1  UNL     1      -2.163   4.885 111.823  1.00  0.00     0.210 HD
ENDBRANCH   5  24
BRANCH  16  26
HETATM   26  C25 UNL     1      -8.826   3.749 109.270  1.00  0.00     0.088 C 
HETATM   27  N2  UNL     1      -9.637   2.739 109.216  1.00  0.00    -0.407 N 
ATOM     28  H22 UNL     1      -9.500   1.951 109.849  1.00  0.00     0.155 HD
ATOM     29  H21 UNL     1     -10.399   2.752 108.538  1.00  0.00     0.155 HD
ENDBRANCH  16  26
ENDBRANCH   1   4
BRANCH   1  30
HETATM   30  C13 UNL     1      -2.344   9.485 111.745  1.00  0.00     0.131 C 
BRANCH  30  31
HETATM   31  C14 UNL     1      -2.559  10.676 110.837  1.00  0.00     0.262 C 
HETATM   32  O2  UNL     1      -1.624  11.147 110.141  1.00  0.00    -0.265 OA
BRANCH  31  33
HETATM   33  O3  UNL     1      -3.793  11.290 110.740  1.00  0.00    -0.295 OA
BRANCH  33  34
HETATM   34  C15 UNL     1      -4.172  12.259 111.702  1.00  0.00     0.357 C 
BRANCH  34  35
HETATM   35  O4  UNL     1      -5.549  12.281 111.765  1.00  0.00    -0.272 OA
BRANCH  35  36
HETATM   36  C16 UNL     1      -6.075  11.249 112.532  1.00  0.00     0.526 C 
HETATM   37  F1  UNL     1      -5.089  10.882 113.433  1.00  0.00    -0.144 F 
HETATM   38  F2  UNL     1      -7.149  11.728 113.249  1.00  0.00    -0.144 F 
HETATM   39  F3  UNL     1      -6.425  10.145 111.814  1.00  0.00    -0.144 F 
ENDBRANCH  35  36
ENDBRANCH  34  35
ENDBRANCH  33  34
ENDBRANCH  31  33
ENDBRANCH  30  31
ENDBRANCH   1  30
TORSDOF 9
ENDMDL
MODEL 4
REMARK VINA RESULT: -7.237082322      3.070      4.154
REMARK  9 active torsions:
REMARK  status: ('A' for Active; 'I' for Inactive)
REMARK    1  A    between atoms: C8_8  and  O1_9 
REMARK    2  A    between atoms: C9_11  and  C11_13 
REMARK    3  A    between atoms: C11_13  and  C13_16 
REMARK    4  A    between atoms: C13_16  and  C14_17 
REMARK    5  A    between atoms: C14_17  and  O3_19 
REMARK    6  A    between atoms: O3_19  and  C15_20 
REMARK    7  A    between atoms: C15_20  and  O4_21 
REMARK    8  A    between atoms: O4_21  and  C16_22 
REMARK    9  A    between atoms: C24_33  and  C25_34 
ROOT
HETATM    1  C11 UNL     1      -2.280   8.101 111.480  1.00  0.00     0.112 C 
HETATM    2  C12 UNL     1      -3.297   9.090 111.091  1.00  0.00     0.065 C 
HETATM    3  N1  UNL     1      -4.096   9.872 110.804  1.00  0.00    -0.197 NA
ENDROOT
BRANCH   1   4
HETATM    4  C9  UNL     1      -2.939   6.860 112.065  1.00  0.00    -0.001 C 
HETATM    5  C8  UNL     1      -3.043   5.847 111.036  1.00  0.00     0.136 C 
HETATM    6  C6  UNL     1      -4.374   5.164 110.777  1.00  0.00    -0.006 C 
HETATM    7  C5  UNL     1      -4.056   4.271 109.597  1.00  0.00     0.048 C 
HETATM    8  C7  UNL     1      -5.319   6.164 110.262  1.00  0.00     0.019 C 
HETATM    9  C20 UNL     1      -4.789   4.285 111.911  1.00  0.00    -0.026 C 
HETATM   10  C4  UNL     1      -5.092   3.211 109.335  1.00  0.00    -0.064 C 
HETATM   11  C2  UNL     1      -4.940   2.613 108.181  1.00  0.00    -0.084 C 
HETATM   12  C26 UNL     1      -6.152   2.883 110.286  1.00  0.00     0.015 A 
HETATM   13  C1  UNL     1      -3.777   3.064 107.305  1.00  0.00     0.043 C 
HETATM   14  C3  UNL     1      -5.767   1.543 107.643  1.00  0.00     0.043 C 
HETATM   15  C22 UNL     1      -6.036   3.545 111.637  1.00  0.00     0.035 A 
HETATM   16  C24 UNL     1      -7.439   3.609 110.194  1.00  0.00    -0.033 A 
HETATM   17  C27 UNL     1      -6.469   1.375 110.451  1.00  0.00     0.026 C 
HETATM   18  C23 UNL     1      -7.288   4.156 111.392  1.00  0.00    -0.010 A 
HETATM   19  C19 UNL     1      -4.811   4.944 113.245  1.00  0.00     0.011 C 
HETATM   20  C21 UNL     1      -3.781   3.143 112.124  1.00  0.00     0.016 C 
HETATM   21  C18 UNL     1      -5.063   6.380 113.379  1.00  0.00     0.002 C 
HETATM   22  C17 UNL     1      -4.124   7.341 112.808  1.00  0.00     0.013 C 
HETATM   23  C10 UNL     1      -1.928   6.395 113.136  1.00  0.00     0.019 C 
BRANCH   5  24
HETATM   24  O1  UNL     1      -2.065   4.847 111.165  1.00  0.00    -0.394 OA
ATOM     25  H1  UNL     1      -2.485   4.073 111.520  1.00  0.00     0.210 HD
ENDBRANCH   5  24
BRANCH  16  26
HETATM   26  C25 UNL     1      -8.489   3.700 109.192  1.00  0.00     0.088 C 
HETATM   27  N2  UNL     1      -9.353   2.738 109.095  1.00  0.00    -0.407 N 
ATOM     28  H22 UNL     1      -9.283   1.936 109.721  1.00  0.00     0.155 HD
ATOM     29  H21 UNL     1     -10.090   2.803 108.392  1.00  0.00     0.155 HD
ENDBRANCH  16  26
ENDBRANCH   1   4
BRANCH   1  30
HETATM   30  C13 UNL     1      -1.437   7.861 110.275  1.00  0.00     0.131 C 
BRANCH  30  31
HETATM   31  C14 UNL     1      -0.316   8.877 110.276  1.00  0.00     0.262 C 
HETATM   32  O2  UNL     1       0.890   8.523 110.220  1.00  0.00    -0.265 OA
BRANCH  31  33
HETATM   33  O3  UNL     1      -0.576  10.233 110.338  1.00  0.00    -0.295 OA
BRANCH  33  34
HETATM   34  C15 UNL     1       0.067  11.112 109.432  1.00  0.00     0.357 C 
BRANCH  34  35
HETATM   35  O4  UNL     1       0.621  12.144 110.160  1.00  0.00    -0.272 OA
BRANCH  35  36
HETATM   36  C16 UNL     1       1.969  11.952 110.435  1.00  0.00     0.526 C 
HETATM   37  F1  UNL     1       2.035  11.228 111.614  1.00  0.00    -0.144 F 
HETATM   38  F2  UNL     1       2.526  11.188 109.434  1.00  0.00    -0.144 F 
HETATM   39  F3  UNL     1       2.671  13.108 110.608  1.00  0.00    -0.144 F 
ENDBRANCH  35  36
ENDBRANCH  34  35
ENDBRANCH  33  34
ENDBRANCH  31  33
ENDBRANCH  30  31
ENDBRANCH   1  30
TORSDOF 9
ENDMDL
MODEL 5
REMARK VINA RESULT: -7.157213975      2.155      2.844
REMARK  9 active torsions:
REMARK  status: ('A' for Active; 'I' for Inactive)
REMARK    1  A    between atoms: C8_8  and  O1_9 
REMARK    2  A    between atoms: C9_11  and  C11_13 
REMARK    3  A    between atoms: C11_13  and  C13_16 
REMARK    4  A    between atoms: C13_16  and  C14_17 
REMARK    5  A    between atoms: C14_17  and  O3_19 
REMARK    6  A    between atoms: O3_19  and  C15_20 
REMARK    7  A    between atoms: C15_20  and  O4_21 
REMARK    8  A    between atoms: O4_21  and  C16_22 
REMARK    9  A    between atoms: C24_33  and  C25_34 
ROOT
HETATM    1  C11 UNL     1      -4.074  10.892 111.766  1.00  0.00     0.112 C 
HETATM    2  C12 UNL     1      -4.992  12.030 111.608  1.00  0.00     0.065 C 
HETATM    3  N1  UNL     1      -5.709  12.928 111.501  1.00  0.00    -0.197 NA
ENDROOT
BRANCH   1   4
HETATM    4  C9  UNL     1      -4.800   9.703 112.380  1.00  0.00    -0.001 C 
HETATM    5  C8  UNL     1      -4.096   8.485 112.036  1.00  0.00     0.136 C 
HETATM    6  C6  UNL     1      -4.854   7.315 111.435  1.00  0.00    -0.006 C 
HETATM    7  C5  UNL     1      -3.747   6.320 111.158  1.00  0.00     0.048 C 
HETATM    8  C7  UNL     1      -5.357   7.714 110.114  1.00  0.00     0.019 C 
HETATM    9  C20 UNL     1      -5.791   6.688 112.413  1.00  0.00    -0.026 C 
HETATM   10  C4  UNL     1      -4.235   4.924 110.882  1.00  0.00    -0.064 C 
HETATM   11  C2  UNL     1      -3.306   4.137 110.402  1.00  0.00    -0.084 C 
HETATM   12  C26 UNL     1      -5.609   4.496 111.137  1.00  0.00     0.015 A 
HETATM   13  C1  UNL     1      -1.917   4.732 110.201  1.00  0.00     0.043 C 
HETATM   14  C3  UNL     1      -3.457   2.733 110.045  1.00  0.00     0.043 C 
HETATM   15  C22 UNL     1      -6.470   5.493 111.873  1.00  0.00     0.035 A 
HETATM   16  C24 UNL     1      -6.610   4.639 110.055  1.00  0.00    -0.033 A 
HETATM   17  C27 UNL     1      -5.773   3.084 111.752  1.00  0.00     0.026 C 
HETATM   18  C23 UNL     1      -7.332   5.505 110.752  1.00  0.00    -0.010 A 
HETATM   19  C19 UNL     1      -6.745   7.625 113.065  1.00  0.00     0.011 C 
HETATM   20  C21 UNL     1      -5.029   6.104 113.615  1.00  0.00     0.016 C 
HETATM   21  C18 UNL     1      -7.194   8.844 112.388  1.00  0.00     0.002 C 
HETATM   22  C17 UNL     1      -6.232   9.891 112.059  1.00  0.00     0.013 C 
HETATM   23  C10 UNL     1      -4.669   9.954 113.898  1.00  0.00     0.019 C 
BRANCH   5  24
HETATM   24  O1  UNL     1      -3.319   7.996 113.099  1.00  0.00    -0.394 OA
ATOM     25  H1  UNL     1      -3.011   8.740 113.601  1.00  0.00     0.210 HD
ENDBRANCH   5  24
BRANCH  16  26
HETATM   26  C25 UNL     1      -6.770   4.059 108.731  1.00  0.00     0.088 C 
HETATM   27  N2  UNL     1      -5.883   4.314 107.820  1.00  0.00    -0.407 N 
ATOM     28  H22 UNL     1      -5.090   4.915 108.046  1.00  0.00     0.155 HD
ATOM     29  H21 UNL     1      -5.996   3.908 106.891  1.00  0.00     0.155 HD
ENDBRANCH  16  26
ENDBRANCH   1   4
BRANCH   1  30
HETATM   30  C13 UNL     1      -3.471  10.641 110.426  1.00  0.00     0.131 C 
BRANCH  30  31
HETATM   31  C14 UNL     1      -1.989  10.932 110.516  1.00  0.00     0.262 C 
HETATM   32  O2  UNL     1      -1.275  10.420 111.416  1.00  0.00    -0.265 OA
BRANCH  31  33
HETATM   33  O3  UNL     1      -1.366  11.769 109.611  1.00  0.00    -0.295 OA
BRANCH  33  34
HETATM   34  C15 UNL     1      -0.004  11.556 109.282  1.00  0.00     0.357 C 
BRANCH  34  35
HETATM   35  O4  UNL     1       0.738  12.558 109.871  1.00  0.00    -0.272 OA
BRANCH  35  36
HETATM   36  C16 UNL     1       1.880  12.088 110.507  1.00  0.00     0.526 C 
HETATM   37  F1  UNL     1       2.430  11.126 109.675  1.00  0.00    -0.144 F 
HETATM   38  F2  UNL     1       2.785  13.119 110.622  1.00  0.00    -0.144 F 
HETATM   39  F3  UNL     1       1.644  11.514 111.720  1.00  0.00    -0.144 F 
ENDBRANCH  35  36
ENDBRANCH  34  35
ENDBRANCH  33  34
ENDBRANCH  31  33
ENDBRANCH  30  31
ENDBRANCH   1  30
TORSDOF 9
ENDMDL
