MODEL 1
REMARK VINA RESULT: -8.746597147      0.000      0.000
REMARK  7 active torsions:
REMARK  status: ('A' for Active; 'I' for Inactive)
REMARK    1  A    between atoms: C2_2  and  C3_7 
REMARK    2  A    between atoms: N1_3  and  O1_5 
REMARK    3  A    between atoms: C3_7  and  C4_8 
REMARK    4  A    between atoms: C3_7  and  N2_12 
REMARK    5  A    between atoms: C4_8  and  C5_9 
REMARK    6  A    between atoms: C16_22  and  C17_23 
REMARK    7  A    between atoms: C17_23  and  C18_24 
ROOT
HETATM    1  N2  UNL     1      -5.248   8.933 111.732  1.00  0.00    -0.399 N 
HETATM    2  C8  UNL     1      -5.845   8.247 110.666  1.00  0.00     0.122 C 
HETATM    3  C9  UNL     1      -5.823   6.743 111.077  1.00  0.00     0.055 C 
HETATM    4  C10 UNL     1      -4.360   6.337 111.080  1.00  0.00    -0.064 C 
HETATM    5  C11 UNL     1      -4.085   5.210 110.517  1.00  0.00    -0.017 C 
HETATM    6  C12 UNL     1      -2.703   4.690 110.414  1.00  0.00     0.008 A 
HETATM    7  C13 UNL     1      -1.672   5.558 110.122  1.00  0.00     0.038 A 
HETATM    8  C14 UNL     1      -0.379   5.095 110.080  1.00  0.00     0.052 A 
HETATM    9  C15 UNL     1       0.702   6.006 109.723  1.00  0.00     0.100 C 
HETATM   10  N3  UNL     1       1.539   6.740 109.413  1.00  0.00    -0.191 NA
HETATM   11  C16 UNL     1      -0.135   3.772 110.329  1.00  0.00    -0.026 A 
HETATM   12  C19 UNL     1      -1.183   2.892 110.620  1.00  0.00     0.047 A 
HETATM   13  C20 UNL     1      -2.465   3.363 110.658  1.00  0.00     0.089 A 
HETATM   14  O2  UNL     1      -3.563   2.511 110.933  1.00  0.00    -0.296 OA
HETATM   15  C21 UNL     1      -4.829   3.016 110.945  1.00  0.00     0.140 C 
HETATM   16  N4  UNL     1      -5.760   2.534 111.634  1.00  0.00    -0.382 N 
ATOM     17  H41 UNL     1      -6.707   2.911 111.643  1.00  0.00     0.158 HD
ATOM     18  H42 UNL     1      -5.568   1.721 112.221  1.00  0.00     0.158 HD
HETATM   19  C22 UNL     1      -5.116   4.228 110.070  1.00  0.00     0.201 C 
HETATM   20  C23 UNL     1      -4.850   3.795 108.695  1.00  0.00     0.077 C 
HETATM   21  N5  UNL     1      -4.655   3.461 107.601  1.00  0.00    -0.196 NA
HETATM   22  C24 UNL     1      -3.504   7.257 111.862  1.00  0.00     0.028 C 
HETATM   23  C25 UNL     1      -2.730   6.543 112.972  1.00  0.00     0.016 C 
HETATM   24  C26 UNL     1      -4.454   8.231 112.616  1.00  0.00     0.126 C 
ENDROOT
BRANCH  11  25
HETATM   25  C17 UNL     1       1.248   3.221 110.370  1.00  0.00     0.157 C 
BRANCH  25  26
HETATM   26  C18 UNL     1       1.486   2.091 109.425  1.00  0.00     0.391 C 
HETATM   27  F1  UNL     1       2.815   2.196 109.006  1.00  0.00    -0.171 F 
HETATM   28  F2  UNL     1       1.380   0.889 110.121  1.00  0.00    -0.171 F 
HETATM   29  F3  UNL     1       0.647   2.017 108.354  1.00  0.00    -0.171 F 
ENDBRANCH  25  26
ENDBRANCH  11  25
BRANCH   1  30
HETATM   30  C3  UNL     1      -5.960  10.081 112.252  1.00  0.00     0.149 C 
BRANCH  30  31
HETATM   31  C2  UNL     1      -6.785   9.722 113.393  1.00  0.00     0.032 C 
HETATM   32  C1  UNL     1      -6.424  10.170 114.794  1.00  0.00     0.068 C 
HETATM   33  N1  UNL     1      -7.874   9.079 113.310  1.00  0.00    -0.275 N 
ATOM     34  H1  UNL     1      -8.175   8.747 112.393  1.00  0.00     0.193 HD
BRANCH  33  35
HETATM   35  O1  UNL     1      -8.660   8.811 114.391  1.00  0.00    -0.290 OA
ATOM     36  H1  UNL     1      -9.420   8.243 114.348  1.00  0.00     0.244 HD
ENDBRANCH  33  35
ENDBRANCH  30  31
BRANCH  30  37
HETATM   37  C4  UNL     1      -5.019  11.190 112.405  1.00  0.00     0.006 C 
BRANCH  37  38
HETATM   38  C5  UNL     1      -4.254  11.775 111.319  1.00  0.00    -0.089 C 
HETATM   39  C6  UNL     1      -4.199  13.294 111.316  1.00  0.00     0.042 C 
HETATM   40  C7  UNL     1      -2.943  11.243 110.876  1.00  0.00     0.042 C 
ENDBRANCH  37  38
ENDBRANCH  30  37
ENDBRANCH   1  30
TORSDOF 7
ENDMDL
MODEL 2
REMARK VINA RESULT: -8.636589977      3.800      6.837
REMARK  7 active torsions:
REMARK  status: ('A' for Active; 'I' for Inactive)
REMARK    1  A    between atoms: C2_2  and  C3_7 
REMARK    2  A    between atoms: N1_3  and  O1_5 
REMARK    3  A    between atoms: C3_7  and  C4_8 
REMARK    4  A    between atoms: C3_7  and  N2_12 
REMARK    5  A    between atoms: C4_8  and  C5_9 
REMARK    6  A    between atoms: C16_22  and  C17_23 
REMARK    7  A    between atoms: C17_23  and  C18_24 
ROOT
HETATM    1  N2  UNL     1      -0.325   7.723 110.076  1.00  0.00    -0.399 N 
HETATM    2  C8  UNL     1      -1.401   8.598 110.266  1.00  0.00     0.122 C 
HETATM    3  C9  UNL     1      -2.192   8.025 111.482  1.00  0.00     0.055 C 
HETATM    4  C10 UNL     1      -2.787   6.711 111.006  1.00  0.00    -0.064 C 
HETATM    5  C11 UNL     1      -4.022   6.505 111.314  1.00  0.00    -0.017 C 
HETATM    6  C12 UNL     1      -4.751   5.286 110.899  1.00  0.00     0.008 A 
HETATM    7  C13 UNL     1      -4.553   4.776 109.634  1.00  0.00     0.038 A 
HETATM    8  C14 UNL     1      -5.184   3.613 109.258  1.00  0.00     0.052 A 
HETATM    9  C15 UNL     1      -5.010   3.105 107.902  1.00  0.00     0.100 C 
HETATM   10  N3  UNL     1      -4.877   2.734 106.817  1.00  0.00    -0.191 NA
HETATM   11  C16 UNL     1      -6.002   2.979 110.152  1.00  0.00    -0.026 A 
HETATM   12  C19 UNL     1      -6.205   3.500 111.434  1.00  0.00     0.047 A 
HETATM   13  C20 UNL     1      -5.575   4.658 111.797  1.00  0.00     0.089 A 
HETATM   14  O2  UNL     1      -5.759   5.236 113.077  1.00  0.00    -0.296 OA
HETATM   15  C21 UNL     1      -5.125   6.401 113.394  1.00  0.00     0.140 C 
HETATM   16  N4  UNL     1      -4.804   6.717 114.564  1.00  0.00    -0.382 N 
ATOM     17  H41 UNL     1      -4.330   7.588 114.801  1.00  0.00     0.158 HD
ATOM     18  H42 UNL     1      -5.022   6.074 115.325  1.00  0.00     0.158 HD
HETATM   19  C22 UNL     1      -4.798   7.360 112.259  1.00  0.00     0.201 C 
HETATM   20  C23 UNL     1      -6.089   7.731 111.671  1.00  0.00     0.077 C 
HETATM   21  N5  UNL     1      -7.105   8.043 111.205  1.00  0.00    -0.196 NA
HETATM   22  C24 UNL     1      -1.790   5.817 110.374  1.00  0.00     0.028 C 
HETATM   23  C25 UNL     1      -1.710   4.449 111.053  1.00  0.00     0.016 C 
HETATM   24  C26 UNL     1      -0.391   6.453 110.615  1.00  0.00     0.126 C 
ENDROOT
BRANCH  11  25
HETATM   25  C17 UNL     1      -6.657   1.680 109.835  1.00  0.00     0.157 C 
BRANCH  25  26
HETATM   26  C18 UNL     1      -7.974   1.809 109.147  1.00  0.00     0.391 C 
HETATM   27  F1  UNL     1      -7.829   1.210 107.893  1.00  0.00    -0.171 F 
HETATM   28  F2  UNL     1      -8.923   1.061 109.840  1.00  0.00    -0.171 F 
HETATM   29  F3  UNL     1      -8.465   3.074 109.022  1.00  0.00    -0.171 F 
ENDBRANCH  25  26
ENDBRANCH  11  25
BRANCH   1  30
HETATM   30  C3  UNL     1       0.989   8.319 109.953  1.00  0.00     0.149 C 
BRANCH  30  31
HETATM   31  C2  UNL     1       1.844   7.542 109.073  1.00  0.00     0.032 C 
HETATM   32  C1  UNL     1       2.197   8.035 107.685  1.00  0.00     0.068 C 
HETATM   33  N1  UNL     1       2.402   6.453 109.403  1.00  0.00    -0.275 N 
ATOM     34  H1  UNL     1       2.206   6.065 110.326  1.00  0.00     0.193 HD
BRANCH  33  35
HETATM   35  O1  UNL     1       3.252   5.777 108.579  1.00  0.00    -0.290 OA
ATOM     36  H1  UNL     1       3.082   4.894 108.274  1.00  0.00     0.244 HD
ENDBRANCH  33  35
ENDBRANCH  30  31
BRANCH  30  37
HETATM   37  C4  UNL     1       0.835   9.747 109.677  1.00  0.00     0.006 C 
BRANCH  37  38
HETATM   38  C5  UNL     1       1.797  10.767 110.057  1.00  0.00    -0.089 C 
HETATM   39  C6  UNL     1       2.051  11.835 109.006  1.00  0.00     0.042 C 
HETATM   40  C7  UNL     1       1.821  11.394 111.400  1.00  0.00     0.042 C 
ENDBRANCH  37  38
ENDBRANCH  30  37
ENDBRANCH   1  30
TORSDOF 7
ENDMDL
MODEL 3
REMARK VINA RESULT: -8.215869096      1.317      2.327
REMARK  7 active torsions:
REMARK  status: ('A' for Active; 'I' for Inactive)
REMARK    1  A    between atoms: C2_2  and  C3_7 
REMARK    2  A    between atoms: N1_3  and  O1_5 
REMARK    3  A    between atoms: C3_7  and  C4_8 
REMARK    4  A    between atoms: C3_7  and  N2_12 
REMARK    5  A    between atoms: C4_8  and  C5_9 
REMARK    6  A    between atoms: C16_22  and  C17_23 
REMARK    7  A    between atoms: C17_23  and  C18_24 
ROOT
HETATM    1  N2  UNL     1      -4.932   8.913 112.293  1.00  0.00    -0.399 N 
HETATM    2  C8  UNL     1      -5.612   8.279 111.246  1.00  0.00     0.122 C 
HETATM    3  C9  UNL     1      -5.556   6.756 111.576  1.00  0.00     0.055 C 
HETATM    4  C10 UNL     1      -4.096   6.357 111.441  1.00  0.00    -0.064 C 
HETATM    5  C11 UNL     1      -3.867   5.262 110.801  1.00  0.00    -0.017 C 
HETATM    6  C12 UNL     1      -2.497   4.755 110.561  1.00  0.00     0.008 A 
HETATM    7  C13 UNL     1      -1.494   5.642 110.232  1.00  0.00     0.038 A 
HETATM    8  C14 UNL     1      -0.208   5.188 110.063  1.00  0.00     0.052 A 
HETATM    9  C15 UNL     1       0.840   6.121 109.666  1.00  0.00     0.100 C 
HETATM   10  N3  UNL     1       1.648   6.874 109.329  1.00  0.00    -0.191 NA
HETATM   11  C16 UNL     1       0.057   3.855 110.223  1.00  0.00    -0.026 A 
HETATM   12  C19 UNL     1      -0.964   2.956 110.553  1.00  0.00     0.047 A 
HETATM   13  C20 UNL     1      -2.239   3.418 110.717  1.00  0.00     0.089 A 
HETATM   14  O2  UNL     1      -3.311   2.548 111.036  1.00  0.00    -0.296 OA
HETATM   15  C21 UNL     1      -4.572   3.046 111.175  1.00  0.00     0.140 C 
HETATM   16  N4  UNL     1      -5.444   2.524 111.911  1.00  0.00    -0.382 N 
ATOM     17  H41 UNL     1      -6.388   2.896 112.015  1.00  0.00     0.158 HD
ATOM     18  H42 UNL     1      -5.205   1.684 112.438  1.00  0.00     0.158 HD
HETATM   19  C22 UNL     1      -4.930   4.299 110.389  1.00  0.00     0.201 C 
HETATM   20  C23 UNL     1      -4.774   3.938 108.977  1.00  0.00     0.077 C 
HETATM   21  N5  UNL     1      -4.669   3.661 107.856  1.00  0.00    -0.196 NA
HETATM   22  C24 UNL     1      -3.181   7.241 112.198  1.00  0.00     0.028 C 
HETATM   23  C25 UNL     1      -2.320   6.475 113.204  1.00  0.00     0.016 C 
HETATM   24  C26 UNL     1      -4.068   8.171 113.075  1.00  0.00     0.126 C 
ENDROOT
BRANCH  11  25
HETATM   25  C17 UNL     1       1.438   3.309 110.125  1.00  0.00     0.157 C 
BRANCH  25  26
HETATM   26  C18 UNL     1       1.553   2.077 109.293  1.00  0.00     0.391 C 
HETATM   27  F1  UNL     1       2.869   2.035 108.823  1.00  0.00    -0.171 F 
HETATM   28  F2  UNL     1       1.385   0.962 110.110  1.00  0.00    -0.171 F 
HETATM   29  F3  UNL     1       0.670   1.963 108.262  1.00  0.00    -0.171 F 
ENDBRANCH  25  26
ENDBRANCH  11  25
BRANCH   1  30
HETATM   30  C3  UNL     1      -5.601  10.030 112.927  1.00  0.00     0.149 C 
BRANCH  30  31
HETATM   31  C2  UNL     1      -5.320  11.277 112.236  1.00  0.00     0.032 C 
HETATM   32  C1  UNL     1      -3.929  11.599 111.733  1.00  0.00     0.068 C 
HETATM   33  N1  UNL     1      -6.199  12.143 111.947  1.00  0.00    -0.275 N 
ATOM     34  H1  UNL     1      -7.159  11.986 112.257  1.00  0.00     0.193 HD
BRANCH  33  35
HETATM   35  O1  UNL     1      -5.919  13.275 111.240  1.00  0.00    -0.290 OA
ATOM     36  H1  UNL     1      -6.527  13.660 110.621  1.00  0.00     0.244 HD
ENDBRANCH  33  35
ENDBRANCH  30  31
BRANCH  30  37
HETATM   37  C4  UNL     1      -7.000   9.672 113.159  1.00  0.00     0.006 C 
BRANCH  37  38
HETATM   38  C5  UNL     1      -7.728   9.951 114.384  1.00  0.00    -0.089 C 
HETATM   39  C6  UNL     1      -6.896   9.891 115.655  1.00  0.00     0.042 C 
HETATM   40  C7  UNL     1      -8.716  11.049 114.504  1.00  0.00     0.042 C 
ENDBRANCH  37  38
ENDBRANCH  30  37
ENDBRANCH   1  30
TORSDOF 7
ENDMDL
MODEL 4
REMARK VINA RESULT: -7.854823981      4.352      8.069
REMARK  7 active torsions:
REMARK  status: ('A' for Active; 'I' for Inactive)
REMARK    1  A    between atoms: C2_2  and  C3_7 
REMARK    2  A    between atoms: N1_3  and  O1_5 
REMARK    3  A    between atoms: C3_7  and  C4_8 
REMARK    4  A    between atoms: C3_7  and  N2_12 
REMARK    5  A    between atoms: C4_8  and  C5_9 
REMARK    6  A    between atoms: C16_22  and  C17_23 
REMARK    7  A    between atoms: C17_23  and  C18_24 
ROOT
HETATM    1  N2  UNL     1      -5.982   3.895 110.010  1.00  0.00    -0.399 N 
HETATM    2  C8  UNL     1      -6.147   3.694 111.386  1.00  0.00     0.122 C 
HETATM    3  C9  UNL     1      -7.137   4.806 111.852  1.00  0.00     0.055 C 
HETATM    4  C10 UNL     1      -6.387   6.118 111.697  1.00  0.00    -0.064 C 
HETATM    5  C11 UNL     1      -6.481   6.942 112.684  1.00  0.00    -0.017 C 
HETATM    6  C12 UNL     1      -5.786   8.249 112.697  1.00  0.00     0.008 A 
HETATM    7  C13 UNL     1      -4.499   8.336 112.211  1.00  0.00     0.038 A 
HETATM    8  C14 UNL     1      -3.865   9.555 112.167  1.00  0.00     0.052 A 
HETATM    9  C15 UNL     1      -2.487   9.635 111.698  1.00  0.00     0.100 C 
HETATM   10  N3  UNL     1      -1.387   9.670 111.346  1.00  0.00    -0.191 NA
HETATM   11  C16 UNL     1      -4.527  10.668 112.611  1.00  0.00    -0.026 A 
HETATM   12  C19 UNL     1      -5.831  10.576 113.108  1.00  0.00     0.047 A 
HETATM   13  C20 UNL     1      -6.451   9.359 113.149  1.00  0.00     0.089 A 
HETATM   14  O2  UNL     1      -7.765   9.209 113.657  1.00  0.00    -0.296 OA
HETATM   15  C21 UNL     1      -8.342   7.975 113.696  1.00  0.00     0.140 C 
HETATM   16  N4  UNL     1      -9.581   7.788 113.631  1.00  0.00    -0.382 N 
ATOM     17  H41 UNL     1     -10.013   6.865 113.660  1.00  0.00     0.158 HD
ATOM     18  H42 UNL     1     -10.196   8.597 113.542  1.00  0.00     0.158 HD
HETATM   19  C22 UNL     1      -7.424   6.768 113.828  1.00  0.00     0.201 C 
HETATM   20  C23 UNL     1      -6.722   6.943 115.102  1.00  0.00     0.077 C 
HETATM   21  N5  UNL     1      -6.169   7.063 116.115  1.00  0.00    -0.196 NA
HETATM   22  C24 UNL     1      -5.774   6.283 110.360  1.00  0.00     0.028 C 
HETATM   23  C25 UNL     1      -6.242   7.555 109.650  1.00  0.00     0.016 C 
HETATM   24  C26 UNL     1      -6.307   5.124 109.470  1.00  0.00     0.126 C 
ENDROOT
BRANCH  11  25
HETATM   25  C17 UNL     1      -3.926  12.027 112.524  1.00  0.00     0.157 C 
BRANCH  25  26
HETATM   26  C18 UNL     1      -4.298  12.785 111.295  1.00  0.00     0.391 C 
HETATM   27  F1  UNL     1      -3.729  14.056 111.423  1.00  0.00    -0.171 F 
HETATM   28  F2  UNL     1      -3.694  12.186 110.192  1.00  0.00    -0.171 F 
HETATM   29  F3  UNL     1      -5.631  12.880 111.028  1.00  0.00    -0.171 F 
ENDBRANCH  25  26
ENDBRANCH  11  25
BRANCH   1  30
HETATM   30  C3  UNL     1      -6.139   2.736 109.157  1.00  0.00     0.149 C 
BRANCH  30  31
HETATM   31  C2  UNL     1      -7.502   2.233 109.192  1.00  0.00     0.032 C 
HETATM   32  C1  UNL     1      -7.831   0.904 109.840  1.00  0.00     0.068 C 
HETATM   33  N1  UNL     1      -8.507   2.870 108.757  1.00  0.00    -0.275 N 
ATOM     34  H1  UNL     1      -8.355   3.774 108.308  1.00  0.00     0.193 HD
BRANCH  33  35
HETATM   35  O1  UNL     1      -9.783   2.402 108.862  1.00  0.00    -0.290 OA
ATOM     36  H1  UNL     1     -10.116   1.983 109.646  1.00  0.00     0.244 HD
ENDBRANCH  33  35
ENDBRANCH  30  31
BRANCH  30  37
HETATM   37  C4  UNL     1      -5.548   3.028 107.851  1.00  0.00     0.006 C 
BRANCH  37  38
HETATM   38  C5  UNL     1      -4.159   2.782 107.504  1.00  0.00    -0.089 C 
HETATM   39  C6  UNL     1      -3.776   3.152 106.081  1.00  0.00     0.042 C 
HETATM   40  C7  UNL     1      -3.031   3.107 108.409  1.00  0.00     0.042 C 
ENDBRANCH  37  38
ENDBRANCH  30  37
ENDBRANCH   1  30
TORSDOF 7
ENDMDL
MODEL 5
REMARK VINA RESULT: -7.741590944      1.800      2.335
REMARK  7 active torsions:
REMARK  status: ('A' for Active; 'I' for Inactive)
REMARK    1  A    between atoms: C2_2  and  C3_7 
REMARK    2  A    between atoms: N1_3  and  O1_5 
REMARK    3  A    between atoms: C3_7  and  C4_8 
REMARK    4  A    between atoms: C3_7  and  N2_12 
REMARK    5  A    between atoms: C4_8  and  C5_9 
REMARK    6  A    between atoms: C16_22  and  C17_23 
REMARK    7  A    between atoms: C17_23  and  C18_24 
ROOT
HETATM    1  N2  UNL     1      -4.938   7.944 111.287  1.00  0.00    -0.399 N 
HETATM    2  C8  UNL     1      -5.232   6.939 110.357  1.00  0.00     0.122 C 
HETATM    3  C9  UNL     1      -4.571   5.644 110.922  1.00  0.00     0.055 C 
HETATM    4  C10 UNL     1      -3.072   5.877 110.841  1.00  0.00    -0.064 C 
HETATM    5  C11 UNL     1      -2.372   4.898 110.379  1.00  0.00    -0.017 C 
HETATM    6  C12 UNL     1      -0.904   4.980 110.212  1.00  0.00     0.008 A 
HETATM    7  C13 UNL     1      -0.340   6.146 109.740  1.00  0.00     0.038 A 
HETATM    8  C14 UNL     1       1.027   6.251 109.635  1.00  0.00     0.052 A 
HETATM    9  C15 UNL     1       1.616   7.468 109.090  1.00  0.00     0.100 C 
HETATM   10  N3  UNL     1       2.059   8.432 108.632  1.00  0.00    -0.191 NA
HETATM   11  C16 UNL     1       1.809   5.190 110.001  1.00  0.00    -0.026 A 
HETATM   12  C19 UNL     1       1.234   4.005 110.475  1.00  0.00     0.047 A 
HETATM   13  C20 UNL     1      -0.126   3.911 110.574  1.00  0.00     0.089 A 
HETATM   14  O2  UNL     1      -0.759   2.729 111.033  1.00  0.00    -0.296 OA
HETATM   15  C21 UNL     1      -2.119   2.669 111.102  1.00  0.00     0.140 C 
HETATM   16  N4  UNL     1      -2.739   1.945 111.917  1.00  0.00    -0.382 N 
ATOM     17  H41 UNL     1      -3.757   1.900 111.968  1.00  0.00     0.158 HD
ATOM     18  H42 UNL     1      -2.206   1.368 112.568  1.00  0.00     0.158 HD
HETATM   19  C22 UNL     1      -2.915   3.529 110.131  1.00  0.00     0.201 C 
HETATM   20  C23 UNL     1      -2.541   3.064 108.792  1.00  0.00     0.077 C 
HETATM   21  N5  UNL     1      -2.264   2.697 107.728  1.00  0.00    -0.196 NA
HETATM   22  C24 UNL     1      -2.650   7.162 111.442  1.00  0.00     0.028 C 
HETATM   23  C25 UNL     1      -1.611   6.982 112.550  1.00  0.00     0.016 C 
HETATM   24  C26 UNL     1      -3.892   7.753 112.169  1.00  0.00     0.126 C 
ENDROOT
BRANCH  11  25
HETATM   25  C17 UNL     1       3.295   5.263 109.980  1.00  0.00     0.157 C 
BRANCH  25  26
HETATM   26  C18 UNL     1       3.929   4.536 108.842  1.00  0.00     0.391 C 
HETATM   27  F1  UNL     1       3.677   5.295 107.695  1.00  0.00    -0.171 F 
HETATM   28  F2  UNL     1       5.310   4.529 109.021  1.00  0.00    -0.171 F 
HETATM   29  F3  UNL     1       3.535   3.244 108.660  1.00  0.00    -0.171 F 
ENDBRANCH  25  26
ENDBRANCH  11  25
BRANCH   1  30
HETATM   30  C3  UNL     1      -6.045   8.758 111.741  1.00  0.00     0.149 C 
BRANCH  30  31
HETATM   31  C2  UNL     1      -7.017   7.968 112.477  1.00  0.00     0.032 C 
HETATM   32  C1  UNL     1      -6.902   7.780 113.975  1.00  0.00     0.068 C 
HETATM   33  N1  UNL     1      -8.046   7.441 111.957  1.00  0.00    -0.275 N 
ATOM     34  H1  UNL     1      -8.183   7.531 110.950  1.00  0.00     0.193 HD
BRANCH  33  35
HETATM   35  O1  UNL     1      -8.976   6.759 112.684  1.00  0.00    -0.290 OA
ATOM     36  H1  UNL     1      -9.642   7.191 113.205  1.00  0.00     0.244 HD
ENDBRANCH  33  35
ENDBRANCH  30  31
BRANCH  30  37
HETATM   37  C4  UNL     1      -5.514   9.963 112.379  1.00  0.00     0.006 C 
BRANCH  37  38
HETATM   38  C5  UNL     1      -5.009  11.119 111.659  1.00  0.00    -0.089 C 
HETATM   39  C6  UNL     1      -5.753  12.417 111.924  1.00  0.00     0.042 C 
HETATM   40  C7  UNL     1      -3.563  11.411 111.514  1.00  0.00     0.042 C 
ENDBRANCH  37  38
ENDBRANCH  30  37
ENDBRANCH   1  30
TORSDOF 7
ENDMDL
