MODEL 1
REMARK VINA RESULT: -7.641835538      0.000      0.000
REMARK  6 active torsions:
REMARK  status: ('A' for Active; 'I' for Inactive)
REMARK    1  A    between atoms: C2_2  and  C4_4 
REMARK    2  A    between atoms: C6_9  and  N2_10 
REMARK    3  A    between atoms: N3_13  and  C9_14 
REMARK    4  A    between atoms: C10_15  and  C11_16 
REMARK    5  A    between atoms: N5_21  and  C14_22 
REMARK    6  A    between atoms: C18_30  and  O1_31 
ROOT
HETATM    1  C9  UNL     1      -6.484   9.971 113.402  1.00  0.00     0.108 A 
HETATM    2  C10 UNL     1      -6.624   8.937 114.296  1.00  0.00     0.060 A 
HETATM    3  N4  UNL     1      -7.660   9.235 115.109  1.00  0.00    -0.293 N 
ATOM      4  H4  UNL     1      -7.984   8.634 115.867  1.00  0.00     0.187 HD
HETATM    5  N5  UNL     1      -8.202  10.399 114.801  1.00  0.00    -0.229 N 
HETATM    6  C18 UNL     1      -7.498  10.875 113.753  1.00  0.00     0.191 A 
ENDROOT
BRANCH   1   7
HETATM    7  N3  UNL     1      -5.552  10.106 112.366  1.00  0.00    -0.373 N 
HETATM    8  C8  UNL     1      -5.509   9.218 111.256  1.00  0.00     0.143 C 
HETATM    9  C7  UNL     1      -4.137   8.808 110.805  1.00  0.00     0.143 C 
HETATM   10  N2  UNL     1      -3.058   9.579 111.300  1.00  0.00    -0.370 N 
HETATM   11  C20 UNL     1      -3.240  10.468 112.458  1.00  0.00     0.143 C 
HETATM   12  C19 UNL     1      -4.565  11.190 112.382  1.00  0.00     0.143 C 
BRANCH  10  13
HETATM   13  C6  UNL     1      -1.749   9.559 110.753  1.00  0.00     0.113 A 
HETATM   14  C5  UNL     1      -0.877   8.548 110.437  1.00  0.00     0.138 A 
HETATM   15  N1  UNL     1       0.268   8.871 109.919  1.00  0.00    -0.342 N 
HETATM   16 CL1  UNL     1      -1.323   6.836 110.760  1.00  0.00    -0.061 Cl
HETATM   17  C4  UNL     1       0.578  10.130 109.704  1.00  0.00     0.057 A 
ATOM     18  H1  UNL     1       0.936   8.139 109.676  1.00  0.00     0.167 HD
HETATM   19  S1  UNL     1      -0.821  10.936 110.262  1.00  0.00    -0.056 SA
BRANCH  17  20
HETATM   20  C2  UNL     1       1.811  10.757 109.123  1.00  0.00     0.035 C 
HETATM   21  C1  UNL     1       1.485  11.322 107.777  1.00  0.00     0.016 C 
HETATM   22  C3  UNL     1       2.305  11.792 110.105  1.00  0.00     0.016 C 
ENDBRANCH  17  20
ENDBRANCH  10  13
ENDBRANCH   1   7
BRANCH   2  23
HETATM   23  C11 UNL     1      -5.811   7.698 114.397  1.00  0.00     0.031 C 
HETATM   24  C12 UNL     1      -6.386   6.672 113.440  1.00  0.00     0.016 C 
HETATM   25  C13 UNL     1      -5.942   7.141 115.794  1.00  0.00     0.016 C 
ENDBRANCH   2  23
BRANCH   6  26
HETATM   26  O1  UNL     1      -7.708  12.057 113.103  1.00  0.00    -0.343 OA
ATOM     27  H1  UNL     1      -8.568  12.362 112.840  1.00  0.00     0.219 HD
ENDBRANCH   6  26
BRANCH   5  28
HETATM   28  C14 UNL     1      -9.304  11.033 115.432  1.00  0.00     0.100 A 
HETATM   29  C15 UNL     1      -9.270  11.954 116.450  1.00  0.00     0.077 A 
HETATM   30  C16 UNL     1     -10.574  12.315 116.771  1.00  0.00     0.106 A 
HETATM   31 CL2  UNL     1     -11.019  13.467 118.014  1.00  0.00    -0.064 Cl
HETATM   32  N6  UNL     1     -11.370  11.615 115.950  1.00  0.00    -0.335 N 
HETATM   33  C17 UNL     1     -10.627  10.831 115.129  1.00  0.00     0.133 A 
ATOM     34  H6  UNL     1     -12.389  11.664 115.944  1.00  0.00     0.168 HD
HETATM   35 CL3  UNL     1     -11.174   9.731 113.885  1.00  0.00    -0.062 Cl
ENDBRANCH   5  28
TORSDOF 6
ENDMDL
MODEL 2
REMARK VINA RESULT: -7.542595269      3.321      9.638
REMARK  6 active torsions:
REMARK  status: ('A' for Active; 'I' for Inactive)
REMARK    1  A    between atoms: C2_2  and  C4_4 
REMARK    2  A    between atoms: C6_9  and  N2_10 
REMARK    3  A    between atoms: N3_13  and  C9_14 
REMARK    4  A    between atoms: C10_15  and  C11_16 
REMARK    5  A    between atoms: N5_21  and  C14_22 
REMARK    6  A    between atoms: C18_30  and  O1_31 
ROOT
HETATM    1  C9  UNL     1      -2.041   7.513 110.858  1.00  0.00     0.108 A 
HETATM    2  C10 UNL     1      -1.034   6.611 110.614  1.00  0.00     0.060 A 
HETATM    3  N4  UNL     1       0.064   7.310 110.257  1.00  0.00    -0.293 N 
ATOM      4  H4  UNL     1       0.962   6.886 110.020  1.00  0.00     0.187 HD
HETATM    5  N5  UNL     1      -0.166   8.611 110.253  1.00  0.00    -0.229 N 
HETATM    6  C18 UNL     1      -1.455   8.764 110.619  1.00  0.00     0.191 A 
ENDROOT
BRANCH   1   7
HETATM    7  N3  UNL     1      -3.359   7.258 111.261  1.00  0.00    -0.373 N 
HETATM    8  C8  UNL     1      -4.430   7.128 110.335  1.00  0.00     0.143 C 
HETATM    9  C7  UNL     1      -5.718   7.786 110.735  1.00  0.00     0.143 C 
HETATM   10  N2  UNL     1      -5.830   8.170 112.093  1.00  0.00    -0.370 N 
HETATM   11  C20 UNL     1      -4.636   8.261 112.948  1.00  0.00     0.143 C 
HETATM   12  C19 UNL     1      -3.692   7.111 112.681  1.00  0.00     0.143 C 
BRANCH  10  13
HETATM   13  C6  UNL     1      -7.055   8.503 112.728  1.00  0.00     0.113 A 
HETATM   14  C5  UNL     1      -8.286   7.900 112.770  1.00  0.00     0.138 A 
HETATM   15  N1  UNL     1      -9.216   8.464 113.477  1.00  0.00    -0.342 N 
HETATM   16 CL1  UNL     1      -8.583   6.385 111.847  1.00  0.00    -0.061 Cl
HETATM   17  C4  UNL     1      -8.980   9.578 114.133  1.00  0.00     0.057 A 
ATOM     18  H1  UNL     1     -10.142   8.037 113.525  1.00  0.00     0.167 HD
HETATM   19  S1  UNL     1      -7.344   9.875 113.743  1.00  0.00    -0.056 SA
BRANCH  17  20
HETATM   20  C2  UNL     1      -9.867  10.412 115.010  1.00  0.00     0.035 C 
HETATM   21  C1  UNL     1      -9.280  11.783 115.136  1.00  0.00     0.016 C 
HETATM   22  C3  UNL     1     -11.250  10.405 114.404  1.00  0.00     0.016 C 
ENDBRANCH  17  20
ENDBRANCH  10  13
ENDBRANCH   1   7
BRANCH   2  23
HETATM   23  C11 UNL     1      -1.089   5.130 110.705  1.00  0.00     0.031 C 
HETATM   24  C12 UNL     1      -0.837   4.732 112.147  1.00  0.00     0.016 C 
HETATM   25  C13 UNL     1       0.027   4.547 109.872  1.00  0.00     0.016 C 
ENDBRANCH   2  23
BRANCH   6  26
HETATM   26  O1  UNL     1      -2.127   9.945 110.749  1.00  0.00    -0.343 OA
ATOM     27  H1  UNL     1      -1.866  10.746 110.310  1.00  0.00     0.219 HD
ENDBRANCH   6  26
BRANCH   5  28
HETATM   28  C14 UNL     1       0.748   9.649 109.932  1.00  0.00     0.100 A 
HETATM   29  C15 UNL     1       0.943  10.830 110.604  1.00  0.00     0.077 A 
HETATM   30  C16 UNL     1       1.932  11.559 109.951  1.00  0.00     0.106 A 
HETATM   31 CL2  UNL     1       2.513  13.133 110.453  1.00  0.00    -0.064 Cl
HETATM   32  N6  UNL     1       2.316  10.815 108.904  1.00  0.00    -0.335 N 
HETATM   33  C17 UNL     1       1.616   9.653 108.869  1.00  0.00     0.133 A 
ATOM     34  H6  UNL     1       3.033  11.083 108.230  1.00  0.00     0.168 HD
HETATM   35 CL3  UNL     1       1.732   8.345 107.714  1.00  0.00    -0.062 Cl
ENDBRANCH   5  28
TORSDOF 6
ENDMDL
MODEL 3
REMARK VINA RESULT: -7.499864392      4.344      9.968
REMARK  6 active torsions:
REMARK  status: ('A' for Active; 'I' for Inactive)
REMARK    1  A    between atoms: C2_2  and  C4_4 
REMARK    2  A    between atoms: C6_9  and  N2_10 
REMARK    3  A    between atoms: N3_13  and  C9_14 
REMARK    4  A    between atoms: C10_15  and  C11_16 
REMARK    5  A    between atoms: N5_21  and  C14_22 
REMARK    6  A    between atoms: C18_30  and  O1_31 
ROOT
HETATM    1  C9  UNL     1      -1.921   8.531 110.959  1.00  0.00     0.108 A 
HETATM    2  C10 UNL     1      -1.100   7.463 110.688  1.00  0.00     0.060 A 
HETATM    3  N4  UNL     1       0.006   7.940 110.079  1.00  0.00    -0.293 N 
ATOM      4  H4  UNL     1       0.786   7.360 109.768  1.00  0.00     0.187 HD
HETATM    5  N5  UNL     1      -0.045   9.253 109.935  1.00  0.00    -0.229 N 
HETATM    6  C18 UNL     1      -1.221   9.643 110.469  1.00  0.00     0.191 A 
ENDROOT
BRANCH   1   7
HETATM    7  N3  UNL     1      -3.173   8.529 111.588  1.00  0.00    -0.373 N 
HETATM    8  C8  UNL     1      -3.420   7.821 112.796  1.00  0.00     0.143 C 
HETATM    9  C7  UNL     1      -4.734   7.098 112.867  1.00  0.00     0.143 C 
HETATM   10  N2  UNL     1      -5.700   7.455 111.896  1.00  0.00    -0.370 N 
HETATM   11  C20 UNL     1      -5.309   8.197 110.687  1.00  0.00     0.143 C 
HETATM   12  C19 UNL     1      -4.299   9.273 111.015  1.00  0.00     0.143 C 
BRANCH  10  13
HETATM   13  C6  UNL     1      -7.079   7.133 111.988  1.00  0.00     0.113 A 
HETATM   14  C5  UNL     1      -7.841   6.111 111.484  1.00  0.00     0.138 A 
HETATM   15  N1  UNL     1      -9.105   6.092 111.776  1.00  0.00    -0.342 N 
HETATM   16 CL1  UNL     1      -7.092   4.857 110.434  1.00  0.00    -0.061 Cl
HETATM   17  C4  UNL     1      -9.633   7.026 112.535  1.00  0.00     0.057 A 
ATOM     18  H1  UNL     1      -9.695   5.343 111.414  1.00  0.00     0.167 HD
HETATM   19  S1  UNL     1      -8.280   8.012 112.872  1.00  0.00    -0.056 SA
BRANCH  17  20
HETATM   20  C2  UNL     1     -11.041   7.226 113.016  1.00  0.00     0.035 C 
HETATM   21  C1  UNL     1     -11.314   6.274 114.137  1.00  0.00     0.016 C 
HETATM   22  C3  UNL     1     -11.188   8.676 113.411  1.00  0.00     0.016 C 
ENDBRANCH  17  20
ENDBRANCH  10  13
ENDBRANCH   1   7
BRANCH   2  23
HETATM   23  C11 UNL     1      -1.337   6.027 110.985  1.00  0.00     0.031 C 
HETATM   24  C12 UNL     1      -0.111   5.244 110.555  1.00  0.00     0.016 C 
HETATM   25  C13 UNL     1      -2.500   5.542 110.154  1.00  0.00     0.016 C 
ENDBRANCH   2  23
BRANCH   6  26
HETATM   26  O1  UNL     1      -1.696  10.920 110.539  1.00  0.00    -0.343 OA
ATOM     27  H1  UNL     1      -1.500  11.587 109.892  1.00  0.00     0.219 HD
ENDBRANCH   6  26
BRANCH   5  28
HETATM   28  C14 UNL     1       0.933  10.096 109.344  1.00  0.00     0.100 A 
HETATM   29  C15 UNL     1       1.249  10.207 108.013  1.00  0.00     0.077 A 
HETATM   30  C16 UNL     1       2.264  11.147 107.871  1.00  0.00     0.106 A 
HETATM   31 CL2  UNL     1       2.988  11.618 106.347  1.00  0.00    -0.064 Cl
HETATM   32  N6  UNL     1       2.544  11.586 109.106  1.00  0.00    -0.335 N 
HETATM   33  C17 UNL     1       1.753  10.967 110.017  1.00  0.00     0.133 A 
ATOM     34  H6  UNL     1       3.252  12.287 109.329  1.00  0.00     0.168 HD
HETATM   35 CL3  UNL     1       1.719  11.178 111.753  1.00  0.00    -0.062 Cl
ENDBRANCH   5  28
TORSDOF 6
ENDMDL
MODEL 4
REMARK VINA RESULT: -7.484769030      3.253      9.920
REMARK  6 active torsions:
REMARK  status: ('A' for Active; 'I' for Inactive)
REMARK    1  A    between atoms: C2_2  and  C4_4 
REMARK    2  A    between atoms: C6_9  and  N2_10 
REMARK    3  A    between atoms: N3_13  and  C9_14 
REMARK    4  A    between atoms: C10_15  and  C11_16 
REMARK    5  A    between atoms: N5_21  and  C14_22 
REMARK    6  A    between atoms: C18_30  and  O1_31 
ROOT
HETATM    1  C9  UNL     1      -2.557   9.466 110.781  1.00  0.00     0.108 A 
HETATM    2  C10 UNL     1      -1.841   8.294 110.775  1.00  0.00     0.060 A 
HETATM    3  N4  UNL     1      -0.611   8.567 110.291  1.00  0.00    -0.293 N 
ATOM      4  H4  UNL     1       0.129   7.874 110.179  1.00  0.00     0.187 HD
HETATM    5  N5  UNL     1      -0.483   9.845 109.980  1.00  0.00    -0.229 N 
HETATM    6  C18 UNL     1      -1.667  10.422 110.272  1.00  0.00     0.191 A 
ENDROOT
BRANCH   1   7
HETATM    7  N3  UNL     1      -3.877   9.678 111.203  1.00  0.00    -0.373 N 
HETATM    8  C8  UNL     1      -4.254  10.792 112.001  1.00  0.00     0.143 C 
HETATM    9  C7  UNL     1      -5.230  10.501 113.103  1.00  0.00     0.143 C 
HETATM   10  N2  UNL     1      -5.907   9.260 113.030  1.00  0.00    -0.370 N 
HETATM   11  C20 UNL     1      -5.411   8.186 112.154  1.00  0.00     0.143 C 
HETATM   12  C19 UNL     1      -4.942   8.742 110.829  1.00  0.00     0.143 C 
BRANCH  10  13
HETATM   13  C6  UNL     1      -7.073   8.943 113.773  1.00  0.00     0.113 A 
HETATM   14  C5  UNL     1      -7.430   9.125 115.084  1.00  0.00     0.138 A 
HETATM   15  N1  UNL     1      -8.610   8.731 115.455  1.00  0.00    -0.342 N 
HETATM   16 CL1  UNL     1      -6.273   9.872 116.241  1.00  0.00    -0.061 Cl
HETATM   17  C4  UNL     1      -9.434   8.175 114.594  1.00  0.00     0.057 A 
ATOM     18  H1  UNL     1      -8.901   8.853 116.425  1.00  0.00     0.167 HD
HETATM   19  S1  UNL     1      -8.510   8.196 113.158  1.00  0.00    -0.056 SA
BRANCH  17  20
HETATM   20  C2  UNL     1     -10.828   7.648 114.765  1.00  0.00     0.035 C 
HETATM   21  C1  UNL     1     -11.576   8.539 115.706  1.00  0.00     0.016 C 
HETATM   22  C3  UNL     1     -11.456   7.560 113.395  1.00  0.00     0.016 C 
ENDBRANCH  17  20
ENDBRANCH  10  13
ENDBRANCH   1   7
BRANCH   2  23
HETATM   23  C11 UNL     1      -2.288   6.945 111.206  1.00  0.00     0.031 C 
HETATM   24  C12 UNL     1      -2.012   6.803 112.690  1.00  0.00     0.016 C 
HETATM   25  C13 UNL     1      -1.463   5.904 110.489  1.00  0.00     0.016 C 
ENDBRANCH   2  23
BRANCH   6  26
HETATM   26  O1  UNL     1      -1.991  11.738 110.110  1.00  0.00    -0.343 OA
ATOM     27  H1  UNL     1      -1.451  12.353 109.626  1.00  0.00     0.219 HD
ENDBRANCH   6  26
BRANCH   5  28
HETATM   28  C14 UNL     1       0.662  10.495 109.449  1.00  0.00     0.100 A 
HETATM   29  C15 UNL     1       1.004  10.642 108.128  1.00  0.00     0.077 A 
HETATM   30  C16 UNL     1       2.204  11.340 108.051  1.00  0.00     0.106 A 
HETATM   31 CL2  UNL     1       3.026  11.762 106.562  1.00  0.00    -0.064 Cl
HETATM   32  N6  UNL     1       2.567  11.602 109.315  1.00  0.00    -0.335 N 
HETATM   33  C17 UNL     1       1.651  11.102 110.181  1.00  0.00     0.133 A 
ATOM     34  H6  UNL     1       3.412  12.106 109.586  1.00  0.00     0.168 HD
HETATM   35 CL3  UNL     1       1.654  11.171 111.929  1.00  0.00    -0.062 Cl
ENDBRANCH   5  28
TORSDOF 6
ENDMDL
MODEL 5
REMARK VINA RESULT: -7.465954225      2.841      4.067
REMARK  6 active torsions:
REMARK  status: ('A' for Active; 'I' for Inactive)
REMARK    1  A    between atoms: C2_2  and  C4_4 
REMARK    2  A    between atoms: C6_9  and  N2_10 
REMARK    3  A    between atoms: N3_13  and  C9_14 
REMARK    4  A    between atoms: C10_15  and  C11_16 
REMARK    5  A    between atoms: N5_21  and  C14_22 
REMARK    6  A    between atoms: C18_30  and  O1_31 
ROOT
HETATM    1  C9  UNL     1      -6.661   7.541 112.569  1.00  0.00     0.108 A 
HETATM    2  C10 UNL     1      -7.063   8.418 113.548  1.00  0.00     0.060 A 
HETATM    3  N4  UNL     1      -8.311   8.069 113.924  1.00  0.00    -0.293 N 
ATOM      4  H4  UNL     1      -8.850   8.554 114.641  1.00  0.00     0.187 HD
HETATM    5  N5  UNL     1      -8.748   7.020 113.250  1.00  0.00    -0.229 N 
HETATM    6  C18 UNL     1      -7.752   6.674 112.408  1.00  0.00     0.191 A 
ENDROOT
BRANCH   1   7
HETATM    7  N3  UNL     1      -5.441   7.503 111.881  1.00  0.00    -0.373 N 
HETATM    8  C8  UNL     1      -4.319   6.770 112.356  1.00  0.00     0.143 C 
HETATM    9  C7  UNL     1      -2.991   7.453 112.216  1.00  0.00     0.143 C 
HETATM   10  N2  UNL     1      -2.950   8.576 111.355  1.00  0.00    -0.370 N 
HETATM   11  C20 UNL     1      -4.193   9.242 110.933  1.00  0.00     0.143 C 
HETATM   12  C19 UNL     1      -5.270   8.230 110.619  1.00  0.00     0.143 C 
BRANCH  10  13
HETATM   13  C6  UNL     1      -1.755   9.148 110.848  1.00  0.00     0.113 A 
HETATM   14  C5  UNL     1      -0.608   8.615 110.319  1.00  0.00     0.138 A 
HETATM   15  N1  UNL     1       0.315   9.434 109.918  1.00  0.00    -0.342 N 
HETATM   16 CL1  UNL     1      -0.406   6.831 110.213  1.00  0.00    -0.061 Cl
HETATM   17  C4  UNL     1       0.151  10.734 110.017  1.00  0.00     0.057 A 
ATOM     18  H1  UNL     1       1.179   9.064 109.521  1.00  0.00     0.167 HD
HETATM   19  S1  UNL     1      -1.402  10.839 110.721  1.00  0.00    -0.056 SA
BRANCH  17  20
HETATM   20  C2  UNL     1       1.047  11.873 109.629  1.00  0.00     0.035 C 
HETATM   21  C1  UNL     1       2.135  12.008 110.648  1.00  0.00     0.016 C 
HETATM   22  C3  UNL     1       1.560  11.600 108.236  1.00  0.00     0.016 C 
ENDBRANCH  17  20
ENDBRANCH  10  13
ENDBRANCH   1   7
BRANCH   2  23
HETATM   23  C11 UNL     1      -6.305   9.559 114.121  1.00  0.00     0.031 C 
HETATM   24  C12 UNL     1      -6.722   9.728 115.569  1.00  0.00     0.016 C 
HETATM   25  C13 UNL     1      -6.693  10.821 113.387  1.00  0.00     0.016 C 
ENDBRANCH   2  23
BRANCH   6  26
HETATM   26  O1  UNL     1      -7.765   5.641 111.516  1.00  0.00    -0.343 OA
ATOM     27  H1  UNL     1      -8.465   5.001 111.468  1.00  0.00     0.219 HD
ENDBRANCH   6  26
BRANCH   5  28
HETATM   28  C14 UNL     1     -10.006   6.374 113.376  1.00  0.00     0.100 A 
HETATM   29  C15 UNL     1     -10.245   5.051 113.651  1.00  0.00     0.077 A 
HETATM   30  C16 UNL     1     -11.620   4.841 113.685  1.00  0.00     0.106 A 
HETATM   31 CL2  UNL     1     -12.392   3.301 114.002  1.00  0.00    -0.064 Cl
HETATM   32  N6  UNL     1     -12.186   6.030 113.431  1.00  0.00    -0.335 N 
HETATM   33  C17 UNL     1     -11.233   6.976 113.241  1.00  0.00     0.133 A 
ATOM     34  H6  UNL     1     -13.192   6.199 113.387  1.00  0.00     0.168 HD
HETATM   35 CL3  UNL     1     -11.440   8.674 112.881  1.00  0.00    -0.062 Cl
ENDBRANCH   5  28
TORSDOF 6
ENDMDL
