MODEL 1
REMARK VINA RESULT: -5.465604291      0.000      0.000
REMARK  6 active torsions:
REMARK  status: ('A' for Active; 'I' for Inactive)
REMARK    1  A    between atoms: C1_2  and  C2_3 
REMARK    2  A    between atoms: C4_5  and  C5_6 
REMARK    3  A    between atoms: C5_6  and  N1_7 
REMARK    4  A    between atoms: N1_7  and  C6_9 
REMARK    5  A    between atoms: C6_9  and  N2_11 
REMARK    6  A    between atoms: N2_11  and  C7_13 
ROOT
HETATM    1  N1  UNL     1       8.882  15.808  15.380  1.00  0.00    -0.367 N 
ATOM      2  H1  UNL     1       9.423  15.952  14.527  1.00  0.00     0.161 HD
ENDROOT
BRANCH   1   3
HETATM    3  C5  UNL     1       8.112  14.593  15.439  1.00  0.00     0.127 C 
BRANCH   3   4
HETATM    4  C4  UNL     1       8.950  13.398  14.976  1.00  0.00     0.015 A 
HETATM    5  C2  UNL     1       8.391  12.021  15.161  1.00  0.00     0.053 A 
HETATM    6  C3  UNL     1       9.394  12.483  16.125  1.00  0.00     0.019 A 
BRANCH   5   7
HETATM    7  C1  UNL     1       8.792  10.935  14.242  1.00  0.00     0.236 C 
HETATM    8  O1  UNL     1       8.601  11.005  13.048  1.00  0.00    -0.306 OA
ENDBRANCH   5   7
ENDBRANCH   3   4
ENDBRANCH   1   3
BRANCH   1   9
HETATM    9  C6  UNL     1       8.980  16.805  16.334  1.00  0.00     0.167 C 
HETATM   10  S1  UNL     1       7.906  18.074  16.219  1.00  0.00    -0.041 SA
BRANCH   9  11
HETATM   11  N2  UNL     1       9.890  16.857  17.385  1.00  0.00    -0.363 N 
ATOM     12  H2  UNL     1       9.902  16.040  17.996  1.00  0.00     0.162 HD
BRANCH  11  13
HETATM   13  C7  UNL     1      10.815  17.901  17.731  1.00  0.00     0.084 A 
HETATM   14  C8  UNL     1      10.654  18.433  19.184  1.00  0.00     0.027 A 
HETATM   15  C9  UNL     1      11.874  17.754  18.741  1.00  0.00     0.027 A 
ENDBRANCH  11  13
ENDBRANCH   9  11
ENDBRANCH   1   9
TORSDOF 6
ENDMDL
MODEL 2
REMARK VINA RESULT: -5.396258592      1.489      1.851
REMARK  6 active torsions:
REMARK  status: ('A' for Active; 'I' for Inactive)
REMARK    1  A    between atoms: C1_2  and  C2_3 
REMARK    2  A    between atoms: C4_5  and  C5_6 
REMARK    3  A    between atoms: C5_6  and  N1_7 
REMARK    4  A    between atoms: N1_7  and  C6_9 
REMARK    5  A    between atoms: C6_9  and  N2_11 
REMARK    6  A    between atoms: N2_11  and  C7_13 
ROOT
HETATM    1  N1  UNL     1       8.294  15.085  16.936  1.00  0.00    -0.367 N 
ATOM      2  H1  UNL     1       7.905  15.390  17.828  1.00  0.00     0.161 HD
ENDROOT
BRANCH   1   3
HETATM    3  C5  UNL     1       8.789  13.734  16.894  1.00  0.00     0.127 C 
BRANCH   3   4
HETATM    4  C4  UNL     1       8.456  13.077  15.552  1.00  0.00     0.015 A 
HETATM    5  C2  UNL     1       9.044  11.733  15.251  1.00  0.00     0.053 A 
HETATM    6  C3  UNL     1       9.676  12.905  14.638  1.00  0.00     0.019 A 
BRANCH   5   7
HETATM    7  C1  UNL     1       8.332  10.803  14.349  1.00  0.00     0.236 C 
HETATM    8  O1  UNL     1       8.794  10.471  13.280  1.00  0.00    -0.306 OA
ENDBRANCH   5   7
ENDBRANCH   3   4
ENDBRANCH   1   3
BRANCH   1   9
HETATM    9  C6  UNL     1       8.280  16.023  15.919  1.00  0.00     0.167 C 
HETATM   10  S1  UNL     1       6.825  16.286  15.149  1.00  0.00    -0.041 SA
BRANCH   9  11
HETATM   11  N2  UNL     1       9.362  16.772  15.469  1.00  0.00    -0.363 N 
ATOM     12  H2  UNL     1       9.990  16.293  14.824  1.00  0.00     0.162 HD
BRANCH  11  13
HETATM   13  C7  UNL     1       9.720  18.127  15.787  1.00  0.00     0.084 A 
HETATM   14  C8  UNL     1      10.853  18.250  16.846  1.00  0.00     0.027 A 
HETATM   15  C9  UNL     1      11.026  18.725  15.471  1.00  0.00     0.027 A 
ENDBRANCH  11  13
ENDBRANCH   9  11
ENDBRANCH   1   9
TORSDOF 6
ENDMDL
MODEL 3
REMARK VINA RESULT: -5.364247150      0.937      1.105
REMARK  6 active torsions:
REMARK  status: ('A' for Active; 'I' for Inactive)
REMARK    1  A    between atoms: C1_2  and  C2_3 
REMARK    2  A    between atoms: C4_5  and  C5_6 
REMARK    3  A    between atoms: C5_6  and  N1_7 
REMARK    4  A    between atoms: N1_7  and  C6_9 
REMARK    5  A    between atoms: C6_9  and  N2_11 
REMARK    6  A    between atoms: N2_11  and  C7_13 
ROOT
HETATM    1  N1  UNL     1       8.152  15.274  16.952  1.00  0.00    -0.367 N 
ATOM      2  H1  UNL     1       7.131  15.267  16.956  1.00  0.00     0.161 HD
ENDROOT
BRANCH   1   3
HETATM    3  C5  UNL     1       8.790  13.984  16.926  1.00  0.00     0.127 C 
BRANCH   3   4
HETATM    4  C4  UNL     1       8.416  13.221  15.653  1.00  0.00     0.015 A 
HETATM    5  C2  UNL     1       9.100  11.916  15.377  1.00  0.00     0.053 A 
HETATM    6  C3  UNL     1       9.574  13.100  14.653  1.00  0.00     0.019 A 
BRANCH   5   7
HETATM    7  C1  UNL     1       8.408  10.877  14.586  1.00  0.00     0.236 C 
HETATM    8  O1  UNL     1       8.803  10.537  13.493  1.00  0.00    -0.306 OA
ENDBRANCH   5   7
ENDBRANCH   3   4
ENDBRANCH   1   3
BRANCH   1   9
HETATM    9  C6  UNL     1       8.748  16.522  16.973  1.00  0.00     0.167 C 
HETATM   10  S1  UNL     1       7.837  17.808  16.429  1.00  0.00    -0.041 SA
BRANCH   9  11
HETATM   11  N2  UNL     1      10.037  16.816  17.405  1.00  0.00    -0.363 N 
ATOM     12  H2  UNL     1      10.723  16.072  17.275  1.00  0.00     0.162 HD
BRANCH  11  13
HETATM   13  C7  UNL     1      10.539  18.020  18.007  1.00  0.00     0.084 A 
HETATM   14  C8  UNL     1      11.854  17.824  18.814  1.00  0.00     0.027 A 
HETATM   15  C9  UNL     1      11.801  18.667  17.617  1.00  0.00     0.027 A 
ENDBRANCH  11  13
ENDBRANCH   9  11
ENDBRANCH   1   9
TORSDOF 6
ENDMDL
MODEL 4
REMARK VINA RESULT: -5.343227425      2.141      2.367
REMARK  6 active torsions:
REMARK  status: ('A' for Active; 'I' for Inactive)
REMARK    1  A    between atoms: C1_2  and  C2_3 
REMARK    2  A    between atoms: C4_5  and  C5_6 
REMARK    3  A    between atoms: C5_6  and  N1_7 
REMARK    4  A    between atoms: N1_7  and  C6_9 
REMARK    5  A    between atoms: C6_9  and  N2_11 
REMARK    6  A    between atoms: N2_11  and  C7_13 
ROOT
HETATM    1  N1  UNL     1       7.459  16.133  14.052  1.00  0.00    -0.367 N 
ATOM      2  H1  UNL     1       7.571  15.662  13.154  1.00  0.00     0.161 HD
ENDROOT
BRANCH   1   3
HETATM    3  C5  UNL     1       7.336  15.275  15.201  1.00  0.00     0.127 C 
BRANCH   3   4
HETATM    4  C4  UNL     1       8.434  14.208  15.200  1.00  0.00     0.015 A 
HETATM    5  C2  UNL     1       8.097  12.838  15.705  1.00  0.00     0.053 A 
HETATM    6  C3  UNL     1       8.826  13.735  16.606  1.00  0.00     0.019 A 
BRANCH   5   7
HETATM    7  C1  UNL     1       8.830  11.663  15.188  1.00  0.00     0.236 C 
HETATM    8  O1  UNL     1       8.821  11.370  14.013  1.00  0.00    -0.306 OA
ENDBRANCH   5   7
ENDBRANCH   3   4
ENDBRANCH   1   3
BRANCH   1   9
HETATM    9  C6  UNL     1       7.445  17.516  14.012  1.00  0.00     0.167 C 
HETATM   10  S1  UNL     1       7.168  18.230  12.532  1.00  0.00    -0.041 SA
BRANCH   9  11
HETATM   11  N2  UNL     1       7.639  18.376  15.088  1.00  0.00    -0.363 N 
ATOM     12  H2  UNL     1       6.817  18.901  15.384  1.00  0.00     0.162 HD
BRANCH  11  13
HETATM   13  C7  UNL     1       8.837  18.629  15.840  1.00  0.00     0.084 A 
HETATM   14  C8  UNL     1       8.870  17.934  17.231  1.00  0.00     0.027 A 
HETATM   15  C9  UNL     1       9.827  17.594  16.176  1.00  0.00     0.027 A 
ENDBRANCH  11  13
ENDBRANCH   9  11
ENDBRANCH   1   9
TORSDOF 6
ENDMDL
MODEL 5
REMARK VINA RESULT: -5.321965995      2.119      3.198
REMARK  6 active torsions:
REMARK  status: ('A' for Active; 'I' for Inactive)
REMARK    1  A    between atoms: C1_2  and  C2_3 
REMARK    2  A    between atoms: C4_5  and  C5_6 
REMARK    3  A    between atoms: C5_6  and  N1_7 
REMARK    4  A    between atoms: N1_7  and  C6_9 
REMARK    5  A    between atoms: C6_9  and  N2_11 
REMARK    6  A    between atoms: N2_11  and  C7_13 
ROOT
HETATM    1  N1  UNL     1       8.412  15.118  17.070  1.00  0.00    -0.367 N 
ATOM      2  H1  UNL     1       7.636  15.282  17.713  1.00  0.00     0.161 HD
ENDROOT
BRANCH   1   3
HETATM    3  C5  UNL     1       8.892  13.763  16.997  1.00  0.00     0.127 C 
BRANCH   3   4
HETATM    4  C4  UNL     1       8.457  13.105  15.685  1.00  0.00     0.015 A 
HETATM    5  C2  UNL     1       9.094  11.807  15.293  1.00  0.00     0.053 A 
HETATM    6  C3  UNL     1       9.579  13.027  14.641  1.00  0.00     0.019 A 
BRANCH   5   7
HETATM    7  C1  UNL     1       8.348  10.846  14.453  1.00  0.00     0.236 C 
HETATM    8  O1  UNL     1       8.749  10.506  13.362  1.00  0.00    -0.306 OA
ENDBRANCH   5   7
ENDBRANCH   3   4
ENDBRANCH   1   3
BRANCH   1   9
HETATM    9  C6  UNL     1       8.869  16.227  16.380  1.00  0.00     0.167 C 
HETATM   10  S1  UNL     1       9.822  17.305  17.221  1.00  0.00    -0.041 SA
BRANCH   9  11
HETATM   11  N2  UNL     1       8.613  16.535  15.048  1.00  0.00    -0.363 N 
ATOM     12  H2  UNL     1       9.428  16.546  14.435  1.00  0.00     0.162 HD
BRANCH  11  13
HETATM   13  C7  UNL     1       7.359  16.841  14.414  1.00  0.00     0.084 A 
HETATM   14  C8  UNL     1       6.756  18.212  14.834  1.00  0.00     0.027 A 
HETATM   15  C9  UNL     1       7.173  17.942  13.456  1.00  0.00     0.027 A 
ENDBRANCH  11  13
ENDBRANCH   9  11
ENDBRANCH   1   9
TORSDOF 6
ENDMDL
