MODEL 1
REMARK VINA RESULT: -5.457399951      0.000      0.000
REMARK  6 active torsions:
REMARK  status: ('A' for Active; 'I' for Inactive)
REMARK    1  A    between atoms: C2_2  and  N1_3 
REMARK    2  A    between atoms: N1_3  and  C3_5 
REMARK    3  A    between atoms: C3_5  and  N2_7 
REMARK    4  A    between atoms: N2_7  and  C4_9 
REMARK    5  A    between atoms: C4_9  and  C5_10 
REMARK    6  A    between atoms: C5_10  and  N3_11 
ROOT
HETATM    1  N2  UNL     1       7.487  15.577  15.766  1.00  0.00    -0.366 N 
ATOM      2  H2  UNL     1       6.751  14.871  15.742  1.00  0.00     0.161 HD
ENDROOT
BRANCH   1   3
HETATM    3  C3  UNL     1       7.279  16.816  15.135  1.00  0.00     0.167 C 
HETATM    4  S1  UNL     1       7.238  18.186  16.037  1.00  0.00    -0.041 SA
BRANCH   3   5
HETATM    5  N1  UNL     1       7.076  16.859  13.724  1.00  0.00    -0.368 N 
ATOM      6  H1  UNL     1       6.992  16.000  13.181  1.00  0.00     0.161 HD
BRANCH   5   7
HETATM    7  C2  UNL     1       6.994  18.148  13.086  1.00  0.00     0.117 C 
HETATM    8  C1  UNL     1       7.667  18.033  11.739  1.00  0.00     0.026 C 
ENDBRANCH   5   7
ENDBRANCH   3   5
ENDBRANCH   1   3
BRANCH   1   9
HETATM    9  C4  UNL     1       8.722  15.288  16.445  1.00  0.00     0.152 C 
BRANCH   9  10
HETATM   10  C5  UNL     1       8.724  13.816  16.794  1.00  0.00     0.292 C 
BRANCH  10  11
HETATM   11  N3  UNL     1       8.307  13.079  15.606  1.00  0.00     0.090 N 
HETATM   12  C6  UNL     1       9.478  12.725  14.805  1.00  0.00     0.272 C 
HETATM   13  C7  UNL     1       8.889  11.607  13.952  1.00  0.00     0.032 C 
HETATM   14  C8  UNL     1       8.351  10.729  15.095  1.00  0.00     0.032 C 
HETATM   15  C9  UNL     1       7.696  11.808  15.959  1.00  0.00     0.272 C 
ENDBRANCH  10  11
ENDBRANCH   9  10
ENDBRANCH   1   9
TORSDOF 6
ENDMDL
MODEL 2
REMARK VINA RESULT: -5.369206179      1.880      2.395
REMARK  6 active torsions:
REMARK  status: ('A' for Active; 'I' for Inactive)
REMARK    1  A    between atoms: C2_2  and  N1_3 
REMARK    2  A    between atoms: N1_3  and  C3_5 
REMARK    3  A    between atoms: C3_5  and  N2_7 
REMARK    4  A    between atoms: N2_7  and  C4_9 
REMARK    5  A    between atoms: C4_9  and  C5_10 
REMARK    6  A    between atoms: C5_10  and  N3_11 
ROOT
HETATM    1  N2  UNL     1       7.682  16.047  14.335  1.00  0.00    -0.366 N 
ATOM      2  H2  UNL     1       7.605  15.954  13.322  1.00  0.00     0.161 HD
ENDROOT
BRANCH   1   3
HETATM    3  C3  UNL     1       8.006  17.297  14.891  1.00  0.00     0.167 C 
HETATM    4  S1  UNL     1       6.892  18.094  15.794  1.00  0.00    -0.041 SA
BRANCH   3   5
HETATM    5  N1  UNL     1       9.289  17.867  14.636  1.00  0.00    -0.368 N 
ATOM      6  H1  UNL     1       9.601  18.049  13.683  1.00  0.00     0.161 HD
BRANCH   5   7
HETATM    7  C2  UNL     1      10.132  18.180  15.762  1.00  0.00     0.117 C 
HETATM    8  C1  UNL     1      11.313  18.966  15.243  1.00  0.00     0.026 C 
ENDBRANCH   5   7
ENDBRANCH   3   5
ENDBRANCH   1   3
BRANCH   1   9
HETATM    9  C4  UNL     1       7.459  14.898  15.170  1.00  0.00     0.152 C 
BRANCH   9  10
HETATM   10  C5  UNL     1       8.724  14.648  15.961  1.00  0.00     0.292 C 
BRANCH  10  11
HETATM   11  N3  UNL     1       8.979  13.212  15.945  1.00  0.00     0.090 N 
HETATM   12  C6  UNL     1       7.712  12.482  15.994  1.00  0.00     0.272 C 
HETATM   13  C7  UNL     1       8.170  11.120  15.488  1.00  0.00     0.032 C 
HETATM   14  C8  UNL     1       8.824  11.589  14.177  1.00  0.00     0.032 C 
HETATM   15  C9  UNL     1       9.600  12.799  14.699  1.00  0.00     0.272 C 
ENDBRANCH  10  11
ENDBRANCH   9  10
ENDBRANCH   1   9
TORSDOF 6
ENDMDL
MODEL 3
REMARK VINA RESULT: -5.309741513      1.699      2.636
REMARK  6 active torsions:
REMARK  status: ('A' for Active; 'I' for Inactive)
REMARK    1  A    between atoms: C2_2  and  N1_3 
REMARK    2  A    between atoms: N1_3  and  C3_5 
REMARK    3  A    between atoms: C3_5  and  N2_7 
REMARK    4  A    between atoms: N2_7  and  C4_9 
REMARK    5  A    between atoms: C4_9  and  C5_10 
REMARK    6  A    between atoms: C5_10  and  N3_11 
ROOT
HETATM    1  N2  UNL     1       6.972  15.911  15.988  1.00  0.00    -0.366 N 
ATOM      2  H2  UNL     1       6.217  15.670  16.630  1.00  0.00     0.161 HD
ENDROOT
BRANCH   1   3
HETATM    3  C3  UNL     1       7.248  17.264  15.722  1.00  0.00     0.167 C 
HETATM    4  S1  UNL     1       7.237  17.802  14.172  1.00  0.00    -0.041 SA
BRANCH   3   5
HETATM    5  N1  UNL     1       7.564  18.141  16.802  1.00  0.00    -0.368 N 
ATOM      6  H1  UNL     1       7.033  18.998  16.952  1.00  0.00     0.161 HD
BRANCH   5   7
HETATM    7  C2  UNL     1       8.653  17.783  17.674  1.00  0.00     0.117 C 
HETATM    8  C1  UNL     1       9.924  17.835  16.860  1.00  0.00     0.026 C 
ENDBRANCH   5   7
ENDBRANCH   3   5
ENDBRANCH   1   3
BRANCH   1   9
HETATM    9  C4  UNL     1       7.738  14.862  15.370  1.00  0.00     0.152 C 
BRANCH   9  10
HETATM   10  C5  UNL     1       8.749  14.370  16.381  1.00  0.00     0.292 C 
BRANCH  10  11
HETATM   11  N3  UNL     1       8.980  12.953  16.123  1.00  0.00     0.090 N 
HETATM   12  C6  UNL     1       7.699  12.253  16.018  1.00  0.00     0.272 C 
HETATM   13  C7  UNL     1       8.147  10.988  15.294  1.00  0.00     0.032 C 
HETATM   14  C8  UNL     1       8.841  11.662  14.099  1.00  0.00     0.032 C 
HETATM   15  C9  UNL     1       9.625  12.747  14.838  1.00  0.00     0.272 C 
ENDBRANCH  10  11
ENDBRANCH   9  10
ENDBRANCH   1   9
TORSDOF 6
ENDMDL
MODEL 4
REMARK VINA RESULT: -5.280953902      2.424      3.511
REMARK  6 active torsions:
REMARK  status: ('A' for Active; 'I' for Inactive)
REMARK    1  A    between atoms: C2_2  and  N1_3 
REMARK    2  A    between atoms: N1_3  and  C3_5 
REMARK    3  A    between atoms: C3_5  and  N2_7 
REMARK    4  A    between atoms: N2_7  and  C4_9 
REMARK    5  A    between atoms: C4_9  and  C5_10 
REMARK    6  A    between atoms: C5_10  and  N3_11 
ROOT
HETATM    1  N2  UNL     1       8.314  16.119  17.476  1.00  0.00    -0.366 N 
ATOM      2  H2  UNL     1       8.031  15.634  18.327  1.00  0.00     0.161 HD
ENDROOT
BRANCH   1   3
HETATM    3  C3  UNL     1       8.288  17.524  17.440  1.00  0.00     0.167 C 
HETATM    4  S1  UNL     1       7.655  18.288  16.133  1.00  0.00    -0.041 SA
BRANCH   3   5
HETATM    5  N1  UNL     1       8.841  18.264  18.527  1.00  0.00    -0.368 N 
ATOM      6  H1  UNL     1       8.240  18.788  19.162  1.00  0.00     0.161 HD
BRANCH   5   7
HETATM    7  C2  UNL     1      10.271  18.252  18.702  1.00  0.00     0.117 C 
HETATM    8  C1  UNL     1      10.562  18.725  20.107  1.00  0.00     0.026 C 
ENDBRANCH   5   7
ENDBRANCH   3   5
ENDBRANCH   1   3
BRANCH   1   9
HETATM    9  C4  UNL     1       8.733  15.354  16.332  1.00  0.00     0.152 C 
BRANCH   9  10
HETATM   10  C5  UNL     1       8.749  13.895  16.731  1.00  0.00     0.292 C 
BRANCH  10  11
HETATM   11  N3  UNL     1       8.314  13.117  15.577  1.00  0.00     0.090 N 
HETATM   12  C6  UNL     1       9.476  12.714  14.784  1.00  0.00     0.272 C 
HETATM   13  C7  UNL     1       8.866  11.571  13.981  1.00  0.00     0.032 C 
HETATM   14  C8  UNL     1       8.325  10.747  15.162  1.00  0.00     0.032 C 
HETATM   15  C9  UNL     1       7.690  11.869  15.985  1.00  0.00     0.272 C 
ENDBRANCH  10  11
ENDBRANCH   9  10
ENDBRANCH   1   9
TORSDOF 6
ENDMDL
MODEL 5
REMARK VINA RESULT: -5.188045219      2.457      3.700
REMARK  6 active torsions:
REMARK  status: ('A' for Active; 'I' for Inactive)
REMARK    1  A    between atoms: C2_2  and  N1_3 
REMARK    2  A    between atoms: N1_3  and  C3_5 
REMARK    3  A    between atoms: C3_5  and  N2_7 
REMARK    4  A    between atoms: N2_7  and  C4_9 
REMARK    5  A    between atoms: C4_9  and  C5_10 
REMARK    6  A    between atoms: C5_10  and  N3_11 
ROOT
HETATM    1  N2  UNL     1       8.277  16.129  17.410  1.00  0.00    -0.366 N 
ATOM      2  H2  UNL     1       7.783  15.604  18.131  1.00  0.00     0.161 HD
ENDROOT
BRANCH   1   3
HETATM    3  C3  UNL     1       8.263  17.535  17.445  1.00  0.00     0.167 C 
HETATM    4  S1  UNL     1       7.655  18.370  16.170  1.00  0.00    -0.041 SA
BRANCH   3   5
HETATM    5  N1  UNL     1       8.805  18.214  18.576  1.00  0.00    -0.368 N 
ATOM      6  H1  UNL     1       8.195  18.644  19.271  1.00  0.00     0.161 HD
BRANCH   5   7
HETATM    7  C2  UNL     1      10.238  18.276  18.711  1.00  0.00     0.117 C 
HETATM    8  C1  UNL     1      10.543  18.749  20.113  1.00  0.00     0.026 C 
ENDBRANCH   5   7
ENDBRANCH   3   5
ENDBRANCH   1   3
BRANCH   1   9
HETATM    9  C4  UNL     1       8.979  15.420  16.374  1.00  0.00     0.152 C 
BRANCH   9  10
HETATM   10  C5  UNL     1       8.010  14.444  15.744  1.00  0.00     0.292 C 
BRANCH  10  11
HETATM   11  N3  UNL     1       8.615  13.118  15.806  1.00  0.00     0.090 N 
HETATM   12  C6  UNL     1       7.570  12.098  15.896  1.00  0.00     0.272 C 
HETATM   13  C7  UNL     1       8.360  10.869  15.464  1.00  0.00     0.032 C 
HETATM   14  C8  UNL     1       8.892  11.416  14.129  1.00  0.00     0.032 C 
HETATM   15  C9  UNL     1       9.336  12.808  14.583  1.00  0.00     0.272 C 
ENDBRANCH  10  11
ENDBRANCH   9  10
ENDBRANCH   1   9
TORSDOF 6
ENDMDL
