MODEL 1
REMARK VINA RESULT: -5.470750774      0.000      0.000
REMARK  5 active torsions:
REMARK  status: ('A' for Active; 'I' for Inactive)
REMARK    1  A    between atoms: N1_1  and  C1_5 
REMARK    2  A    between atoms: C1_5  and  C2_6 
REMARK    3  A    between atoms: C2_6  and  N2_7 
REMARK    4  A    between atoms: N2_7  and  C3_9 
REMARK    5  A    between atoms: N3_15  and  C9_16 
ROOT
HETATM    1  C3  UNL     1       8.404  15.455  15.038  1.00  0.00     0.100 C 
HETATM    2  C4  UNL     1       9.119  15.579  16.364  1.00  0.00     0.032 C 
HETATM    3  C5  UNL     1       8.266  16.413  17.274  1.00  0.00    -0.006 C 
HETATM    4  C6  UNL     1       8.747  17.817  17.507  1.00  0.00     0.012 C 
HETATM    5  C7  UNL     1       7.663  18.308  16.570  1.00  0.00     0.010 C 
HETATM    6  C8  UNL     1       8.209  18.600  15.191  1.00  0.00     0.130 C 
HETATM    7  N3  UNL     1       7.566  17.636  14.309  1.00  0.00    -0.352 N 
HETATM    8  C10 UNL     1       7.253  16.422  15.069  1.00  0.00     0.113 C 
HETATM    9  C11 UNL     1       7.089  16.914  16.485  1.00  0.00     0.020 C 
ENDROOT
BRANCH   1  10
HETATM   10  N2  UNL     1       8.051  14.083  14.855  1.00  0.00    -0.413 N 
ATOM     11  H2  UNL     1       7.088  13.786  14.699  1.00  0.00     0.153 HD
BRANCH  10  12
HETATM   12  C2  UNL     1       9.151  13.142  14.905  1.00  0.00     0.141 C 
BRANCH  12  13
HETATM   13  C1  UNL     1       8.497  11.757  15.034  1.00  0.00     0.248 C 
BRANCH  13  14
HETATM   14  N1  UNL     1       7.521  11.856  16.079  1.00  0.00    -0.078 N 
ATOM     15  H13 UNL     1       7.925  11.787  17.013  1.00  0.00     0.274 HD
ATOM     16  H12 UNL     1       7.131  12.793  16.176  1.00  0.00     0.274 HD
ATOM     17  H11 UNL     1       6.816  11.143  15.891  1.00  0.00     0.274 HD
ENDBRANCH  13  14
ENDBRANCH  12  13
ENDBRANCH  10  12
ENDBRANCH   1  10
BRANCH   7  18
HETATM   18  C9  UNL     1       7.310  17.874  12.939  1.00  0.00     0.351 C 
HETATM   19  O1  UNL     1       6.157  18.204  12.564  1.00  0.00    -0.284 OA
ENDBRANCH   7  18
TORSDOF 5
ENDMDL
MODEL 2
REMARK VINA RESULT: -5.305266080      2.761      4.305
REMARK  5 active torsions:
REMARK  status: ('A' for Active; 'I' for Inactive)
REMARK    1  A    between atoms: N1_1  and  C1_5 
REMARK    2  A    between atoms: C1_5  and  C2_6 
REMARK    3  A    between atoms: C2_6  and  N2_7 
REMARK    4  A    between atoms: N2_7  and  C3_9 
REMARK    5  A    between atoms: N3_15  and  C9_16 
ROOT
HETATM    1  C3  UNL     1      10.134  18.427  15.007  1.00  0.00     0.100 C 
HETATM    2  C4  UNL     1      10.735  18.644  16.376  1.00  0.00     0.032 C 
HETATM    3  C5  UNL     1      10.255  17.542  17.274  1.00  0.00    -0.006 C 
HETATM    4  C6  UNL     1       9.207  17.933  18.276  1.00  0.00     0.012 C 
HETATM    5  C7  UNL     1       8.172  17.243  17.412  1.00  0.00     0.010 C 
HETATM    6  C8  UNL     1       7.401  18.234  16.570  1.00  0.00     0.130 C 
HETATM    7  N3  UNL     1       7.747  17.920  15.190  1.00  0.00    -0.352 N 
HETATM    8  C10 UNL     1       9.096  17.349  15.151  1.00  0.00     0.113 C 
HETATM    9  C11 UNL     1       9.260  16.715  16.509  1.00  0.00     0.020 C 
ENDROOT
BRANCH   1  10
HETATM   10  N2  UNL     1      11.199  18.140  14.099  1.00  0.00    -0.413 N 
ATOM     11  H2  UNL     1      11.131  17.400  13.399  1.00  0.00     0.153 HD
BRANCH  10  12
HETATM   12  C2  UNL     1      12.379  18.968  14.236  1.00  0.00     0.141 C 
BRANCH  12  13
HETATM   13  C1  UNL     1      13.072  18.921  12.865  1.00  0.00     0.248 C 
BRANCH  13  14
HETATM   14  N1  UNL     1      12.100  18.441  11.927  1.00  0.00    -0.078 N 
ATOM     15  H13 UNL     1      12.464  17.718  11.307  1.00  0.00     0.274 HD
ATOM     16  H12 UNL     1      11.366  17.881  12.361  1.00  0.00     0.274 HD
ATOM     17  H11 UNL     1      11.744  19.257  11.430  1.00  0.00     0.274 HD
ENDBRANCH  13  14
ENDBRANCH  12  13
ENDBRANCH  10  12
ENDBRANCH   1  10
BRANCH   7  18
HETATM   18  C9  UNL     1       6.887  18.154  14.092  1.00  0.00     0.351 C 
HETATM   19  O1  UNL     1       6.950  17.416  13.077  1.00  0.00    -0.284 OA
ENDBRANCH   7  18
TORSDOF 5
ENDMDL
MODEL 3
REMARK VINA RESULT: -5.246067471      3.118      5.079
REMARK  5 active torsions:
REMARK  status: ('A' for Active; 'I' for Inactive)
REMARK    1  A    between atoms: N1_1  and  C1_5 
REMARK    2  A    between atoms: C1_5  and  C2_6 
REMARK    3  A    between atoms: C2_6  and  N2_7 
REMARK    4  A    between atoms: N2_7  and  C3_9 
REMARK    5  A    between atoms: N3_15  and  C9_16 
ROOT
HETATM    1  C3  UNL     1       9.478  17.286  16.830  1.00  0.00     0.100 C 
HETATM    2  C4  UNL     1       9.248  18.334  15.767  1.00  0.00     0.032 C 
HETATM    3  C5  UNL     1       7.789  18.325  15.416  1.00  0.00    -0.006 C 
HETATM    4  C6  UNL     1       7.444  17.698  14.095  1.00  0.00     0.012 C 
HETATM    5  C7  UNL     1       6.941  16.480  14.843  1.00  0.00     0.010 C 
HETATM    6  C8  UNL     1       7.962  15.365  14.840  1.00  0.00     0.130 C 
HETATM    7  N3  UNL     1       8.353  15.196  16.233  1.00  0.00    -0.352 N 
HETATM    8  C10 UNL     1       8.214  16.478  16.930  1.00  0.00     0.113 C 
HETATM    9  C11 UNL     1       7.135  17.194  16.159  1.00  0.00     0.020 C 
ENDROOT
BRANCH   1  10
HETATM   10  N2  UNL     1       9.878  17.954  18.028  1.00  0.00    -0.413 N 
ATOM     11  H2  UNL     1       9.203  18.366  18.673  1.00  0.00     0.153 HD
BRANCH  10  12
HETATM   12  C2  UNL     1      11.306  18.010  18.267  1.00  0.00     0.141 C 
BRANCH  12  13
HETATM   13  C1  UNL     1      11.460  18.574  19.688  1.00  0.00     0.248 C 
BRANCH  13  14
HETATM   14  N1  UNL     1      11.406  20.001  19.575  1.00  0.00    -0.078 N 
ATOM     15  H13 UNL     1      11.967  20.482  20.278  1.00  0.00     0.274 HD
ATOM     16  H12 UNL     1      11.895  20.358  18.754  1.00  0.00     0.274 HD
ATOM     17  H11 UNL     1      10.419  20.261  19.600  1.00  0.00     0.274 HD
ENDBRANCH  13  14
ENDBRANCH  12  13
ENDBRANCH  10  12
ENDBRANCH   1  10
BRANCH   7  18
HETATM   18  C9  UNL     1       8.798  13.971  16.781  1.00  0.00     0.351 C 
HETATM   19  O1  UNL     1       8.325  12.886  16.360  1.00  0.00    -0.284 OA
ENDBRANCH   7  18
TORSDOF 5
ENDMDL
MODEL 4
REMARK VINA RESULT: -5.200304383      7.756      9.095
REMARK  5 active torsions:
REMARK  status: ('A' for Active; 'I' for Inactive)
REMARK    1  A    between atoms: N1_1  and  C1_5 
REMARK    2  A    between atoms: C1_5  and  C2_6 
REMARK    3  A    between atoms: C2_6  and  N2_7 
REMARK    4  A    between atoms: N2_7  and  C3_9 
REMARK    5  A    between atoms: N3_15  and  C9_16 
ROOT
HETATM    1  C3  UNL     1      12.948  20.371  19.435  1.00  0.00     0.100 C 
HETATM    2  C4  UNL     1      13.839  19.150  19.453  1.00  0.00     0.032 C 
HETATM    3  C5  UNL     1      13.167  18.099  20.286  1.00  0.00    -0.006 C 
HETATM    4  C6  UNL     1      13.761  17.875  21.648  1.00  0.00     0.012 C 
HETATM    5  C7  UNL     1      12.594  18.635  22.245  1.00  0.00     0.010 C 
HETATM    6  C8  UNL     1      12.970  20.061  22.574  1.00  0.00     0.130 C 
HETATM    7  N3  UNL     1      12.157  20.888  21.693  1.00  0.00    -0.352 N 
HETATM    8  C10 UNL     1      11.874  20.144  20.462  1.00  0.00     0.113 C 
HETATM    9  C11 UNL     1      11.929  18.700  20.892  1.00  0.00     0.020 C 
ENDROOT
BRANCH   1  10
HETATM   10  N2  UNL     1      12.490  20.562  18.096  1.00  0.00    -0.413 N 
ATOM     11  H2  UNL     1      11.728  20.012  17.699  1.00  0.00     0.153 HD
BRANCH  10  12
HETATM   12  C2  UNL     1      13.179  21.588  17.339  1.00  0.00     0.141 C 
BRANCH  12  13
HETATM   13  C1  UNL     1      13.243  22.808  18.272  1.00  0.00     0.248 C 
BRANCH  13  14
HETATM   14  N1  UNL     1      11.982  23.479  18.163  1.00  0.00    -0.078 N 
ATOM     15  H13 UNL     1      11.383  23.094  17.432  1.00  0.00     0.274 HD
ATOM     16  H12 UNL     1      11.359  23.293  18.950  1.00  0.00     0.274 HD
ATOM     17  H11 UNL     1      12.185  24.470  18.037  1.00  0.00     0.274 HD
ENDBRANCH  13  14
ENDBRANCH  12  13
ENDBRANCH  10  12
ENDBRANCH   1  10
BRANCH   7  18
HETATM   18  C9  UNL     1      11.738  22.200  22.013  1.00  0.00     0.351 C 
HETATM   19  O1  UNL     1      11.145  22.897  21.152  1.00  0.00    -0.284 OA
ENDBRANCH   7  18
TORSDOF 5
ENDMDL
MODEL 5
REMARK VINA RESULT: -5.190407476      6.565      7.854
REMARK  5 active torsions:
REMARK  status: ('A' for Active; 'I' for Inactive)
REMARK    1  A    between atoms: N1_1  and  C1_5 
REMARK    2  A    between atoms: C1_5  and  C2_6 
REMARK    3  A    between atoms: C2_6  and  N2_7 
REMARK    4  A    between atoms: N2_7  and  C3_9 
REMARK    5  A    between atoms: N3_15  and  C9_16 
ROOT
HETATM    1  C3  UNL     1      13.428  20.004  16.546  1.00  0.00     0.100 C 
HETATM    2  C4  UNL     1      13.659  21.074  17.588  1.00  0.00     0.032 C 
HETATM    3  C5  UNL     1      14.041  22.338  16.876  1.00  0.00    -0.006 C 
HETATM    4  C6  UNL     1      15.493  22.715  16.961  1.00  0.00     0.012 C 
HETATM    5  C7  UNL     1      15.665  22.241  15.533  1.00  0.00     0.010 C 
HETATM    6  C8  UNL     1      16.270  20.856  15.476  1.00  0.00     0.130 C 
HETATM    7  N3  UNL     1      15.237  20.007  14.898  1.00  0.00    -0.352 N 
HETATM    8  C10 UNL     1      13.920  20.555  15.236  1.00  0.00     0.113 C 
HETATM    9  C11 UNL     1      14.175  22.030  15.411  1.00  0.00     0.020 C 
ENDROOT
BRANCH   1  10
HETATM   10  N2  UNL     1      12.045  19.645  16.583  1.00  0.00    -0.413 N 
ATOM     11  H2  UNL     1      11.478  19.751  17.424  1.00  0.00     0.153 HD
BRANCH  10  12
HETATM   12  C2  UNL     1      11.502  19.120  15.347  1.00  0.00     0.141 C 
BRANCH  12  13
HETATM   13  C1  UNL     1      10.344  18.200  15.768  1.00  0.00     0.248 C 
BRANCH  13  14
HETATM   14  N1  UNL     1       9.133  18.933  15.548  1.00  0.00    -0.078 N 
ATOM     15  H13 UNL     1       9.294  19.905  15.281  1.00  0.00     0.274 HD
ATOM     16  H12 UNL     1       8.639  18.648  14.702  1.00  0.00     0.274 HD
ATOM     17  H11 UNL     1       8.572  18.836  16.394  1.00  0.00     0.274 HD
ENDBRANCH  13  14
ENDBRANCH  12  13
ENDBRANCH  10  12
ENDBRANCH   1  10
BRANCH   7  18
HETATM   18  C9  UNL     1      15.508  18.843  14.143  1.00  0.00     0.351 C 
HETATM   19  O1  UNL     1      14.617  18.349  13.407  1.00  0.00    -0.284 OA
ENDBRANCH   7  18
TORSDOF 5
ENDMDL
