MODEL 1
REMARK VINA RESULT: -5.296850487      0.000      0.000
REMARK  5 active torsions:
REMARK  status: ('A' for Active; 'I' for Inactive)
REMARK    1  A    between atoms: N1_1  and  C1_5 
REMARK    2  A    between atoms: C1_5  and  C2_6 
REMARK    3  A    between atoms: C2_6  and  N2_7 
REMARK    4  A    between atoms: N2_7  and  C3_9 
REMARK    5  A    between atoms: C7_13  and  C8_14 
ROOT
HETATM    1  C3  UNL     1       8.146  14.451  15.069  1.00  0.00     0.085 C 
HETATM    2  C4  UNL     1       7.725  14.144  16.508  1.00  0.00     0.026 C 
HETATM    3  C5  UNL     1       8.951  13.428  17.017  1.00  0.00     0.007 C 
HETATM    4  C6  UNL     1       9.372  12.529  15.871  1.00  0.00    -0.001 A 
HETATM    5  C7  UNL     1       8.293  11.836  15.105  1.00  0.00     0.025 A 
HETATM    6  C9  UNL     1       8.813  13.162  14.677  1.00  0.00     0.019 A 
ENDROOT
BRANCH   1   7
HETATM    7  N2  UNL     1       9.000  15.572  15.123  1.00  0.00    -0.396 N 
ATOM      8  H2  UNL     1       9.990  15.451  14.908  1.00  0.00     0.159 HD
BRANCH   7   9
HETATM    9  C2  UNL     1       8.536  16.829  15.461  1.00  0.00     0.083 C 
BRANCH   9  10
HETATM   10  C1  UNL     1       7.438  17.264  14.496  1.00  0.00     0.273 C 
BRANCH  10  11
HETATM   11  N1  UNL     1       7.906  17.725  13.232  1.00  0.00    -0.075 N 
ATOM     12  H13 UNL     1       7.132  18.098  12.682  1.00  0.00     0.274 HD
ATOM     13  H12 UNL     1       8.463  18.571  13.347  1.00  0.00     0.274 HD
ATOM     14  H11 UNL     1       8.423  17.032  12.691  1.00  0.00     0.274 HD
ENDBRANCH  10  11
ENDBRANCH   9  10
ENDBRANCH   7   9
ENDBRANCH   1   7
BRANCH   5  15
HETATM   15  C8  UNL     1       8.643  10.640  14.241  1.00  0.00     0.227 C 
HETATM   16  F1  UNL     1       8.642  10.971  12.898  1.00  0.00    -0.255 F 
ENDBRANCH   5  15
TORSDOF 5
ENDMDL
MODEL 2
REMARK VINA RESULT: -5.240609181      1.682      2.104
REMARK  5 active torsions:
REMARK  status: ('A' for Active; 'I' for Inactive)
REMARK    1  A    between atoms: N1_1  and  C1_5 
REMARK    2  A    between atoms: C1_5  and  C2_6 
REMARK    3  A    between atoms: C2_6  and  N2_7 
REMARK    4  A    between atoms: N2_7  and  C3_9 
REMARK    5  A    between atoms: C7_13  and  C8_14 
ROOT
HETATM    1  C3  UNL     1       7.124  15.517  14.848  1.00  0.00     0.085 C 
HETATM    2  C4  UNL     1       7.188  15.934  16.319  1.00  0.00     0.026 C 
HETATM    3  C5  UNL     1       8.651  15.716  16.613  1.00  0.00     0.007 C 
HETATM    4  C6  UNL     1       8.993  14.415  15.912  1.00  0.00    -0.001 A 
HETATM    5  C7  UNL     1       7.986  13.314  15.972  1.00  0.00     0.025 A 
HETATM    6  C9  UNL     1       7.994  14.291  14.851  1.00  0.00     0.019 A 
ENDROOT
BRANCH   1   7
HETATM    7  N2  UNL     1       7.622  16.600  14.094  1.00  0.00    -0.396 N 
ATOM      8  H2  UNL     1       8.493  16.483  13.575  1.00  0.00     0.159 HD
BRANCH   7   9
HETATM    9  C2  UNL     1       6.966  17.815  14.038  1.00  0.00     0.083 C 
BRANCH   9  10
HETATM   10  C1  UNL     1       6.794  18.257  12.589  1.00  0.00     0.273 C 
BRANCH  10  11
HETATM   11  N1  UNL     1       7.774  17.745  11.691  1.00  0.00    -0.075 N 
ATOM     12  H13 UNL     1       7.327  17.380  10.850  1.00  0.00     0.274 HD
ATOM     13  H12 UNL     1       8.315  18.508  11.284  1.00  0.00     0.274 HD
ATOM     14  H11 UNL     1       8.397  17.046  12.094  1.00  0.00     0.274 HD
ENDBRANCH  10  11
ENDBRANCH   9  10
ENDBRANCH   7   9
ENDBRANCH   1   7
BRANCH   5  15
HETATM   15  C8  UNL     1       8.415  11.894  15.659  1.00  0.00     0.227 C 
HETATM   16  F1  UNL     1       7.608  10.970  16.298  1.00  0.00    -0.255 F 
ENDBRANCH   5  15
TORSDOF 5
ENDMDL
MODEL 3
REMARK VINA RESULT: -5.188923692      0.947      1.128
REMARK  5 active torsions:
REMARK  status: ('A' for Active; 'I' for Inactive)
REMARK    1  A    between atoms: N1_1  and  C1_5 
REMARK    2  A    between atoms: C1_5  and  C2_6 
REMARK    3  A    between atoms: C2_6  and  N2_7 
REMARK    4  A    between atoms: N2_7  and  C3_9 
REMARK    5  A    between atoms: C7_13  and  C8_14 
ROOT
HETATM    1  C3  UNL     1       8.166  14.432  15.081  1.00  0.00     0.085 C 
HETATM    2  C4  UNL     1       7.741  14.128  16.520  1.00  0.00     0.026 C 
HETATM    3  C5  UNL     1       8.957  13.394  17.027  1.00  0.00     0.007 C 
HETATM    4  C6  UNL     1       9.366  12.492  15.878  1.00  0.00    -0.001 A 
HETATM    5  C7  UNL     1       8.278  11.816  15.111  1.00  0.00     0.025 A 
HETATM    6  C9  UNL     1       8.815  13.135  14.686  1.00  0.00     0.019 A 
ENDROOT
BRANCH   1   7
HETATM    7  N2  UNL     1       9.035  15.542  15.138  1.00  0.00    -0.396 N 
ATOM      8  H2  UNL     1      10.024  15.408  14.923  1.00  0.00     0.159 HD
BRANCH   7   9
HETATM    9  C2  UNL     1       8.588  16.804  15.477  1.00  0.00     0.083 C 
BRANCH   9  10
HETATM   10  C1  UNL     1       9.768  17.754  15.654  1.00  0.00     0.273 C 
BRANCH  10  11
HETATM   11  N1  UNL     1      10.485  18.040  14.457  1.00  0.00    -0.075 N 
ATOM     12  H13 UNL     1       9.842  18.333  13.721  1.00  0.00     0.274 HD
ATOM     13  H12 UNL     1      11.028  18.896  14.566  1.00  0.00     0.274 HD
ATOM     14  H11 UNL     1      11.081  17.282  14.127  1.00  0.00     0.274 HD
ENDBRANCH  10  11
ENDBRANCH   9  10
ENDBRANCH   7   9
ENDBRANCH   1   7
BRANCH   5  15
HETATM   15  C8  UNL     1       8.611  10.617  14.244  1.00  0.00     0.227 C 
HETATM   16  F1  UNL     1       8.650  10.959  12.904  1.00  0.00    -0.255 F 
ENDBRANCH   5  15
TORSDOF 5
ENDMDL
MODEL 4
REMARK VINA RESULT: -4.977712226      2.792      4.935
REMARK  5 active torsions:
REMARK  status: ('A' for Active; 'I' for Inactive)
REMARK    1  A    between atoms: N1_1  and  C1_5 
REMARK    2  A    between atoms: C1_5  and  C2_6 
REMARK    3  A    between atoms: C2_6  and  N2_7 
REMARK    4  A    between atoms: N2_7  and  C3_9 
REMARK    5  A    between atoms: C7_13  and  C8_14 
ROOT
HETATM    1  C3  UNL     1       8.151  14.836  15.221  1.00  0.00     0.085 C 
HETATM    2  C4  UNL     1       8.887  15.690  16.256  1.00  0.00     0.026 C 
HETATM    3  C5  UNL     1       7.743  16.480  16.841  1.00  0.00     0.007 C 
HETATM    4  C6  UNL     1       6.885  16.850  15.646  1.00  0.00    -0.001 A 
HETATM    5  C7  UNL     1       7.586  17.255  14.392  1.00  0.00     0.025 A 
HETATM    6  C9  UNL     1       7.198  15.841  14.635  1.00  0.00     0.019 A 
ENDROOT
BRANCH   1   7
HETATM    7  N2  UNL     1       7.541  13.776  15.925  1.00  0.00    -0.396 N 
ATOM      8  H2  UNL     1       6.534  13.802  16.085  1.00  0.00     0.159 HD
BRANCH   7   9
HETATM    9  C2  UNL     1       8.269  12.705  16.406  1.00  0.00     0.083 C 
BRANCH   9  10
HETATM   10  C1  UNL     1       7.899  11.432  15.651  1.00  0.00     0.273 C 
BRANCH  10  11
HETATM   11  N1  UNL     1       8.654  11.205  14.464  1.00  0.00    -0.075 N 
ATOM     12  H13 UNL     1       9.149  12.054  14.191  1.00  0.00     0.274 HD
ATOM     13  H12 UNL     1       9.447  10.595  14.660  1.00  0.00     0.274 HD
ATOM     14  H11 UNL     1       8.114  10.842  13.679  1.00  0.00     0.274 HD
ENDBRANCH  10  11
ENDBRANCH   9  10
ENDBRANCH   7   9
ENDBRANCH   1   7
BRANCH   5  15
HETATM   15  C8  UNL     1       6.823  18.011  13.321  1.00  0.00     0.227 C 
HETATM   16  F1  UNL     1       7.421  17.873  12.082  1.00  0.00    -0.255 F 
ENDBRANCH   5  15
TORSDOF 5
ENDMDL
MODEL 5
REMARK VINA RESULT: -4.810439161      1.817      2.473
REMARK  5 active torsions:
REMARK  status: ('A' for Active; 'I' for Inactive)
REMARK    1  A    between atoms: N1_1  and  C1_5 
REMARK    2  A    between atoms: C1_5  and  C2_6 
REMARK    3  A    between atoms: C2_6  and  N2_7 
REMARK    4  A    between atoms: N2_7  and  C3_9 
REMARK    5  A    between atoms: C7_13  and  C8_14 
ROOT
HETATM    1  C3  UNL     1       8.884  15.851  15.979  1.00  0.00     0.085 C 
HETATM    2  C4  UNL     1       7.773  16.128  14.964  1.00  0.00     0.026 C 
HETATM    3  C5  UNL     1       6.725  15.141  15.413  1.00  0.00     0.007 C 
HETATM    4  C6  UNL     1       7.503  13.883  15.747  1.00  0.00    -0.001 A 
HETATM    5  C7  UNL     1       8.629  13.506  14.841  1.00  0.00     0.025 A 
HETATM    6  C9  UNL     1       8.856  14.349  16.044  1.00  0.00     0.019 A 
ENDROOT
BRANCH   1   7
HETATM    7  N2  UNL     1       8.519  16.507  17.173  1.00  0.00    -0.396 N 
ATOM      8  H2  UNL     1       7.881  16.041  17.819  1.00  0.00     0.159 HD
BRANCH   7   9
HETATM    9  C2  UNL     1       9.000  17.762  17.494  1.00  0.00     0.083 C 
BRANCH   9  10
HETATM   10  C1  UNL     1      10.326  18.018  16.786  1.00  0.00     0.273 C 
BRANCH  10  11
HETATM   11  N1  UNL     1      10.259  18.967  15.724  1.00  0.00    -0.075 N 
ATOM     12  H13 UNL     1      10.158  19.910  16.099  1.00  0.00     0.274 HD
ATOM     13  H12 UNL     1      11.168  19.054  15.270  1.00  0.00     0.274 HD
ATOM     14  H11 UNL     1       9.534  18.781  15.032  1.00  0.00     0.274 HD
ENDBRANCH  10  11
ENDBRANCH   9  10
ENDBRANCH   7   9
ENDBRANCH   1   7
BRANCH   5  15
HETATM   15  C8  UNL     1       9.170  12.090  14.872  1.00  0.00     0.227 C 
HETATM   16  F1  UNL     1       8.793  11.381  13.745  1.00  0.00    -0.255 F 
ENDBRANCH   5  15
TORSDOF 5
ENDMDL
