MODEL 1
REMARK VINA RESULT: -6.653810411      0.000      0.000
REMARK  11 active torsions:
REMARK  status: ('A' for Active; 'I' for Inactive)
REMARK    1  A    between atoms: C2_2  and  C3_3 
REMARK    2  A    between atoms: C4_4  and  C5_5 
REMARK    3  A    between atoms: N1_6  and  C6_8 
REMARK    4  A    between atoms: C6_8  and  O1_9 
REMARK    5  A    between atoms: C6_8  and  C7_11 
REMARK    6  A    between atoms: C7_11  and  C9_13 
REMARK    7  A    between atoms: C13_18  and  N2_19 
REMARK       I    between atoms: N2_19  and  C14_21 
REMARK    8  A    between atoms: C14_21  and  O4_23 
REMARK    9  A    between atoms: O4_23  and  C15_24 
REMARK   10  A    between atoms: C23_33  and  O6_34 
REMARK   11  A    between atoms: C25_38  and  N3_39 
ROOT
HETATM    1  C3  UNL     1      58.492   1.687   7.261  1.00  0.00     0.014 C 
HETATM    2  C4  UNL     1      57.714   2.859   7.769  1.00  0.00     0.108 C 
HETATM    3  C12 UNL     1      58.382   3.653   6.725  1.00  0.00     0.166 C 
HETATM    4  O2  UNL     1      58.423   4.819   6.423  1.00  0.00    -0.294 OA
HETATM    5  C13 UNL     1      59.069   2.417   6.093  1.00  0.00     0.111 C 
HETATM    6  C19 UNL     1      58.264   2.086   4.865  1.00  0.00     0.064 C 
HETATM    7  C20 UNL     1      57.020   1.510   5.497  1.00  0.00     0.018 C 
HETATM    8  C21 UNL     1      57.574   0.631   6.563  1.00  0.00     0.034 C 
HETATM    9  C22 UNL     1      58.472  -0.435   6.117  1.00  0.00     0.201 A 
HETATM   10  O5  UNL     1      58.412  -1.707   5.809  1.00  0.00    -0.335 OA
HETATM   11  C23 UNL     1      57.724  -1.001   4.883  1.00  0.00     0.255 A 
HETATM   12  C24 UNL     1      58.141  -0.150   3.804  1.00  0.00     0.225 C 
HETATM   13  O7  UNL     1      57.905  -0.520   2.685  1.00  0.00    -0.289 OA
HETATM   14  C25 UNL     1      58.858   1.191   3.838  1.00  0.00     0.303 C 
ENDROOT
BRANCH   2  15
HETATM   15  C5  UNL     1      58.030   3.317   9.150  1.00  0.00     0.071 C 
HETATM   16  N1  UNL     1      57.566   4.354   9.697  1.00  0.00    -0.376 N 
ATOM     17  H1  UNL     1      57.877   4.535  10.651  1.00  0.00     0.161 HD
BRANCH  16  18
HETATM   18  C6  UNL     1      56.670   5.294   9.151  1.00  0.00     0.221 C 
BRANCH  18  19
HETATM   19  O1  UNL     1      57.315   6.492   8.778  1.00  0.00    -0.377 OA
ATOM     20  H1  UNL     1      56.913   7.256   9.176  1.00  0.00     0.212 HD
ENDBRANCH  18  19
BRANCH  18  21
HETATM   21  C7  UNL     1      55.592   5.669  10.118  1.00  0.00     0.033 C 
HETATM   22  C8  UNL     1      55.775   7.065  10.677  1.00  0.00     0.015 C 
BRANCH  21  23
HETATM   23  C9  UNL     1      55.438   4.642  11.200  1.00  0.00    -0.015 C 
HETATM   24  C10 UNL     1      54.965   5.169  12.516  1.00  0.00     0.010 C 
HETATM   25  C11 UNL     1      54.533   3.501  10.729  1.00  0.00     0.010 C 
ENDBRANCH  21  23
ENDBRANCH  18  21
ENDBRANCH  16  18
ENDBRANCH   2  15
BRANCH   1  26
HETATM   26  C2  UNL     1      59.399   1.020   8.236  1.00  0.00     0.009 C 
HETATM   27  C1  UNL     1      58.607   0.129   9.194  1.00  0.00     0.006 C 
ENDBRANCH   1  26
BRANCH   5  28
HETATM   28  N2  UNL     1      60.444   2.632   5.915  1.00  0.00    -0.319 N 
HETATM   29  C14 UNL     1      61.097   3.544   5.068  1.00  0.00     0.362 C 
HETATM   30  O3  UNL     1      60.516   4.317   4.310  1.00  0.00    -0.238 OA
ATOM     31  H2  UNL     1      61.056   2.042   6.479  1.00  0.00     0.166 HD
BRANCH  29  32
HETATM   32  O4  UNL     1      62.505   3.636   5.032  1.00  0.00    -0.294 OA
BRANCH  32  33
HETATM   33  C15 UNL     1      63.291   2.701   4.334  1.00  0.00     0.061 C 
HETATM   34  C16 UNL     1      64.670   2.713   4.960  1.00  0.00     0.046 C 
HETATM   35  C17 UNL     1      63.445   3.049   2.876  1.00  0.00     0.046 C 
HETATM   36  C18 UNL     1      62.764   1.297   4.431  1.00  0.00     0.046 C 
ENDBRANCH  32  33
ENDBRANCH  29  32
ENDBRANCH   5  28
BRANCH  14  37
HETATM   37  N3  UNL     1      58.930   1.789   2.526  1.00  0.00     0.092 N 
HETATM   38  C26 UNL     1      58.272   3.062   2.498  1.00  0.00     0.310 C 
HETATM   39  C27 UNL     1      60.263   1.824   1.992  1.00  0.00     0.310 C 
ENDBRANCH  14  37
BRANCH  11  40
HETATM   40  O6  UNL     1      56.383  -1.369   5.039  1.00  0.00    -0.357 OA
ATOM     41  H6  UNL     1      55.963  -1.837   4.326  1.00  0.00     0.213 HD
ENDBRANCH  11  40
TORSDOF 11
ENDMDL
MODEL 2
REMARK VINA RESULT: -6.523034880      1.455      1.933
REMARK  11 active torsions:
REMARK  status: ('A' for Active; 'I' for Inactive)
REMARK    1  A    between atoms: C2_2  and  C3_3 
REMARK    2  A    between atoms: C4_4  and  C5_5 
REMARK    3  A    between atoms: N1_6  and  C6_8 
REMARK    4  A    between atoms: C6_8  and  O1_9 
REMARK    5  A    between atoms: C6_8  and  C7_11 
REMARK    6  A    between atoms: C7_11  and  C9_13 
REMARK    7  A    between atoms: C13_18  and  N2_19 
REMARK       I    between atoms: N2_19  and  C14_21 
REMARK    8  A    between atoms: C14_21  and  O4_23 
REMARK    9  A    between atoms: O4_23  and  C15_24 
REMARK   10  A    between atoms: C23_33  and  O6_34 
REMARK   11  A    between atoms: C25_38  and  N3_39 
ROOT
HETATM    1  C3  UNL     1      58.515   1.575   5.889  1.00  0.00     0.014 C 
HETATM    2  C4  UNL     1      57.976   2.692   6.726  1.00  0.00     0.108 C 
HETATM    3  C12 UNL     1      58.333   3.589   5.615  1.00  0.00     0.166 C 
HETATM    4  O2  UNL     1      58.331   4.781   5.436  1.00  0.00    -0.294 OA
HETATM    5  C13 UNL     1      58.745   2.424   4.682  1.00  0.00     0.111 C 
HETATM    6  C19 UNL     1      57.596   2.238   3.729  1.00  0.00     0.064 C 
HETATM    7  C20 UNL     1      56.576   1.608   4.646  1.00  0.00     0.018 C 
HETATM    8  C21 UNL     1      57.386   0.611   5.398  1.00  0.00     0.034 C 
HETATM    9  C22 UNL     1      58.063  -0.408   4.594  1.00  0.00     0.201 A 
HETATM   10  O5  UNL     1      57.859  -1.637   4.191  1.00  0.00    -0.335 OA
HETATM   11  C23 UNL     1      56.955  -0.828   3.594  1.00  0.00     0.255 A 
HETATM   12  C24 UNL     1      57.065   0.133   2.533  1.00  0.00     0.225 C 
HETATM   13  O7  UNL     1      56.489  -0.109   1.506  1.00  0.00    -0.289 OA
HETATM   14  C25 UNL     1      57.815   1.456   2.484  1.00  0.00     0.303 C 
ENDROOT
BRANCH   2  15
HETATM   15  C5  UNL     1      58.711   2.991   7.985  1.00  0.00     0.071 C 
HETATM   16  N1  UNL     1      58.363   3.845   8.845  1.00  0.00    -0.376 N 
ATOM     17  H1  UNL     1      58.972   3.936   9.658  1.00  0.00     0.161 HD
BRANCH  16  18
HETATM   18  C6  UNL     1      57.236   4.690   8.821  1.00  0.00     0.221 C 
BRANCH  18  19
HETATM   19  O1  UNL     1      57.507   5.923   8.192  1.00  0.00    -0.377 OA
ATOM     20  H1  UNL     1      56.939   6.618   8.504  1.00  0.00     0.212 HD
ENDBRANCH  18  19
BRANCH  18  21
HETATM   21  C7  UNL     1      56.743   5.007  10.197  1.00  0.00     0.033 C 
HETATM   22  C8  UNL     1      56.813   3.814  11.127  1.00  0.00     0.015 C 
BRANCH  21  23
HETATM   23  C9  UNL     1      55.376   5.622  10.167  1.00  0.00    -0.015 C 
HETATM   24  C10 UNL     1      54.284   4.774  10.731  1.00  0.00     0.010 C 
HETATM   25  C11 UNL     1      55.391   6.993  10.850  1.00  0.00     0.010 C 
ENDBRANCH  21  23
ENDBRANCH  18  21
ENDBRANCH  16  18
ENDBRANCH   2  15
BRANCH   1  26
HETATM   26  C2  UNL     1      59.644   0.796   6.470  1.00  0.00     0.009 C 
HETATM   27  C1  UNL     1      59.146  -0.151   7.562  1.00  0.00     0.006 C 
ENDBRANCH   1  26
BRANCH   5  28
HETATM   28  N2  UNL     1      60.011   2.644   4.118  1.00  0.00    -0.319 N 
HETATM   29  C14 UNL     1      60.424   3.654   3.232  1.00  0.00     0.362 C 
HETATM   30  O3  UNL     1      59.683   4.528   2.792  1.00  0.00    -0.238 OA
ATOM     31  H2  UNL     1      60.734   1.976   4.389  1.00  0.00     0.166 HD
BRANCH  29  32
HETATM   32  O4  UNL     1      61.759   3.733   2.777  1.00  0.00    -0.294 OA
BRANCH  32  33
HETATM   33  C15 UNL     1      62.762   4.371   3.531  1.00  0.00     0.061 C 
HETATM   34  C16 UNL     1      63.923   4.640   2.599  1.00  0.00     0.046 C 
HETATM   35  C17 UNL     1      63.269   3.513   4.661  1.00  0.00     0.046 C 
HETATM   36  C18 UNL     1      62.324   5.690   4.101  1.00  0.00     0.046 C 
ENDBRANCH  32  33
ENDBRANCH  29  32
ENDBRANCH   5  28
BRANCH  14  37
HETATM   37  N3  UNL     1      57.516   2.194   1.280  1.00  0.00     0.092 N 
HETATM   38  C26 UNL     1      56.909   3.457   1.582  1.00  0.00     0.310 C 
HETATM   39  C27 UNL     1      58.635   2.297   0.386  1.00  0.00     0.310 C 
ENDBRANCH  14  37
BRANCH  11  40
HETATM   40  O6  UNL     1      55.708  -1.198   4.110  1.00  0.00    -0.357 OA
ATOM     41  H6  UNL     1      54.931  -0.937   3.630  1.00  0.00     0.213 HD
ENDBRANCH  11  40
TORSDOF 11
ENDMDL
MODEL 3
REMARK VINA RESULT: -6.512799814      1.431      1.894
REMARK  11 active torsions:
REMARK  status: ('A' for Active; 'I' for Inactive)
REMARK    1  A    between atoms: C2_2  and  C3_3 
REMARK    2  A    between atoms: C4_4  and  C5_5 
REMARK    3  A    between atoms: N1_6  and  C6_8 
REMARK    4  A    between atoms: C6_8  and  O1_9 
REMARK    5  A    between atoms: C6_8  and  C7_11 
REMARK    6  A    between atoms: C7_11  and  C9_13 
REMARK    7  A    between atoms: C13_18  and  N2_19 
REMARK       I    between atoms: N2_19  and  C14_21 
REMARK    8  A    between atoms: C14_21  and  O4_23 
REMARK    9  A    between atoms: O4_23  and  C15_24 
REMARK   10  A    between atoms: C23_33  and  O6_34 
REMARK   11  A    between atoms: C25_38  and  N3_39 
ROOT
HETATM    1  C3  UNL     1      58.756   2.900   6.417  1.00  0.00     0.014 C 
HETATM    2  C4  UNL     1      57.994   4.185   6.494  1.00  0.00     0.108 C 
HETATM    3  C12 UNL     1      58.451   4.445   5.120  1.00  0.00     0.166 C 
HETATM    4  O2  UNL     1      58.376   5.367   4.347  1.00  0.00    -0.294 OA
HETATM    5  C13 UNL     1      59.108   3.050   4.973  1.00  0.00     0.111 C 
HETATM    6  C19 UNL     1      58.150   2.232   4.151  1.00  0.00     0.064 C 
HETATM    7  C20 UNL     1      57.051   1.997   5.158  1.00  0.00     0.018 C 
HETATM    8  C21 UNL     1      57.808   1.656   6.393  1.00  0.00     0.034 C 
HETATM    9  C22 UNL     1      58.692   0.492   6.307  1.00  0.00     0.201 A 
HETATM   10  O5  UNL     1      58.662  -0.787   6.585  1.00  0.00    -0.335 OA
HETATM   11  C23 UNL     1      57.803  -0.542   5.569  1.00  0.00     0.255 A 
HETATM   12  C24 UNL     1      58.003  -0.242   4.179  1.00  0.00     0.225 C 
HETATM   13  O7  UNL     1      57.626  -1.055   3.379  1.00  0.00    -0.289 OA
HETATM   14  C25 UNL     1      58.636   0.975   3.523  1.00  0.00     0.303 C 
ENDROOT
BRANCH   2  15
HETATM   15  C5  UNL     1      58.485   5.189   7.478  1.00  0.00     0.071 C 
HETATM   16  N1  UNL     1      57.873   5.545   8.521  1.00  0.00    -0.376 N 
ATOM     17  H1  UNL     1      58.339   6.245   9.097  1.00  0.00     0.161 HD
BRANCH  16  18
HETATM   18  C6  UNL     1      56.622   5.095   8.988  1.00  0.00     0.221 C 
BRANCH  18  19
HETATM   19  O1  UNL     1      55.574   5.969   8.633  1.00  0.00    -0.377 OA
ATOM     20  H1  UNL     1      55.895   6.782   8.260  1.00  0.00     0.212 HD
ENDBRANCH  18  19
BRANCH  18  21
HETATM   21  C7  UNL     1      56.592   4.970  10.478  1.00  0.00     0.033 C 
HETATM   22  C8  UNL     1      57.324   3.739  10.972  1.00  0.00     0.015 C 
BRANCH  21  23
HETATM   23  C9  UNL     1      55.193   5.049  11.012  1.00  0.00    -0.015 C 
HETATM   24  C10 UNL     1      54.555   3.734  11.321  1.00  0.00     0.010 C 
HETATM   25  C11 UNL     1      55.139   5.967  12.237  1.00  0.00     0.010 C 
ENDBRANCH  21  23
ENDBRANCH  18  21
ENDBRANCH  16  18
ENDBRANCH   2  15
BRANCH   1  26
HETATM   26  C2  UNL     1      59.837   2.708   7.424  1.00  0.00     0.009 C 
HETATM   27  C1  UNL     1      59.276   2.112   8.716  1.00  0.00     0.006 C 
ENDBRANCH   1  26
BRANCH   5  28
HETATM   28  N2  UNL     1      60.426   3.152   4.503  1.00  0.00    -0.319 N 
HETATM   29  C14 UNL     1      60.894   3.669   3.282  1.00  0.00     0.362 C 
HETATM   30  O3  UNL     1      60.166   4.115   2.399  1.00  0.00    -0.238 OA
ATOM     31  H2  UNL     1      61.145   2.803   5.136  1.00  0.00     0.166 HD
BRANCH  29  32
HETATM   32  O4  UNL     1      62.273   3.710   2.982  1.00  0.00    -0.294 OA
BRANCH  32  33
HETATM   33  C15 UNL     1      63.134   4.649   3.579  1.00  0.00     0.061 C 
HETATM   34  C16 UNL     1      64.220   4.968   2.575  1.00  0.00     0.046 C 
HETATM   35  C17 UNL     1      63.798   4.115   4.822  1.00  0.00     0.046 C 
HETATM   36  C18 UNL     1      62.448   5.940   3.930  1.00  0.00     0.046 C 
ENDBRANCH  32  33
ENDBRANCH  29  32
ENDBRANCH   5  28
BRANCH  14  37
HETATM   37  N3  UNL     1      58.476   0.949   2.088  1.00  0.00     0.092 N 
HETATM   38  C26 UNL     1      57.662   2.040   1.636  1.00  0.00     0.310 C 
HETATM   39  C27 UNL     1      59.721   0.835   1.381  1.00  0.00     0.310 C 
ENDBRANCH  14  37
BRANCH  11  40
HETATM   40  O6  UNL     1      56.524  -0.792   6.080  1.00  0.00    -0.357 OA
ATOM     41  H6  UNL     1      55.855  -1.094   5.478  1.00  0.00     0.213 HD
ENDBRANCH  11  40
TORSDOF 11
ENDMDL
MODEL 4
REMARK VINA RESULT: -6.498038254      1.279      1.652
REMARK  11 active torsions:
REMARK  status: ('A' for Active; 'I' for Inactive)
REMARK    1  A    between atoms: C2_2  and  C3_3 
REMARK    2  A    between atoms: C4_4  and  C5_5 
REMARK    3  A    between atoms: N1_6  and  C6_8 
REMARK    4  A    between atoms: C6_8  and  O1_9 
REMARK    5  A    between atoms: C6_8  and  C7_11 
REMARK    6  A    between atoms: C7_11  and  C9_13 
REMARK    7  A    between atoms: C13_18  and  N2_19 
REMARK       I    between atoms: N2_19  and  C14_21 
REMARK    8  A    between atoms: C14_21  and  O4_23 
REMARK    9  A    between atoms: O4_23  and  C15_24 
REMARK   10  A    between atoms: C23_33  and  O6_34 
REMARK   11  A    between atoms: C25_38  and  N3_39 
ROOT
HETATM    1  C3  UNL     1      58.256   1.320   6.505  1.00  0.00     0.014 C 
HETATM    2  C4  UNL     1      57.667   2.539   7.142  1.00  0.00     0.108 C 
HETATM    3  C12 UNL     1      58.193   3.295   5.995  1.00  0.00     0.166 C 
HETATM    4  O2  UNL     1      58.262   4.458   5.688  1.00  0.00    -0.294 OA
HETATM    5  C13 UNL     1      58.666   2.021   5.252  1.00  0.00     0.111 C 
HETATM    6  C19 UNL     1      57.635   1.761   4.188  1.00  0.00     0.064 C 
HETATM    7  C20 UNL     1      56.485   1.267   5.033  1.00  0.00     0.018 C 
HETATM    8  C21 UNL     1      57.156   0.339   5.984  1.00  0.00     0.034 C 
HETATM    9  C22 UNL     1      57.883  -0.783   5.386  1.00  0.00     0.201 A 
HETATM   10  O5  UNL     1      57.678  -2.043   5.096  1.00  0.00    -0.335 OA
HETATM   11  C23 UNL     1      56.888  -1.281   4.307  1.00  0.00     0.255 A 
HETATM   12  C24 UNL     1      57.166  -0.449   3.170  1.00  0.00     0.225 C 
HETATM   13  O7  UNL     1      56.708  -0.789   2.112  1.00  0.00    -0.289 OA
HETATM   14  C25 UNL     1      57.970   0.838   3.073  1.00  0.00     0.303 C 
ENDROOT
BRANCH   2  15
HETATM   15  C5  UNL     1      58.256   2.958   8.444  1.00  0.00     0.071 C 
HETATM   16  N1  UNL     1      57.891   3.959   9.118  1.00  0.00    -0.376 N 
ATOM     17  H1  UNL     1      58.392   4.116   9.992  1.00  0.00     0.161 HD
BRANCH  16  18
HETATM   18  C6  UNL     1      56.877   4.887   8.813  1.00  0.00     0.221 C 
BRANCH  18  19
HETATM   19  O1  UNL     1      57.325   5.896   7.935  1.00  0.00    -0.377 OA
ATOM     20  H1  UNL     1      56.894   6.728   8.094  1.00  0.00     0.212 HD
ENDBRANCH  18  19
BRANCH  18  21
HETATM   21  C7  UNL     1      56.362   5.578  10.035  1.00  0.00     0.033 C 
HETATM   22  C8  UNL     1      57.311   5.461  11.210  1.00  0.00     0.015 C 
BRANCH  21  23
HETATM   23  C9  UNL     1      54.974   5.127  10.382  1.00  0.00    -0.015 C 
HETATM   24  C10 UNL     1      54.863   3.714  10.854  1.00  0.00     0.010 C 
HETATM   25  C11 UNL     1      54.342   6.079  11.401  1.00  0.00     0.010 C 
ENDBRANCH  21  23
ENDBRANCH  18  21
ENDBRANCH  16  18
ENDBRANCH   2  15
BRANCH   1  26
HETATM   26  C2  UNL     1      59.273   0.581   7.304  1.00  0.00     0.009 C 
HETATM   27  C1  UNL     1      58.608  -0.216   8.427  1.00  0.00     0.006 C 
ENDBRANCH   1  26
BRANCH   5  28
HETATM   28  N2  UNL     1      60.000   2.141   4.831  1.00  0.00    -0.319 N 
HETATM   29  C14 UNL     1      60.874   1.143   4.364  1.00  0.00     0.362 C 
HETATM   30  O3  UNL     1      60.576  -0.044   4.270  1.00  0.00    -0.238 OA
ATOM     31  H2  UNL     1      60.389   3.083   4.868  1.00  0.00     0.166 HD
BRANCH  29  32
HETATM   32  O4  UNL     1      62.192   1.451   3.961  1.00  0.00    -0.294 OA
BRANCH  32  33
HETATM   33  C15 UNL     1      63.207   1.728   4.895  1.00  0.00     0.061 C 
HETATM   34  C16 UNL     1      64.493   1.146   4.350  1.00  0.00     0.046 C 
HETATM   35  C17 UNL     1      62.947   1.092   6.237  1.00  0.00     0.046 C 
HETATM   36  C18 UNL     1      63.431   3.199   5.107  1.00  0.00     0.046 C 
ENDBRANCH  32  33
ENDBRANCH  29  32
ENDBRANCH   5  28
BRANCH  14  37
HETATM   37  N3  UNL     1      57.850   1.444   1.768  1.00  0.00     0.092 N 
HETATM   38  C26 UNL     1      57.204   2.721   1.846  1.00  0.00     0.310 C 
HETATM   39  C27 UNL     1      59.088   1.474   1.041  1.00  0.00     0.310 C 
ENDBRANCH  14  37
BRANCH  11  40
HETATM   40  O6  UNL     1      55.573  -1.556   4.700  1.00  0.00    -0.357 OA
ATOM     41  H6  UNL     1      55.237  -2.432   4.552  1.00  0.00     0.213 HD
ENDBRANCH  11  40
TORSDOF 11
ENDMDL
MODEL 5
REMARK VINA RESULT: -6.484617299      2.199      3.252
REMARK  11 active torsions:
REMARK  status: ('A' for Active; 'I' for Inactive)
REMARK    1  A    between atoms: C2_2  and  C3_3 
REMARK    2  A    between atoms: C4_4  and  C5_5 
REMARK    3  A    between atoms: N1_6  and  C6_8 
REMARK    4  A    between atoms: C6_8  and  O1_9 
REMARK    5  A    between atoms: C6_8  and  C7_11 
REMARK    6  A    between atoms: C7_11  and  C9_13 
REMARK    7  A    between atoms: C13_18  and  N2_19 
REMARK       I    between atoms: N2_19  and  C14_21 
REMARK    8  A    between atoms: C14_21  and  O4_23 
REMARK    9  A    between atoms: O4_23  and  C15_24 
REMARK   10  A    between atoms: C23_33  and  O6_34 
REMARK   11  A    between atoms: C25_38  and  N3_39 
ROOT
HETATM    1  C3  UNL     1      57.986   1.522   5.899  1.00  0.00     0.014 C 
HETATM    2  C4  UNL     1      57.942   2.244   7.208  1.00  0.00     0.108 C 
HETATM    3  C12 UNL     1      59.389   2.456   7.048  1.00  0.00     0.166 C 
HETATM    4  O2  UNL     1      60.273   2.916   7.727  1.00  0.00    -0.294 OA
HETATM    5  C13 UNL     1      59.416   1.852   5.622  1.00  0.00     0.111 C 
HETATM    6  C19 UNL     1      59.473   3.026   4.683  1.00  0.00     0.064 C 
HETATM    7  C20 UNL     1      58.064   3.553   4.813  1.00  0.00     0.018 C 
HETATM    8  C21 UNL     1      57.246   2.311   4.768  1.00  0.00     0.034 C 
HETATM    9  C22 UNL     1      57.385   1.490   3.563  1.00  0.00     0.201 A 
HETATM   10  O5  UNL     1      56.780   1.321   2.415  1.00  0.00    -0.335 OA
HETATM   11  C23 UNL     1      57.339   2.553   2.435  1.00  0.00     0.255 A 
HETATM   12  C24 UNL     1      58.698   3.003   2.329  1.00  0.00     0.225 C 
HETATM   13  O7  UNL     1      58.992   3.648   1.358  1.00  0.00    -0.289 OA
HETATM   14  C25 UNL     1      59.874   2.795   3.270  1.00  0.00     0.303 C 
ENDROOT
BRANCH   2  15
HETATM   15  C5  UNL     1      57.594   1.429   8.404  1.00  0.00     0.071 C 
HETATM   16  N1  UNL     1      57.552   1.857   9.589  1.00  0.00    -0.376 N 
ATOM     17  H1  UNL     1      57.297   1.175  10.303  1.00  0.00     0.161 HD
BRANCH  16  18
HETATM   18  C6  UNL     1      57.814   3.162  10.049  1.00  0.00     0.221 C 
BRANCH  18  19
HETATM   19  O1  UNL     1      57.918   3.221  11.455  1.00  0.00    -0.377 OA
ATOM     20  H1  UNL     1      57.471   3.978  11.816  1.00  0.00     0.212 HD
ENDBRANCH  18  19
BRANCH  18  21
HETATM   21  C7  UNL     1      56.738   4.123   9.656  1.00  0.00     0.033 C 
HETATM   22  C8  UNL     1      57.270   5.295   8.858  1.00  0.00     0.015 C 
BRANCH  21  23
HETATM   23  C9  UNL     1      55.930   4.563  10.840  1.00  0.00    -0.015 C 
HETATM   24  C10 UNL     1      55.692   6.035  10.936  1.00  0.00     0.010 C 
HETATM   25  C11 UNL     1      54.601   3.806  10.893  1.00  0.00     0.010 C 
ENDBRANCH  21  23
ENDBRANCH  18  21
ENDBRANCH  16  18
ENDBRANCH   2  15
BRANCH   1  26
HETATM   26  C2  UNL     1      57.545   0.099   5.911  1.00  0.00     0.009 C 
HETATM   27  C1  UNL     1      56.019   0.003   5.922  1.00  0.00     0.006 C 
ENDBRANCH   1  26
BRANCH   5  28
HETATM   28  N2  UNL     1      60.424   0.885   5.495  1.00  0.00    -0.319 N 
HETATM   29  C14 UNL     1      61.816   1.031   5.632  1.00  0.00     0.362 C 
HETATM   30  O3  UNL     1      62.374   2.095   5.882  1.00  0.00    -0.238 OA
ATOM     31  H2  UNL     1      60.102  -0.057   5.272  1.00  0.00     0.166 HD
BRANCH  29  32
HETATM   32  O4  UNL     1      62.688  -0.069   5.487  1.00  0.00    -0.294 OA
BRANCH  32  33
HETATM   33  C15 UNL     1      62.948  -0.954   6.550  1.00  0.00     0.061 C 
HETATM   34  C16 UNL     1      63.388  -2.270   5.944  1.00  0.00     0.046 C 
HETATM   35  C17 UNL     1      61.727  -1.221   7.391  1.00  0.00     0.046 C 
HETATM   36  C18 UNL     1      64.050  -0.482   7.456  1.00  0.00     0.046 C 
ENDBRANCH  32  33
ENDBRANCH  29  32
ENDBRANCH   5  28
BRANCH  14  37
HETATM   37  N3  UNL     1      61.023   3.569   2.865  1.00  0.00     0.092 N 
HETATM   38  C26 UNL     1      61.361   4.555   3.850  1.00  0.00     0.310 C 
HETATM   39  C27 UNL     1      62.140   2.759   2.463  1.00  0.00     0.310 C 
ENDBRANCH  14  37
BRANCH  11  40
HETATM   40  O6  UNL     1      56.272   3.459   2.428  1.00  0.00    -0.357 OA
ATOM     41  H6  UNL     1      55.389   3.108   2.437  1.00  0.00     0.213 HD
ENDBRANCH  11  40
TORSDOF 11
ENDMDL
