MODEL 1
REMARK VINA RESULT: -6.831890228      0.000      0.000
REMARK  11 active torsions:
REMARK  status: ('A' for Active; 'I' for Inactive)
REMARK    1  A    between atoms: O1_2  and  C2_3 
REMARK    2  A    between atoms: C2_3  and  C3_5 
REMARK    3  A    between atoms: C4_6  and  O3_7 
REMARK    4  A    between atoms: C5_9  and  C6_10 
REMARK    5  A    between atoms: C6_10  and  O5_12 
REMARK    6  A    between atoms: O5_12  and  C7_13 
REMARK    7  A    between atoms: C17_23  and  O6_24 
REMARK    8  A    between atoms: O6_24  and  C18_25 
REMARK    9  A    between atoms: C22_30  and  C24_32 
REMARK   10  A    between atoms: C24_32  and  C25_33 
REMARK   11  A    between atoms: C26_34  and  C27_35 
ROOT
HETATM    1  C3  UNL     1      56.340   0.058   4.514  1.00  0.00     0.119 C 
HETATM    2  C4  UNL     1      56.921   0.965   3.506  1.00  0.00     0.146 C 
HETATM    3  C5  UNL     1      58.419   0.981   3.405  1.00  0.00     0.120 C 
HETATM    4  C10 UNL     1      59.159   0.680   4.627  1.00  0.00     0.014 C 
HETATM    5  C11 UNL     1      58.670  -0.555   5.345  1.00  0.00     0.003 C 
HETATM    6  C12 UNL     1      57.193  -0.629   5.490  1.00  0.00     0.007 C 
HETATM    7  C13 UNL     1      56.861  -0.258   6.946  1.00  0.00     0.011 C 
HETATM    8  C14 UNL     1      58.151   0.394   7.410  1.00  0.00    -0.002 C 
HETATM    9  C15 UNL     1      58.214   1.722   6.719  1.00  0.00     0.006 C 
HETATM   10  C16 UNL     1      59.333   1.658   5.715  1.00  0.00     0.032 C 
HETATM   11  C17 UNL     1      60.267   0.789   6.597  1.00  0.00     0.079 C 
HETATM   12  C20 UNL     1      60.535   1.375   7.921  1.00  0.00     0.040 C 
HETATM   13  C21 UNL     1      59.950   2.693   8.230  1.00  0.00     0.013 C 
HETATM   14  C22 UNL     1      58.571   2.855   7.707  1.00  0.00    -0.036 C 
HETATM   15  C23 UNL     1      58.500   4.158   6.888  1.00  0.00     0.016 C 
HETATM   16  C28 UNL     1      59.257  -0.377   6.703  1.00  0.00     0.030 C 
ENDROOT
BRANCH  14  17
HETATM   17  C24 UNL     1      57.498   2.948   8.754  1.00  0.00     0.036 C 
BRANCH  17  18
HETATM   18  C25 UNL     1      57.038   4.261   9.169  1.00  0.00    -0.019 C 
HETATM   19  C26 UNL     1      57.068   4.808  10.356  1.00  0.00     0.080 C 
BRANCH  19  20
HETATM   20  C27 UNL     1      56.549   6.164  10.602  1.00  0.00     0.198 C 
HETATM   21  O8  UNL     1      56.738   7.060   9.752  1.00  0.00    -0.645 OA
HETATM   22  O9  UNL     1      55.856   6.482  11.745  1.00  0.00    -0.645 OA
ENDBRANCH  19  20
ENDBRANCH  17  18
ENDBRANCH  14  17
BRANCH  11  23
HETATM   23  O6  UNL     1      61.413   0.447   5.906  1.00  0.00    -0.309 OA
BRANCH  23  24
HETATM   24  C18 UNL     1      62.633   1.006   6.104  1.00  0.00     0.255 C 
HETATM   25  C19 UNL     1      63.667   0.178   6.823  1.00  0.00     0.126 C 
HETATM   26  O7  UNL     1      62.895   2.152   5.713  1.00  0.00    -0.266 OA
ENDBRANCH  23  24
ENDBRANCH  11  23
BRANCH   3  27
HETATM   27  C6  UNL     1      58.903   2.189   2.713  1.00  0.00     0.266 C 
HETATM   28  O4  UNL     1      59.465   2.060   1.597  1.00  0.00    -0.265 OA
BRANCH  27  29
HETATM   29  O5  UNL     1      58.799   3.483   3.177  1.00  0.00    -0.316 OA
BRANCH  29  30
HETATM   30  C7  UNL     1      59.757   4.490   2.943  1.00  0.00     0.123 C 
HETATM   31  C8  UNL     1      60.860   4.509   3.956  1.00  0.00     0.040 C 
HETATM   32  C9  UNL     1      59.137   5.851   2.833  1.00  0.00     0.040 C 
ENDBRANCH  29  30
ENDBRANCH  27  29
ENDBRANCH   3  27
BRANCH   1  33
HETATM   33  C2  UNL     1      55.370  -0.925   3.898  1.00  0.00     0.265 C 
HETATM   34  O2  UNL     1      54.751  -0.542   2.882  1.00  0.00    -0.265 OA
BRANCH  33  35
HETATM   35  O1  UNL     1      55.164  -2.174   4.412  1.00  0.00    -0.326 OA
HETATM   36  C1  UNL     1      54.343  -3.084   3.694  1.00  0.00     0.213 C 
ENDBRANCH  33  35
ENDBRANCH   1  33
BRANCH   2  37
HETATM   37  O3  UNL     1      56.409   2.291   3.564  1.00  0.00    -0.394 OA
ATOM     38  H3  UNL     1      56.814   2.829   4.234  1.00  0.00     0.210 HD
ENDBRANCH   2  37
TORSDOF 11
ENDMDL
MODEL 2
REMARK VINA RESULT: -6.389566877      2.865      5.718
REMARK  11 active torsions:
REMARK  status: ('A' for Active; 'I' for Inactive)
REMARK    1  A    between atoms: O1_2  and  C2_3 
REMARK    2  A    between atoms: C2_3  and  C3_5 
REMARK    3  A    between atoms: C4_6  and  O3_7 
REMARK    4  A    between atoms: C5_9  and  C6_10 
REMARK    5  A    between atoms: C6_10  and  O5_12 
REMARK    6  A    between atoms: O5_12  and  C7_13 
REMARK    7  A    between atoms: C17_23  and  O6_24 
REMARK    8  A    between atoms: O6_24  and  C18_25 
REMARK    9  A    between atoms: C22_30  and  C24_32 
REMARK   10  A    between atoms: C24_32  and  C25_33 
REMARK   11  A    between atoms: C26_34  and  C27_35 
ROOT
HETATM    1  C3  UNL     1      60.782   1.964   4.804  1.00  0.00     0.119 C 
HETATM    2  C4  UNL     1      59.552   1.977   3.990  1.00  0.00     0.146 C 
HETATM    3  C5  UNL     1      58.506   2.984   4.374  1.00  0.00     0.120 C 
HETATM    4  C10 UNL     1      58.451   3.362   5.784  1.00  0.00     0.014 C 
HETATM    5  C11 UNL     1      59.796   3.716   6.371  1.00  0.00     0.003 C 
HETATM    6  C12 UNL     1      60.877   2.752   6.038  1.00  0.00     0.007 C 
HETATM    7  C13 UNL     1      61.116   1.889   7.288  1.00  0.00     0.011 C 
HETATM    8  C14 UNL     1      59.868   2.161   8.106  1.00  0.00    -0.002 C 
HETATM    9  C15 UNL     1      58.750   1.453   7.402  1.00  0.00     0.006 C 
HETATM   10  C16 UNL     1      57.845   2.503   6.816  1.00  0.00     0.032 C 
HETATM   11  C17 UNL     1      57.998   3.498   7.996  1.00  0.00     0.079 C 
HETATM   12  C20 UNL     1      57.651   2.914   9.303  1.00  0.00     0.040 C 
HETATM   13  C21 UNL     1      57.171   1.521   9.337  1.00  0.00     0.013 C 
HETATM   14  C22 UNL     1      57.891   0.633   8.391  1.00  0.00    -0.036 C 
HETATM   15  C23 UNL     1      56.859  -0.113   7.525  1.00  0.00     0.016 C 
HETATM   16  C28 UNL     1      59.530   3.621   7.834  1.00  0.00     0.030 C 
ENDROOT
BRANCH  14  17
HETATM   17  C24 UNL     1      58.752  -0.419   9.032  1.00  0.00     0.036 C 
BRANCH  17  18
HETATM   18  C25 UNL     1      58.528  -0.752  10.427  1.00  0.00    -0.019 C 
HETATM   19  C26 UNL     1      59.156  -1.618  11.179  1.00  0.00     0.080 C 
BRANCH  19  20
HETATM   20  C27 UNL     1      58.791  -1.832  12.590  1.00  0.00     0.198 C 
HETATM   21  O8  UNL     1      58.130  -2.842  12.909  1.00  0.00    -0.645 OA
HETATM   22  O9  UNL     1      59.156  -0.949  13.577  1.00  0.00    -0.645 OA
ENDBRANCH  19  20
ENDBRANCH  17  18
ENDBRANCH  14  17
BRANCH  11  23
HETATM   23  O6  UNL     1      57.332   4.678   7.728  1.00  0.00    -0.309 OA
BRANCH  23  24
HETATM   24  C18 UNL     1      56.944   5.579   8.666  1.00  0.00     0.255 C 
HETATM   25  C19 UNL     1      57.990   6.527   9.192  1.00  0.00     0.126 C 
HETATM   26  O7  UNL     1      55.777   5.627   9.078  1.00  0.00    -0.266 OA
ENDBRANCH  23  24
ENDBRANCH  11  23
BRANCH   3  27
HETATM   27  C6  UNL     1      57.189   2.638   3.811  1.00  0.00     0.266 C 
HETATM   28  O4  UNL     1      56.620   1.592   4.209  1.00  0.00    -0.265 OA
BRANCH  27  29
HETATM   29  O5  UNL     1      56.498   3.363   2.864  1.00  0.00    -0.316 OA
BRANCH  29  30
HETATM   30  C7  UNL     1      56.914   3.526   1.528  1.00  0.00     0.123 C 
HETATM   31  C8  UNL     1      57.515   2.289   0.937  1.00  0.00     0.040 C 
HETATM   32  C9  UNL     1      57.852   4.685   1.360  1.00  0.00     0.040 C 
ENDBRANCH  29  30
ENDBRANCH  27  29
ENDBRANCH   3  27
BRANCH   1  33
HETATM   33  C2  UNL     1      62.021   2.175   3.963  1.00  0.00     0.265 C 
HETATM   34  O2  UNL     1      62.013   1.676   2.817  1.00  0.00    -0.265 OA
BRANCH  33  35
HETATM   35  O1  UNL     1      63.105   2.872   4.414  1.00  0.00    -0.326 OA
HETATM   36  C1  UNL     1      63.818   3.696   3.503  1.00  0.00     0.213 C 
ENDBRANCH  33  35
ENDBRANCH   1  33
BRANCH   2  37
HETATM   37  O3  UNL     1      58.969   0.693   3.810  1.00  0.00    -0.394 OA
ATOM     38  H3  UNL     1      58.276   0.496   4.429  1.00  0.00     0.210 HD
ENDBRANCH   2  37
TORSDOF 11
ENDMDL
MODEL 3
REMARK VINA RESULT: -6.095486193      2.328      6.568
REMARK  11 active torsions:
REMARK  status: ('A' for Active; 'I' for Inactive)
REMARK    1  A    between atoms: O1_2  and  C2_3 
REMARK    2  A    between atoms: C2_3  and  C3_5 
REMARK    3  A    between atoms: C4_6  and  O3_7 
REMARK    4  A    between atoms: C5_9  and  C6_10 
REMARK    5  A    between atoms: C6_10  and  O5_12 
REMARK    6  A    between atoms: O5_12  and  C7_13 
REMARK    7  A    between atoms: C17_23  and  O6_24 
REMARK    8  A    between atoms: O6_24  and  C18_25 
REMARK    9  A    between atoms: C22_30  and  C24_32 
REMARK   10  A    between atoms: C24_32  and  C25_33 
REMARK   11  A    between atoms: C26_34  and  C27_35 
ROOT
HETATM    1  C3  UNL     1      57.764   3.204   8.673  1.00  0.00     0.119 C 
HETATM    2  C4  UNL     1      57.947   1.823   9.159  1.00  0.00     0.146 C 
HETATM    3  C5  UNL     1      59.221   1.136   8.757  1.00  0.00     0.120 C 
HETATM    4  C10 UNL     1      59.809   1.544   7.484  1.00  0.00     0.014 C 
HETATM    5  C11 UNL     1      59.916   3.042   7.317  1.00  0.00     0.003 C 
HETATM    6  C12 UNL     1      58.684   3.784   7.688  1.00  0.00     0.007 C 
HETATM    7  C13 UNL     1      57.986   4.189   6.378  1.00  0.00     0.011 C 
HETATM    8  C14 UNL     1      58.669   3.291   5.363  1.00  0.00    -0.002 C 
HETATM    9  C15 UNL     1      58.150   1.908   5.621  1.00  0.00     0.006 C 
HETATM   10  C16 UNL     1      59.284   1.095   6.183  1.00  0.00     0.032 C 
HETATM   11  C17 UNL     1      60.381   1.754   5.305  1.00  0.00     0.079 C 
HETATM   12  C20 UNL     1      60.100   1.676   3.861  1.00  0.00     0.040 C 
HETATM   13  C21 UNL     1      58.883   0.967   3.426  1.00  0.00     0.013 C 
HETATM   14  C22 UNL     1      57.717   1.215   4.310  1.00  0.00    -0.036 C 
HETATM   15  C23 UNL     1      57.117  -0.138   4.733  1.00  0.00     0.016 C 
HETATM   16  C28 UNL     1      60.108   3.176   5.846  1.00  0.00     0.030 C 
ENDROOT
BRANCH  14  17
HETATM   17  C24 UNL     1      56.599   2.002   3.686  1.00  0.00     0.036 C 
BRANCH  17  18
HETATM   18  C25 UNL     1      56.846   2.697   2.435  1.00  0.00    -0.019 C 
HETATM   19  C26 UNL     1      56.963   3.980   2.213  1.00  0.00     0.080 C 
BRANCH  19  20
HETATM   20  C27 UNL     1      57.212   4.517   0.864  1.00  0.00     0.198 C 
HETATM   21  O8  UNL     1      56.460   4.189  -0.078  1.00  0.00    -0.645 OA
HETATM   22  O9  UNL     1      58.252   5.375   0.604  1.00  0.00    -0.645 OA
ENDBRANCH  19  20
ENDBRANCH  17  18
ENDBRANCH  14  17
BRANCH  11  23
HETATM   23  O6  UNL     1      61.631   1.278   5.647  1.00  0.00    -0.309 OA
BRANCH  23  24
HETATM   24  C18 UNL     1      62.724   1.325   4.845  1.00  0.00     0.255 C 
HETATM   25  C19 UNL     1      63.463   2.635   4.755  1.00  0.00     0.126 C 
HETATM   26  O7  UNL     1      63.108   0.334   4.209  1.00  0.00    -0.266 OA
ENDBRANCH  23  24
ENDBRANCH  11  23
BRANCH   3  27
HETATM   27  C6  UNL     1      59.118  -0.327   8.909  1.00  0.00     0.266 C 
HETATM   28  O4  UNL     1      58.720  -0.791  10.006  1.00  0.00    -0.265 OA
BRANCH  27  29
HETATM   29  O5  UNL     1      59.422  -1.264   7.945  1.00  0.00    -0.316 OA
BRANCH  29  30
HETATM   30  C7  UNL     1      60.649  -1.952   7.864  1.00  0.00     0.123 C 
HETATM   31  C8  UNL     1      61.149  -2.115   6.462  1.00  0.00     0.040 C 
HETATM   32  C9  UNL     1      60.601  -3.284   8.552  1.00  0.00     0.040 C 
ENDBRANCH  29  30
ENDBRANCH  27  29
ENDBRANCH   3  27
BRANCH   1  33
HETATM   33  C2  UNL     1      57.545   4.179   9.807  1.00  0.00     0.265 C 
HETATM   34  O2  UNL     1      57.633   3.721  10.967  1.00  0.00    -0.265 OA
BRANCH  33  35
HETATM   35  O1  UNL     1      57.261   5.499   9.597  1.00  0.00    -0.326 OA
HETATM   36  C1  UNL     1      56.345   6.150  10.467  1.00  0.00     0.213 C 
ENDBRANCH  33  35
ENDBRANCH   1  33
BRANCH   2  37
HETATM   37  O3  UNL     1      56.827   0.979   8.925  1.00  0.00    -0.394 OA
ATOM     38  H3  UNL     1      55.996   1.438   8.917  1.00  0.00     0.210 HD
ENDBRANCH   2  37
TORSDOF 11
ENDMDL
MODEL 4
REMARK VINA RESULT: -6.094529796      1.893      5.609
REMARK  11 active torsions:
REMARK  status: ('A' for Active; 'I' for Inactive)
REMARK    1  A    between atoms: O1_2  and  C2_3 
REMARK    2  A    between atoms: C2_3  and  C3_5 
REMARK    3  A    between atoms: C4_6  and  O3_7 
REMARK    4  A    between atoms: C5_9  and  C6_10 
REMARK    5  A    between atoms: C6_10  and  O5_12 
REMARK    6  A    between atoms: O5_12  and  C7_13 
REMARK    7  A    between atoms: C17_23  and  O6_24 
REMARK    8  A    between atoms: O6_24  and  C18_25 
REMARK    9  A    between atoms: C22_30  and  C24_32 
REMARK   10  A    between atoms: C24_32  and  C25_33 
REMARK   11  A    between atoms: C26_34  and  C27_35 
ROOT
HETATM    1  C3  UNL     1      60.833   4.524   4.634  1.00  0.00     0.119 C 
HETATM    2  C4  UNL     1      61.666   3.333   4.382  1.00  0.00     0.146 C 
HETATM    3  C5  UNL     1      60.952   2.112   3.876  1.00  0.00     0.120 C 
HETATM    4  C10 UNL     1      59.559   1.954   4.287  1.00  0.00     0.014 C 
HETATM    5  C11 UNL     1      58.724   3.198   4.095  1.00  0.00     0.003 C 
HETATM    6  C12 UNL     1      59.369   4.444   4.586  1.00  0.00     0.007 C 
HETATM    7  C13 UNL     1      58.701   4.804   5.924  1.00  0.00     0.011 C 
HETATM    8  C14 UNL     1      58.005   3.507   6.291  1.00  0.00    -0.002 C 
HETATM    9  C15 UNL     1      59.090   2.554   6.689  1.00  0.00     0.006 C 
HETATM   10  C16 UNL     1      59.172   1.489   5.630  1.00  0.00     0.032 C 
HETATM   11  C17 UNL     1      57.644   1.429   5.370  1.00  0.00     0.079 C 
HETATM   12  C20 UNL     1      56.853   1.161   6.584  1.00  0.00     0.040 C 
HETATM   13  C21 UNL     1      57.576   0.942   7.850  1.00  0.00     0.013 C 
HETATM   14  C22 UNL     1      58.750   1.834   8.014  1.00  0.00    -0.036 C 
HETATM   15  C23 UNL     1      59.984   0.976   8.349  1.00  0.00     0.016 C 
HETATM   16  C28 UNL     1      57.547   2.917   4.964  1.00  0.00     0.030 C 
ENDROOT
BRANCH  14  17
HETATM   17  C24 UNL     1      58.629   2.855   9.109  1.00  0.00     0.036 C 
BRANCH  17  18
HETATM   18  C25 UNL     1      57.307   3.199   9.602  1.00  0.00    -0.019 C 
HETATM   19  C26 UNL     1      56.803   4.377   9.858  1.00  0.00     0.080 C 
BRANCH  19  20
HETATM   20  C27 UNL     1      55.428   4.544  10.361  1.00  0.00     0.198 C 
HETATM   21  O8  UNL     1      54.893   5.672  10.330  1.00  0.00    -0.645 OA
HETATM   22  O9  UNL     1      54.707   3.490  10.866  1.00  0.00    -0.645 OA
ENDBRANCH  19  20
ENDBRANCH  17  18
ENDBRANCH  14  17
BRANCH  11  23
HETATM   23  O6  UNL     1      57.359   0.567   4.330  1.00  0.00    -0.309 OA
BRANCH  23  24
HETATM   24  C18 UNL     1      56.115   0.148   3.988  1.00  0.00     0.255 C 
HETATM   25  C19 UNL     1      55.817  -1.323   4.120  1.00  0.00     0.126 C 
HETATM   26  O7  UNL     1      55.250   0.938   3.584  1.00  0.00    -0.266 OA
ENDBRANCH  23  24
ENDBRANCH  11  23
BRANCH   3  27
HETATM   27  C6  UNL     1      61.759   0.894   4.069  1.00  0.00     0.266 C 
HETATM   28  O4  UNL     1      62.189   0.290   3.056  1.00  0.00    -0.265 OA
BRANCH  27  29
HETATM   29  O5  UNL     1      62.099   0.332   5.281  1.00  0.00    -0.316 OA
BRANCH  29  30
HETATM   30  C7  UNL     1      62.112  -1.053   5.540  1.00  0.00     0.123 C 
HETATM   31  C8  UNL     1      60.745  -1.660   5.602  1.00  0.00     0.040 C 
HETATM   32  C9  UNL     1      62.883  -1.394   6.780  1.00  0.00     0.040 C 
ENDBRANCH  29  30
ENDBRANCH  27  29
ENDBRANCH   3  27
BRANCH   1  33
HETATM   33  C2  UNL     1      61.308   5.724   3.847  1.00  0.00     0.265 C 
HETATM   34  O2  UNL     1      61.367   5.594   2.605  1.00  0.00    -0.265 OA
BRANCH  33  35
HETATM   35  O1  UNL     1      61.662   6.901   4.444  1.00  0.00    -0.326 OA
HETATM   36  C1  UNL     1      60.664   7.892   4.649  1.00  0.00     0.213 C 
ENDBRANCH  33  35
ENDBRANCH   1  33
BRANCH   2  37
HETATM   37  O3  UNL     1      62.529   2.997   5.461  1.00  0.00    -0.394 OA
ATOM     38  H3  UNL     1      62.946   3.747   5.867  1.00  0.00     0.210 HD
ENDBRANCH   2  37
TORSDOF 11
ENDMDL
MODEL 5
REMARK VINA RESULT: -6.087698262      1.997      2.457
REMARK  11 active torsions:
REMARK  status: ('A' for Active; 'I' for Inactive)
REMARK    1  A    between atoms: O1_2  and  C2_3 
REMARK    2  A    between atoms: C2_3  and  C3_5 
REMARK    3  A    between atoms: C4_6  and  O3_7 
REMARK    4  A    between atoms: C5_9  and  C6_10 
REMARK    5  A    between atoms: C6_10  and  O5_12 
REMARK    6  A    between atoms: O5_12  and  C7_13 
REMARK    7  A    between atoms: C17_23  and  O6_24 
REMARK    8  A    between atoms: O6_24  and  C18_25 
REMARK    9  A    between atoms: C22_30  and  C24_32 
REMARK   10  A    between atoms: C24_32  and  C25_33 
REMARK   11  A    between atoms: C26_34  and  C27_35 
ROOT
HETATM    1  C3  UNL     1      56.311  -0.152   4.374  1.00  0.00     0.119 C 
HETATM    2  C4  UNL     1      56.754   0.936   3.482  1.00  0.00     0.146 C 
HETATM    3  C5  UNL     1      58.236   1.088   3.297  1.00  0.00     0.120 C 
HETATM    4  C10 UNL     1      59.079   0.675   4.415  1.00  0.00     0.014 C 
HETATM    5  C11 UNL     1      58.732  -0.687   4.967  1.00  0.00     0.003 C 
HETATM    6  C12 UNL     1      57.277  -0.901   5.185  1.00  0.00     0.007 C 
HETATM    7  C13 UNL     1      57.022  -0.774   6.697  1.00  0.00     0.011 C 
HETATM    8  C14 UNL     1      58.290  -0.093   7.178  1.00  0.00    -0.002 C 
HETATM    9  C15 UNL     1      58.210   1.322   6.690  1.00  0.00     0.006 C 
HETATM   10  C16 UNL     1      59.257   1.496   5.625  1.00  0.00     0.032 C 
HETATM   11  C17 UNL     1      60.311   0.587   6.311  1.00  0.00     0.079 C 
HETATM   12  C20 UNL     1      60.628   0.995   7.690  1.00  0.00     0.040 C 
HETATM   13  C21 UNL     1      59.972   2.202   8.226  1.00  0.00     0.013 C 
HETATM   14  C22 UNL     1      58.552   2.325   7.815  1.00  0.00    -0.036 C 
HETATM   15  C23 UNL     1      58.330   3.722   7.206  1.00  0.00     0.016 C 
HETATM   16  C28 UNL     1      59.397  -0.660   6.300  1.00  0.00     0.030 C 
ENDROOT
BRANCH  14  17
HETATM   17  C24 UNL     1      57.550   2.178   8.925  1.00  0.00     0.036 C 
BRANCH  17  18
HETATM   18  C25 UNL     1      57.937   1.457  10.125  1.00  0.00    -0.019 C 
HETATM   19  C26 UNL     1      57.869   0.176  10.375  1.00  0.00     0.080 C 
BRANCH  19  20
HETATM   20  C27 UNL     1      58.307  -0.390  11.663  1.00  0.00     0.198 C 
HETATM   21  O8  UNL     1      59.019  -1.415  11.675  1.00  0.00    -0.645 OA
HETATM   22  O9  UNL     1      57.956   0.179  12.863  1.00  0.00    -0.645 OA
ENDBRANCH  19  20
ENDBRANCH  17  18
ENDBRANCH  14  17
BRANCH  11  23
HETATM   23  O6  UNL     1      61.427   0.444   5.511  1.00  0.00    -0.309 OA
BRANCH  23  24
HETATM   24  C18 UNL     1      62.659   0.928   5.806  1.00  0.00     0.255 C 
HETATM   25  C19 UNL     1      62.945   2.364   5.447  1.00  0.00     0.126 C 
HETATM   26  O7  UNL     1      63.522   0.225   6.350  1.00  0.00    -0.266 OA
ENDBRANCH  23  24
ENDBRANCH  11  23
BRANCH   3  27
HETATM   27  C6  UNL     1      58.582   2.420   2.766  1.00  0.00     0.266 C 
HETATM   28  O4  UNL     1      59.104   2.497   1.627  1.00  0.00    -0.265 OA
BRANCH  27  29
HETATM   29  O5  UNL     1      58.385   3.622   3.410  1.00  0.00    -0.316 OA
BRANCH  29  30
HETATM   30  C7  UNL     1      59.231   4.742   3.278  1.00  0.00     0.123 C 
HETATM   31  C8  UNL     1      60.459   4.663   4.131  1.00  0.00     0.040 C 
HETATM   32  C9  UNL     1      58.511   6.033   3.531  1.00  0.00     0.040 C 
ENDBRANCH  29  30
ENDBRANCH  27  29
ENDBRANCH   3  27
BRANCH   1  33
HETATM   33  C2  UNL     1      55.374  -1.111   3.676  1.00  0.00     0.265 C 
HETATM   34  O2  UNL     1      54.663  -0.638   2.763  1.00  0.00    -0.265 OA
BRANCH  33  35
HETATM   35  O1  UNL     1      55.292  -2.433   4.011  1.00  0.00    -0.326 OA
HETATM   36  C1  UNL     1      54.342  -3.252   3.342  1.00  0.00     0.213 C 
ENDBRANCH  33  35
ENDBRANCH   1  33
BRANCH   2  37
HETATM   37  O3  UNL     1      56.153   2.193   3.768  1.00  0.00    -0.394 OA
ATOM     38  H3  UNL     1      56.349   2.523   4.637  1.00  0.00     0.210 HD
ENDBRANCH   2  37
TORSDOF 11
ENDMDL
