MODEL 1
REMARK VINA RESULT: -7.892492346      0.000      0.000
REMARK  10 active torsions:
REMARK  status: ('A' for Active; 'I' for Inactive)
REMARK    1  A    between atoms: C2_2  and  C3_3 
REMARK    2  A    between atoms: C2_2  and  C8_11 
REMARK    3  A    between atoms: C3_3  and  N1_4 
REMARK    4  A    between atoms: C10_13  and  C11_14 
REMARK    5  A    between atoms: C11_14  and  O4_16 
REMARK    6  A    between atoms: O4_16  and  C12_17 
REMARK    7  A    between atoms: C18_23  and  C19_24 
REMARK    8  A    between atoms: C19_24  and  O5_27 
REMARK    9  A    between atoms: C25_32  and  O6_33 
REMARK   10  A    between atoms: C28_37  and  O7_38 
ROOT
HETATM    1  C12 UNL     1      58.188   1.986   8.275  1.00  0.00     0.097 C 
HETATM    2  C13 UNL     1      58.921   2.968   7.424  1.00  0.00    -0.041 C 
HETATM    3  C14 UNL     1      58.019   3.862   6.610  1.00  0.00     0.047 C 
HETATM    4  C15 UNL     1      60.084   2.402   6.747  1.00  0.00    -0.004 C 
HETATM    5  C16 UNL     1      60.675   3.162   5.593  1.00  0.00     0.015 C 
HETATM    6  C17 UNL     1      59.963   2.542   4.422  1.00  0.00     0.009 C 
HETATM    7  C18 UNL     1      60.009   1.060   4.832  1.00  0.00     0.032 C 
HETATM    8  C22 UNL     1      60.083   0.980   6.299  1.00  0.00     0.012 C 
HETATM    9  C23 UNL     1      61.479   0.906   6.918  1.00  0.00     0.015 C 
HETATM   10  C24 UNL     1      61.224   2.164   7.749  1.00  0.00     0.016 C 
HETATM   11  C25 UNL     1      59.184   0.058   7.043  1.00  0.00     0.104 C 
HETATM   12  C26 UNL     1      58.190  -0.772   6.281  1.00  0.00     0.046 C 
HETATM   13  C27 UNL     1      57.177   0.329   6.555  1.00  0.00     0.051 C 
HETATM   14  C28 UNL     1      58.000   0.633   7.734  1.00  0.00     0.138 C 
ENDROOT
BRANCH   1  15
HETATM   15  O4  UNL     1      57.139   2.519   9.006  1.00  0.00    -0.279 OA
BRANCH  15  16
HETATM   16  C11 UNL     1      57.033   2.756  10.328  1.00  0.00     0.270 C 
HETATM   17  O3  UNL     1      57.457   1.881  11.093  1.00  0.00    -0.264 OA
BRANCH  16  18
HETATM   18  C10 UNL     1      56.449   3.980  10.938  1.00  0.00     0.112 C 
HETATM   19  C9  UNL     1      54.964   3.845  11.166  1.00  0.00     0.049 C 
HETATM   20  C8  UNL     1      54.539   5.284  10.982  1.00  0.00     0.127 C 
HETATM   21  O8  UNL     1      55.255   5.692   9.858  1.00  0.00    -0.385 OA
HETATM   22  C29 UNL     1      56.513   5.117   9.946  1.00  0.00     0.183 C 
BRANCH  20  23
HETATM   23  C2  UNL     1      54.941   6.182  12.129  1.00  0.00     0.029 C 
HETATM   24  C1  UNL     1      54.884   7.611  11.568  1.00  0.00     0.014 C 
BRANCH  23  25
HETATM   25  C3  UNL     1      53.984   6.094  13.276  1.00  0.00     0.142 C 
BRANCH  25  26
HETATM   26  N1  UNL     1      54.606   5.979  14.565  1.00  0.00    -0.281 N 
HETATM   27  C4  UNL     1      54.973   4.711  15.152  1.00  0.00     0.250 A 
HETATM   28  O1  UNL     1      54.814   3.570  14.639  1.00  0.00    -0.268 OA
HETATM   29  C5  UNL     1      55.562   5.001  16.450  1.00  0.00     0.080 A 
HETATM   30  C6  UNL     1      55.577   6.287  16.682  1.00  0.00     0.080 A 
HETATM   31  C7  UNL     1      54.982   6.945  15.514  1.00  0.00     0.250 A 
HETATM   32  O2  UNL     1      54.822   8.193  15.366  1.00  0.00    -0.268 OA
ENDBRANCH  25  26
ENDBRANCH  23  25
ENDBRANCH  20  23
ENDBRANCH  16  18
ENDBRANCH  15  16
ENDBRANCH   1  15
BRANCH  14  33
HETATM   33  O7  UNL     1      57.567  -0.206   8.802  1.00  0.00    -0.380 OA
ATOM     34  H7  UNL     1      58.264  -0.237   9.446  1.00  0.00     0.211 HD
ENDBRANCH  14  33
BRANCH  11  35
HETATM   35  O6  UNL     1      59.869  -0.808   7.940  1.00  0.00    -0.385 OA
ATOM     36  H6  UNL     1      60.815  -0.782   7.849  1.00  0.00     0.210 HD
ENDBRANCH  11  35
BRANCH   7  37
HETATM   37  C19 UNL     1      60.995   0.408   3.966  1.00  0.00     0.055 C 
HETATM   38  C20 UNL     1      60.482   0.566   2.518  1.00  0.00     0.045 C 
HETATM   39  C21 UNL     1      61.279  -1.025   4.143  1.00  0.00     0.045 C 
BRANCH  37  40
HETATM   40  O5  UNL     1      62.247   1.074   3.889  1.00  0.00    -0.390 OA
ATOM     41  H5  UNL     1      62.972   0.523   3.620  1.00  0.00     0.210 HD
ENDBRANCH  37  40
ENDBRANCH   7  37
TORSDOF 10
ENDMDL
MODEL 2
REMARK VINA RESULT: -7.559257306      4.830      7.937
REMARK  10 active torsions:
REMARK  status: ('A' for Active; 'I' for Inactive)
REMARK    1  A    between atoms: C2_2  and  C3_3 
REMARK    2  A    between atoms: C2_2  and  C8_11 
REMARK    3  A    between atoms: C3_3  and  N1_4 
REMARK    4  A    between atoms: C10_13  and  C11_14 
REMARK    5  A    between atoms: C11_14  and  O4_16 
REMARK    6  A    between atoms: O4_16  and  C12_17 
REMARK    7  A    between atoms: C18_23  and  C19_24 
REMARK    8  A    between atoms: C19_24  and  O5_27 
REMARK    9  A    between atoms: C25_32  and  O6_33 
REMARK   10  A    between atoms: C28_37  and  O7_38 
ROOT
HETATM    1  C12 UNL     1      59.113   5.383   2.307  1.00  0.00     0.097 C 
HETATM    2  C13 UNL     1      60.233   5.533   1.333  1.00  0.00    -0.041 C 
HETATM    3  C14 UNL     1      61.198   4.375   1.330  1.00  0.00     0.047 C 
HETATM    4  C15 UNL     1      60.804   6.877   1.301  1.00  0.00    -0.004 C 
HETATM    5  C16 UNL     1      62.149   7.062   0.657  1.00  0.00     0.015 C 
HETATM    6  C17 UNL     1      63.074   6.932   1.837  1.00  0.00     0.009 C 
HETATM    7  C18 UNL     1      62.293   7.746   2.883  1.00  0.00     0.032 C 
HETATM    8  C22 UNL     1      60.863   7.705   2.539  1.00  0.00     0.012 C 
HETATM    9  C23 UNL     1      60.328   8.840   1.665  1.00  0.00     0.015 C 
HETATM   10  C24 UNL     1      59.842   7.852   0.605  1.00  0.00     0.016 C 
HETATM   11  C25 UNL     1      59.852   7.394   3.585  1.00  0.00     0.104 C 
HETATM   12  C26 UNL     1      60.311   7.105   4.987  1.00  0.00     0.046 C 
HETATM   13  C27 UNL     1      60.277   5.632   4.611  1.00  0.00     0.051 C 
HETATM   14  C28 UNL     1      59.269   6.027   3.618  1.00  0.00     0.138 C 
ENDROOT
BRANCH   1  15
HETATM   15  O4  UNL     1      58.487   4.147   2.288  1.00  0.00    -0.279 OA
BRANCH  15  16
HETATM   16  C11 UNL     1      57.358   3.735   2.896  1.00  0.00     0.270 C 
HETATM   17  O3  UNL     1      56.285   4.082   2.388  1.00  0.00    -0.264 OA
BRANCH  16  18
HETATM   18  C10 UNL     1      57.299   2.902   4.126  1.00  0.00     0.112 C 
HETATM   19  C9  UNL     1      58.645   2.319   4.479  1.00  0.00     0.049 C 
HETATM   20  C8  UNL     1      58.209   1.023   5.124  1.00  0.00     0.127 C 
HETATM   21  O8  UNL     1      57.211   0.558   4.270  1.00  0.00    -0.385 OA
HETATM   22  C29 UNL     1      56.481   1.662   3.857  1.00  0.00     0.183 C 
BRANCH  20  23
HETATM   23  C2  UNL     1      57.590   1.207   6.490  1.00  0.00     0.029 C 
HETATM   24  C1  UNL     1      57.225  -0.207   6.966  1.00  0.00     0.014 C 
BRANCH  23  25
HETATM   25  C3  UNL     1      58.556   1.794   7.471  1.00  0.00     0.142 C 
BRANCH  25  26
HETATM   26  N1  UNL     1      58.000   2.807   8.323  1.00  0.00    -0.281 N 
HETATM   27  C4  UNL     1      57.590   2.553   9.684  1.00  0.00     0.250 A 
HETATM   28  O1  UNL     1      57.661   1.454  10.299  1.00  0.00    -0.268 OA
HETATM   29  C5  UNL     1      57.076   3.807  10.212  1.00  0.00     0.080 A 
HETATM   30  C6  UNL     1      57.141   4.756   9.315  1.00  0.00     0.080 A 
HETATM   31  C7  UNL     1      57.721   4.167   8.103  1.00  0.00     0.250 A 
HETATM   32  O2  UNL     1      57.943   4.776   7.015  1.00  0.00    -0.268 OA
ENDBRANCH  25  26
ENDBRANCH  23  25
ENDBRANCH  20  23
ENDBRANCH  16  18
ENDBRANCH  15  16
ENDBRANCH   1  15
BRANCH  14  33
HETATM   33  O7  UNL     1      57.995   6.025   4.258  1.00  0.00    -0.380 OA
ATOM     34  H7  UNL     1      57.520   6.792   3.961  1.00  0.00     0.211 HD
ENDBRANCH  14  33
BRANCH  11  35
HETATM   35  O6  UNL     1      58.801   8.349   3.666  1.00  0.00    -0.385 OA
ATOM     36  H6  UNL     1      58.092   8.089   4.243  1.00  0.00     0.210 HD
ENDBRANCH  11  35
BRANCH   7  37
HETATM   37  C19 UNL     1      63.013   9.009   3.065  1.00  0.00     0.055 C 
HETATM   38  C20 UNL     1      64.500   8.642   3.269  1.00  0.00     0.045 C 
HETATM   39  C21 UNL     1      62.654   9.892   4.186  1.00  0.00     0.045 C 
BRANCH  37  40
HETATM   40  O5  UNL     1      63.086   9.821   1.903  1.00  0.00    -0.390 OA
ATOM     41  H5  UNL     1      63.001  10.754   2.065  1.00  0.00     0.210 HD
ENDBRANCH  37  40
ENDBRANCH   7  37
TORSDOF 10
ENDMDL
MODEL 3
REMARK VINA RESULT: -7.525937696      4.849      8.008
REMARK  10 active torsions:
REMARK  status: ('A' for Active; 'I' for Inactive)
REMARK    1  A    between atoms: C2_2  and  C3_3 
REMARK    2  A    between atoms: C2_2  and  C8_11 
REMARK    3  A    between atoms: C3_3  and  N1_4 
REMARK    4  A    between atoms: C10_13  and  C11_14 
REMARK    5  A    between atoms: C11_14  and  O4_16 
REMARK    6  A    between atoms: O4_16  and  C12_17 
REMARK    7  A    between atoms: C18_23  and  C19_24 
REMARK    8  A    between atoms: C19_24  and  O5_27 
REMARK    9  A    between atoms: C25_32  and  O6_33 
REMARK   10  A    between atoms: C28_37  and  O7_38 
ROOT
HETATM    1  C12 UNL     1      59.120   5.392   2.269  1.00  0.00     0.097 C 
HETATM    2  C13 UNL     1      60.237   5.541   1.291  1.00  0.00    -0.041 C 
HETATM    3  C14 UNL     1      61.200   4.381   1.285  1.00  0.00     0.047 C 
HETATM    4  C15 UNL     1      60.810   6.883   1.258  1.00  0.00    -0.004 C 
HETATM    5  C16 UNL     1      62.153   7.067   0.610  1.00  0.00     0.015 C 
HETATM    6  C17 UNL     1      63.081   6.935   1.787  1.00  0.00     0.009 C 
HETATM    7  C18 UNL     1      62.305   7.750   2.835  1.00  0.00     0.032 C 
HETATM    8  C22 UNL     1      60.873   7.711   2.496  1.00  0.00     0.012 C 
HETATM    9  C23 UNL     1      60.337   8.847   1.625  1.00  0.00     0.015 C 
HETATM   10  C24 UNL     1      59.847   7.860   0.565  1.00  0.00     0.016 C 
HETATM   11  C25 UNL     1      59.866   7.401   3.546  1.00  0.00     0.104 C 
HETATM   12  C26 UNL     1      60.329   7.111   4.946  1.00  0.00     0.046 C 
HETATM   13  C27 UNL     1      60.291   5.638   4.569  1.00  0.00     0.051 C 
HETATM   14  C28 UNL     1      59.281   6.035   3.580  1.00  0.00     0.138 C 
ENDROOT
BRANCH   1  15
HETATM   15  O4  UNL     1      58.492   4.156   2.251  1.00  0.00    -0.279 OA
BRANCH  15  16
HETATM   16  C11 UNL     1      57.359   3.749   2.855  1.00  0.00     0.270 C 
HETATM   17  O3  UNL     1      56.289   4.089   2.335  1.00  0.00    -0.264 OA
BRANCH  16  18
HETATM   18  C10 UNL     1      57.292   2.927   4.092  1.00  0.00     0.112 C 
HETATM   19  C9  UNL     1      58.625   2.309   4.434  1.00  0.00     0.049 C 
HETATM   20  C8  UNL     1      58.161   1.031   5.094  1.00  0.00     0.127 C 
HETATM   21  O8  UNL     1      57.140   0.588   4.255  1.00  0.00    -0.385 OA
HETATM   22  C29 UNL     1      56.436   1.708   3.843  1.00  0.00     0.183 C 
BRANCH  20  23
HETATM   23  C2  UNL     1      57.564   1.243   6.466  1.00  0.00     0.029 C 
HETATM   24  C1  UNL     1      57.201  -0.161   6.974  1.00  0.00     0.014 C 
BRANCH  23  25
HETATM   25  C3  UNL     1      58.548   1.843   7.420  1.00  0.00     0.142 C 
BRANCH  25  26
HETATM   26  N1  UNL     1      57.979   2.768   8.360  1.00  0.00    -0.281 N 
HETATM   27  C4  UNL     1      57.735   4.157   8.050  1.00  0.00     0.250 A 
HETATM   28  O1  UNL     1      57.970   4.736   6.954  1.00  0.00    -0.268 OA
HETATM   29  C5  UNL     1      57.167   4.764   9.244  1.00  0.00     0.080 A 
HETATM   30  C6  UNL     1      57.055   3.888  10.208  1.00  0.00     0.080 A 
HETATM   31  C7  UNL     1      57.556   2.610   9.692  1.00  0.00     0.250 A 
HETATM   32  O2  UNL     1      57.610   1.519  10.335  1.00  0.00    -0.268 OA
ENDBRANCH  25  26
ENDBRANCH  23  25
ENDBRANCH  20  23
ENDBRANCH  16  18
ENDBRANCH  15  16
ENDBRANCH   1  15
BRANCH  14  33
HETATM   33  O7  UNL     1      58.009   6.034   4.224  1.00  0.00    -0.380 OA
ATOM     34  H7  UNL     1      58.044   6.662   4.936  1.00  0.00     0.211 HD
ENDBRANCH  14  33
BRANCH  11  35
HETATM   35  O6  UNL     1      58.816   8.358   3.630  1.00  0.00    -0.385 OA
ATOM     36  H6  UNL     1      57.952   7.970   3.711  1.00  0.00     0.210 HD
ENDBRANCH  11  35
BRANCH   7  37
HETATM   37  C19 UNL     1      63.028   9.012   3.016  1.00  0.00     0.055 C 
HETATM   38  C20 UNL     1      64.515   8.643   3.207  1.00  0.00     0.045 C 
HETATM   39  C21 UNL     1      62.678   9.892   4.142  1.00  0.00     0.045 C 
BRANCH  37  40
HETATM   40  O5  UNL     1      63.092   9.828   1.855  1.00  0.00    -0.390 OA
ATOM     41  H5  UNL     1      62.302  10.326   1.678  1.00  0.00     0.210 HD
ENDBRANCH  37  40
ENDBRANCH   7  37
TORSDOF 10
ENDMDL
MODEL 4
REMARK VINA RESULT: -7.300201048      2.821      5.382
REMARK  10 active torsions:
REMARK  status: ('A' for Active; 'I' for Inactive)
REMARK    1  A    between atoms: C2_2  and  C3_3 
REMARK    2  A    between atoms: C2_2  and  C8_11 
REMARK    3  A    between atoms: C3_3  and  N1_4 
REMARK    4  A    between atoms: C10_13  and  C11_14 
REMARK    5  A    between atoms: C11_14  and  O4_16 
REMARK    6  A    between atoms: O4_16  and  C12_17 
REMARK    7  A    between atoms: C18_23  and  C19_24 
REMARK    8  A    between atoms: C19_24  and  O5_27 
REMARK    9  A    between atoms: C25_32  and  O6_33 
REMARK   10  A    between atoms: C28_37  and  O7_38 
ROOT
HETATM    1  C12 UNL     1      58.914   2.046   4.780  1.00  0.00     0.097 C 
HETATM    2  C13 UNL     1      57.850   3.012   4.380  1.00  0.00    -0.041 C 
HETATM    3  C14 UNL     1      56.859   2.453   3.390  1.00  0.00     0.047 C 
HETATM    4  C15 UNL     1      58.348   4.362   4.134  1.00  0.00    -0.004 C 
HETATM    5  C16 UNL     1      57.468   5.318   3.378  1.00  0.00     0.015 C 
HETATM    6  C17 UNL     1      57.944   5.119   1.965  1.00  0.00     0.009 C 
HETATM    7  C18 UNL     1      59.463   5.056   2.198  1.00  0.00     0.032 C 
HETATM    8  C22 UNL     1      59.710   4.576   3.566  1.00  0.00     0.012 C 
HETATM    9  C23 UNL     1      59.869   5.639   4.654  1.00  0.00     0.015 C 
HETATM   10  C24 UNL     1      58.711   5.049   5.460  1.00  0.00     0.016 C 
HETATM   11  C25 UNL     1      60.700   3.494   3.811  1.00  0.00     0.104 C 
HETATM   12  C26 UNL     1      61.428   2.886   2.645  1.00  0.00     0.046 C 
HETATM   13  C27 UNL     1      60.354   1.810   2.636  1.00  0.00     0.051 C 
HETATM   14  C28 UNL     1      60.194   2.119   4.063  1.00  0.00     0.138 C 
ENDROOT
BRANCH   1  15
HETATM   15  O4  UNL     1      58.456   0.782   5.115  1.00  0.00    -0.279 OA
BRANCH  15  16
HETATM   16  C11 UNL     1      58.234   0.231   6.325  1.00  0.00     0.270 C 
HETATM   17  O3  UNL     1      58.390  -0.992   6.424  1.00  0.00    -0.264 OA
BRANCH  16  18
HETATM   18  C10 UNL     1      57.818   0.973   7.544  1.00  0.00     0.112 C 
HETATM   19  C9  UNL     1      58.848   1.992   7.965  1.00  0.00     0.049 C 
HETATM   20  C8  UNL     1      58.639   1.973   9.462  1.00  0.00     0.127 C 
HETATM   21  O8  UNL     1      58.529   0.615   9.755  1.00  0.00    -0.385 OA
HETATM   22  C29 UNL     1      57.804   0.033   8.726  1.00  0.00     0.183 C 
BRANCH  20  23
HETATM   23  C2  UNL     1      57.355   2.639   9.900  1.00  0.00     0.029 C 
HETATM   24  C1  UNL     1      57.538   2.932  11.398  1.00  0.00     0.014 C 
BRANCH  23  25
HETATM   25  C3  UNL     1      57.128   3.940   9.196  1.00  0.00     0.142 C 
BRANCH  25  26
HETATM   26  N1  UNL     1      56.246   4.843   9.881  1.00  0.00    -0.281 N 
HETATM   27  C4  UNL     1      56.517   6.255  10.019  1.00  0.00     0.250 A 
HETATM   28  O1  UNL     1      57.520   6.876   9.573  1.00  0.00    -0.268 OA
HETATM   29  C5  UNL     1      55.411   6.826  10.772  1.00  0.00     0.080 A 
HETATM   30  C6  UNL     1      54.534   5.909  11.086  1.00  0.00     0.080 A 
HETATM   31  C7  UNL     1      55.022   4.638  10.541  1.00  0.00     0.250 A 
HETATM   32  O2  UNL     1      54.442   3.516  10.641  1.00  0.00    -0.268 OA
ENDBRANCH  25  26
ENDBRANCH  23  25
ENDBRANCH  20  23
ENDBRANCH  16  18
ENDBRANCH  15  16
ENDBRANCH   1  15
BRANCH  14  33
HETATM   33  O7  UNL     1      61.144   1.345   4.791  1.00  0.00    -0.380 OA
ATOM     34  H7  UNL     1      61.920   1.879   4.914  1.00  0.00     0.211 HD
ENDBRANCH  14  33
BRANCH  11  35
HETATM   35  O6  UNL     1      61.670   3.820   4.800  1.00  0.00    -0.385 OA
ATOM     36  H6  UNL     1      61.838   3.116   5.416  1.00  0.00     0.210 HD
ENDBRANCH  11  35
BRANCH   7  37
HETATM   37  C19 UNL     1      60.023   6.315   1.701  1.00  0.00     0.055 C 
HETATM   38  C20 UNL     1      59.574   6.447   0.229  1.00  0.00     0.045 C 
HETATM   39  C21 UNL     1      61.482   6.509   1.702  1.00  0.00     0.045 C 
BRANCH  37  40
HETATM   40  O5  UNL     1      59.449   7.483   2.270  1.00  0.00    -0.390 OA
ATOM     41  H5  UNL     1      58.655   7.783   1.842  1.00  0.00     0.210 HD
ENDBRANCH  37  40
ENDBRANCH   7  37
TORSDOF 10
ENDMDL
MODEL 5
REMARK VINA RESULT: -7.108640275      1.693      2.899
REMARK  10 active torsions:
REMARK  status: ('A' for Active; 'I' for Inactive)
REMARK    1  A    between atoms: C2_2  and  C3_3 
REMARK    2  A    between atoms: C2_2  and  C8_11 
REMARK    3  A    between atoms: C3_3  and  N1_4 
REMARK    4  A    between atoms: C10_13  and  C11_14 
REMARK    5  A    between atoms: C11_14  and  O4_16 
REMARK    6  A    between atoms: O4_16  and  C12_17 
REMARK    7  A    between atoms: C18_23  and  C19_24 
REMARK    8  A    between atoms: C19_24  and  O5_27 
REMARK    9  A    between atoms: C25_32  and  O6_33 
REMARK   10  A    between atoms: C28_37  and  O7_38 
ROOT
HETATM    1  C12 UNL     1      58.096   2.330   7.663  1.00  0.00     0.097 C 
HETATM    2  C13 UNL     1      58.292   0.852   7.710  1.00  0.00    -0.041 C 
HETATM    3  C14 UNL     1      59.563   0.427   8.401  1.00  0.00     0.047 C 
HETATM    4  C15 UNL     1      57.956   0.178   6.460  1.00  0.00    -0.004 C 
HETATM    5  C16 UNL     1      58.454  -1.225   6.252  1.00  0.00     0.015 C 
HETATM    6  C17 UNL     1      59.748  -0.986   5.524  1.00  0.00     0.009 C 
HETATM    7  C18 UNL     1      59.310   0.123   4.552  1.00  0.00     0.032 C 
HETATM    8  C22 UNL     1      58.181   0.853   5.150  1.00  0.00     0.012 C 
HETATM    9  C23 UNL     1      56.776   0.370   4.791  1.00  0.00     0.015 C 
HETATM   10  C24 UNL     1      56.433   0.140   6.264  1.00  0.00     0.016 C 
HETATM   11  C25 UNL     1      58.181   2.340   5.170  1.00  0.00     0.104 C 
HETATM   12  C26 UNL     1      59.353   3.083   4.591  1.00  0.00     0.046 C 
HETATM   13  C27 UNL     1      59.919   3.131   6.001  1.00  0.00     0.051 C 
HETATM   14  C28 UNL     1      58.521   3.028   6.442  1.00  0.00     0.138 C 
ENDROOT
BRANCH   1  15
HETATM   15  O4  UNL     1      58.312   2.985   8.866  1.00  0.00    -0.279 OA
BRANCH  15  16
HETATM   16  C11 UNL     1      57.520   3.094   9.950  1.00  0.00     0.270 C 
HETATM   17  O3  UNL     1      57.297   2.060  10.592  1.00  0.00    -0.264 OA
BRANCH  16  18
HETATM   18  C10 UNL     1      56.895   4.353  10.434  1.00  0.00     0.112 C 
HETATM   19  C9  UNL     1      55.414   4.395  10.147  1.00  0.00     0.049 C 
HETATM   20  C8  UNL     1      55.226   5.883   9.956  1.00  0.00     0.127 C 
HETATM   21  O8  UNL     1      56.317   6.247   9.169  1.00  0.00    -0.385 OA
HETATM   22  C29 UNL     1      57.406   5.516   9.618  1.00  0.00     0.183 C 
BRANCH  20  23
HETATM   23  C2  UNL     1      55.309   6.671  11.243  1.00  0.00     0.029 C 
HETATM   24  C1  UNL     1      55.395   8.144  10.814  1.00  0.00     0.014 C 
BRANCH  23  25
HETATM   25  C3  UNL     1      54.084   6.502  12.086  1.00  0.00     0.142 C 
BRANCH  25  26
HETATM   26  N1  UNL     1      54.308   5.833  13.336  1.00  0.00    -0.281 N 
HETATM   27  C4  UNL     1      54.285   4.396  13.475  1.00  0.00     0.250 A 
HETATM   28  O1  UNL     1      54.081   3.553  12.558  1.00  0.00    -0.268 OA
HETATM   29  C5  UNL     1      54.543   4.102  14.877  1.00  0.00     0.080 A 
HETATM   30  C6  UNL     1      54.711   5.202  15.563  1.00  0.00     0.080 A 
HETATM   31  C7  UNL     1      54.572   6.322  14.627  1.00  0.00     0.250 A 
HETATM   32  O2  UNL     1      54.669   7.551  14.920  1.00  0.00    -0.268 OA
ENDBRANCH  25  26
ENDBRANCH  23  25
ENDBRANCH  20  23
ENDBRANCH  16  18
ENDBRANCH  15  16
ENDBRANCH   1  15
BRANCH  14  33
HETATM   33  O7  UNL     1      57.974   4.344   6.481  1.00  0.00    -0.380 OA
ATOM     34  H7  UNL     1      57.996   4.693   5.598  1.00  0.00     0.211 HD
ENDBRANCH  14  33
BRANCH  11  35
HETATM   35  O6  UNL     1      56.998   2.919   4.632  1.00  0.00    -0.385 OA
ATOM     36  H6  UNL     1      56.437   3.319   5.287  1.00  0.00     0.210 HD
ENDBRANCH  11  35
BRANCH   7  37
HETATM   37  C19 UNL     1      59.226  -0.485   3.221  1.00  0.00     0.055 C 
HETATM   38  C20 UNL     1      60.625  -1.062   2.912  1.00  0.00     0.045 C 
HETATM   39  C21 UNL     1      58.866   0.351   2.065  1.00  0.00     0.045 C 
BRANCH  37  40
HETATM   40  O5  UNL     1      58.424  -1.655   3.154  1.00  0.00    -0.390 OA
ATOM     41  H5  UNL     1      57.934  -1.753   2.346  1.00  0.00     0.210 HD
ENDBRANCH  37  40
ENDBRANCH   7  37
TORSDOF 10
ENDMDL
