MODEL 1
REMARK VINA RESULT: -4.719771454      0.000      0.000
REMARK  1 active torsions:
REMARK  status: ('A' for Active; 'I' for Inactive)
REMARK    1  A    between atoms: N1_2  and  C2_4 
ROOT
HETATM    1  C2  UNL     1     133.728   5.340  68.931  1.00  0.00     0.096 C 
HETATM    2  C3  UNL     1     132.845   5.863  67.855  1.00  0.00     0.049 C 
HETATM    3  C4  UNL     1     131.526   5.123  67.790  1.00  0.00     0.047 C 
HETATM    4  C5  UNL     1     131.730   3.636  67.824  1.00  0.00     0.058 C 
HETATM    5  N2  UNL     1     132.616   3.147  68.774  1.00  0.00    -0.389 N 
HETATM    6  C6  UNL     1     132.276   2.026  69.544  1.00  0.00     0.149 C 
HETATM    7  C7  UNL     1     133.769   3.868  69.109  1.00  0.00     0.130 C 
HETATM    8  C8  UNL     1     134.953   3.512  68.218  1.00  0.00     0.105 C 
HETATM    9  S1  UNL     1     135.439   5.229  68.270  1.00  0.00    -0.134 SA
ENDROOT
BRANCH   1  10
HETATM   10  N1  UNL     1     133.648   6.079  70.149  1.00  0.00    -0.407 N 
HETATM   11  C1  UNL     1     134.484   5.662  71.214  1.00  0.00     0.141 C 
ATOM     12  H1  UNL     1     133.016   6.874  70.248  1.00  0.00     0.154 HD
ENDBRANCH   1  10
TORSDOF 1
ENDMDL
MODEL 2
REMARK VINA RESULT: -4.690748846     13.966     15.210
REMARK  1 active torsions:
REMARK  status: ('A' for Active; 'I' for Inactive)
REMARK    1  A    between atoms: N1_2  and  C2_4 
ROOT
HETATM    1  C2  UNL     1     121.806  12.973  70.388  1.00  0.00     0.096 C 
HETATM    2  C3  UNL     1     120.791  11.977  70.826  1.00  0.00     0.049 C 
HETATM    3  C4  UNL     1     119.685  12.611  71.642  1.00  0.00     0.047 C 
HETATM    4  C5  UNL     1     120.239  13.515  72.707  1.00  0.00     0.058 C 
HETATM    5  N2  UNL     1     121.243  14.392  72.323  1.00  0.00    -0.389 N 
HETATM    6  C6  UNL     1     121.203  15.732  72.732  1.00  0.00     0.149 C 
HETATM    7  C7  UNL     1     122.201  14.006  71.376  1.00  0.00     0.130 C 
HETATM    8  C8  UNL     1     123.408  13.332  72.016  1.00  0.00     0.105 C 
HETATM    9  S1  UNL     1     123.473  12.234  70.610  1.00  0.00    -0.134 SA
ENDROOT
BRANCH   1  10
HETATM   10  N1  UNL     1     121.588  13.471  69.069  1.00  0.00    -0.407 N 
HETATM   11  C1  UNL     1     122.735  13.780  68.298  1.00  0.00     0.141 C 
ATOM     12  H1  UNL     1     120.647  13.599  68.697  1.00  0.00     0.154 HD
ENDBRANCH   1  10
TORSDOF 1
ENDMDL
MODEL 3
REMARK VINA RESULT: -4.302664141     13.347     14.496
REMARK  1 active torsions:
REMARK  status: ('A' for Active; 'I' for Inactive)
REMARK    1  A    between atoms: N1_2  and  C2_4 
ROOT
HETATM    1  C2  UNL     1     122.045  13.228  70.506  1.00  0.00     0.096 C 
HETATM    2  C3  UNL     1     122.531  11.874  70.886  1.00  0.00     0.049 C 
HETATM    3  C4  UNL     1     123.260  11.882  72.212  1.00  0.00     0.047 C 
HETATM    4  C5  UNL     1     124.265  12.996  72.278  1.00  0.00     0.058 C 
HETATM    5  N2  UNL     1     123.842  14.246  71.849  1.00  0.00    -0.389 N 
HETATM    6  C6  UNL     1     124.141  15.389  72.604  1.00  0.00     0.149 C 
HETATM    7  C7  UNL     1     122.958  14.367  70.769  1.00  0.00     0.130 C 
HETATM    8  C8  UNL     1     123.685  14.455  69.433  1.00  0.00     0.105 C 
HETATM    9  S1  UNL     1     122.375  13.478  68.716  1.00  0.00    -0.134 SA
ENDROOT
BRANCH   1  10
HETATM   10  N1  UNL     1     120.684  13.469  70.861  1.00  0.00    -0.407 N 
HETATM   11  C1  UNL     1     119.878  12.338  71.138  1.00  0.00     0.141 C 
ATOM     12  H1  UNL     1     120.308  14.416  70.912  1.00  0.00     0.154 HD
ENDBRANCH   1  10
TORSDOF 1
ENDMDL
MODEL 4
REMARK VINA RESULT: -4.267469076     12.740     14.045
REMARK  1 active torsions:
REMARK  status: ('A' for Active; 'I' for Inactive)
REMARK    1  A    between atoms: N1_2  and  C2_4 
ROOT
HETATM    1  C2  UNL     1     123.787  13.804  70.243  1.00  0.00     0.096 C 
HETATM    2  C3  UNL     1     124.854  12.983  70.874  1.00  0.00     0.049 C 
HETATM    3  C4  UNL     1     124.318  11.683  71.435  1.00  0.00     0.047 C 
HETATM    4  C5  UNL     1     123.077  11.909  72.251  1.00  0.00     0.058 C 
HETATM    5  N2  UNL     1     122.110  12.740  71.702  1.00  0.00    -0.389 N 
HETATM    6  C6  UNL     1     120.759  12.370  71.741  1.00  0.00     0.149 C 
HETATM    7  C7  UNL     1     122.480  13.858  70.943  1.00  0.00     0.130 C 
HETATM    8  C8  UNL     1     122.674  15.102  71.800  1.00  0.00     0.105 C 
HETATM    9  S1  UNL     1     124.036  15.556  70.740  1.00  0.00    -0.134 SA
ENDROOT
BRANCH   1  10
HETATM   10  N1  UNL     1     123.692  13.634  68.830  1.00  0.00    -0.407 N 
HETATM   11  C1  UNL     1     122.392  13.618  68.267  1.00  0.00     0.141 C 
ATOM     12  H1  UNL     1     124.525  13.528  68.250  1.00  0.00     0.154 HD
ENDBRANCH   1  10
TORSDOF 1
ENDMDL
MODEL 5
REMARK VINA RESULT: -4.241988719     11.924     13.220
REMARK  1 active torsions:
REMARK  status: ('A' for Active; 'I' for Inactive)
REMARK    1  A    between atoms: N1_2  and  C2_4 
ROOT
HETATM    1  C2  UNL     1     124.109  12.300  71.251  1.00  0.00     0.096 C 
HETATM    2  C3  UNL     1     122.957  11.993  72.140  1.00  0.00     0.049 C 
HETATM    3  C4  UNL     1     121.660  11.867  71.370  1.00  0.00     0.047 C 
HETATM    4  C5  UNL     1     121.480  13.008  70.411  1.00  0.00     0.058 C 
HETATM    5  N2  UNL     1     122.577  13.353  69.635  1.00  0.00    -0.389 N 
HETATM    6  C6  UNL     1     122.421  13.600  68.263  1.00  0.00     0.149 C 
HETATM    7  C7  UNL     1     123.873  13.277  70.160  1.00  0.00     0.130 C 
HETATM    8  C8  UNL     1     124.296  14.569  70.848  1.00  0.00     0.105 C 
HETATM    9  S1  UNL     1     125.143  13.580  72.069  1.00  0.00    -0.134 SA
ENDROOT
BRANCH   1  10
HETATM   10  N1  UNL     1     124.855  11.149  70.860  1.00  0.00    -0.407 N 
HETATM   11  C1  UNL     1     126.059  11.370  70.147  1.00  0.00     0.141 C 
ATOM     12  H1  UNL     1     124.534  10.206  71.083  1.00  0.00     0.154 HD
ENDBRANCH   1  10
TORSDOF 1
ENDMDL
