MODEL 1
REMARK VINA RESULT: -5.462225391      0.000      0.000
REMARK  1 active torsions:
REMARK  status: ('A' for Active; 'I' for Inactive)
REMARK    1  A    between atoms: N2_3  and  C2_5 
ROOT
HETATM    1  N1  UNL     1     134.152   6.402  67.537  1.00  0.00    -0.172 NA
HETATM    2  C1  UNL     1     133.086   6.056  67.822  1.00  0.00     0.178 C 
HETATM    3  N2  UNL     1     131.777   5.656  68.172  1.00  0.00    -0.319 N 
ATOM      4  H2  UNL     1     131.527   5.489  69.147  1.00  0.00     0.172 HD
ENDROOT
BRANCH   3   5
HETATM    5  C2  UNL     1     130.812   5.491  67.135  1.00  0.00     0.044 C 
HETATM    6  C3  UNL     1     131.008   6.433  65.975  1.00  0.00     0.036 C 
HETATM    7  C4  UNL     1     129.949   6.139  64.954  1.00  0.00    -0.007 C 
HETATM    8  C5  UNL     1     130.019   4.713  64.434  1.00  0.00     0.037 C 
HETATM    9  C9  UNL     1     128.554   6.326  65.489  1.00  0.00     0.037 C 
HETATM   10  C6  UNL     1     129.812   3.812  65.651  1.00  0.00     0.124 C 
HETATM   11  C7  UNL     1     130.941   4.085  66.595  1.00  0.00     0.063 C 
HETATM   12  O1  UNL     1     128.563   4.063  66.173  1.00  0.00    -0.380 OA
HETATM   13  C8  UNL     1     128.384   5.346  66.639  1.00  0.00     0.124 C 
HETATM   14  C10 UNL     1     129.432   5.665  67.658  1.00  0.00     0.063 C 
ENDBRANCH   3   5
TORSDOF 1
ENDMDL
MODEL 2
REMARK VINA RESULT: -5.410045618     10.877     12.218
REMARK  1 active torsions:
REMARK  status: ('A' for Active; 'I' for Inactive)
REMARK    1  A    between atoms: N2_3  and  C2_5 
ROOT
HETATM    1  N1  UNL     1     119.293  12.019  71.565  1.00  0.00    -0.172 NA
HETATM    2  C1  UNL     1     120.086  12.551  70.912  1.00  0.00     0.178 C 
HETATM    3  N2  UNL     1     121.052  13.220  70.128  1.00  0.00    -0.319 N 
ATOM      4  H2  UNL     1     120.775  13.753  69.303  1.00  0.00     0.172 HD
ENDROOT
BRANCH   3   5
HETATM    5  C2  UNL     1     122.423  13.135  70.512  1.00  0.00     0.044 C 
HETATM    6  C3  UNL     1     122.879  11.729  70.807  1.00  0.00     0.036 C 
HETATM    7  C4  UNL     1     124.333  11.779  71.173  1.00  0.00    -0.007 C 
HETATM    8  C5  UNL     1     125.197  12.343  70.057  1.00  0.00     0.037 C 
HETATM    9  C9  UNL     1     124.601  12.631  72.386  1.00  0.00     0.037 C 
HETATM   10  C6  UNL     1     124.688  13.763  69.808  1.00  0.00     0.124 C 
HETATM   11  C7  UNL     1     123.264  13.646  69.365  1.00  0.00     0.063 C 
HETATM   12  O1  UNL     1     124.865  14.498  70.959  1.00  0.00    -0.380 OA
HETATM   13  C8  UNL     1     124.152  14.043  72.045  1.00  0.00     0.124 C 
HETATM   14  C10 UNL     1     122.696  13.980  71.704  1.00  0.00     0.063 C 
ENDBRANCH   3   5
TORSDOF 1
ENDMDL
MODEL 3
REMARK VINA RESULT: -5.286804751     10.915     12.260
REMARK  1 active torsions:
REMARK  status: ('A' for Active; 'I' for Inactive)
REMARK    1  A    between atoms: N2_3  and  C2_5 
ROOT
HETATM    1  N1  UNL     1     119.297  11.980  71.553  1.00  0.00    -0.172 NA
HETATM    2  C1  UNL     1     120.061  12.518  70.871  1.00  0.00     0.178 C 
HETATM    3  N2  UNL     1     120.991  13.194  70.051  1.00  0.00    -0.319 N 
ATOM      4  H2  UNL     1     120.683  13.683  69.210  1.00  0.00     0.172 HD
ENDROOT
BRANCH   3   5
HETATM    5  C2  UNL     1     122.368  13.180  70.422  1.00  0.00     0.044 C 
HETATM    6  C3  UNL     1     123.289  13.675  69.335  1.00  0.00     0.036 C 
HETATM    7  C4  UNL     1     124.693  13.631  69.861  1.00  0.00    -0.007 C 
HETATM    8  C5  UNL     1     124.884  14.504  71.090  1.00  0.00     0.037 C 
HETATM    9  C9  UNL     1     125.125  12.244  70.257  1.00  0.00     0.037 C 
HETATM   10  C6  UNL     1     123.930  13.954  72.149  1.00  0.00     0.124 C 
HETATM   11  C7  UNL     1     122.542  14.101  71.608  1.00  0.00     0.063 C 
HETATM   12  O1  UNL     1     124.293  12.656  72.431  1.00  0.00    -0.380 OA
HETATM   13  C8  UNL     1     124.192  11.788  71.368  1.00  0.00     0.124 C 
HETATM   14  C10 UNL     1     122.799  11.816  70.822  1.00  0.00     0.063 C 
ENDBRANCH   3   5
TORSDOF 1
ENDMDL
MODEL 4
REMARK VINA RESULT: -5.279143035     10.820     12.182
REMARK  1 active torsions:
REMARK  status: ('A' for Active; 'I' for Inactive)
REMARK    1  A    between atoms: N2_3  and  C2_5 
ROOT
HETATM    1  N1  UNL     1     119.287  12.003  71.565  1.00  0.00    -0.172 NA
HETATM    2  C1  UNL     1     120.075  12.539  70.909  1.00  0.00     0.178 C 
HETATM    3  N2  UNL     1     121.034  13.212  70.121  1.00  0.00    -0.319 N 
ATOM      4  H2  UNL     1     120.756  13.706  69.273  1.00  0.00     0.172 HD
ENDROOT
BRANCH   3   5
HETATM    5  C2  UNL     1     122.399  13.190  70.536  1.00  0.00     0.044 C 
HETATM    6  C3  UNL     1     122.650  13.940  71.820  1.00  0.00     0.036 C 
HETATM    7  C4  UNL     1     124.107  13.817  72.151  1.00  0.00    -0.007 C 
HETATM    8  C5  UNL     1     124.543  12.375  72.343  1.00  0.00     0.037 C 
HETATM    9  C9  UNL     1     125.000  14.390  71.082  1.00  0.00     0.037 C 
HETATM   10  C6  UNL     1     124.266  11.672  71.014  1.00  0.00     0.124 C 
HETATM   11  C7  UNL     1     122.791  11.750  70.777  1.00  0.00     0.063 C 
HETATM   12  O1  UNL     1     125.029  12.269  70.037  1.00  0.00    -0.380 OA
HETATM   13  C8  UNL     1     124.738  13.596  69.812  1.00  0.00     0.124 C 
HETATM   14  C10 UNL     1     123.286  13.745  69.482  1.00  0.00     0.063 C 
ENDBRANCH   3   5
TORSDOF 1
ENDMDL
MODEL 5
REMARK VINA RESULT: -5.272291000     10.904     12.263
REMARK  1 active torsions:
REMARK  status: ('A' for Active; 'I' for Inactive)
REMARK    1  A    between atoms: N2_3  and  C2_5 
ROOT
HETATM    1  N1  UNL     1     119.350  11.676  71.280  1.00  0.00    -0.172 NA
HETATM    2  C1  UNL     1     120.151  12.510  71.275  1.00  0.00     0.178 C 
HETATM    3  N2  UNL     1     121.127  13.531  71.292  1.00  0.00    -0.319 N 
ATOM      4  H2  UNL     1     120.859  14.509  71.180  1.00  0.00     0.172 HD
ENDROOT
BRANCH   3   5
HETATM    5  C2  UNL     1     122.495  13.168  71.469  1.00  0.00     0.044 C 
HETATM    6  C3  UNL     1     122.687  11.960  72.351  1.00  0.00     0.036 C 
HETATM    7  C4  UNL     1     124.157  11.674  72.433  1.00  0.00    -0.007 C 
HETATM    8  C5  UNL     1     124.772  11.382  71.075  1.00  0.00     0.037 C 
HETATM    9  C9  UNL     1     124.943  12.819  73.015  1.00  0.00     0.037 C 
HETATM   10  C6  UNL     1     124.547  12.638  70.233  1.00  0.00     0.124 C 
HETATM   11  C7  UNL     1     123.067  12.825  70.112  1.00  0.00     0.063 C 
HETATM   12  O1  UNL     1     125.204  13.689  70.832  1.00  0.00    -0.380 OA
HETATM   13  C8  UNL     1     124.746  14.010  72.089  1.00  0.00     0.124 C 
HETATM   14  C10 UNL     1     123.278  14.296  72.035  1.00  0.00     0.063 C 
ENDBRANCH   3   5
TORSDOF 1
ENDMDL
