MODEL 1
REMARK VINA RESULT: -8.663894865      0.000      0.000
REMARK  14 active torsions:
REMARK  status: ('A' for Active; 'I' for Inactive)
REMARK    1  A    between atoms: C2_2  and  C3_3 
REMARK    2  A    between atoms: C3_3  and  C4_4 
REMARK    3  A    between atoms: C6_7  and  C7_8 
REMARK    4  A    between atoms: C7_8  and  C8_9 
REMARK    5  A    between atoms: C8_9  and  C9_10 
REMARK    6  A    between atoms: C9_10  and  C22_28 
REMARK    7  A    between atoms: C10_11  and  C11_12 
REMARK    8  A    between atoms: C11_12  and  C12_13 
REMARK    9  A    between atoms: C12_13  and  C13_14 
REMARK   10  A    between atoms: C13_14  and  C15_16 
REMARK   11  A    between atoms: C18_19  and  O2_20 
REMARK   12  A    between atoms: C19_22  and  O3_23 
REMARK   13  A    between atoms: C22_28  and  C23_29 
REMARK   14  A    between atoms: C23_29  and  C24_30 
ROOT
HETATM    1  C9  UNL     1      11.253   0.442  28.466  1.00  0.00    -0.083 C 
HETATM    2  C10 UNL     1      12.478   0.664  28.093  1.00  0.00    -0.021 C 
ENDROOT
BRANCH   1   3
HETATM    3  C8  UNL     1      10.270   1.554  28.536  1.00  0.00     0.038 C 
BRANCH   3   4
HETATM    4  C7  UNL     1      10.099   2.332  27.283  1.00  0.00     0.065 C 
BRANCH   4   5
HETATM    5  C6  UNL     1       9.439   1.485  26.177  1.00  0.00     0.261 C 
HETATM    6  O1  UNL     1      10.398   0.704  25.655  1.00  0.00    -0.350 OA
HETATM    7  C4  UNL     1      10.194   0.308  24.280  1.00  0.00     0.075 C 
HETATM    8  C5  UNL     1      10.758  -1.120  24.344  1.00  0.00     0.047 C 
HETATM    9  C35 UNL     1       8.729   0.340  24.130  1.00  0.00     0.149 C 
HETATM   10  C28 UNL     1       8.285   1.781  24.196  1.00  0.00     0.141 C 
HETATM   11  C34 UNL     1       8.094  -0.423  23.069  1.00  0.00     0.268 C 
HETATM   12  O5  UNL     1       8.788   2.351  25.342  1.00  0.00    -0.355 OA
HETATM   13  C29 UNL     1       6.800   1.946  24.030  1.00  0.00     0.033 C 
HETATM   14  C30 UNL     1       5.941   1.115  24.898  1.00  0.00     0.005 C 
HETATM   15  C31 UNL     1       4.914   0.426  23.988  1.00  0.00     0.032 C 
HETATM   16  C32 UNL     1       5.531  -0.856  23.535  1.00  0.00     0.127 C 
HETATM   17  C33 UNL     1       4.575  -1.600  22.608  1.00  0.00     0.040 C 
HETATM   18  O6  UNL     1       6.738  -0.704  22.833  1.00  0.00    -0.316 OA
HETATM   19  O7  UNL     1       8.778  -0.954  22.172  1.00  0.00    -0.265 OA
BRANCH   7  20
HETATM   20  C3  UNL     1      11.035   1.254  23.552  1.00  0.00     0.038 C 
BRANCH  20  21
HETATM   21  C2  UNL     1      12.382   0.978  23.077  1.00  0.00    -0.002 C 
HETATM   22  C1  UNL     1      13.498   1.363  24.020  1.00  0.00     0.005 C 
ENDBRANCH  20  21
ENDBRANCH   7  20
ENDBRANCH   4   5
ENDBRANCH   3   4
ENDBRANCH   1   3
BRANCH   1  23
HETATM   23  C22 UNL     1      10.737  -0.901  28.785  1.00  0.00     0.037 C 
BRANCH  23  24
HETATM   24  C23 UNL     1      11.256  -1.454  30.067  1.00  0.00     0.031 C 
BRANCH  24  25
HETATM   25  C24 UNL     1      10.559  -1.081  31.307  1.00  0.00    -0.024 C 
HETATM   26  C25 UNL     1      11.093  -0.277  32.221  1.00  0.00    -0.091 C 
HETATM   27  C26 UNL     1      10.370   0.086  33.457  1.00  0.00     0.042 C 
HETATM   28  C27 UNL     1      12.457   0.256  31.963  1.00  0.00     0.042 C 
ENDBRANCH  24  25
ENDBRANCH  23  24
ENDBRANCH   1  23
BRANCH   2  29
HETATM   29  C11 UNL     1      13.621  -0.228  27.947  1.00  0.00     0.066 C 
BRANCH  29  30
HETATM   30  C12 UNL     1      14.849   0.101  28.766  1.00  0.00     0.070 C 
HETATM   31  C17 UNL     1      16.076  -0.203  27.951  1.00  0.00     0.073 C 
HETATM   32  C18 UNL     1      17.034   0.928  27.768  1.00  0.00     0.152 C 
HETATM   33  C19 UNL     1      16.382   2.266  27.722  1.00  0.00     0.175 C 
HETATM   34  C20 UNL     1      15.471   2.377  28.896  1.00  0.00     0.149 C 
HETATM   35  C21 UNL     1      16.275   3.022  30.037  1.00  0.00     0.042 C 
HETATM   36  O4  UNL     1      14.741   1.329  29.273  1.00  0.00    -0.372 OA
BRANCH  30  37
HETATM   37  C13 UNL     1      14.883  -0.893  29.920  1.00  0.00     0.016 C 
HETATM   38  C14 UNL     1      16.053  -0.617  30.841  1.00  0.00     0.013 C 
BRANCH  37  39
HETATM   39  C15 UNL     1      14.824  -2.322  29.522  1.00  0.00     0.002 C 
HETATM   40  C16 UNL     1      14.268  -3.160  30.690  1.00  0.00     0.005 C 
ENDBRANCH  37  39
ENDBRANCH  30  37
BRANCH  32  41
HETATM   41  O2  UNL     1      17.772   0.776  26.579  1.00  0.00    -0.393 OA
ATOM     42  H2  UNL     1      18.460   1.429  26.520  1.00  0.00     0.210 HD
ENDBRANCH  32  41
BRANCH  33  43
HETATM   43  O3  UNL     1      15.738   2.517  26.508  1.00  0.00    -0.390 OA
ATOM     44  H3  UNL     1      16.303   2.930  25.866  1.00  0.00     0.210 HD
ENDBRANCH  33  43
ENDBRANCH  29  30
ENDBRANCH   2  29
TORSDOF 14
ENDMDL
MODEL 2
REMARK VINA RESULT: -8.631302392      2.377      3.672
REMARK  14 active torsions:
REMARK  status: ('A' for Active; 'I' for Inactive)
REMARK    1  A    between atoms: C2_2  and  C3_3 
REMARK    2  A    between atoms: C3_3  and  C4_4 
REMARK    3  A    between atoms: C6_7  and  C7_8 
REMARK    4  A    between atoms: C7_8  and  C8_9 
REMARK    5  A    between atoms: C8_9  and  C9_10 
REMARK    6  A    between atoms: C9_10  and  C22_28 
REMARK    7  A    between atoms: C10_11  and  C11_12 
REMARK    8  A    between atoms: C11_12  and  C12_13 
REMARK    9  A    between atoms: C12_13  and  C13_14 
REMARK   10  A    between atoms: C13_14  and  C15_16 
REMARK   11  A    between atoms: C18_19  and  O2_20 
REMARK   12  A    between atoms: C19_22  and  O3_23 
REMARK   13  A    between atoms: C22_28  and  C23_29 
REMARK   14  A    between atoms: C23_29  and  C24_30 
ROOT
HETATM    1  C9  UNL     1       9.876   3.494  28.633  1.00  0.00    -0.083 C 
HETATM    2  C10 UNL     1      10.547   2.403  28.846  1.00  0.00    -0.021 C 
ENDROOT
BRANCH   1   3
HETATM    3  C8  UNL     1       8.951   3.600  27.474  1.00  0.00     0.038 C 
BRANCH   3   4
HETATM    4  C7  UNL     1       7.755   2.722  27.533  1.00  0.00     0.065 C 
BRANCH   4   5
HETATM    5  C6  UNL     1       7.735   1.711  26.370  1.00  0.00     0.261 C 
HETATM    6  O1  UNL     1       8.987   1.242  26.236  1.00  0.00    -0.350 OA
HETATM    7  C4  UNL     1       9.341   0.795  24.909  1.00  0.00     0.075 C 
HETATM    8  C5  UNL     1      10.228  -0.404  25.277  1.00  0.00     0.047 C 
HETATM    9  C35 UNL     1       8.048   0.395  24.327  1.00  0.00     0.149 C 
HETATM   10  C28 UNL     1       7.226   1.643  24.116  1.00  0.00     0.141 C 
HETATM   11  C34 UNL     1       8.015  -0.528  23.205  1.00  0.00     0.268 C 
HETATM   12  O5  UNL     1       7.166   2.343  25.299  1.00  0.00    -0.355 OA
HETATM   13  C29 UNL     1       5.883   1.364  23.501  1.00  0.00     0.033 C 
HETATM   14  C30 UNL     1       5.061   0.323  24.150  1.00  0.00     0.005 C 
HETATM   15  C31 UNL     1       4.603  -0.642  23.048  1.00  0.00     0.032 C 
HETATM   16  C32 UNL     1       5.659  -1.690  22.927  1.00  0.00     0.127 C 
HETATM   17  C33 UNL     1       5.288  -2.688  21.835  1.00  0.00     0.040 C 
HETATM   18  O6  UNL     1       6.934  -1.195  22.604  1.00  0.00    -0.316 OA
HETATM   19  O7  UNL     1       9.064  -0.841  22.609  1.00  0.00    -0.265 OA
BRANCH   7  20
HETATM   20  C3  UNL     1      10.072   1.941  24.374  1.00  0.00     0.038 C 
BRANCH  20  21
HETATM   21  C2  UNL     1      10.920   1.912  23.193  1.00  0.00    -0.002 C 
HETATM   22  C1  UNL     1      12.359   1.522  23.432  1.00  0.00     0.005 C 
ENDBRANCH  20  21
ENDBRANCH   7  20
ENDBRANCH   4   5
ENDBRANCH   3   4
ENDBRANCH   1   3
BRANCH   1  23
HETATM   23  C22 UNL     1       9.929   4.664  29.528  1.00  0.00     0.037 C 
BRANCH  23  24
HETATM   24  C23 UNL     1       8.836   5.648  29.294  1.00  0.00     0.031 C 
BRANCH  24  25
HETATM   25  C24 UNL     1       8.076   6.118  30.461  1.00  0.00    -0.024 C 
HETATM   26  C25 UNL     1       6.747   6.100  30.511  1.00  0.00    -0.091 C 
HETATM   27  C26 UNL     1       6.006   6.575  31.698  1.00  0.00     0.042 C 
HETATM   28  C27 UNL     1       6.016   5.582  29.325  1.00  0.00     0.042 C 
ENDBRANCH  24  25
ENDBRANCH  23  24
ENDBRANCH   1  23
BRANCH   2  29
HETATM   29  C11 UNL     1      11.507   2.045  29.884  1.00  0.00     0.066 C 
BRANCH  29  30
HETATM   30  C12 UNL     1      12.342   0.808  29.639  1.00  0.00     0.070 C 
HETATM   31  C17 UNL     1      12.563   0.654  28.159  1.00  0.00     0.073 C 
HETATM   32  C18 UNL     1      13.988   0.572  27.718  1.00  0.00     0.152 C 
HETATM   33  C19 UNL     1      14.926   1.359  28.566  1.00  0.00     0.175 C 
HETATM   34  C20 UNL     1      14.671   1.002  29.990  1.00  0.00     0.149 C 
HETATM   35  C21 UNL     1      15.621  -0.152  30.348  1.00  0.00     0.042 C 
HETATM   36  O4  UNL     1      13.422   0.827  30.419  1.00  0.00    -0.372 OA
BRANCH  30  37
HETATM   37  C13 UNL     1      11.483  -0.385  30.037  1.00  0.00     0.016 C 
HETATM   38  C14 UNL     1      12.099  -1.135  31.200  1.00  0.00     0.013 C 
BRANCH  37  39
HETATM   39  C15 UNL     1      11.120  -1.300  28.926  1.00  0.00     0.002 C 
HETATM   40  C16 UNL     1       9.593  -1.281  28.720  1.00  0.00     0.005 C 
ENDBRANCH  37  39
ENDBRANCH  30  37
BRANCH  32  41
HETATM   41  O2  UNL     1      14.133   1.028  26.394  1.00  0.00    -0.393 OA
ATOM     42  H2  UNL     1      13.759   1.895  26.290  1.00  0.00     0.210 HD
ENDBRANCH  32  41
BRANCH  33  43
HETATM   43  O3  UNL     1      14.852   2.734  28.329  1.00  0.00    -0.390 OA
ATOM     44  H3  UNL     1      15.587   3.213  28.693  1.00  0.00     0.210 HD
ENDBRANCH  33  43
ENDBRANCH  29  30
ENDBRANCH   2  29
TORSDOF 14
ENDMDL
MODEL 3
REMARK VINA RESULT: -8.482460640      1.458      2.021
REMARK  14 active torsions:
REMARK  status: ('A' for Active; 'I' for Inactive)
REMARK    1  A    between atoms: C2_2  and  C3_3 
REMARK    2  A    between atoms: C3_3  and  C4_4 
REMARK    3  A    between atoms: C6_7  and  C7_8 
REMARK    4  A    between atoms: C7_8  and  C8_9 
REMARK    5  A    between atoms: C8_9  and  C9_10 
REMARK    6  A    between atoms: C9_10  and  C22_28 
REMARK    7  A    between atoms: C10_11  and  C11_12 
REMARK    8  A    between atoms: C11_12  and  C12_13 
REMARK    9  A    between atoms: C12_13  and  C13_14 
REMARK   10  A    between atoms: C13_14  and  C15_16 
REMARK   11  A    between atoms: C18_19  and  O2_20 
REMARK   12  A    between atoms: C19_22  and  O3_23 
REMARK   13  A    between atoms: C22_28  and  C23_29 
REMARK   14  A    between atoms: C23_29  and  C24_30 
ROOT
HETATM    1  C9  UNL     1      12.579   0.680  28.039  1.00  0.00    -0.083 C 
HETATM    2  C10 UNL     1      13.431   1.582  27.655  1.00  0.00    -0.021 C 
ENDROOT
BRANCH   1   3
HETATM    3  C8  UNL     1      11.195   1.063  28.424  1.00  0.00     0.038 C 
BRANCH   3   4
HETATM    4  C7  UNL     1      10.522   2.020  27.509  1.00  0.00     0.065 C 
BRANCH   4   5
HETATM    5  C6  UNL     1       9.781   1.290  26.371  1.00  0.00     0.261 C 
HETATM    6  O1  UNL     1      10.652   0.426  25.826  1.00  0.00    -0.350 OA
HETATM    7  C4  UNL     1      10.417   0.103  24.438  1.00  0.00     0.075 C 
HETATM    8  C5  UNL     1      10.818  -1.380  24.454  1.00  0.00     0.047 C 
HETATM    9  C35 UNL     1       8.966   0.303  24.282  1.00  0.00     0.149 C 
HETATM   10  C28 UNL     1       8.684   1.781  24.396  1.00  0.00     0.141 C 
HETATM   11  C34 UNL     1       8.259  -0.348  23.192  1.00  0.00     0.268 C 
HETATM   12  O5  UNL     1       9.238   2.252  25.564  1.00  0.00    -0.355 OA
HETATM   13  C29 UNL     1       7.228   2.116  24.230  1.00  0.00     0.033 C 
HETATM   14  C30 UNL     1       6.275   1.356  25.064  1.00  0.00     0.005 C 
HETATM   15  C31 UNL     1       5.185   0.818  24.125  1.00  0.00     0.032 C 
HETATM   16  C32 UNL     1       5.660  -0.508  23.631  1.00  0.00     0.127 C 
HETATM   17  C33 UNL     1       4.635  -1.109  22.674  1.00  0.00     0.040 C 
HETATM   18  O6  UNL     1       6.882  -0.467  22.940  1.00  0.00    -0.316 OA
HETATM   19  O7  UNL     1       8.887  -0.921  22.280  1.00  0.00    -0.265 OA
BRANCH   7  20
HETATM   20  C3  UNL     1      11.364   0.974  23.747  1.00  0.00     0.038 C 
BRANCH  20  21
HETATM   21  C2  UNL     1      12.702   0.586  23.331  1.00  0.00    -0.002 C 
HETATM   22  C1  UNL     1      13.823   1.461  23.839  1.00  0.00     0.005 C 
ENDBRANCH  20  21
ENDBRANCH   7  20
ENDBRANCH   4   5
ENDBRANCH   3   4
ENDBRANCH   1   3
BRANCH   1  23
HETATM   23  C22 UNL     1      12.885  -0.761  28.068  1.00  0.00     0.037 C 
BRANCH  23  24
HETATM   24  C23 UNL     1      12.482  -1.434  29.335  1.00  0.00     0.031 C 
BRANCH  24  25
HETATM   25  C24 UNL     1      13.289  -1.173  30.536  1.00  0.00    -0.024 C 
HETATM   26  C25 UNL     1      14.139  -2.063  31.041  1.00  0.00    -0.091 C 
HETATM   27  C26 UNL     1      14.941  -1.776  32.248  1.00  0.00     0.042 C 
HETATM   28  C27 UNL     1      14.262  -3.373  30.349  1.00  0.00     0.042 C 
ENDBRANCH  24  25
ENDBRANCH  23  24
ENDBRANCH   1  23
BRANCH   2  29
HETATM   29  C11 UNL     1      14.825   1.481  27.238  1.00  0.00     0.066 C 
BRANCH  29  30
HETATM   30  C12 UNL     1      15.865   1.968  28.222  1.00  0.00     0.070 C 
HETATM   31  C17 UNL     1      17.181   2.112  27.508  1.00  0.00     0.073 C 
HETATM   32  C18 UNL     1      17.821   3.460  27.587  1.00  0.00     0.152 C 
HETATM   33  C19 UNL     1      16.847   4.584  27.657  1.00  0.00     0.175 C 
HETATM   34  C20 UNL     1      15.861   4.276  28.731  1.00  0.00     0.149 C 
HETATM   35  C21 UNL     1      16.388   4.906  30.030  1.00  0.00     0.042 C 
HETATM   36  O4  UNL     1      15.406   3.032  28.879  1.00  0.00    -0.372 OA
BRANCH  30  37
HETATM   37  C13 UNL     1      16.080   0.840  29.224  1.00  0.00     0.016 C 
HETATM   38  C14 UNL     1      16.122   1.373  30.641  1.00  0.00     0.013 C 
BRANCH  37  39
HETATM   39  C15 UNL     1      17.235  -0.047  28.937  1.00  0.00     0.002 C 
HETATM   40  C16 UNL     1      16.725  -1.426  28.478  1.00  0.00     0.005 C 
ENDBRANCH  37  39
ENDBRANCH  30  37
BRANCH  32  41
HETATM   41  O2  UNL     1      18.652   3.690  26.474  1.00  0.00    -0.393 OA
ATOM     42  H2  UNL     1      19.563   3.529  26.691  1.00  0.00     0.210 HD
ENDBRANCH  32  41
BRANCH  33  43
HETATM   43  O3  UNL     1      16.243   4.859  26.427  1.00  0.00    -0.390 OA
ATOM     44  H3  UNL     1      15.972   4.076  25.964  1.00  0.00     0.210 HD
ENDBRANCH  33  43
ENDBRANCH  29  30
ENDBRANCH   2  29
TORSDOF 14
ENDMDL
MODEL 4
REMARK VINA RESULT: -8.460527922      1.202      1.863
REMARK  14 active torsions:
REMARK  status: ('A' for Active; 'I' for Inactive)
REMARK    1  A    between atoms: C2_2  and  C3_3 
REMARK    2  A    between atoms: C3_3  and  C4_4 
REMARK    3  A    between atoms: C6_7  and  C7_8 
REMARK    4  A    between atoms: C7_8  and  C8_9 
REMARK    5  A    between atoms: C8_9  and  C9_10 
REMARK    6  A    between atoms: C9_10  and  C22_28 
REMARK    7  A    between atoms: C10_11  and  C11_12 
REMARK    8  A    between atoms: C11_12  and  C12_13 
REMARK    9  A    between atoms: C12_13  and  C13_14 
REMARK   10  A    between atoms: C13_14  and  C15_16 
REMARK   11  A    between atoms: C18_19  and  O2_20 
REMARK   12  A    between atoms: C19_22  and  O3_23 
REMARK   13  A    between atoms: C22_28  and  C23_29 
REMARK   14  A    between atoms: C23_29  and  C24_30 
ROOT
HETATM    1  C9  UNL     1      11.642   1.740  29.575  1.00  0.00    -0.083 C 
HETATM    2  C10 UNL     1      12.697   2.373  29.158  1.00  0.00    -0.021 C 
ENDROOT
BRANCH   1   3
HETATM    3  C8  UNL     1      10.496   1.494  28.661  1.00  0.00     0.038 C 
BRANCH   3   4
HETATM    4  C7  UNL     1      10.576   2.177  27.344  1.00  0.00     0.065 C 
BRANCH   4   5
HETATM    5  C6  UNL     1       9.811   1.398  26.256  1.00  0.00     0.261 C 
HETATM    6  O1  UNL     1      10.673   0.515  25.726  1.00  0.00    -0.350 OA
HETATM    7  C4  UNL     1      10.405   0.134  24.358  1.00  0.00     0.075 C 
HETATM    8  C5  UNL     1      10.813  -1.346  24.426  1.00  0.00     0.047 C 
HETATM    9  C35 UNL     1       8.950   0.322  24.230  1.00  0.00     0.149 C 
HETATM   10  C28 UNL     1       8.665   1.803  24.289  1.00  0.00     0.141 C 
HETATM   11  C34 UNL     1       8.220  -0.376  23.185  1.00  0.00     0.268 C 
HETATM   12  O5  UNL     1       9.245   2.324  25.423  1.00  0.00    -0.355 OA
HETATM   13  C29 UNL     1       7.204   2.126  24.145  1.00  0.00     0.033 C 
HETATM   14  C30 UNL     1       6.274   1.398  25.032  1.00  0.00     0.005 C 
HETATM   15  C31 UNL     1       5.165   0.818  24.143  1.00  0.00     0.032 C 
HETATM   16  C32 UNL     1       5.633  -0.526  23.693  1.00  0.00     0.127 C 
HETATM   17  C33 UNL     1       4.588  -1.169  22.786  1.00  0.00     0.040 C 
HETATM   18  O6  UNL     1       6.838  -0.510  22.971  1.00  0.00    -0.316 OA
HETATM   19  O7  UNL     1       8.828  -0.983  22.283  1.00  0.00    -0.265 OA
BRANCH   7  20
HETATM   20  C3  UNL     1      11.332   0.979  23.609  1.00  0.00     0.038 C 
BRANCH  20  21
HETATM   21  C2  UNL     1      12.730   1.189  23.951  1.00  0.00    -0.002 C 
HETATM   22  C1  UNL     1      13.704   0.201  23.354  1.00  0.00     0.005 C 
ENDBRANCH  20  21
ENDBRANCH   7  20
ENDBRANCH   4   5
ENDBRANCH   3   4
ENDBRANCH   1   3
BRANCH   1  23
HETATM   23  C22 UNL     1      11.520   1.180  30.933  1.00  0.00     0.037 C 
BRANCH  23  24
HETATM   24  C23 UNL     1      11.042  -0.231  30.958  1.00  0.00     0.031 C 
BRANCH  24  25
HETATM   25  C24 UNL     1      11.996  -1.271  31.370  1.00  0.00    -0.024 C 
HETATM   26  C25 UNL     1      12.737  -1.955  30.502  1.00  0.00    -0.091 C 
HETATM   27  C26 UNL     1      13.691  -2.993  30.942  1.00  0.00     0.042 C 
HETATM   28  C27 UNL     1      12.576  -1.643  29.058  1.00  0.00     0.042 C 
ENDBRANCH  24  25
ENDBRANCH  23  24
ENDBRANCH   1  23
BRANCH   2  29
HETATM   29  C11 UNL     1      13.933   2.745  29.836  1.00  0.00     0.066 C 
BRANCH  29  30
HETATM   30  C12 UNL     1      15.153   1.904  29.534  1.00  0.00     0.070 C 
HETATM   31  C17 UNL     1      15.022   1.334  28.148  1.00  0.00     0.073 C 
HETATM   32  C18 UNL     1      16.146   1.635  27.212  1.00  0.00     0.152 C 
HETATM   33  C19 UNL     1      16.791   2.956  27.452  1.00  0.00     0.175 C 
HETATM   34  C20 UNL     1      17.118   3.054  28.902  1.00  0.00     0.149 C 
HETATM   35  C21 UNL     1      18.555   2.537  29.082  1.00  0.00     0.042 C 
HETATM   36  O4  UNL     1      16.260   2.593  29.811  1.00  0.00    -0.372 OA
BRANCH  30  37
HETATM   37  C13 UNL     1      15.093   0.699  30.466  1.00  0.00     0.016 C 
HETATM   38  C14 UNL     1      15.038   1.135  31.915  1.00  0.00     0.013 C 
BRANCH  37  39
HETATM   39  C15 UNL     1      16.143  -0.325  30.240  1.00  0.00     0.002 C 
HETATM   40  C16 UNL     1      16.828  -0.663  31.578  1.00  0.00     0.005 C 
ENDBRANCH  37  39
ENDBRANCH  30  37
BRANCH  32  41
HETATM   41  O2  UNL     1      15.707   1.617  25.875  1.00  0.00    -0.393 OA
ATOM     42  H2  UNL     1      14.950   1.051  25.773  1.00  0.00     0.210 HD
ENDBRANCH  32  41
BRANCH  33  43
HETATM   43  O3  UNL     1      16.022   4.029  26.994  1.00  0.00    -0.390 OA
ATOM     44  H3  UNL     1      15.659   4.552  27.700  1.00  0.00     0.210 HD
ENDBRANCH  33  43
ENDBRANCH  29  30
ENDBRANCH   2  29
TORSDOF 14
ENDMDL
MODEL 5
REMARK VINA RESULT: -8.455530240      1.309      2.429
REMARK  14 active torsions:
REMARK  status: ('A' for Active; 'I' for Inactive)
REMARK    1  A    between atoms: C2_2  and  C3_3 
REMARK    2  A    between atoms: C3_3  and  C4_4 
REMARK    3  A    between atoms: C6_7  and  C7_8 
REMARK    4  A    between atoms: C7_8  and  C8_9 
REMARK    5  A    between atoms: C8_9  and  C9_10 
REMARK    6  A    between atoms: C9_10  and  C22_28 
REMARK    7  A    between atoms: C10_11  and  C11_12 
REMARK    8  A    between atoms: C11_12  and  C12_13 
REMARK    9  A    between atoms: C12_13  and  C13_14 
REMARK   10  A    between atoms: C13_14  and  C15_16 
REMARK   11  A    between atoms: C18_19  and  O2_20 
REMARK   12  A    between atoms: C19_22  and  O3_23 
REMARK   13  A    between atoms: C22_28  and  C23_29 
REMARK   14  A    between atoms: C23_29  and  C24_30 
ROOT
HETATM    1  C9  UNL     1      12.236   0.296  27.946  1.00  0.00    -0.083 C 
HETATM    2  C10 UNL     1      13.240   0.897  27.381  1.00  0.00    -0.021 C 
ENDROOT
BRANCH   1   3
HETATM    3  C8  UNL     1      10.985   1.038  28.252  1.00  0.00     0.038 C 
BRANCH   3   4
HETATM    4  C7  UNL     1      10.519   1.964  27.189  1.00  0.00     0.065 C 
BRANCH   4   5
HETATM    5  C6  UNL     1       9.728   1.218  26.095  1.00  0.00     0.261 C 
HETATM    6  O1  UNL     1      10.584   0.369  25.502  1.00  0.00    -0.350 OA
HETATM    7  C4  UNL     1      10.276   0.040  24.130  1.00  0.00     0.075 C 
HETATM    8  C5  UNL     1      10.706  -1.435  24.124  1.00  0.00     0.047 C 
HETATM    9  C35 UNL     1       8.815   0.211  24.057  1.00  0.00     0.149 C 
HETATM   10  C28 UNL     1       8.511   1.685  24.186  1.00  0.00     0.141 C 
HETATM   11  C34 UNL     1       8.060  -0.455  23.009  1.00  0.00     0.268 C 
HETATM   12  O5  UNL     1       9.122   2.168  25.320  1.00  0.00    -0.355 OA
HETATM   13  C29 UNL     1       7.042   1.991  24.103  1.00  0.00     0.033 C 
HETATM   14  C30 UNL     1       6.153   1.214  24.990  1.00  0.00     0.005 C 
HETATM   15  C31 UNL     1       5.022   0.653  24.115  1.00  0.00     0.032 C 
HETATM   16  C32 UNL     1       5.493  -0.664  23.595  1.00  0.00     0.127 C 
HETATM   17  C33 UNL     1       4.428  -1.286  22.698  1.00  0.00     0.040 C 
HETATM   18  O6  UNL     1       6.674  -0.601  22.836  1.00  0.00    -0.316 OA
HETATM   19  O7  UNL     1       8.646  -1.017  22.063  1.00  0.00    -0.265 OA
BRANCH   7  20
HETATM   20  C3  UNL     1      11.165   0.928  23.386  1.00  0.00     0.038 C 
BRANCH  20  21
HETATM   21  C2  UNL     1      12.534   1.244  23.762  1.00  0.00    -0.002 C 
HETATM   22  C1  UNL     1      13.570   0.212  23.382  1.00  0.00     0.005 C 
ENDBRANCH  20  21
ENDBRANCH   7  20
ENDBRANCH   4   5
ENDBRANCH   3   4
ENDBRANCH   1   3
BRANCH   1  23
HETATM   23  C22 UNL     1      12.233  -1.142  28.269  1.00  0.00     0.037 C 
BRANCH  23  24
HETATM   24  C23 UNL     1      11.902  -1.437  29.691  1.00  0.00     0.031 C 
BRANCH  24  25
HETATM   25  C24 UNL     1      12.832  -0.958  30.724  1.00  0.00    -0.024 C 
HETATM   26  C25 UNL     1      13.736  -1.745  31.301  1.00  0.00    -0.091 C 
HETATM   27  C26 UNL     1      14.662  -1.239  32.335  1.00  0.00     0.042 C 
HETATM   28  C27 UNL     1      13.793  -3.166  30.870  1.00  0.00     0.042 C 
ENDBRANCH  24  25
ENDBRANCH  23  24
ENDBRANCH   1  23
BRANCH   2  29
HETATM   29  C11 UNL     1      14.557   0.415  26.986  1.00  0.00     0.066 C 
BRANCH  29  30
HETATM   30  C12 UNL     1      15.721   0.824  27.861  1.00  0.00     0.070 C 
HETATM   31  C17 UNL     1      15.945  -0.238  28.902  1.00  0.00     0.073 C 
HETATM   32  C18 UNL     1      17.318  -0.824  28.950  1.00  0.00     0.152 C 
HETATM   33  C19 UNL     1      17.995  -0.879  27.624  1.00  0.00     0.175 C 
HETATM   34  C20 UNL     1      17.891   0.467  26.996  1.00  0.00     0.149 C 
HETATM   35  C21 UNL     1      19.151   1.253  27.390  1.00  0.00     0.042 C 
HETATM   36  O4  UNL     1      16.762   1.167  27.103  1.00  0.00    -0.372 OA
BRANCH  30  37
HETATM   37  C13 UNL     1      15.269   2.053  28.640  1.00  0.00     0.016 C 
HETATM   38  C14 UNL     1      16.023   3.288  28.192  1.00  0.00     0.013 C 
BRANCH  37  39
HETATM   39  C15 UNL     1      15.289   1.906  30.117  1.00  0.00     0.002 C 
HETATM   40  C16 UNL     1      14.002   2.509  30.713  1.00  0.00     0.005 C 
ENDBRANCH  37  39
ENDBRANCH  30  37
BRANCH  32  41
HETATM   41  O2  UNL     1      17.290  -2.134  29.465  1.00  0.00    -0.393 OA
ATOM     42  H2  UNL     1      18.048  -2.300  30.013  1.00  0.00     0.210 HD
ENDBRANCH  32  41
BRANCH  33  43
HETATM   43  O3  UNL     1      17.505  -1.901  26.806  1.00  0.00    -0.390 OA
ATOM     44  H3  UNL     1      16.583  -1.803  26.602  1.00  0.00     0.210 HD
ENDBRANCH  33  43
ENDBRANCH  29  30
ENDBRANCH   2  29
TORSDOF 14
ENDMDL
