MODEL 1
REMARK VINA RESULT: -7.106134883      0.000      0.000
REMARK  13 active torsions:
REMARK  status: ('A' for Active; 'I' for Inactive)
REMARK    1  A    between atoms: C2_2  and  O1_4 
REMARK    2  A    between atoms: O1_4  and  C4_5 
REMARK    3  A    between atoms: C4_5  and  C5_6 
REMARK    4  A    between atoms: C11_12  and  O2_13 
REMARK    5  A    between atoms: C13_17  and  C15_19 
REMARK    6  A    between atoms: C15_19  and  C16_20 
REMARK    7  A    between atoms: C16_20  and  C17_21 
REMARK    8  A    between atoms: C17_21  and  C18_22 
REMARK    9  A    between atoms: C18_22  and  O4_25 
REMARK   10  A    between atoms: O4_25  and  C21_26 
REMARK   11  A    between atoms: C21_26  and  C22_27 
REMARK   12  A    between atoms: C27_33  and  C28_34 
REMARK   13  A    between atoms: C28_34  and  O5_37 
ROOT
HETATM    1  C22 UNL     1      11.008   0.403  23.766  1.00  0.00     0.150 C 
HETATM    2  C23 UNL     1      12.295   1.061  23.753  1.00  0.00     0.061 C 
HETATM    3  N1  UNL     1      13.336   1.578  23.728  1.00  0.00    -0.197 NA
ENDROOT
BRANCH   1   4
HETATM    4  C21 UNL     1       9.859   1.419  23.803  1.00  0.00     0.182 C 
BRANCH   4   5
HETATM    5  O4  UNL     1       8.722   0.863  24.334  1.00  0.00    -0.380 OA
BRANCH   5   6
HETATM    6  C18 UNL     1       7.963   1.796  25.069  1.00  0.00     0.053 C 
HETATM    7  C19 UNL     1       8.676   3.101  24.927  1.00  0.00     0.045 C 
HETATM    8  C20 UNL     1       6.630   1.977  24.303  1.00  0.00     0.045 C 
BRANCH   6   9
HETATM    9  C17 UNL     1       7.716   1.370  26.451  1.00  0.00     0.037 C 
BRANCH   9  10
HETATM   10  C16 UNL     1       8.692   0.534  27.199  1.00  0.00     0.006 C 
BRANCH  10  11
HETATM   11  C15 UNL     1       9.846   1.209  27.860  1.00  0.00     0.038 C 
BRANCH  11  12
HETATM   12  C13 UNL     1      11.098   0.399  27.993  1.00  0.00     0.069 C 
HETATM   13  O3  UNL     1      12.113   1.165  27.412  1.00  0.00    -0.369 OA
HETATM   14  C12 UNL     1      13.319   0.519  27.802  1.00  0.00     0.188 C 
HETATM   15  C11 UNL     1      14.483   0.955  27.088  1.00  0.00     0.158 C 
HETATM   16  C31 UNL     1      13.166   0.495  29.282  1.00  0.00     0.110 C 
HETATM   17  C8  UNL     1      15.749   1.373  27.652  1.00  0.00    -0.019 C 
HETATM   18  C7  UNL     1      15.946   1.332  29.132  1.00  0.00     0.012 C 
HETATM   19  C9  UNL     1      16.887   0.474  27.112  1.00  0.00     0.017 C 
HETATM   20  C10 UNL     1      16.208   2.758  27.136  1.00  0.00     0.017 C 
HETATM   21  C6  UNL     1      14.982   2.131  29.889  1.00  0.00     0.016 C 
HETATM   22  C5  UNL     1      13.545   1.776  29.948  1.00  0.00     0.019 C 
HETATM   23  C34 UNL     1      13.134   1.741  31.394  1.00  0.00    -0.005 C 
HETATM   24  C33 UNL     1      11.768   1.251  31.642  1.00  0.00     0.006 C 
HETATM   25  C35 UNL     1      14.142   1.088  32.307  1.00  0.00     0.011 C 
HETATM   26  C32 UNL     1      10.977   0.714  30.516  1.00  0.00     0.016 C 
HETATM   27  C24 UNL     1      11.692   0.121  29.341  1.00  0.00     0.025 C 
HETATM   28  C25 UNL     1      11.477  -1.380  29.537  1.00  0.00     0.018 C 
HETATM   29  C26 UNL     1      12.501  -1.981  30.513  1.00  0.00     0.036 C 
HETATM   30  C27 UNL     1      13.786  -1.732  29.693  1.00  0.00     0.156 C 
HETATM   31  O6  UNL     1      14.018  -0.442  29.810  1.00  0.00    -0.367 OA
HETATM   32  C14 UNL     1      10.808  -0.780  27.119  1.00  0.00     0.047 C 
BRANCH  15  33
HETATM   33  O2  UNL     1      14.773   0.065  26.001  1.00  0.00    -0.392 OA
ATOM     34  H2  UNL     1      14.534  -0.810  26.281  1.00  0.00     0.210 HD
ENDBRANCH  15  33
BRANCH  22  35
HETATM   35  C4  UNL     1      12.860   3.010  29.383  1.00  0.00     0.181 C 
BRANCH  35  36
HETATM   36  O1  UNL     1      13.689   4.115  29.725  1.00  0.00    -0.386 OA
BRANCH  36  37
HETATM   37  C2  UNL     1      12.950   5.241  29.982  1.00  0.00     0.113 C 
HETATM   38  C1  UNL     1      11.484   4.883  29.755  1.00  0.00     0.039 C 
HETATM   39  C3  UNL     1      13.256   6.360  28.987  1.00  0.00     0.039 C 
ENDBRANCH  36  37
ENDBRANCH  35  36
ENDBRANCH  22  35
BRANCH  30  40
HETATM   40  C28 UNL     1      14.884  -2.630  30.152  1.00  0.00     0.076 C 
HETATM   41  C29 UNL     1      16.254  -2.287  29.600  1.00  0.00     0.048 C 
HETATM   42  C30 UNL     1      15.058  -2.516  31.691  1.00  0.00     0.048 C 
BRANCH  40  43
HETATM   43  O5  UNL     1      14.679  -3.966  29.937  1.00  0.00    -0.388 OA
ATOM     44  H5  UNL     1      15.263  -4.372  29.307  1.00  0.00     0.210 HD
ENDBRANCH  40  43
ENDBRANCH  30  40
ENDBRANCH  11  12
ENDBRANCH  10  11
ENDBRANCH   9  10
ENDBRANCH   6   9
ENDBRANCH   5   6
ENDBRANCH   4   5
ENDBRANCH   1   4
TORSDOF 13
ENDMDL
MODEL 2
REMARK VINA RESULT: -6.963738874      2.262      4.095
REMARK  13 active torsions:
REMARK  status: ('A' for Active; 'I' for Inactive)
REMARK    1  A    between atoms: C2_2  and  O1_4 
REMARK    2  A    between atoms: O1_4  and  C4_5 
REMARK    3  A    between atoms: C4_5  and  C5_6 
REMARK    4  A    between atoms: C11_12  and  O2_13 
REMARK    5  A    between atoms: C13_17  and  C15_19 
REMARK    6  A    between atoms: C15_19  and  C16_20 
REMARK    7  A    between atoms: C16_20  and  C17_21 
REMARK    8  A    between atoms: C17_21  and  C18_22 
REMARK    9  A    between atoms: C18_22  and  O4_25 
REMARK   10  A    between atoms: O4_25  and  C21_26 
REMARK   11  A    between atoms: C21_26  and  C22_27 
REMARK   12  A    between atoms: C27_33  and  C28_34 
REMARK   13  A    between atoms: C28_34  and  O5_37 
ROOT
HETATM    1  C22 UNL     1       7.880  -1.423  21.880  1.00  0.00     0.150 C 
HETATM    2  C23 UNL     1       6.635  -2.036  22.281  1.00  0.00     0.061 C 
HETATM    3  N1  UNL     1       5.633  -2.539  22.588  1.00  0.00    -0.197 NA
ENDROOT
BRANCH   1   4
HETATM    4  C21 UNL     1       8.887  -1.384  23.037  1.00  0.00     0.182 C 
BRANCH   4   5
HETATM    5  O4  UNL     1       8.754  -0.234  23.774  1.00  0.00    -0.380 OA
BRANCH   5   6
HETATM    6  C18 UNL     1       9.973   0.177  24.349  1.00  0.00     0.053 C 
HETATM    7  C19 UNL     1      10.999  -0.792  23.860  1.00  0.00     0.045 C 
HETATM    8  C20 UNL     1      10.338   1.526  23.682  1.00  0.00     0.045 C 
BRANCH   6   9
HETATM    9  C17 UNL     1       9.898   0.320  25.807  1.00  0.00     0.037 C 
BRANCH   9  10
HETATM   10  C16 UNL     1      10.388  -0.742  26.724  1.00  0.00     0.006 C 
BRANCH  10  11
HETATM   11  C15 UNL     1       9.811  -0.815  28.098  1.00  0.00     0.038 C 
BRANCH  11  12
HETATM   12  C13 UNL     1      10.795  -0.907  29.224  1.00  0.00     0.069 C 
HETATM   13  O3  UNL     1      11.952  -1.466  28.675  1.00  0.00    -0.369 OA
HETATM   14  C12 UNL     1      12.950  -1.278  29.672  1.00  0.00     0.188 C 
HETATM   15  C11 UNL     1      14.152  -2.027  29.456  1.00  0.00     0.158 C 
HETATM   16  C31 UNL     1      12.869   0.193  29.885  1.00  0.00     0.110 C 
HETATM   17  C8  UNL     1      15.511  -1.527  29.485  1.00  0.00    -0.019 C 
HETATM   18  C7  UNL     1      15.760  -0.090  29.807  1.00  0.00     0.012 C 
HETATM   19  C9  UNL     1      16.327  -2.285  30.560  1.00  0.00     0.017 C 
HETATM   20  C10 UNL     1      16.310  -1.888  28.210  1.00  0.00     0.017 C 
HETATM   21  C6  UNL     1      15.094   0.852  28.908  1.00  0.00     0.016 C 
HETATM   22  C5  UNL     1      13.620   0.991  28.872  1.00  0.00     0.019 C 
HETATM   23  C34 UNL     1      13.286   2.450  29.021  1.00  0.00    -0.005 C 
HETATM   24  C33 UNL     1      11.852   2.750  29.161  1.00  0.00     0.006 C 
HETATM   25  C35 UNL     1      14.117   3.171  30.054  1.00  0.00     0.011 C 
HETATM   26  C32 UNL     1      10.889   1.637  29.285  1.00  0.00     0.016 C 
HETATM   27  C24 UNL     1      11.353   0.332  29.856  1.00  0.00     0.025 C 
HETATM   28  C25 UNL     1      10.741   0.339  31.257  1.00  0.00     0.018 C 
HETATM   29  C26 UNL     1      11.604   1.129  32.255  1.00  0.00     0.036 C 
HETATM   30  C27 UNL     1      12.866   0.238  32.233  1.00  0.00     0.156 C 
HETATM   31  O6  UNL     1      13.452   0.509  31.086  1.00  0.00    -0.367 OA
HETATM   32  C14 UNL     1      10.147  -1.904  30.131  1.00  0.00     0.047 C 
BRANCH  15  33
HETATM   33  O2  UNL     1      14.130  -3.247  30.211  1.00  0.00    -0.392 OA
ATOM     34  H2  UNL     1      13.793  -3.927  29.639  1.00  0.00     0.210 HD
ENDBRANCH  15  33
BRANCH  22  35
HETATM   35  C4  UNL     1      13.277   0.663  27.427  1.00  0.00     0.181 C 
BRANCH  35  36
HETATM   36  O1  UNL     1      14.493   0.774  26.697  1.00  0.00    -0.386 OA
BRANCH  36  37
HETATM   37  C2  UNL     1      14.375   0.250  25.436  1.00  0.00     0.113 C 
HETATM   38  C1  UNL     1      15.760  -0.235  25.015  1.00  0.00     0.039 C 
HETATM   39  C3  UNL     1      13.987   1.316  24.411  1.00  0.00     0.039 C 
ENDBRANCH  36  37
ENDBRANCH  35  36
ENDBRANCH  22  35
BRANCH  30  40
HETATM   40  C28 UNL     1      13.693   0.469  33.451  1.00  0.00     0.076 C 
HETATM   41  C29 UNL     1      15.021  -0.260  33.462  1.00  0.00     0.048 C 
HETATM   42  C30 UNL     1      14.086   1.969  33.552  1.00  0.00     0.048 C 
BRANCH  40  43
HETATM   43  O5  UNL     1      13.072   0.205  34.642  1.00  0.00    -0.388 OA
ATOM     44  H5  UNL     1      13.370  -0.575  35.093  1.00  0.00     0.210 HD
ENDBRANCH  40  43
ENDBRANCH  30  40
ENDBRANCH  11  12
ENDBRANCH  10  11
ENDBRANCH   9  10
ENDBRANCH   6   9
ENDBRANCH   5   6
ENDBRANCH   4   5
ENDBRANCH   1   4
TORSDOF 13
ENDMDL
MODEL 3
REMARK VINA RESULT: -6.925040459      1.018      1.187
REMARK  13 active torsions:
REMARK  status: ('A' for Active; 'I' for Inactive)
REMARK    1  A    between atoms: C2_2  and  O1_4 
REMARK    2  A    between atoms: O1_4  and  C4_5 
REMARK    3  A    between atoms: C4_5  and  C5_6 
REMARK    4  A    between atoms: C11_12  and  O2_13 
REMARK    5  A    between atoms: C13_17  and  C15_19 
REMARK    6  A    between atoms: C15_19  and  C16_20 
REMARK    7  A    between atoms: C16_20  and  C17_21 
REMARK    8  A    between atoms: C17_21  and  C18_22 
REMARK    9  A    between atoms: C18_22  and  O4_25 
REMARK   10  A    between atoms: O4_25  and  C21_26 
REMARK   11  A    between atoms: C21_26  and  C22_27 
REMARK   12  A    between atoms: C27_33  and  C28_34 
REMARK   13  A    between atoms: C28_34  and  O5_37 
ROOT
HETATM    1  C22 UNL     1      11.920   1.429  23.385  1.00  0.00     0.150 C 
HETATM    2  C23 UNL     1      12.720   0.251  23.631  1.00  0.00     0.061 C 
HETATM    3  N1  UNL     1      13.374  -0.686  23.842  1.00  0.00    -0.197 NA
ENDROOT
BRANCH   1   4
HETATM    4  C21 UNL     1      10.425   1.091  23.324  1.00  0.00     0.182 C 
BRANCH   4   5
HETATM    5  O4  UNL     1       9.657   2.154  23.728  1.00  0.00    -0.380 OA
BRANCH   5   6
HETATM    6  C18 UNL     1       8.647   1.772  24.633  1.00  0.00     0.053 C 
HETATM    7  C19 UNL     1       8.165   3.039  25.261  1.00  0.00     0.045 C 
HETATM    8  C20 UNL     1       7.460   1.267  23.777  1.00  0.00     0.045 C 
BRANCH   6   9
HETATM    9  C17 UNL     1       9.086   0.739  25.577  1.00  0.00     0.037 C 
BRANCH   9  10
HETATM   10  C16 UNL     1       9.600   1.081  26.929  1.00  0.00     0.006 C 
BRANCH  10  11
HETATM   11  C15 UNL     1       9.789  -0.022  27.917  1.00  0.00     0.038 C 
BRANCH  11  12
HETATM   12  C13 UNL     1      11.201  -0.458  28.158  1.00  0.00     0.069 C 
HETATM   13  O3  UNL     1      12.008   0.485  27.515  1.00  0.00    -0.369 OA
HETATM   14  C12 UNL     1      13.321   0.221  27.993  1.00  0.00     0.188 C 
HETATM   15  C11 UNL     1      14.363   0.872  27.256  1.00  0.00     0.158 C 
HETATM   16  C31 UNL     1      13.113   0.307  29.465  1.00  0.00     0.110 C 
HETATM   17  C8  UNL     1      15.451   1.663  27.793  1.00  0.00    -0.019 C 
HETATM   18  C7  UNL     1      15.585   1.824  29.272  1.00  0.00     0.012 C 
HETATM   19  C9  UNL     1      16.806   1.044  27.374  1.00  0.00     0.017 C 
HETATM   20  C10 UNL     1      15.558   3.060  27.137  1.00  0.00     0.017 C 
HETATM   21  C6  UNL     1      14.414   2.414  29.921  1.00  0.00     0.016 C 
HETATM   22  C5  UNL     1      13.117   1.702  29.994  1.00  0.00     0.019 C 
HETATM   23  C34 UNL     1      12.665   1.706  31.428  1.00  0.00    -0.005 C 
HETATM   24  C33 UNL     1      11.462   0.903  31.704  1.00  0.00     0.006 C 
HETATM   25  C35 UNL     1      13.766   1.436  32.424  1.00  0.00     0.011 C 
HETATM   26  C32 UNL     1      10.889   0.066  30.630  1.00  0.00     0.016 C 
HETATM   27  C24 UNL     1      11.785  -0.433  29.539  1.00  0.00     0.025 C 
HETATM   28  C25 UNL     1      11.958  -1.910  29.893  1.00  0.00     0.018 C 
HETATM   29  C26 UNL     1      13.058  -2.121  30.947  1.00  0.00     0.036 C 
HETATM   30  C27 UNL     1      14.270  -1.627  30.126  1.00  0.00     0.156 C 
HETATM   31  O6  UNL     1      14.154  -0.317  30.106  1.00  0.00    -0.367 OA
HETATM   32  C14 UNL     1      11.265  -1.753  27.413  1.00  0.00     0.047 C 
BRANCH  15  33
HETATM   33  O2  UNL     1      14.922  -0.015  26.278  1.00  0.00    -0.392 OA
ATOM     34  H2  UNL     1      14.394  -0.805  26.279  1.00  0.00     0.210 HD
ENDBRANCH  15  33
BRANCH  22  35
HETATM   35  C4  UNL     1      12.163   2.650  29.286  1.00  0.00     0.181 C 
BRANCH  35  36
HETATM   36  O1  UNL     1      12.604   3.965  29.601  1.00  0.00    -0.386 OA
BRANCH  36  37
HETATM   37  C2  UNL     1      11.550   4.826  29.772  1.00  0.00     0.113 C 
HETATM   38  C1  UNL     1      11.442   5.120  31.265  1.00  0.00     0.039 C 
HETATM   39  C3  UNL     1      10.220   4.178  29.386  1.00  0.00     0.039 C 
ENDBRANCH  36  37
ENDBRANCH  35  36
ENDBRANCH  22  35
BRANCH  30  40
HETATM   40  C28 UNL     1      15.541  -2.155  30.698  1.00  0.00     0.076 C 
HETATM   41  C29 UNL     1      16.433  -2.871  29.704  1.00  0.00     0.048 C 
HETATM   42  C30 UNL     1      16.419  -0.983  31.217  1.00  0.00     0.048 C 
BRANCH  40  43
HETATM   43  O5  UNL     1      15.401  -2.974  31.786  1.00  0.00    -0.388 OA
ATOM     44  H5  UNL     1      15.856  -3.806  31.731  1.00  0.00     0.210 HD
ENDBRANCH  40  43
ENDBRANCH  30  40
ENDBRANCH  11  12
ENDBRANCH  10  11
ENDBRANCH   9  10
ENDBRANCH   6   9
ENDBRANCH   5   6
ENDBRANCH   4   5
ENDBRANCH   1   4
TORSDOF 13
ENDMDL
MODEL 4
REMARK VINA RESULT: -6.838078010      1.639      2.182
REMARK  13 active torsions:
REMARK  status: ('A' for Active; 'I' for Inactive)
REMARK    1  A    between atoms: C2_2  and  O1_4 
REMARK    2  A    between atoms: O1_4  and  C4_5 
REMARK    3  A    between atoms: C4_5  and  C5_6 
REMARK    4  A    between atoms: C11_12  and  O2_13 
REMARK    5  A    between atoms: C13_17  and  C15_19 
REMARK    6  A    between atoms: C15_19  and  C16_20 
REMARK    7  A    between atoms: C16_20  and  C17_21 
REMARK    8  A    between atoms: C17_21  and  C18_22 
REMARK    9  A    between atoms: C18_22  and  O4_25 
REMARK   10  A    between atoms: O4_25  and  C21_26 
REMARK   11  A    between atoms: C21_26  and  C22_27 
REMARK   12  A    between atoms: C27_33  and  C28_34 
REMARK   13  A    between atoms: C28_34  and  O5_37 
ROOT
HETATM    1  C22 UNL     1       5.241   0.024  23.557  1.00  0.00     0.150 C 
HETATM    2  C23 UNL     1       5.243  -1.317  23.018  1.00  0.00     0.061 C 
HETATM    3  N1  UNL     1       5.228  -2.392  22.575  1.00  0.00    -0.197 NA
ENDROOT
BRANCH   1   4
HETATM    4  C21 UNL     1       6.609   0.698  23.391  1.00  0.00     0.182 C 
BRANCH   4   5
HETATM    5  O4  UNL     1       6.746   1.761  24.248  1.00  0.00    -0.380 OA
BRANCH   5   6
HETATM    6  C18 UNL     1       7.929   1.685  25.011  1.00  0.00     0.053 C 
HETATM    7  C19 UNL     1       8.824   0.739  24.278  1.00  0.00     0.045 C 
HETATM    8  C20 UNL     1       8.616   3.067  24.893  1.00  0.00     0.045 C 
BRANCH   6   9
HETATM    9  C17 UNL     1       7.683   1.343  26.416  1.00  0.00     0.037 C 
BRANCH   9  10
HETATM   10  C16 UNL     1       8.634   0.510  27.198  1.00  0.00     0.006 C 
BRANCH  10  11
HETATM   11  C15 UNL     1       9.795   1.182  27.851  1.00  0.00     0.038 C 
BRANCH  11  12
HETATM   12  C13 UNL     1      11.048   0.370  27.968  1.00  0.00     0.069 C 
HETATM   13  O3  UNL     1      12.061   1.147  27.398  1.00  0.00    -0.369 OA
HETATM   14  C12 UNL     1      13.268   0.496  27.775  1.00  0.00     0.188 C 
HETATM   15  C11 UNL     1      14.430   0.944  27.066  1.00  0.00     0.158 C 
HETATM   16  C31 UNL     1      13.118   0.447  29.255  1.00  0.00     0.110 C 
HETATM   17  C8  UNL     1      15.697   1.354  27.635  1.00  0.00    -0.019 C 
HETATM   18  C7  UNL     1      15.897   1.288  29.113  1.00  0.00     0.012 C 
HETATM   19  C9  UNL     1      16.835   0.464  27.078  1.00  0.00     0.017 C 
HETATM   20  C10 UNL     1      16.154   2.747  27.140  1.00  0.00     0.017 C 
HETATM   21  C6  UNL     1      14.934   2.074  29.885  1.00  0.00     0.016 C 
HETATM   22  C5  UNL     1      13.497   1.717  29.941  1.00  0.00     0.019 C 
HETATM   23  C34 UNL     1      13.089   1.658  31.387  1.00  0.00    -0.005 C 
HETATM   24  C33 UNL     1      11.724   1.163  31.630  1.00  0.00     0.006 C 
HETATM   25  C35 UNL     1      14.099   0.990  32.288  1.00  0.00     0.011 C 
HETATM   26  C32 UNL     1      10.931   0.644  30.497  1.00  0.00     0.016 C 
HETATM   27  C24 UNL     1      11.644   0.071  29.311  1.00  0.00     0.025 C 
HETATM   28  C25 UNL     1      11.431  -1.433  29.482  1.00  0.00     0.018 C 
HETATM   29  C26 UNL     1      12.457  -2.050  30.446  1.00  0.00     0.036 C 
HETATM   30  C27 UNL     1      13.740  -1.786  29.628  1.00  0.00     0.156 C 
HETATM   31  O6  UNL     1      13.972  -0.498  29.766  1.00  0.00    -0.367 OA
HETATM   32  C14 UNL     1      10.757  -0.794  27.075  1.00  0.00     0.047 C 
BRANCH  15  33
HETATM   33  O2  UNL     1      14.718   0.072  25.964  1.00  0.00    -0.392 OA
ATOM     34  H2  UNL     1      14.268  -0.748  26.127  1.00  0.00     0.210 HD
ENDBRANCH  15  33
BRANCH  22  35
HETATM   35  C4  UNL     1      12.811   2.960  29.398  1.00  0.00     0.181 C 
BRANCH  35  36
HETATM   36  O1  UNL     1      13.575   4.068  29.857  1.00  0.00    -0.386 OA
BRANCH  36  37
HETATM   37  C2  UNL     1      12.795   5.180  30.040  1.00  0.00     0.113 C 
HETATM   38  C1  UNL     1      11.351   4.772  29.762  1.00  0.00     0.039 C 
HETATM   39  C3  UNL     1      13.115   6.272  29.019  1.00  0.00     0.039 C 
ENDBRANCH  36  37
ENDBRANCH  35  36
ENDBRANCH  22  35
BRANCH  30  40
HETATM   40  C28 UNL     1      14.840  -2.691  30.069  1.00  0.00     0.076 C 
HETATM   41  C29 UNL     1      16.199  -2.368  29.481  1.00  0.00     0.048 C 
HETATM   42  C30 UNL     1      15.053  -2.562  31.602  1.00  0.00     0.048 C 
BRANCH  40  43
HETATM   43  O5  UNL     1      14.616  -4.027  29.874  1.00  0.00    -0.388 OA
ATOM     44  H5  UNL     1      15.114  -4.610  30.435  1.00  0.00     0.210 HD
ENDBRANCH  40  43
ENDBRANCH  30  40
ENDBRANCH  11  12
ENDBRANCH  10  11
ENDBRANCH   9  10
ENDBRANCH   6   9
ENDBRANCH   5   6
ENDBRANCH   4   5
ENDBRANCH   1   4
TORSDOF 13
ENDMDL
MODEL 5
REMARK VINA RESULT: -6.811171357      1.891      2.315
REMARK  13 active torsions:
REMARK  status: ('A' for Active; 'I' for Inactive)
REMARK    1  A    between atoms: C2_2  and  O1_4 
REMARK    2  A    between atoms: O1_4  and  C4_5 
REMARK    3  A    between atoms: C4_5  and  C5_6 
REMARK    4  A    between atoms: C11_12  and  O2_13 
REMARK    5  A    between atoms: C13_17  and  C15_19 
REMARK    6  A    between atoms: C15_19  and  C16_20 
REMARK    7  A    between atoms: C16_20  and  C17_21 
REMARK    8  A    between atoms: C17_21  and  C18_22 
REMARK    9  A    between atoms: C18_22  and  O4_25 
REMARK   10  A    between atoms: O4_25  and  C21_26 
REMARK   11  A    between atoms: C21_26  and  C22_27 
REMARK   12  A    between atoms: C27_33  and  C28_34 
REMARK   13  A    between atoms: C28_34  and  O5_37 
ROOT
HETATM    1  C22 UNL     1       7.866  -1.460  21.840  1.00  0.00     0.150 C 
HETATM    2  C23 UNL     1       6.634  -2.089  22.260  1.00  0.00     0.061 C 
HETATM    3  N1  UNL     1       5.647  -2.609  22.586  1.00  0.00    -0.197 NA
ENDROOT
BRANCH   1   4
HETATM    4  C21 UNL     1       8.726  -1.049  23.041  1.00  0.00     0.182 C 
BRANCH   4   5
HETATM    5  O4  UNL     1       9.028   0.288  23.003  1.00  0.00    -0.380 OA
BRANCH   5   6
HETATM    6  C18 UNL     1       9.811   0.693  24.103  1.00  0.00     0.053 C 
HETATM    7  C19 UNL     1      10.963  -0.257  24.152  1.00  0.00     0.045 C 
HETATM    8  C20 UNL     1      10.428   2.060  23.722  1.00  0.00     0.045 C 
BRANCH   6   9
HETATM    9  C17 UNL     1       9.039   0.798  25.346  1.00  0.00     0.037 C 
BRANCH   9  10
HETATM   10  C16 UNL     1       9.670   1.210  26.627  1.00  0.00     0.006 C 
BRANCH  10  11
HETATM   11  C15 UNL     1       9.760   0.207  27.728  1.00  0.00     0.038 C 
BRANCH  11  12
HETATM   12  C13 UNL     1      11.127  -0.328  28.025  1.00  0.00     0.069 C 
HETATM   13  O3  UNL     1      12.023   0.547  27.406  1.00  0.00    -0.369 OA
HETATM   14  C12 UNL     1      13.296   0.193  27.934  1.00  0.00     0.188 C 
HETATM   15  C11 UNL     1      14.408   0.761  27.231  1.00  0.00     0.158 C 
HETATM   16  C31 UNL     1      13.041   0.308  29.396  1.00  0.00     0.110 C 
HETATM   17  C8  UNL     1      15.531   1.475  27.802  1.00  0.00    -0.019 C 
HETATM   18  C7  UNL     1      15.622   1.640  29.284  1.00  0.00     0.012 C 
HETATM   19  C9  UNL     1      16.852   0.755  27.437  1.00  0.00     0.017 C 
HETATM   20  C10 UNL     1      15.763   2.854  27.141  1.00  0.00     0.017 C 
HETATM   21  C6  UNL     1      14.475   2.320  29.885  1.00  0.00     0.016 C 
HETATM   22  C5  UNL     1      13.128   1.705  29.915  1.00  0.00     0.019 C 
HETATM   23  C34 UNL     1      12.625   1.756  31.331  1.00  0.00    -0.005 C 
HETATM   24  C33 UNL     1      11.358   1.044  31.569  1.00  0.00     0.006 C 
HETATM   25  C35 UNL     1      13.666   1.415  32.369  1.00  0.00     0.011 C 
HETATM   26  C32 UNL     1      10.764   0.241  30.480  1.00  0.00     0.016 C 
HETATM   27  C24 UNL     1      11.661  -0.333  29.426  1.00  0.00     0.025 C 
HETATM   28  C25 UNL     1      11.713  -1.815  29.797  1.00  0.00     0.018 C 
HETATM   29  C26 UNL     1      12.755  -2.095  30.892  1.00  0.00     0.036 C 
HETATM   30  C27 UNL     1      14.029  -1.698  30.113  1.00  0.00     0.156 C 
HETATM   31  O6  UNL     1      14.010  -0.383  30.080  1.00  0.00    -0.367 OA
HETATM   32  C14 UNL     1      11.124  -1.632  27.292  1.00  0.00     0.047 C 
BRANCH  15  33
HETATM   33  O2  UNL     1      14.936  -0.174  26.280  1.00  0.00    -0.392 OA
ATOM     34  H2  UNL     1      14.980   0.269  25.441  1.00  0.00     0.210 HD
ENDBRANCH  15  33
BRANCH  22  35
HETATM   35  C4  UNL     1      12.271   2.713  29.166  1.00  0.00     0.181 C 
BRANCH  35  36
HETATM   36  O1  UNL     1      12.622   3.991  29.681  1.00  0.00    -0.386 OA
BRANCH  36  37
HETATM   37  C2  UNL     1      11.539   4.830  29.733  1.00  0.00     0.113 C 
HETATM   38  C1  UNL     1      11.244   5.098  31.207  1.00  0.00     0.039 C 
HETATM   39  C3  UNL     1      10.279   4.167  29.178  1.00  0.00     0.039 C 
ENDBRANCH  36  37
ENDBRANCH  35  36
ENDBRANCH  22  35
BRANCH  30  40
HETATM   40  C28 UNL     1      15.237  -2.311  30.735  1.00  0.00     0.076 C 
HETATM   41  C29 UNL     1      16.248  -2.859  29.749  1.00  0.00     0.048 C 
HETATM   42  C30 UNL     1      16.030  -1.237  31.530  1.00  0.00     0.048 C 
BRANCH  40  43
HETATM   43  O5  UNL     1      14.989  -3.293  31.656  1.00  0.00    -0.388 OA
ATOM     44  H5  UNL     1      15.262  -3.097  32.544  1.00  0.00     0.210 HD
ENDBRANCH  40  43
ENDBRANCH  30  40
ENDBRANCH  11  12
ENDBRANCH  10  11
ENDBRANCH   9  10
ENDBRANCH   6   9
ENDBRANCH   5   6
ENDBRANCH   4   5
ENDBRANCH   1   4
TORSDOF 13
ENDMDL
