MODEL 1
REMARK VINA RESULT: -9.692034590      0.000      0.000
REMARK  11 active torsions:
REMARK  status: ('A' for Active; 'I' for Inactive)
REMARK    1  A    between atoms: C2_2  and  C4_4 
REMARK    2  A    between atoms: C4_4  and  C5_5 
REMARK    3  A    between atoms: C4_4  and  C9_11 
REMARK    4  A    between atoms: C5_5  and  C6_6 
REMARK    5  A    between atoms: C7_7  and  C8_8 
REMARK    6  A    between atoms: C9_11  and  C10_12 
REMARK    7  A    between atoms: C14_16  and  C15_17 
REMARK    8  A    between atoms: C17_19  and  N1_20 
REMARK    9  A    between atoms: C25_34  and  C27_36 
REMARK   10  A    between atoms: C27_36  and  C28_37 
REMARK   11  A    between atoms: C28_37  and  C29_38 
ROOT
HETATM    1  C9  UNL     1      10.865   0.305  26.791  1.00  0.00    -0.020 C 
HETATM    2  C19 UNL     1      10.997   1.659  27.470  1.00  0.00     0.012 C 
HETATM    3  C20 UNL     1      10.027   2.614  26.757  1.00  0.00     0.012 C 
HETATM    4  C21 UNL     1       9.535   1.957  25.571  1.00  0.00    -0.024 A 
HETATM    5  C22 UNL     1       9.912   2.638  24.331  1.00  0.00     0.017 C 
HETATM    6  C23 UNL     1       8.739   0.833  25.166  1.00  0.00     0.005 A 
HETATM    7  C24 UNL     1       8.406   0.544  23.739  1.00  0.00     0.180 C 
HETATM    8  O6  UNL     1       7.256   1.194  23.412  1.00  0.00    -0.379 OA
HETATM    9  C25 UNL     1       6.385   1.038  24.460  1.00  0.00     0.062 C 
HETATM   10  C26 UNL     1       5.699   2.375  24.672  1.00  0.00     0.046 C 
HETATM   11  C30 UNL     1       7.250   0.613  25.556  1.00  0.00     0.032 C 
HETATM   12  C31 UNL     1       7.266   1.447  26.753  1.00  0.00     0.009 C 
HETATM   13  C32 UNL     1       8.490   0.716  27.369  1.00  0.00     0.012 C 
HETATM   14  C33 UNL     1       9.527   0.621  26.186  1.00  0.00    -0.013 A 
ENDROOT
BRANCH   1  15
HETATM   15  C4  UNL     1      11.957  -0.230  26.000  1.00  0.00     0.002 C 
BRANCH  15  16
HETATM   16  C2  UNL     1      12.212  -0.760  24.658  1.00  0.00    -0.018 C 
HETATM   17  C1  UNL     1      10.967  -1.563  24.213  1.00  0.00     0.010 C 
HETATM   18  C3  UNL     1      12.143   0.285  23.523  1.00  0.00     0.010 C 
ENDBRANCH  15  16
BRANCH  15  19
HETATM   19  C5  UNL     1      13.001   1.032  25.802  1.00  0.00     0.033 C 
BRANCH  19  20
HETATM   20  C6  UNL     1      14.323   0.714  26.371  1.00  0.00    -0.019 C 
HETATM   21  C7  UNL     1      15.320   0.379  25.570  1.00  0.00     0.080 C 
BRANCH  21  22
HETATM   22  C8  UNL     1      16.613   0.073  26.149  1.00  0.00     0.198 C 
HETATM   23  O1  UNL     1      17.029  -1.101  26.206  1.00  0.00    -0.645 OA
HETATM   24  O2  UNL     1      17.379   1.115  26.637  1.00  0.00    -0.645 OA
ENDBRANCH  21  22
ENDBRANCH  19  20
ENDBRANCH  15  19
ENDBRANCH   1  15
BRANCH   1  25
HETATM   25  C10 UNL     1      10.809  -0.599  28.059  1.00  0.00    -0.035 C 
HETATM   26  C11 UNL     1      12.064  -1.556  27.873  1.00  0.00     0.016 C 
HETATM   27  C12 UNL     1       9.787  -1.448  28.509  1.00  0.00     0.011 C 
HETATM   28  C13 UNL     1       9.917  -1.611  30.060  1.00  0.00     0.011 C 
HETATM   29  C14 UNL     1      11.281  -1.141  30.313  1.00  0.00     0.038 C 
HETATM   30  C18 UNL     1      11.149   0.083  29.325  1.00  0.00     0.020 C 
BRANCH  29  31
HETATM   31  C15 UNL     1      11.386  -0.600  31.692  1.00  0.00     0.041 A 
HETATM   32  C16 UNL     1      10.317  -0.337  32.520  1.00  0.00     0.092 A 
HETATM   33  C17 UNL     1      10.828   0.152  33.706  1.00  0.00     0.237 A 
HETATM   34  O5  UNL     1      12.126   0.168  33.559  1.00  0.00    -0.213 OA
HETATM   35  N2  UNL     1      12.484  -0.267  32.388  1.00  0.00    -0.263 N 
ATOM     36  H2  UNL     1      13.444  -0.343  32.053  1.00  0.00     0.194 HD
BRANCH  33  37
HETATM   37  N1  UNL     1      10.037   0.537  34.812  1.00  0.00    -0.088 N 
HETATM   38  O3  UNL     1      10.525   1.071  35.819  1.00  0.00    -0.530 OA
HETATM   39  O4  UNL     1       8.689   0.314  34.776  1.00  0.00    -0.530 OA
ENDBRANCH  33  37
ENDBRANCH  29  31
ENDBRANCH   1  25
BRANCH   9  40
HETATM   40  C27 UNL     1       5.297   0.043  24.206  1.00  0.00     0.048 C 
BRANCH  40  41
HETATM   41  C28 UNL     1       5.077  -0.341  22.789  1.00  0.00     0.116 C 
BRANCH  41  42
HETATM   42  C29 UNL     1       5.504  -1.775  22.636  1.00  0.00     0.172 C 
HETATM   43  O7  UNL     1       4.679  -2.719  22.678  1.00  0.00    -0.648 OA
HETATM   44  O8  UNL     1       6.835  -2.109  22.444  1.00  0.00    -0.648 OA
ENDBRANCH  41  42
ENDBRANCH  40  41
ENDBRANCH   9  40
TORSDOF 11
ENDMDL
MODEL 2
REMARK VINA RESULT: -9.493416400      0.819      1.215
REMARK  11 active torsions:
REMARK  status: ('A' for Active; 'I' for Inactive)
REMARK    1  A    between atoms: C2_2  and  C4_4 
REMARK    2  A    between atoms: C4_4  and  C5_5 
REMARK    3  A    between atoms: C4_4  and  C9_11 
REMARK    4  A    between atoms: C5_5  and  C6_6 
REMARK    5  A    between atoms: C7_7  and  C8_8 
REMARK    6  A    between atoms: C9_11  and  C10_12 
REMARK    7  A    between atoms: C14_16  and  C15_17 
REMARK    8  A    between atoms: C17_19  and  N1_20 
REMARK    9  A    between atoms: C25_34  and  C27_36 
REMARK   10  A    between atoms: C27_36  and  C28_37 
REMARK   11  A    between atoms: C28_37  and  C29_38 
ROOT
HETATM    1  C9  UNL     1      10.842   0.286  26.803  1.00  0.00    -0.020 C 
HETATM    2  C19 UNL     1      10.977   1.631  27.498  1.00  0.00     0.012 C 
HETATM    3  C20 UNL     1      10.011   2.597  26.793  1.00  0.00     0.012 C 
HETATM    4  C21 UNL     1       9.520   1.955  25.599  1.00  0.00    -0.024 A 
HETATM    5  C22 UNL     1       9.902   2.649  24.367  1.00  0.00     0.017 C 
HETATM    6  C23 UNL     1       8.721   0.838  25.180  1.00  0.00     0.005 A 
HETATM    7  C24 UNL     1       8.390   0.566  23.749  1.00  0.00     0.180 C 
HETATM    8  O6  UNL     1       7.244   1.223  23.427  1.00  0.00    -0.379 OA
HETATM    9  C25 UNL     1       6.370   1.058  24.471  1.00  0.00     0.062 C 
HETATM   10  C26 UNL     1       5.688   2.395  24.696  1.00  0.00     0.046 C 
HETATM   11  C30 UNL     1       7.231   0.618  25.564  1.00  0.00     0.032 C 
HETATM   12  C31 UNL     1       7.247   1.439  26.770  1.00  0.00     0.009 C 
HETATM   13  C32 UNL     1       8.467   0.697  27.380  1.00  0.00     0.012 C 
HETATM   14  C33 UNL     1       9.507   0.613  26.199  1.00  0.00    -0.013 A 
ENDROOT
BRANCH   1  15
HETATM   15  C4  UNL     1      11.934  -0.244  26.009  1.00  0.00     0.002 C 
BRANCH  15  16
HETATM   16  C2  UNL     1      12.190  -0.763  24.663  1.00  0.00    -0.018 C 
HETATM   17  C1  UNL     1      10.942  -1.555  24.206  1.00  0.00     0.010 C 
HETATM   18  C3  UNL     1      12.131   0.293  23.537  1.00  0.00     0.010 C 
ENDBRANCH  15  16
BRANCH  15  19
HETATM   19  C5  UNL     1      12.980   1.019  25.822  1.00  0.00     0.033 C 
BRANCH  19  20
HETATM   20  C6  UNL     1      14.298   0.699  26.400  1.00  0.00    -0.019 C 
HETATM   21  C7  UNL     1      15.312   0.409  25.604  1.00  0.00     0.080 C 
BRANCH  21  22
HETATM   22  C8  UNL     1      16.600   0.100  26.191  1.00  0.00     0.198 C 
HETATM   23  O1  UNL     1      17.005  -1.077  26.270  1.00  0.00    -0.645 OA
HETATM   24  O2  UNL     1      17.376   1.142  26.663  1.00  0.00    -0.645 OA
ENDBRANCH  21  22
ENDBRANCH  19  20
ENDBRANCH  15  19
ENDBRANCH   1  15
BRANCH   1  25
HETATM   25  C10 UNL     1      10.780  -0.633  28.061  1.00  0.00    -0.035 C 
HETATM   26  C11 UNL     1      11.997  -1.630  27.836  1.00  0.00     0.016 C 
HETATM   27  C12 UNL     1       9.739  -1.451  28.521  1.00  0.00     0.011 C 
HETATM   28  C13 UNL     1       9.895  -1.639  30.068  1.00  0.00     0.011 C 
HETATM   29  C14 UNL     1      11.280  -1.220  30.298  1.00  0.00     0.038 C 
HETATM   30  C18 UNL     1      11.171   0.020  29.327  1.00  0.00     0.020 C 
BRANCH  29  31
HETATM   31  C15 UNL     1      11.432  -0.701  31.681  1.00  0.00     0.041 A 
HETATM   32  C16 UNL     1      12.625  -0.325  32.257  1.00  0.00     0.092 A 
HETATM   33  C17 UNL     1      12.345   0.096  33.542  1.00  0.00     0.237 A 
HETATM   34  O5  UNL     1      11.054  -0.034  33.690  1.00  0.00    -0.213 OA
HETATM   35  N2  UNL     1      10.490  -0.500  32.616  1.00  0.00    -0.263 N 
ATOM     36  H2  UNL     1       9.493  -0.683  32.503  1.00  0.00     0.194 HD
BRANCH  33  37
HETATM   37  N1  UNL     1      13.319   0.563  34.454  1.00  0.00    -0.088 N 
HETATM   38  O3  UNL     1      14.219  -0.170  34.892  1.00  0.00    -0.530 OA
HETATM   39  O4  UNL     1      13.271   1.864  34.871  1.00  0.00    -0.530 OA
ENDBRANCH  33  37
ENDBRANCH  29  31
ENDBRANCH   1  25
BRANCH   9  40
HETATM   40  C27 UNL     1       5.280   0.070  24.203  1.00  0.00     0.048 C 
BRANCH  40  41
HETATM   41  C28 UNL     1       5.073  -0.311  22.783  1.00  0.00     0.116 C 
BRANCH  41  42
HETATM   42  C29 UNL     1       5.485  -1.750  22.635  1.00  0.00     0.172 C 
HETATM   43  O7  UNL     1       4.650  -2.684  22.680  1.00  0.00    -0.648 OA
HETATM   44  O8  UNL     1       6.812  -2.098  22.443  1.00  0.00    -0.648 OA
ENDBRANCH  41  42
ENDBRANCH  40  41
ENDBRANCH   9  40
TORSDOF 11
ENDMDL
MODEL 3
REMARK VINA RESULT: -9.414052835      1.499      2.147
REMARK  11 active torsions:
REMARK  status: ('A' for Active; 'I' for Inactive)
REMARK    1  A    between atoms: C2_2  and  C4_4 
REMARK    2  A    between atoms: C4_4  and  C5_5 
REMARK    3  A    between atoms: C4_4  and  C9_11 
REMARK    4  A    between atoms: C5_5  and  C6_6 
REMARK    5  A    between atoms: C7_7  and  C8_8 
REMARK    6  A    between atoms: C9_11  and  C10_12 
REMARK    7  A    between atoms: C14_16  and  C15_17 
REMARK    8  A    between atoms: C17_19  and  N1_20 
REMARK    9  A    between atoms: C25_34  and  C27_36 
REMARK   10  A    between atoms: C27_36  and  C28_37 
REMARK   11  A    between atoms: C28_37  and  C29_38 
ROOT
HETATM    1  C9  UNL     1      10.855   0.269  26.596  1.00  0.00    -0.020 C 
HETATM    2  C19 UNL     1      10.999   1.610  27.297  1.00  0.00     0.012 C 
HETATM    3  C20 UNL     1      10.003   2.572  26.630  1.00  0.00     0.012 C 
HETATM    4  C21 UNL     1       9.481   1.935  25.446  1.00  0.00    -0.024 A 
HETATM    5  C22 UNL     1       9.817   2.642  24.209  1.00  0.00     0.017 C 
HETATM    6  C23 UNL     1       8.680   0.813  25.043  1.00  0.00     0.005 A 
HETATM    7  C24 UNL     1       8.307   0.550  23.621  1.00  0.00     0.180 C 
HETATM    8  O6  UNL     1       7.145   1.198  23.340  1.00  0.00    -0.379 OA
HETATM    9  C25 UNL     1       6.306   1.016  24.410  1.00  0.00     0.062 C 
HETATM   10  C26 UNL     1       5.618   2.345  24.666  1.00  0.00     0.046 C 
HETATM   11  C30 UNL     1       7.204   0.576  25.472  1.00  0.00     0.032 C 
HETATM   12  C31 UNL     1       7.250   1.388  26.683  1.00  0.00     0.009 C 
HETATM   13  C32 UNL     1       8.495   0.653  27.250  1.00  0.00     0.012 C 
HETATM   14  C33 UNL     1       9.498   0.588  26.036  1.00  0.00    -0.013 A 
ENDROOT
BRANCH   1  15
HETATM   15  C4  UNL     1      11.927  -0.244  25.763  1.00  0.00     0.002 C 
BRANCH  15  16
HETATM   16  C2  UNL     1      12.181  -0.617  24.370  1.00  0.00    -0.018 C 
HETATM   17  C1  UNL     1      10.921  -1.331  23.825  1.00  0.00     0.010 C 
HETATM   18  C3  UNL     1      12.147   0.556  23.367  1.00  0.00     0.010 C 
ENDBRANCH  15  16
BRANCH  15  19
HETATM   19  C5  UNL     1      13.067   0.949  25.750  1.00  0.00     0.033 C 
BRANCH  19  20
HETATM   20  C6  UNL     1      14.348   0.456  26.287  1.00  0.00    -0.019 C 
HETATM   21  C7  UNL     1      15.415   0.412  25.507  1.00  0.00     0.080 C 
BRANCH  21  22
HETATM   22  C8  UNL     1      16.666  -0.073  26.054  1.00  0.00     0.198 C 
HETATM   23  O1  UNL     1      16.979  -1.277  25.972  1.00  0.00    -0.645 OA
HETATM   24  O2  UNL     1      17.509   0.832  26.671  1.00  0.00    -0.645 OA
ENDBRANCH  21  22
ENDBRANCH  19  20
ENDBRANCH  15  19
ENDBRANCH   1  15
BRANCH   1  25
HETATM   25  C10 UNL     1      10.841  -0.660  27.848  1.00  0.00    -0.035 C 
HETATM   26  C11 UNL     1      11.277  -2.068  27.254  1.00  0.00     0.016 C 
HETATM   27  C12 UNL     1       9.791  -0.961  28.727  1.00  0.00     0.011 C 
HETATM   28  C13 UNL     1      10.398  -1.378  30.108  1.00  0.00     0.011 C 
HETATM   29  C14 UNL     1      11.793  -1.665  29.766  1.00  0.00     0.038 C 
HETATM   30  C18 UNL     1      11.924  -0.408  28.820  1.00  0.00     0.020 C 
BRANCH  29  31
HETATM   31  C15 UNL     1      12.665  -1.437  30.947  1.00  0.00     0.041 A 
HETATM   32  C16 UNL     1      13.831  -2.120  31.212  1.00  0.00     0.092 A 
HETATM   33  C17 UNL     1      14.340  -1.619  32.393  1.00  0.00     0.237 A 
HETATM   34  O5  UNL     1      13.503  -0.695  32.782  1.00  0.00    -0.213 OA
HETATM   35  N2  UNL     1      12.510  -0.565  31.955  1.00  0.00    -0.263 N 
ATOM     36  H2  UNL     1      11.737   0.094  32.056  1.00  0.00     0.194 HD
BRANCH  33  37
HETATM   37  N1  UNL     1      15.536  -2.070  32.996  1.00  0.00    -0.088 N 
HETATM   38  O3  UNL     1      16.559  -1.370  33.039  1.00  0.00    -0.530 OA
HETATM   39  O4  UNL     1      15.573  -3.319  33.549  1.00  0.00    -0.530 OA
ENDBRANCH  33  37
ENDBRANCH  29  31
ENDBRANCH   1  25
BRANCH   9  40
HETATM   40  C27 UNL     1       5.217   0.020  24.168  1.00  0.00     0.048 C 
BRANCH  40  41
HETATM   41  C28 UNL     1       5.005  -0.392  22.757  1.00  0.00     0.116 C 
BRANCH  41  42
HETATM   42  C29 UNL     1       5.482  -1.813  22.624  1.00  0.00     0.172 C 
HETATM   43  O7  UNL     1       4.686  -2.781  22.632  1.00  0.00    -0.648 OA
HETATM   44  O8  UNL     1       6.829  -2.106  22.487  1.00  0.00    -0.648 OA
ENDBRANCH  41  42
ENDBRANCH  40  41
ENDBRANCH   9  40
TORSDOF 11
ENDMDL
MODEL 4
REMARK VINA RESULT: -8.760215609      2.278      2.776
REMARK  11 active torsions:
REMARK  status: ('A' for Active; 'I' for Inactive)
REMARK    1  A    between atoms: C2_2  and  C4_4 
REMARK    2  A    between atoms: C4_4  and  C5_5 
REMARK    3  A    between atoms: C4_4  and  C9_11 
REMARK    4  A    between atoms: C5_5  and  C6_6 
REMARK    5  A    between atoms: C7_7  and  C8_8 
REMARK    6  A    between atoms: C9_11  and  C10_12 
REMARK    7  A    between atoms: C14_16  and  C15_17 
REMARK    8  A    between atoms: C17_19  and  N1_20 
REMARK    9  A    between atoms: C25_34  and  C27_36 
REMARK   10  A    between atoms: C27_36  and  C28_37 
REMARK   11  A    between atoms: C28_37  and  C29_38 
ROOT
HETATM    1  C9  UNL     1      11.020   0.471  26.677  1.00  0.00    -0.020 C 
HETATM    2  C19 UNL     1      11.075   1.860  27.292  1.00  0.00     0.012 C 
HETATM    3  C20 UNL     1      10.049   2.723  26.541  1.00  0.00     0.012 C 
HETATM    4  C21 UNL     1       9.593   1.985  25.390  1.00  0.00    -0.024 A 
HETATM    5  C22 UNL     1       9.925   2.628  24.117  1.00  0.00     0.017 C 
HETATM    6  C23 UNL     1       8.861   0.799  25.042  1.00  0.00     0.005 A 
HETATM    7  C24 UNL     1       8.541   0.426  23.632  1.00  0.00     0.180 C 
HETATM    8  O6  UNL     1       7.354   0.992  23.282  1.00  0.00    -0.379 OA
HETATM    9  C25 UNL     1       6.498   0.834  24.342  1.00  0.00     0.062 C 
HETATM   10  C26 UNL     1       5.736   2.138  24.495  1.00  0.00     0.046 C 
HETATM   11  C30 UNL     1       7.389   0.511  25.450  1.00  0.00     0.032 C 
HETATM   12  C31 UNL     1       7.360   1.400  26.608  1.00  0.00     0.009 C 
HETATM   13  C32 UNL     1       8.627   0.770  27.249  1.00  0.00     0.012 C 
HETATM   14  C33 UNL     1       9.664   0.681  26.066  1.00  0.00    -0.013 A 
ENDROOT
BRANCH   1  15
HETATM   15  C4  UNL     1      12.138  -0.036  25.905  1.00  0.00     0.002 C 
BRANCH  15  16
HETATM   16  C2  UNL     1      12.418  -0.617  24.589  1.00  0.00    -0.018 C 
HETATM   17  C1  UNL     1      11.204  -1.482  24.176  1.00  0.00     0.010 C 
HETATM   18  C3  UNL     1      12.320   0.372  23.408  1.00  0.00     0.010 C 
ENDBRANCH  15  16
BRANCH  15  19
HETATM   19  C5  UNL     1      13.102   1.276  25.634  1.00  0.00     0.033 C 
BRANCH  19  20
HETATM   20  C6  UNL     1      14.504   0.977  25.976  1.00  0.00    -0.019 C 
HETATM   21  C7  UNL     1      15.074   1.583  27.004  1.00  0.00     0.080 C 
BRANCH  21  22
HETATM   22  C8  UNL     1      16.453   1.274  27.325  1.00  0.00     0.198 C 
HETATM   23  O1  UNL     1      17.393   1.883  26.776  1.00  0.00    -0.645 OA
HETATM   24  O2  UNL     1      16.706   0.285  28.258  1.00  0.00    -0.645 OA
ENDBRANCH  21  22
ENDBRANCH  19  20
ENDBRANCH  15  19
ENDBRANCH   1  15
BRANCH   1  25
HETATM   25  C10 UNL     1      11.020  -0.376  27.986  1.00  0.00    -0.035 C 
HETATM   26  C11 UNL     1      10.451  -1.780  27.505  1.00  0.00     0.016 C 
HETATM   27  C12 UNL     1      10.373  -0.136  29.207  1.00  0.00     0.011 C 
HETATM   28  C13 UNL     1      11.163  -0.868  30.344  1.00  0.00     0.011 C 
HETATM   29  C14 UNL     1      11.993  -1.813  29.593  1.00  0.00     0.038 C 
HETATM   30  C18 UNL     1      12.360  -0.758  28.478  1.00  0.00     0.020 C 
BRANCH  29  31
HETATM   31  C15 UNL     1      13.232  -2.117  30.354  1.00  0.00     0.041 A 
HETATM   32  C16 UNL     1      14.317  -1.276  30.464  1.00  0.00     0.092 A 
HETATM   33  C17 UNL     1      15.256  -1.920  31.246  1.00  0.00     0.237 A 
HETATM   34  O5  UNL     1      14.730  -3.072  31.565  1.00  0.00    -0.213 OA
HETATM   35  N2  UNL     1      13.544  -3.217  31.056  1.00  0.00    -0.263 N 
ATOM     36  H2  UNL     1      12.945  -4.036  31.173  1.00  0.00     0.194 HD
BRANCH  33  37
HETATM   37  N1  UNL     1      16.513  -1.372  31.589  1.00  0.00    -0.088 N 
HETATM   38  O3  UNL     1      16.716  -0.149  31.611  1.00  0.00    -0.530 OA
HETATM   39  O4  UNL     1      17.542  -2.214  31.905  1.00  0.00    -0.530 OA
ENDBRANCH  33  37
ENDBRANCH  29  31
ENDBRANCH   1  25
BRANCH   9  40
HETATM   40  C27 UNL     1       5.469  -0.232  24.140  1.00  0.00     0.048 C 
BRANCH  40  41
HETATM   41  C28 UNL     1       5.213  -0.641  22.735  1.00  0.00     0.116 C 
BRANCH  41  42
HETATM   42  C29 UNL     1       5.623  -2.082  22.601  1.00  0.00     0.172 C 
HETATM   43  O7  UNL     1       4.780  -3.010  22.581  1.00  0.00    -0.648 OA
HETATM   44  O8  UNL     1       6.957  -2.440  22.495  1.00  0.00    -0.648 OA
ENDBRANCH  41  42
ENDBRANCH  40  41
ENDBRANCH   9  40
TORSDOF 11
ENDMDL
MODEL 5
REMARK VINA RESULT: -8.533662468      3.664      9.093
REMARK  11 active torsions:
REMARK  status: ('A' for Active; 'I' for Inactive)
REMARK    1  A    between atoms: C2_2  and  C4_4 
REMARK    2  A    between atoms: C4_4  and  C5_5 
REMARK    3  A    between atoms: C4_4  and  C9_11 
REMARK    4  A    between atoms: C5_5  and  C6_6 
REMARK    5  A    between atoms: C7_7  and  C8_8 
REMARK    6  A    between atoms: C9_11  and  C10_12 
REMARK    7  A    between atoms: C14_16  and  C15_17 
REMARK    8  A    between atoms: C17_19  and  N1_20 
REMARK    9  A    between atoms: C25_34  and  C27_36 
REMARK   10  A    between atoms: C27_36  and  C28_37 
REMARK   11  A    between atoms: C28_37  and  C29_38 
ROOT
HETATM    1  C9  UNL     1      12.504   0.424  27.098  1.00  0.00    -0.020 C 
HETATM    2  C19 UNL     1      12.677   1.932  27.193  1.00  0.00     0.012 C 
HETATM    3  C20 UNL     1      13.988   2.184  27.955  1.00  0.00     0.012 C 
HETATM    4  C21 UNL     1      14.441   0.930  28.504  1.00  0.00    -0.024 A 
HETATM    5  C22 UNL     1      14.485   0.918  29.968  1.00  0.00     0.017 C 
HETATM    6  C23 UNL     1      14.918  -0.361  28.095  1.00  0.00     0.005 A 
HETATM    7  C24 UNL     1      15.370  -1.405  29.062  1.00  0.00     0.180 C 
HETATM    8  O6  UNL     1      16.698  -1.237  29.307  1.00  0.00    -0.379 OA
HETATM    9  C25 UNL     1      17.306  -0.976  28.105  1.00  0.00     0.062 C 
HETATM   10  C26 UNL     1      18.318   0.129  28.351  1.00  0.00     0.046 C 
HETATM   11  C30 UNL     1      16.192  -0.605  27.238  1.00  0.00     0.032 C 
HETATM   12  C31 UNL     1      16.239   0.718  26.626  1.00  0.00     0.009 C 
HETATM   13  C32 UNL     1      14.771   0.647  26.122  1.00  0.00     0.012 C 
HETATM   14  C33 UNL     1      13.953   0.135  27.368  1.00  0.00    -0.013 A 
ENDROOT
BRANCH   1  15
HETATM   15  C4  UNL     1      11.441  -0.240  27.827  1.00  0.00     0.002 C 
BRANCH  15  16
HETATM   16  C2  UNL     1      11.264  -1.210  28.912  1.00  0.00    -0.018 C 
HETATM   17  C1  UNL     1      11.365  -0.452  30.257  1.00  0.00     0.010 C 
HETATM   18  C3  UNL     1       9.814  -1.702  29.113  1.00  0.00     0.010 C 
ENDBRANCH  15  16
BRANCH  15  19
HETATM   19  C5  UNL     1      10.668   0.962  28.650  1.00  0.00     0.033 C 
BRANCH  19  20
HETATM   20  C6  UNL     1       9.466   1.408  27.922  1.00  0.00    -0.019 C 
HETATM   21  C7  UNL     1       9.344   2.676  27.569  1.00  0.00     0.080 C 
BRANCH  21  22
HETATM   22  C8  UNL     1       8.156   3.095  26.852  1.00  0.00     0.198 C 
HETATM   23  O1  UNL     1       7.050   3.157  27.423  1.00  0.00    -0.645 OA
HETATM   24  O2  UNL     1       8.276   3.426  25.515  1.00  0.00    -0.645 OA
ENDBRANCH  21  22
ENDBRANCH  19  20
ENDBRANCH  15  19
ENDBRANCH   1  15
BRANCH   1  25
HETATM   25  C10 UNL     1      12.087   0.321  25.600  1.00  0.00    -0.035 C 
HETATM   26  C11 UNL     1      12.835  -0.993  25.109  1.00  0.00     0.016 C 
HETATM   27  C12 UNL     1      12.270   1.238  24.554  1.00  0.00     0.011 C 
HETATM   28  C13 UNL     1      11.166   0.991  23.472  1.00  0.00     0.011 C 
HETATM   29  C14 UNL     1      10.676  -0.345  23.822  1.00  0.00     0.038 C 
HETATM   30  C18 UNL     1      10.675  -0.047  25.372  1.00  0.00     0.020 C 
BRANCH  29  31
HETATM   31  C15 UNL     1       9.263  -0.498  23.388  1.00  0.00     0.041 A 
HETATM   32  C16 UNL     1       8.218   0.293  23.811  1.00  0.00     0.092 A 
HETATM   33  C17 UNL     1       7.076  -0.168  23.185  1.00  0.00     0.237 A 
HETATM   34  O5  UNL     1       7.455  -1.173  22.442  1.00  0.00    -0.213 OA
HETATM   35  N2  UNL     1       8.732  -1.392  22.540  1.00  0.00    -0.263 N 
ATOM     36  H2  UNL     1       9.247  -2.124  22.051  1.00  0.00     0.194 HD
BRANCH  33  37
HETATM   37  N1  UNL     1       5.792   0.393  23.365  1.00  0.00    -0.088 N 
HETATM   38  O3  UNL     1       5.551   1.585  23.122  1.00  0.00    -0.530 OA
HETATM   39  O4  UNL     1       4.778  -0.401  23.824  1.00  0.00    -0.530 OA
ENDBRANCH  33  37
ENDBRANCH  29  31
ENDBRANCH   1  25
BRANCH   9  40
HETATM   40  C27 UNL     1      18.073  -2.132  27.546  1.00  0.00     0.048 C 
BRANCH  40  41
HETATM   41  C28 UNL     1      18.823  -2.957  28.525  1.00  0.00     0.116 C 
BRANCH  41  42
HETATM   42  C29 UNL     1      18.289  -4.361  28.438  1.00  0.00     0.172 C 
HETATM   43  O7  UNL     1      17.061  -4.597  28.348  1.00  0.00    -0.648 OA
HETATM   44  O8  UNL     1      19.142  -5.453  28.454  1.00  0.00    -0.648 OA
ENDBRANCH  41  42
ENDBRANCH  40  41
ENDBRANCH   9  40
TORSDOF 11
ENDMDL
