MODEL 1
REMARK VINA RESULT: -8.129855670      0.000      0.000
REMARK  11 active torsions:
REMARK  status: ('A' for Active; 'I' for Inactive)
REMARK    1  A    between atoms: C2_2  and  O1_3 
REMARK    2  A    between atoms: C2_2  and  C3_5 
REMARK    3  A    between atoms: C3_5  and  O2_6 
REMARK    4  A    between atoms: C3_5  and  N1_8 
REMARK    5  A    between atoms: C6_11  and  N2_12 
REMARK    6  A    between atoms: N3_15  and  C8_16 
REMARK    7  A    between atoms: C9_18  and  C10_19 
REMARK       I    between atoms: C10_19  and  N4_21 
REMARK    8  A    between atoms: N4_21  and  C11_23 
REMARK    9  A    between atoms: C17_29  and  O5_30 
REMARK   10  A    between atoms: C18_32  and  O6_33 
REMARK   11  A    between atoms: C21_41  and  N7_42 
ROOT
HETATM    1  N2  UNL     1     -12.485   0.527   1.127  1.00  0.00    -0.264 N 
HETATM    2  C7  UNL     1     -13.180   1.709   1.141  1.00  0.00     0.336 A 
HETATM    3  O3  UNL     1     -12.769   2.705   1.821  1.00  0.00    -0.246 OA
HETATM    4  N3  UNL     1     -14.273   1.646   0.383  1.00  0.00    -0.266 N 
HETATM    5  C19 UNL     1     -14.318   0.427  -0.141  1.00  0.00     0.145 A 
HETATM    6  N5  UNL     1     -15.179  -0.190  -0.970  1.00  0.00    -0.336 N 
ATOM      7  H5  UNL     1     -15.996   0.314  -1.313  1.00  0.00     0.168 HD
HETATM    8  C20 UNL     1     -14.977  -1.449  -1.346  1.00  0.00     0.183 A 
HETATM    9  N6  UNL     1     -13.922  -2.166  -0.932  1.00  0.00    -0.337 N 
ATOM     10  H6  UNL     1     -13.796  -3.129  -1.241  1.00  0.00     0.168 HD
HETATM   11  C21 UNL     1     -13.023  -1.583  -0.092  1.00  0.00     0.131 A 
HETATM   12  C22 UNL     1     -13.205  -0.282   0.315  1.00  0.00     0.132 A 
ENDROOT
BRANCH   4  13
HETATM   13  C8  UNL     1     -15.189   2.709   0.203  1.00  0.00     0.190 C 
HETATM   14  S1  UNL     1     -16.865   2.053   0.612  1.00  0.00    -0.123 SA
HETATM   15  C9  UNL     1     -17.792   3.273  -0.401  1.00  0.00     0.172 C 
HETATM   16  C17 UNL     1     -16.764   3.824  -1.320  1.00  0.00     0.172 C 
HETATM   17  C18 UNL     1     -15.448   3.184  -1.154  1.00  0.00     0.181 C 
BRANCH  15  18
HETATM   18  C10 UNL     1     -18.409   4.305   0.468  1.00  0.00     0.234 C 
HETATM   19  O4  UNL     1     -17.656   5.105   1.058  1.00  0.00    -0.272 OA
HETATM   20  N4  UNL     1     -19.824   4.327   0.581  1.00  0.00    -0.355 N 
ATOM     21  H4  UNL     1     -20.360   3.633   0.062  1.00  0.00     0.162 HD
BRANCH  20  22
HETATM   22  C11 UNL     1     -20.547   5.284   1.396  1.00  0.00     0.084 C 
HETATM   23  C12 UNL     1     -21.977   5.449   0.929  1.00  0.00     0.025 C 
HETATM   24  C13 UNL     1     -22.686   6.266   2.009  1.00  0.00     0.002 C 
HETATM   25  C14 UNL     1     -22.069   7.641   2.118  1.00  0.00     0.000 C 
HETATM   26  C15 UNL     1     -20.598   7.515   2.383  1.00  0.00     0.002 C 
HETATM   27  C16 UNL     1     -19.879   6.644   1.382  1.00  0.00     0.025 C 
ENDBRANCH  20  22
ENDBRANCH  15  18
BRANCH  16  28
HETATM   28  O5  UNL     1     -17.207   3.860  -2.646  1.00  0.00    -0.391 OA
ATOM     29  H5  UNL     1     -17.310   2.989  -3.011  1.00  0.00     0.210 HD
ENDBRANCH  16  28
BRANCH  17  30
HETATM   30  O6  UNL     1     -14.460   4.169  -1.433  1.00  0.00    -0.390 OA
ATOM     31  H6  UNL     1     -14.874   4.816  -1.992  1.00  0.00     0.210 HD
ENDBRANCH  17  30
ENDBRANCH   4  13
BRANCH   1  32
HETATM   32  C6  UNL     1     -11.269   0.209   1.821  1.00  0.00     0.003 C 
HETATM   33  C5  UNL     1     -11.238   0.181   3.295  1.00  0.00     0.073 C 
HETATM   34  C4  UNL     1     -10.353  -1.031   3.730  1.00  0.00     0.130 C 
HETATM   35  N1  UNL     1      -9.039  -0.637   3.085  1.00  0.00    -0.359 N 
HETATM   36  C24 UNL     1      -9.017  -0.585   1.674  1.00  0.00     0.130 C 
HETATM   37  C23 UNL     1      -9.966   0.562   1.179  1.00  0.00     0.073 C 
BRANCH  35  38
HETATM   38  C3  UNL     1      -7.994  -0.403   3.958  1.00  0.00     0.171 C 
BRANCH  38  39
HETATM   39  C2  UNL     1      -7.271   0.754   4.366  1.00  0.00     0.106 C 
HETATM   40  C1  UNL     1      -5.999   0.858   4.548  1.00  0.00     0.055 C 
BRANCH  39  41
HETATM   41  O1  UNL     1      -8.062   1.959   4.613  1.00  0.00    -0.357 OA
ATOM     42  H1  UNL     1      -9.004   1.868   4.532  1.00  0.00     0.217 HD
ENDBRANCH  39  41
ENDBRANCH  38  39
BRANCH  38  43
HETATM   43  O2  UNL     1      -7.521  -1.499   4.595  1.00  0.00    -0.344 OA
ATOM     44  H2  UNL     1      -8.194  -2.168   4.640  1.00  0.00     0.219 HD
ENDBRANCH  38  43
ENDBRANCH  35  38
ENDBRANCH   1  32
BRANCH  11  45
HETATM   45  N7  UNL     1     -12.009  -2.242   0.317  1.00  0.00    -0.383 N 
ATOM     46  H72 UNL     1     -11.902  -3.224   0.060  1.00  0.00     0.157 HD
ATOM     47  H71 UNL     1     -11.307  -1.789   0.903  1.00  0.00     0.157 HD
ENDBRANCH  11  45
TORSDOF 11
ENDMDL
MODEL 2
REMARK VINA RESULT: -7.889479042      1.692      2.139
REMARK  11 active torsions:
REMARK  status: ('A' for Active; 'I' for Inactive)
REMARK    1  A    between atoms: C2_2  and  O1_3 
REMARK    2  A    between atoms: C2_2  and  C3_5 
REMARK    3  A    between atoms: C3_5  and  O2_6 
REMARK    4  A    between atoms: C3_5  and  N1_8 
REMARK    5  A    between atoms: C6_11  and  N2_12 
REMARK    6  A    between atoms: N3_15  and  C8_16 
REMARK    7  A    between atoms: C9_18  and  C10_19 
REMARK       I    between atoms: C10_19  and  N4_21 
REMARK    8  A    between atoms: N4_21  and  C11_23 
REMARK    9  A    between atoms: C17_29  and  O5_30 
REMARK   10  A    between atoms: C18_32  and  O6_33 
REMARK   11  A    between atoms: C21_41  and  N7_42 
ROOT
HETATM    1  N2  UNL     1     -12.545   0.832   1.963  1.00  0.00    -0.264 N 
HETATM    2  C7  UNL     1     -13.079   2.066   2.231  1.00  0.00     0.336 A 
HETATM    3  O3  UNL     1     -12.423   2.936   2.892  1.00  0.00    -0.246 OA
HETATM    4  N3  UNL     1     -14.302   2.194   1.723  1.00  0.00    -0.266 N 
HETATM    5  C19 UNL     1     -14.596   1.051   1.114  1.00  0.00     0.145 A 
HETATM    6  N5  UNL     1     -15.674   0.616   0.438  1.00  0.00    -0.336 N 
ATOM      7  H5  UNL     1     -16.480   1.232   0.324  1.00  0.00     0.168 HD
HETATM    8  C20 UNL     1     -15.703  -0.607  -0.083  1.00  0.00     0.183 A 
HETATM    9  N6  UNL     1     -14.678  -1.463   0.031  1.00  0.00    -0.337 N 
ATOM     10  H6  UNL     1     -14.732  -2.394  -0.382  1.00  0.00     0.168 HD
HETATM   11  C21 UNL     1     -13.565  -1.068   0.706  1.00  0.00     0.131 A 
HETATM   12  C22 UNL     1     -13.505   0.191   1.256  1.00  0.00     0.132 A 
ENDROOT
BRANCH   4  13
HETATM   13  C8  UNL     1     -15.104   3.354   1.839  1.00  0.00     0.190 C 
HETATM   14  S1  UNL     1     -16.338   3.297   0.467  1.00  0.00    -0.123 SA
HETATM   15  C9  UNL     1     -16.628   5.111   0.406  1.00  0.00     0.172 C 
HETATM   16  C17 UNL     1     -15.462   5.679   1.129  1.00  0.00     0.172 C 
HETATM   17  C18 UNL     1     -14.498   4.652   1.555  1.00  0.00     0.181 C 
BRANCH  15  18
HETATM   18  C10 UNL     1     -17.926   5.447   1.041  1.00  0.00     0.234 C 
HETATM   19  O4  UNL     1     -18.830   4.588   1.026  1.00  0.00    -0.272 OA
HETATM   20  N4  UNL     1     -18.071   6.729   1.632  1.00  0.00    -0.355 N 
ATOM     21  H4  UNL     1     -17.277   7.369   1.597  1.00  0.00     0.162 HD
BRANCH  20  22
HETATM   22  C11 UNL     1     -19.285   7.179   2.284  1.00  0.00     0.084 C 
HETATM   23  C12 UNL     1     -20.507   6.921   1.429  1.00  0.00     0.025 C 
HETATM   24  C13 UNL     1     -21.717   7.193   2.325  1.00  0.00     0.002 C 
HETATM   25  C14 UNL     1     -21.741   8.643   2.749  1.00  0.00     0.000 C 
HETATM   26  C15 UNL     1     -20.449   8.992   3.429  1.00  0.00     0.002 C 
HETATM   27  C16 UNL     1     -19.229   8.658   2.606  1.00  0.00     0.025 C 
ENDBRANCH  20  22
ENDBRANCH  15  18
BRANCH  16  28
HETATM   28  O5  UNL     1     -14.879   6.742   0.430  1.00  0.00    -0.391 OA
ATOM     29  H5  UNL     1     -13.963   6.582   0.237  1.00  0.00     0.210 HD
ENDBRANCH  16  28
BRANCH  17  30
HETATM   30  O6  UNL     1     -13.913   5.100   2.773  1.00  0.00    -0.390 OA
ATOM     31  H6  UNL     1     -14.454   4.756   3.475  1.00  0.00     0.210 HD
ENDBRANCH  17  30
ENDBRANCH   4  13
BRANCH   1  32
HETATM   32  C6  UNL     1     -11.259   0.322   2.350  1.00  0.00     0.003 C 
HETATM   33  C5  UNL     1     -10.968   0.030   3.765  1.00  0.00     0.073 C 
HETATM   34  C4  UNL     1     -10.136  -1.291   3.818  1.00  0.00     0.130 C 
HETATM   35  N1  UNL     1      -8.927  -0.868   3.007  1.00  0.00    -0.359 N 
HETATM   36  C24 UNL     1      -9.153  -0.567   1.645  1.00  0.00     0.130 C 
HETATM   37  C23 UNL     1     -10.065   0.705   1.536  1.00  0.00     0.073 C 
BRANCH  35  38
HETATM   38  C3  UNL     1      -7.726  -0.857   3.689  1.00  0.00     0.171 C 
BRANCH  38  39
HETATM   39  C2  UNL     1      -6.747  -1.840   4.009  1.00  0.00     0.106 C 
HETATM   40  C1  UNL     1      -5.986  -2.482   3.191  1.00  0.00     0.055 C 
BRANCH  39  41
HETATM   41  O1  UNL     1      -6.592  -2.162   5.427  1.00  0.00    -0.357 OA
ATOM     42  H1  UNL     1      -7.386  -2.389   5.896  1.00  0.00     0.217 HD
ENDBRANCH  39  41
ENDBRANCH  38  39
BRANCH  38  43
HETATM   43  O2  UNL     1      -7.356   0.348   4.180  1.00  0.00    -0.344 OA
ATOM     44  H2  UNL     1      -8.014   0.672   4.786  1.00  0.00     0.219 HD
ENDBRANCH  38  43
ENDBRANCH  35  38
ENDBRANCH   1  32
BRANCH  11  45
HETATM   45  N7  UNL     1     -12.573  -1.863   0.828  1.00  0.00    -0.383 N 
ATOM     46  H72 UNL     1     -11.877  -1.925   0.085  1.00  0.00     0.157 HD
ATOM     47  H71 UNL     1     -12.477  -2.437   1.666  1.00  0.00     0.157 HD
ENDBRANCH  11  45
TORSDOF 11
ENDMDL
MODEL 3
REMARK VINA RESULT: -7.594929547      3.234      6.333
REMARK  11 active torsions:
REMARK  status: ('A' for Active; 'I' for Inactive)
REMARK    1  A    between atoms: C2_2  and  O1_3 
REMARK    2  A    between atoms: C2_2  and  C3_5 
REMARK    3  A    between atoms: C3_5  and  O2_6 
REMARK    4  A    between atoms: C3_5  and  N1_8 
REMARK    5  A    between atoms: C6_11  and  N2_12 
REMARK    6  A    between atoms: N3_15  and  C8_16 
REMARK    7  A    between atoms: C9_18  and  C10_19 
REMARK       I    between atoms: C10_19  and  N4_21 
REMARK    8  A    between atoms: N4_21  and  C11_23 
REMARK    9  A    between atoms: C17_29  and  O5_30 
REMARK   10  A    between atoms: C18_32  and  O6_33 
REMARK   11  A    between atoms: C21_41  and  N7_42 
ROOT
HETATM    1  N2  UNL     1     -14.690  -0.152  -1.015  1.00  0.00    -0.264 N 
HETATM    2  C7  UNL     1     -15.363   1.015  -0.760  1.00  0.00     0.336 A 
HETATM    3  O3  UNL     1     -16.027   1.604  -1.674  1.00  0.00    -0.246 OA
HETATM    4  N3  UNL     1     -15.217   1.401   0.506  1.00  0.00    -0.266 N 
HETATM    5  C19 UNL     1     -14.449   0.498   1.105  1.00  0.00     0.145 A 
HETATM    6  N5  UNL     1     -13.978   0.373   2.358  1.00  0.00    -0.336 N 
ATOM      7  H5  UNL     1     -14.215   1.077   3.058  1.00  0.00     0.168 HD
HETATM    8  C20 UNL     1     -13.209  -0.658   2.697  1.00  0.00     0.183 A 
HETATM    9  N6  UNL     1     -12.864  -1.617   1.826  1.00  0.00    -0.337 N 
ATOM     10  H6  UNL     1     -12.274  -2.395   2.119  1.00  0.00     0.168 HD
HETATM   11  C21 UNL     1     -13.316  -1.533   0.545  1.00  0.00     0.131 A 
HETATM   12  C22 UNL     1     -14.113  -0.478   0.165  1.00  0.00     0.132 A 
ENDROOT
BRANCH   4  13
HETATM   13  C8  UNL     1     -15.792   2.567   1.063  1.00  0.00     0.190 C 
HETATM   14  S1  UNL     1     -16.732   3.404  -0.287  1.00  0.00    -0.123 SA
HETATM   15  C9  UNL     1     -16.657   5.085   0.453  1.00  0.00     0.172 C 
HETATM   16  C17 UNL     1     -15.562   4.983   1.451  1.00  0.00     0.172 C 
HETATM   17  C18 UNL     1     -14.908   3.664   1.449  1.00  0.00     0.181 C 
BRANCH  15  18
HETATM   18  C10 UNL     1     -17.964   5.442   1.057  1.00  0.00     0.234 C 
HETATM   19  O4  UNL     1     -18.885   4.603   1.009  1.00  0.00    -0.272 OA
HETATM   20  N4  UNL     1     -18.096   6.720   1.660  1.00  0.00    -0.355 N 
ATOM     21  H4  UNL     1     -17.289   7.343   1.653  1.00  0.00     0.162 HD
BRANCH  20  22
HETATM   22  C11 UNL     1     -19.318   7.189   2.285  1.00  0.00     0.084 C 
HETATM   23  C12 UNL     1     -20.529   6.919   1.419  1.00  0.00     0.025 C 
HETATM   24  C13 UNL     1     -21.750   7.215   2.291  1.00  0.00     0.002 C 
HETATM   25  C14 UNL     1     -21.772   8.673   2.686  1.00  0.00     0.000 C 
HETATM   26  C15 UNL     1     -20.489   9.030   3.377  1.00  0.00     0.002 C 
HETATM   27  C16 UNL     1     -19.259   8.673   2.578  1.00  0.00     0.025 C 
ENDBRANCH  20  22
ENDBRANCH  15  18
BRANCH  16  28
HETATM   28  O5  UNL     1     -14.667   6.054   1.360  1.00  0.00    -0.391 OA
ATOM     29  H5  UNL     1     -14.173   6.175   2.162  1.00  0.00     0.210 HD
ENDBRANCH  16  28
BRANCH  17  30
HETATM   30  O6  UNL     1     -14.490   3.397   2.783  1.00  0.00    -0.390 OA
ATOM     31  H6  UNL     1     -15.114   3.830   3.353  1.00  0.00     0.210 HD
ENDBRANCH  17  30
ENDBRANCH   4  13
BRANCH   1  32
HETATM   32  C6  UNL     1     -14.606  -0.870  -2.256  1.00  0.00     0.003 C 
HETATM   33  C5  UNL     1     -13.840  -0.316  -3.387  1.00  0.00     0.073 C 
HETATM   34  C4  UNL     1     -13.081  -1.496  -4.074  1.00  0.00     0.130 C 
HETATM   35  N1  UNL     1     -14.260  -2.359  -4.481  1.00  0.00    -0.359 N 
HETATM   36  C24 UNL     1     -15.033  -2.907  -3.435  1.00  0.00     0.130 C 
HETATM   37  C23 UNL     1     -15.747  -1.751  -2.651  1.00  0.00     0.073 C 
BRANCH  35  38
HETATM   38  C3  UNL     1     -14.424  -2.538  -5.841  1.00  0.00     0.171 C 
BRANCH  38  39
HETATM   39  C2  UNL     1     -15.437  -2.194  -6.780  1.00  0.00     0.106 C 
HETATM   40  C1  UNL     1     -15.281  -1.631  -7.930  1.00  0.00     0.055 C 
BRANCH  39  41
HETATM   41  O1  UNL     1     -16.812  -2.509  -6.395  1.00  0.00    -0.357 OA
ATOM     42  H1  UNL     1     -17.480  -1.896  -6.680  1.00  0.00     0.217 HD
ENDBRANCH  39  41
ENDBRANCH  38  39
BRANCH  38  43
HETATM   43  O2  UNL     1     -13.410  -3.183  -6.462  1.00  0.00    -0.344 OA
ATOM     44  H2  UNL     1     -12.610  -2.675  -6.398  1.00  0.00     0.219 HD
ENDBRANCH  38  43
ENDBRANCH  35  38
ENDBRANCH   1  32
BRANCH  11  45
HETATM   45  N7  UNL     1     -13.004  -2.433  -0.305  1.00  0.00    -0.383 N 
ATOM     46  H72 UNL     1     -12.269  -3.106  -0.086  1.00  0.00     0.157 HD
ATOM     47  H71 UNL     1     -13.487  -2.479  -1.202  1.00  0.00     0.157 HD
ENDBRANCH  11  45
TORSDOF 11
ENDMDL
MODEL 4
REMARK VINA RESULT: -7.579959855      0.946      1.439
REMARK  11 active torsions:
REMARK  status: ('A' for Active; 'I' for Inactive)
REMARK    1  A    between atoms: C2_2  and  O1_3 
REMARK    2  A    between atoms: C2_2  and  C3_5 
REMARK    3  A    between atoms: C3_5  and  O2_6 
REMARK    4  A    between atoms: C3_5  and  N1_8 
REMARK    5  A    between atoms: C6_11  and  N2_12 
REMARK    6  A    between atoms: N3_15  and  C8_16 
REMARK    7  A    between atoms: C9_18  and  C10_19 
REMARK       I    between atoms: C10_19  and  N4_21 
REMARK    8  A    between atoms: N4_21  and  C11_23 
REMARK    9  A    between atoms: C17_29  and  O5_30 
REMARK   10  A    between atoms: C18_32  and  O6_33 
REMARK   11  A    between atoms: C21_41  and  N7_42 
ROOT
HETATM    1  N2  UNL     1     -12.543   0.541   0.866  1.00  0.00    -0.264 N 
HETATM    2  C7  UNL     1     -13.254   1.713   0.867  1.00  0.00     0.336 A 
HETATM    3  O3  UNL     1     -12.877   2.710   1.568  1.00  0.00    -0.246 OA
HETATM    4  N3  UNL     1     -14.321   1.643   0.076  1.00  0.00    -0.266 N 
HETATM    5  C19 UNL     1     -14.333   0.427  -0.460  1.00  0.00     0.145 A 
HETATM    6  N5  UNL     1     -15.159  -0.195  -1.319  1.00  0.00    -0.336 N 
ATOM      7  H5  UNL     1     -15.972   0.302  -1.685  1.00  0.00     0.168 HD
HETATM    8  C20 UNL     1     -14.929  -1.448  -1.699  1.00  0.00     0.183 A 
HETATM    9  N6  UNL     1     -13.878  -2.153  -1.257  1.00  0.00    -0.337 N 
ATOM     10  H6  UNL     1     -13.729  -3.113  -1.569  1.00  0.00     0.168 HD
HETATM   11  C21 UNL     1     -13.014  -1.566  -0.385  1.00  0.00     0.131 A 
HETATM   12  C22 UNL     1     -13.226  -0.271   0.026  1.00  0.00     0.132 A 
ENDROOT
BRANCH   4  13
HETATM   13  C8  UNL     1     -15.245   2.695  -0.125  1.00  0.00     0.190 C 
HETATM   14  S1  UNL     1     -16.334   2.749   1.365  1.00  0.00    -0.123 SA
HETATM   15  C9  UNL     1     -17.756   3.553   0.523  1.00  0.00     0.172 C 
HETATM   16  C17 UNL     1     -17.481   3.337  -0.920  1.00  0.00     0.172 C 
HETATM   17  C18 UNL     1     -16.267   2.537  -1.157  1.00  0.00     0.181 C 
BRANCH  15  18
HETATM   18  C10 UNL     1     -17.832   4.988   0.893  1.00  0.00     0.234 C 
HETATM   19  O4  UNL     1     -16.766   5.626   1.000  1.00  0.00    -0.272 OA
HETATM   20  N4  UNL     1     -19.114   5.558   1.105  1.00  0.00    -0.355 N 
ATOM     21  H4  UNL     1     -19.933   4.959   0.995  1.00  0.00     0.162 HD
BRANCH  20  22
HETATM   22  C11 UNL     1     -19.324   6.946   1.468  1.00  0.00     0.084 C 
HETATM   23  C12 UNL     1     -18.306   7.418   2.484  1.00  0.00     0.025 C 
HETATM   24  C13 UNL     1     -18.473   8.935   2.578  1.00  0.00     0.002 C 
HETATM   25  C14 UNL     1     -19.849   9.281   3.099  1.00  0.00     0.000 C 
HETATM   26  C15 UNL     1     -20.893   8.655   2.223  1.00  0.00     0.002 C 
HETATM   27  C16 UNL     1     -20.709   7.168   2.039  1.00  0.00     0.025 C 
ENDBRANCH  20  22
ENDBRANCH  15  18
BRANCH  16  28
HETATM   28  O5  UNL     1     -18.605   2.868  -1.606  1.00  0.00    -0.391 OA
ATOM     29  H5  UNL     1     -18.893   3.474  -2.278  1.00  0.00     0.210 HD
ENDBRANCH  16  28
BRANCH  17  30
HETATM   30  O6  UNL     1     -15.688   2.997  -2.373  1.00  0.00    -0.390 OA
ATOM     31  H6  UNL     1     -15.697   3.946  -2.335  1.00  0.00     0.210 HD
ENDBRANCH  17  30
ENDBRANCH   4  13
BRANCH   1  32
HETATM   32  C6  UNL     1     -11.345   0.233   1.596  1.00  0.00     0.003 C 
HETATM   33  C5  UNL     1     -11.356   0.208   3.070  1.00  0.00     0.073 C 
HETATM   34  C4  UNL     1     -10.476  -0.996   3.534  1.00  0.00     0.130 C 
HETATM   35  N1  UNL     1      -9.146  -0.594   2.926  1.00  0.00    -0.359 N 
HETATM   36  C24 UNL     1      -9.084  -0.545   1.516  1.00  0.00     0.130 C 
HETATM   37  C23 UNL     1     -10.026   0.594   0.991  1.00  0.00     0.073 C 
BRANCH  35  38
HETATM   38  C3  UNL     1      -8.129  -0.350   3.828  1.00  0.00     0.171 C 
BRANCH  38  39
HETATM   39  C2  UNL     1      -7.408   0.808   4.235  1.00  0.00     0.106 C 
HETATM   40  C1  UNL     1      -6.129   0.945   4.321  1.00  0.00     0.055 C 
BRANCH  39  41
HETATM   41  O1  UNL     1      -8.210   1.975   4.603  1.00  0.00    -0.357 OA
ATOM     42  H1  UNL     1      -8.377   2.095   5.530  1.00  0.00     0.217 HD
ENDBRANCH  39  41
ENDBRANCH  38  39
BRANCH  38  43
HETATM   43  O2  UNL     1      -7.689  -1.436   4.504  1.00  0.00    -0.344 OA
ATOM     44  H2  UNL     1      -7.768  -2.213   3.963  1.00  0.00     0.219 HD
ENDBRANCH  38  43
ENDBRANCH  35  38
ENDBRANCH   1  32
BRANCH  11  45
HETATM   45  N7  UNL     1     -12.004  -2.215   0.051  1.00  0.00    -0.383 N 
ATOM     46  H72 UNL     1     -12.135  -3.129   0.485  1.00  0.00     0.157 HD
ATOM     47  H71 UNL     1     -11.067  -1.819  -0.032  1.00  0.00     0.157 HD
ENDBRANCH  11  45
TORSDOF 11
ENDMDL
MODEL 5
REMARK VINA RESULT: -7.527450509      3.573     10.331
REMARK  11 active torsions:
REMARK  status: ('A' for Active; 'I' for Inactive)
REMARK    1  A    between atoms: C2_2  and  O1_3 
REMARK    2  A    between atoms: C2_2  and  C3_5 
REMARK    3  A    between atoms: C3_5  and  O2_6 
REMARK    4  A    between atoms: C3_5  and  N1_8 
REMARK    5  A    between atoms: C6_11  and  N2_12 
REMARK    6  A    between atoms: N3_15  and  C8_16 
REMARK    7  A    between atoms: C9_18  and  C10_19 
REMARK       I    between atoms: C10_19  and  N4_21 
REMARK    8  A    between atoms: N4_21  and  C11_23 
REMARK    9  A    between atoms: C17_29  and  O5_30 
REMARK   10  A    between atoms: C18_32  and  O6_33 
REMARK   11  A    between atoms: C21_41  and  N7_42 
ROOT
HETATM    1  N2  UNL     1     -14.660   0.478  -1.960  1.00  0.00    -0.264 N 
HETATM    2  C7  UNL     1     -13.540   0.188  -1.224  1.00  0.00     0.336 A 
HETATM    3  O3  UNL     1     -12.646  -0.602  -1.672  1.00  0.00    -0.246 OA
HETATM    4  N3  UNL     1     -13.543   0.820  -0.053  1.00  0.00    -0.266 N 
HETATM    5  C19 UNL     1     -14.660   1.537   0.004  1.00  0.00     0.145 A 
HETATM    6  N5  UNL     1     -15.183   2.358   0.931  1.00  0.00    -0.336 N 
ATOM      7  H5  UNL     1     -14.679   2.520   1.803  1.00  0.00     0.168 HD
HETATM    8  C20 UNL     1     -16.349   2.963   0.724  1.00  0.00     0.183 A 
HETATM    9  N6  UNL     1     -17.059   2.794  -0.400  1.00  0.00    -0.337 N 
ATOM     10  H6  UNL     1     -17.950   3.275  -0.528  1.00  0.00     0.168 HD
HETATM   11  C21 UNL     1     -16.570   1.971  -1.368  1.00  0.00     0.131 A 
HETATM   12  C22 UNL     1     -15.367   1.332  -1.182  1.00  0.00     0.132 A 
ENDROOT
BRANCH   4  13
HETATM   13  C8  UNL     1     -12.522   0.716   0.920  1.00  0.00     0.190 C 
HETATM   14  S1  UNL     1     -13.065  -0.560   2.139  1.00  0.00    -0.123 SA
HETATM   15  C9  UNL     1     -12.048   0.072   3.532  1.00  0.00     0.172 C 
HETATM   16  C17 UNL     1     -11.697   1.453   3.115  1.00  0.00     0.172 C 
HETATM   17  C18 UNL     1     -12.312   1.837   1.834  1.00  0.00     0.181 C 
BRANCH  15  18
HETATM   18  C10 UNL     1     -10.861  -0.793   3.740  1.00  0.00     0.234 C 
HETATM   19  O4  UNL     1     -10.974  -1.776   4.498  1.00  0.00    -0.272 OA
HETATM   20  N4  UNL     1      -9.659  -0.455   3.064  1.00  0.00    -0.355 N 
ATOM     21  H4  UNL     1      -9.659   0.369   2.463  1.00  0.00     0.162 HD
BRANCH  20  22
HETATM   22  C11 UNL     1      -8.432  -1.218   3.181  1.00  0.00     0.084 C 
HETATM   23  C12 UNL     1      -7.567  -0.717   4.317  1.00  0.00     0.025 C 
HETATM   24  C13 UNL     1      -6.455  -1.752   4.493  1.00  0.00     0.002 C 
HETATM   25  C14 UNL     1      -5.600  -1.822   3.249  1.00  0.00     0.000 C 
HETATM   26  C15 UNL     1      -6.463  -2.122   2.059  1.00  0.00     0.002 C 
HETATM   27  C16 UNL     1      -7.622  -1.168   1.903  1.00  0.00     0.025 C 
ENDBRANCH  20  22
ENDBRANCH  15  18
BRANCH  16  28
HETATM   28  O5  UNL     1     -11.909   2.382   4.140  1.00  0.00    -0.391 OA
ATOM     29  H5  UNL     1     -11.122   2.541   4.646  1.00  0.00     0.210 HD
ENDBRANCH  16  28
BRANCH  17  30
HETATM   30  O6  UNL     1     -11.411   2.726   1.182  1.00  0.00    -0.390 OA
ATOM     31  H6  UNL     1     -11.896   3.525   1.013  1.00  0.00     0.210 HD
ENDBRANCH  17  30
ENDBRANCH   4  13
BRANCH   1  32
HETATM   32  C6  UNL     1     -15.015  -0.014  -3.261  1.00  0.00     0.003 C 
HETATM   33  C5  UNL     1     -15.388  -1.429  -3.446  1.00  0.00     0.073 C 
HETATM   34  C4  UNL     1     -16.577  -1.480  -4.458  1.00  0.00     0.130 C 
HETATM   35  N1  UNL     1     -15.916  -0.845  -5.666  1.00  0.00    -0.359 N 
HETATM   36  C24 UNL     1     -15.530   0.507  -5.538  1.00  0.00     0.130 C 
HETATM   37  C23 UNL     1     -14.396   0.627  -4.462  1.00  0.00     0.073 C 
BRANCH  35  38
HETATM   38  C3  UNL     1     -15.796  -1.660  -6.775  1.00  0.00     0.171 C 
BRANCH  38  39
HETATM   39  C2  UNL     1     -16.260  -2.962  -7.116  1.00  0.00     0.106 C 
HETATM   40  C1  UNL     1     -17.018  -3.289  -8.106  1.00  0.00     0.055 C 
BRANCH  39  41
HETATM   41  O1  UNL     1     -15.833  -4.052  -6.239  1.00  0.00    -0.357 OA
ATOM     42  H1  UNL     1     -15.843  -3.871  -5.307  1.00  0.00     0.217 HD
ENDBRANCH  39  41
ENDBRANCH  38  39
BRANCH  38  43
HETATM   43  O2  UNL     1     -15.082  -1.136  -7.798  1.00  0.00    -0.344 OA
ATOM     44  H2  UNL     1     -15.174  -0.190  -7.811  1.00  0.00     0.219 HD
ENDBRANCH  38  43
ENDBRANCH  35  38
ENDBRANCH   1  32
BRANCH  11  45
HETATM   45  N7  UNL     1     -17.225   1.794  -2.449  1.00  0.00    -0.383 N 
ATOM     46  H72 UNL     1     -17.842   2.529  -2.797  1.00  0.00     0.157 HD
ATOM     47  H71 UNL     1     -17.135   0.918  -2.965  1.00  0.00     0.157 HD
ENDBRANCH  11  45
TORSDOF 11
ENDMDL
