MODEL 1
REMARK VINA RESULT: -10.049247496      0.000      0.000
REMARK  7 active torsions:
REMARK  status: ('A' for Active; 'I' for Inactive)
REMARK    1  A    between atoms: C1_2  and  C2_4 
REMARK    2  A    between atoms: C6_10  and  N3_11 
REMARK    3  A    between atoms: N3_11  and  C7_13 
REMARK    4  A    between atoms: C8_16  and  C9_17 
REMARK    5  A    between atoms: C12_20  and  N5_21 
REMARK    6  A    between atoms: N5_21  and  C13_23 
REMARK    7  A    between atoms: C19_39  and  C20_40 
ROOT
HETATM    1  C7  UNL     1     -14.989   0.837   1.309  1.00  0.00     0.686 A 
HETATM    2  N4  UNL     1     -16.072   1.613   1.261  1.00  0.00    -0.190 N 
ATOM      3  H4  UNL     1     -16.586   1.778   2.126  1.00  0.00     0.184 HD
HETATM    4  C8  UNL     1     -16.535   2.202   0.106  1.00  0.00     0.081 A 
HETATM    5  C19 UNL     1     -15.846   1.974  -1.049  1.00  0.00     0.125 A 
HETATM    6  C21 UNL     1     -14.703   1.162  -1.004  1.00  0.00     0.277 A 
HETATM    7  O3  UNL     1     -14.072   0.963  -2.077  1.00  0.00    -0.267 OA
HETATM    8  N12 UNL     1     -14.322   0.629   0.161  1.00  0.00    -0.155 N 
ATOM      9  H12 UNL     1     -13.490   0.040   0.180  1.00  0.00     0.187 HD
ENDROOT
BRANCH   4  10
HETATM   10  C9  UNL     1     -17.747   3.000   0.221  1.00  0.00     0.008 A 
HETATM   11  C10 UNL     1     -19.029   2.600  -0.016  1.00  0.00     0.019 A 
HETATM   12  C11 UNL     1     -20.117   3.409   0.230  1.00  0.00     0.049 A 
HETATM   13  C12 UNL     1     -19.964   4.712   0.747  1.00  0.00     0.106 A 
HETATM   14  N10 UNL     1     -18.691   5.067   0.964  1.00  0.00    -0.351 N 
HETATM   15  C18 UNL     1     -17.617   4.307   0.736  1.00  0.00     0.103 A 
ATOM     16  H10 UNL     1     -18.527   6.003   1.335  1.00  0.00     0.166 HD
BRANCH  13  17
HETATM   17  N5  UNL     1     -21.059   5.497   1.014  1.00  0.00    -0.327 N 
ATOM     18  H5  UNL     1     -21.897   5.036   0.660  1.00  0.00     0.169 HD
BRANCH  17  19
HETATM   19  C13 UNL     1     -21.374   6.564   1.534  1.00  0.00     0.138 A 
HETATM   20  N6  UNL     1     -22.735   6.797   1.641  1.00  0.00    -0.337 N 
HETATM   21  C14 UNL     1     -23.238   7.905   2.181  1.00  0.00     0.183 A 
ATOM     22  H6  UNL     1     -23.380   6.090   1.290  1.00  0.00     0.168 HD
HETATM   23  N7  UNL     1     -22.433   8.873   2.659  1.00  0.00    -0.337 N 
HETATM   24  C15 UNL     1     -21.097   8.745   2.602  1.00  0.00     0.138 A 
ATOM     25  H7  UNL     1     -22.842   9.712   3.068  1.00  0.00     0.168 HD
HETATM   26  N8  UNL     1     -20.054   9.521   2.986  1.00  0.00    -0.337 N 
HETATM   27  C17 UNL     1     -20.591   7.580   2.036  1.00  0.00     0.122 A 
HETATM   28  C16 UNL     1     -18.943   8.864   2.670  1.00  0.00     0.182 A 
ATOM     29  H8  UNL     1     -20.112  10.435   3.433  1.00  0.00     0.168 HD
HETATM   30  N9  UNL     1     -19.255   7.696   2.097  1.00  0.00    -0.346 N 
ATOM     31  H9  UNL     1     -18.585   7.005   1.761  1.00  0.00     0.167 HD
ENDBRANCH  17  19
ENDBRANCH  13  17
ENDBRANCH   4  10
BRANCH   5  32
HETATM   32  C20 UNL     1     -16.267   2.336  -2.395  1.00  0.00     0.272 C 
HETATM   33  N11 UNL     1     -16.089   3.543  -3.073  1.00  0.00    -0.057 NA
HETATM   34  O2  UNL     1     -16.894   1.432  -3.031  1.00  0.00    -0.271 OA
ENDBRANCH   5  32
BRANCH   1  35
HETATM   35  N3  UNL     1     -14.509   0.291   2.371  1.00  0.00    -0.192 N 
ATOM     36  H3  UNL     1     -15.159  -0.156   3.019  1.00  0.00     0.184 HD
BRANCH  35  37
HETATM   37  C6  UNL     1     -13.140   0.275   2.687  1.00  0.00     0.050 A 
HETATM   38  C5  UNL     1     -12.382  -0.839   2.945  1.00  0.00     0.032 A 
HETATM   39  C4  UNL     1     -11.064  -0.837   3.253  1.00  0.00     0.033 A 
HETATM   40  C3  UNL     1     -10.362   0.385   3.327  1.00  0.00     0.050 A 
HETATM   41  N2  UNL     1      -9.101   0.539   3.610  1.00  0.00    -0.345 N 
HETATM   42  C23 UNL     1     -11.093   1.517   3.073  1.00  0.00     0.036 A 
HETATM   43  C2  UNL     1      -8.569   1.746   3.648  1.00  0.00     0.141 A 
ATOM     44  H2  UNL     1      -8.522  -0.278   3.805  1.00  0.00     0.167 HD
HETATM   45  S1  UNL     1      -9.904   2.738   3.263  1.00  0.00    -0.065 SA
HETATM   46  C22 UNL     1     -12.460   1.480   2.758  1.00  0.00     0.051 A 
BRANCH  43  47
HETATM   47  C1  UNL     1      -7.172   2.108   3.943  1.00  0.00     0.288 C 
HETATM   48  N1  UNL     1      -6.686   3.420   3.746  1.00  0.00    -0.055 NA
HETATM   49  O1  UNL     1      -6.446   1.179   4.381  1.00  0.00    -0.269 OA
ENDBRANCH  43  47
ENDBRANCH  35  37
ENDBRANCH   1  35
TORSDOF 7
ENDMDL
MODEL 2
REMARK VINA RESULT: -10.042263651      3.500     10.231
REMARK  7 active torsions:
REMARK  status: ('A' for Active; 'I' for Inactive)
REMARK    1  A    between atoms: C1_2  and  C2_4 
REMARK    2  A    between atoms: C6_10  and  N3_11 
REMARK    3  A    between atoms: N3_11  and  C7_13 
REMARK    4  A    between atoms: C8_16  and  C9_17 
REMARK    5  A    between atoms: C12_20  and  N5_21 
REMARK    6  A    between atoms: N5_21  and  C13_23 
REMARK    7  A    between atoms: C19_39  and  C20_40 
ROOT
HETATM    1  C7  UNL     1     -18.161   2.641  -0.143  1.00  0.00     0.686 A 
HETATM    2  N4  UNL     1     -17.103   2.650   0.666  1.00  0.00    -0.190 N 
ATOM      3  H4  UNL     1     -17.197   3.095   1.579  1.00  0.00     0.184 HD
HETATM    4  C8  UNL     1     -15.889   2.090   0.337  1.00  0.00     0.081 A 
HETATM    5  C19 UNL     1     -15.768   1.498  -0.885  1.00  0.00     0.125 A 
HETATM    6  C21 UNL     1     -16.879   1.483  -1.741  1.00  0.00     0.277 A 
HETATM    7  O3  UNL     1     -16.756   0.929  -2.867  1.00  0.00    -0.267 OA
HETATM    8  N12 UNL     1     -18.022   2.050  -1.342  1.00  0.00    -0.155 N 
ATOM      9  H12 UNL     1     -18.822   2.032  -1.974  1.00  0.00     0.187 HD
ENDROOT
BRANCH   4  10
HETATM   10  C9  UNL     1     -14.827   2.207   1.326  1.00  0.00     0.008 A 
HETATM   11  C10 UNL     1     -14.334   1.225   2.134  1.00  0.00     0.019 A 
HETATM   12  C11 UNL     1     -13.248   1.418   2.961  1.00  0.00     0.049 A 
HETATM   13  C12 UNL     1     -12.579   2.659   3.020  1.00  0.00     0.106 A 
HETATM   14  N10 UNL     1     -13.096   3.596   2.215  1.00  0.00    -0.351 N 
HETATM   15  C18 UNL     1     -14.145   3.440   1.403  1.00  0.00     0.103 A 
ATOM     16  H10 UNL     1     -12.649   4.513   2.223  1.00  0.00     0.166 HD
BRANCH  13  17
HETATM   17  N5  UNL     1     -11.482   2.829   3.828  1.00  0.00    -0.327 N 
ATOM     18  H5  UNL     1     -11.759   2.703   4.801  1.00  0.00     0.169 HD
BRANCH  17  19
HETATM   19  C13 UNL     1     -10.281   3.082   3.779  1.00  0.00     0.138 A 
HETATM   20  N6  UNL     1      -9.437   1.989   3.861  1.00  0.00    -0.337 N 
HETATM   21  C14 UNL     1      -8.111   2.095   3.821  1.00  0.00     0.183 A 
ATOM     22  H6  UNL     1      -9.849   1.060   3.956  1.00  0.00     0.168 HD
HETATM   23  N7  UNL     1      -7.513   3.295   3.698  1.00  0.00    -0.337 N 
HETATM   24  C15 UNL     1      -8.242   4.420   3.612  1.00  0.00     0.138 A 
ATOM     25  H7  UNL     1      -6.495   3.351   3.670  1.00  0.00     0.168 HD
HETATM   26  N8  UNL     1      -7.943   5.736   3.486  1.00  0.00    -0.337 N 
HETATM   27  C17 UNL     1      -9.626   4.288   3.654  1.00  0.00     0.122 A 
HETATM   28  C16 UNL     1      -9.095   6.396   3.451  1.00  0.00     0.182 A 
ATOM     29  H8  UNL     1      -7.009   6.142   3.428  1.00  0.00     0.168 HD
HETATM   30  N9  UNL     1     -10.114   5.534   3.552  1.00  0.00    -0.346 N 
ATOM     31  H9  UNL     1     -11.102   5.784   3.552  1.00  0.00     0.167 HD
ENDBRANCH  17  19
ENDBRANCH  13  17
ENDBRANCH   4  10
BRANCH   5  32
HETATM   32  C20 UNL     1     -14.536   1.026  -1.501  1.00  0.00     0.272 C 
HETATM   33  N11 UNL     1     -13.629   1.729  -2.297  1.00  0.00    -0.057 NA
HETATM   34  O2  UNL     1     -14.258  -0.197  -1.295  1.00  0.00    -0.271 OA
ENDBRANCH   5  32
BRANCH   1  35
HETATM   35  N3  UNL     1     -19.319   3.129   0.136  1.00  0.00    -0.192 N 
ATOM     36  H3  UNL     1     -20.141   2.552  -0.042  1.00  0.00     0.184 HD
BRANCH  35  37
HETATM   37  C6  UNL     1     -19.514   4.414   0.673  1.00  0.00     0.050 A 
HETATM   38  C5  UNL     1     -18.530   5.305   1.017  1.00  0.00     0.032 A 
HETATM   39  C4  UNL     1     -18.735   6.538   1.537  1.00  0.00     0.033 A 
HETATM   40  C3  UNL     1     -20.051   6.994   1.764  1.00  0.00     0.050 A 
HETATM   41  N2  UNL     1     -20.397   8.148   2.256  1.00  0.00    -0.345 N 
HETATM   42  C23 UNL     1     -21.057   6.124   1.429  1.00  0.00     0.036 A 
HETATM   43  C2  UNL     1     -21.671   8.448   2.418  1.00  0.00     0.141 A 
ATOM     44  H2  UNL     1     -19.679   8.823   2.517  1.00  0.00     0.167 HD
HETATM   45  S1  UNL     1     -22.447   7.037   1.851  1.00  0.00    -0.065 SA
HETATM   46  C22 UNL     1     -20.810   4.852   0.892  1.00  0.00     0.051 A 
BRANCH  43  47
HETATM   47  C1  UNL     1     -22.245   9.696   2.951  1.00  0.00     0.288 C 
HETATM   48  N1  UNL     1     -22.875  10.643   2.114  1.00  0.00    -0.055 NA
HETATM   49  O1  UNL     1     -22.139   9.860   4.194  1.00  0.00    -0.269 OA
ENDBRANCH  43  47
ENDBRANCH  35  37
ENDBRANCH   1  35
TORSDOF 7
ENDMDL
MODEL 3
REMARK VINA RESULT: -10.009943212      3.157      9.855
REMARK  7 active torsions:
REMARK  status: ('A' for Active; 'I' for Inactive)
REMARK    1  A    between atoms: C1_2  and  C2_4 
REMARK    2  A    between atoms: C6_10  and  N3_11 
REMARK    3  A    between atoms: N3_11  and  C7_13 
REMARK    4  A    between atoms: C8_16  and  C9_17 
REMARK    5  A    between atoms: C12_20  and  N5_21 
REMARK    6  A    between atoms: N5_21  and  C13_23 
REMARK    7  A    between atoms: C19_39  and  C20_40 
ROOT
HETATM    1  C7  UNL     1     -18.127   2.550  -0.438  1.00  0.00     0.686 A 
HETATM    2  N4  UNL     1     -17.078   2.542   0.383  1.00  0.00    -0.190 N 
ATOM      3  H4  UNL     1     -17.242   2.698   1.377  1.00  0.00     0.184 HD
HETATM    4  C8  UNL     1     -15.784   2.334  -0.038  1.00  0.00     0.081 A 
HETATM    5  C19 UNL     1     -15.569   2.129  -1.369  1.00  0.00     0.125 A 
HETATM    6  C21 UNL     1     -16.670   2.133  -2.239  1.00  0.00     0.277 A 
HETATM    7  O3  UNL     1     -16.460   1.938  -3.467  1.00  0.00    -0.267 OA
HETATM    8  N12 UNL     1     -17.895   2.342  -1.745  1.00  0.00    -0.155 N 
ATOM      9  H12 UNL     1     -18.687   2.343  -2.388  1.00  0.00     0.187 HD
ENDROOT
BRANCH   4  10
HETATM   10  C9  UNL     1     -14.749   2.381   0.985  1.00  0.00     0.008 A 
HETATM   11  C10 UNL     1     -14.128   1.325   1.585  1.00  0.00     0.019 A 
HETATM   12  C11 UNL     1     -13.080   1.482   2.466  1.00  0.00     0.049 A 
HETATM   13  C12 UNL     1     -12.586   2.761   2.802  1.00  0.00     0.106 A 
HETATM   14  N10 UNL     1     -13.225   3.769   2.195  1.00  0.00    -0.351 N 
HETATM   15  C18 UNL     1     -14.241   3.649   1.337  1.00  0.00     0.103 A 
ATOM     16  H10 UNL     1     -12.907   4.715   2.408  1.00  0.00     0.166 HD
BRANCH  13  17
HETATM   17  N5  UNL     1     -11.523   2.902   3.660  1.00  0.00    -0.327 N 
ATOM     18  H5  UNL     1     -11.844   2.760   4.618  1.00  0.00     0.169 HD
BRANCH  17  19
HETATM   19  C13 UNL     1     -10.319   3.140   3.669  1.00  0.00     0.138 A 
HETATM   20  N6  UNL     1      -9.492   2.032   3.740  1.00  0.00    -0.337 N 
HETATM   21  C14 UNL     1      -8.164   2.122   3.758  1.00  0.00     0.183 A 
ATOM     22  H6  UNL     1      -9.918   1.107   3.782  1.00  0.00     0.168 HD
HETATM   23  N7  UNL     1      -7.547   3.318   3.706  1.00  0.00    -0.337 N 
HETATM   24  C15 UNL     1      -8.259   4.455   3.636  1.00  0.00     0.138 A 
ATOM     25  H7  UNL     1      -6.529   3.361   3.721  1.00  0.00     0.168 HD
HETATM   26  N8  UNL     1      -7.939   5.771   3.575  1.00  0.00    -0.337 N 
HETATM   27  C17 UNL     1      -9.645   4.340   3.618  1.00  0.00     0.122 A 
HETATM   28  C16 UNL     1      -9.081   6.448   3.521  1.00  0.00     0.182 A 
ATOM     29  H8  UNL     1      -6.999   6.166   3.571  1.00  0.00     0.168 HD
HETATM   30  N9  UNL     1     -10.113   5.597   3.548  1.00  0.00    -0.346 N 
ATOM     31  H9  UNL     1     -11.098   5.860   3.518  1.00  0.00     0.167 HD
ENDBRANCH  17  19
ENDBRANCH  13  17
ENDBRANCH   4  10
BRANCH   5  32
HETATM   32  C20 UNL     1     -14.279   2.085  -2.043  1.00  0.00     0.272 C 
HETATM   33  N11 UNL     1     -13.550   3.134  -2.606  1.00  0.00    -0.057 NA
HETATM   34  O2  UNL     1     -13.755   0.932  -2.141  1.00  0.00    -0.271 OA
ENDBRANCH   5  32
BRANCH   1  35
HETATM   35  N3  UNL     1     -19.353   2.714  -0.082  1.00  0.00    -0.192 N 
ATOM     36  H3  UNL     1     -19.995   1.928  -0.189  1.00  0.00     0.184 HD
BRANCH  35  37
HETATM   37  C6  UNL     1     -19.857   3.914   0.448  1.00  0.00     0.050 A 
HETATM   38  C5  UNL     1     -21.180   4.256   0.564  1.00  0.00     0.032 A 
HETATM   39  C4  UNL     1     -21.649   5.419   1.072  1.00  0.00     0.033 A 
HETATM   40  C3  UNL     1     -20.744   6.397   1.537  1.00  0.00     0.050 A 
HETATM   41  N2  UNL     1     -21.048   7.554   2.047  1.00  0.00    -0.345 N 
HETATM   42  C23 UNL     1     -19.413   6.084   1.435  1.00  0.00     0.036 A 
HETATM   43  C2  UNL     1     -20.098   8.380   2.443  1.00  0.00     0.141 A 
ATOM     44  H2  UNL     1     -22.027   7.825   2.142  1.00  0.00     0.167 HD
HETATM   45  S1  UNL     1     -18.683   7.493   2.086  1.00  0.00    -0.065 SA
HETATM   46  C22 UNL     1     -18.960   4.868   0.901  1.00  0.00     0.051 A 
BRANCH  43  47
HETATM   47  C1  UNL     1     -20.253   9.716   3.042  1.00  0.00     0.288 C 
HETATM   48  N1  UNL     1     -19.683  10.867   2.455  1.00  0.00    -0.055 NA
HETATM   49  O1  UNL     1     -20.924   9.765   4.105  1.00  0.00    -0.269 OA
ENDBRANCH  43  47
ENDBRANCH  35  37
ENDBRANCH   1  35
TORSDOF 7
ENDMDL
MODEL 4
REMARK VINA RESULT: -9.944851663      3.381     10.084
REMARK  7 active torsions:
REMARK  status: ('A' for Active; 'I' for Inactive)
REMARK    1  A    between atoms: C1_2  and  C2_4 
REMARK    2  A    between atoms: C6_10  and  N3_11 
REMARK    3  A    between atoms: N3_11  and  C7_13 
REMARK    4  A    between atoms: C8_16  and  C9_17 
REMARK    5  A    between atoms: C12_20  and  N5_21 
REMARK    6  A    between atoms: N5_21  and  C13_23 
REMARK    7  A    between atoms: C19_39  and  C20_40 
ROOT
HETATM    1  C7  UNL     1     -17.773   1.744  -0.257  1.00  0.00     0.686 A 
HETATM    2  N4  UNL     1     -16.755   1.977   0.571  1.00  0.00    -0.190 N 
ATOM      3  H4  UNL     1     -16.875   2.686   1.295  1.00  0.00     0.184 HD
HETATM    4  C8  UNL     1     -15.551   1.313   0.503  1.00  0.00     0.081 A 
HETATM    5  C19 UNL     1     -15.396   0.369  -0.469  1.00  0.00     0.125 A 
HETATM    6  C21 UNL     1     -16.464   0.117  -1.342  1.00  0.00     0.277 A 
HETATM    7  O3  UNL     1     -16.310  -0.762  -2.234  1.00  0.00    -0.267 OA
HETATM    8  N12 UNL     1     -17.601   0.807  -1.205  1.00  0.00    -0.155 N 
ATOM      9  H12 UNL     1     -18.370   0.614  -1.846  1.00  0.00     0.187 HD
ENDROOT
BRANCH   4  10
HETATM   10  C9  UNL     1     -14.534   1.705   1.468  1.00  0.00     0.008 A 
HETATM   11  C10 UNL     1     -14.121   1.010   2.566  1.00  0.00     0.019 A 
HETATM   12  C11 UNL     1     -13.070   1.422   3.355  1.00  0.00     0.049 A 
HETATM   13  C12 UNL     1     -12.353   2.604   3.068  1.00  0.00     0.106 A 
HETATM   14  N10 UNL     1     -12.792   3.258   1.985  1.00  0.00    -0.351 N 
HETATM   15  C18 UNL     1     -13.806   2.884   1.201  1.00  0.00     0.103 A 
ATOM     16  H10 UNL     1     -12.308   4.121   1.737  1.00  0.00     0.166 HD
BRANCH  13  17
HETATM   17  N5  UNL     1     -11.290   2.989   3.847  1.00  0.00    -0.327 N 
ATOM     18  H5  UNL     1     -11.599   3.081   4.815  1.00  0.00     0.169 HD
BRANCH  17  19
HETATM   19  C13 UNL     1     -10.095   3.262   3.776  1.00  0.00     0.138 A 
HETATM   20  N6  UNL     1      -9.231   2.182   3.850  1.00  0.00    -0.337 N 
HETATM   21  C14 UNL     1      -7.908   2.310   3.788  1.00  0.00     0.183 A 
ATOM     22  H6  UNL     1      -9.626   1.248   3.958  1.00  0.00     0.168 HD
HETATM   23  N7  UNL     1      -7.332   3.519   3.648  1.00  0.00    -0.337 N 
HETATM   24  C15 UNL     1      -8.081   4.631   3.568  1.00  0.00     0.138 A 
ATOM     25  H7  UNL     1      -6.316   3.591   3.603  1.00  0.00     0.168 HD
HETATM   26  N8  UNL     1      -7.806   5.951   3.430  1.00  0.00    -0.337 N 
HETATM   27  C17 UNL     1      -9.462   4.476   3.634  1.00  0.00     0.122 A 
HETATM   28  C16 UNL     1      -8.969   6.592   3.411  1.00  0.00     0.182 A 
ATOM     29  H8  UNL     1      -6.880   6.372   3.354  1.00  0.00     0.168 HD
HETATM   30  N9  UNL     1      -9.971   5.714   3.533  1.00  0.00    -0.346 N 
ATOM     31  H9  UNL     1     -10.964   5.948   3.549  1.00  0.00     0.167 HD
ENDBRANCH  17  19
ENDBRANCH  13  17
ENDBRANCH   4  10
BRANCH   5  32
HETATM   32  C20 UNL     1     -14.157  -0.301  -0.836  1.00  0.00     0.272 C 
HETATM   33  N11 UNL     1     -13.680  -1.547  -0.422  1.00  0.00    -0.057 NA
HETATM   34  O2  UNL     1     -13.402   0.343  -1.630  1.00  0.00    -0.271 OA
ENDBRANCH   5  32
BRANCH   1  35
HETATM   35  N3  UNL     1     -18.921   2.323  -0.210  1.00  0.00    -0.192 N 
ATOM     36  H3  UNL     1     -19.729   1.823  -0.583  1.00  0.00     0.184 HD
BRANCH  35  37
HETATM   37  C6  UNL     1     -19.126   3.606   0.327  1.00  0.00     0.050 A 
HETATM   38  C5  UNL     1     -18.148   4.500   0.680  1.00  0.00     0.032 A 
HETATM   39  C4  UNL     1     -18.361   5.731   1.201  1.00  0.00     0.033 A 
HETATM   40  C3  UNL     1     -19.681   6.182   1.419  1.00  0.00     0.050 A 
HETATM   41  N2  UNL     1     -20.035   7.334   1.910  1.00  0.00    -0.345 N 
HETATM   42  C23 UNL     1     -20.681   5.309   1.075  1.00  0.00     0.036 A 
HETATM   43  C2  UNL     1     -21.312   7.629   2.063  1.00  0.00     0.141 A 
ATOM     44  H2  UNL     1     -19.322   8.012   2.178  1.00  0.00     0.167 HD
HETATM   45  S1  UNL     1     -22.078   6.215   1.487  1.00  0.00    -0.065 SA
HETATM   46  C22 UNL     1     -20.425   4.039   0.537  1.00  0.00     0.051 A 
BRANCH  43  47
HETATM   47  C1  UNL     1     -21.895   8.873   2.593  1.00  0.00     0.288 C 
HETATM   48  N1  UNL     1     -21.380   9.504   3.748  1.00  0.00    -0.055 NA
HETATM   49  O1  UNL     1     -22.874   9.335   1.954  1.00  0.00    -0.269 OA
ENDBRANCH  43  47
ENDBRANCH  35  37
ENDBRANCH   1  35
TORSDOF 7
ENDMDL
MODEL 5
REMARK VINA RESULT: -9.926614566      3.282     10.225
REMARK  7 active torsions:
REMARK  status: ('A' for Active; 'I' for Inactive)
REMARK    1  A    between atoms: C1_2  and  C2_4 
REMARK    2  A    between atoms: C6_10  and  N3_11 
REMARK    3  A    between atoms: N3_11  and  C7_13 
REMARK    4  A    between atoms: C8_16  and  C9_17 
REMARK    5  A    between atoms: C12_20  and  N5_21 
REMARK    6  A    between atoms: N5_21  and  C13_23 
REMARK    7  A    between atoms: C19_39  and  C20_40 
ROOT
HETATM    1  C7  UNL     1     -17.789   1.746  -0.241  1.00  0.00     0.686 A 
HETATM    2  N4  UNL     1     -16.771   1.979   0.586  1.00  0.00    -0.190 N 
ATOM      3  H4  UNL     1     -16.885   2.701   1.298  1.00  0.00     0.184 HD
HETATM    4  C8  UNL     1     -15.575   1.300   0.532  1.00  0.00     0.081 A 
HETATM    5  C19 UNL     1     -15.429   0.338  -0.424  1.00  0.00     0.125 A 
HETATM    6  C21 UNL     1     -16.498   0.085  -1.296  1.00  0.00     0.277 A 
HETATM    7  O3  UNL     1     -16.352  -0.809  -2.172  1.00  0.00    -0.267 OA
HETATM    8  N12 UNL     1     -17.626   0.791  -1.173  1.00  0.00    -0.155 N 
ATOM      9  H12 UNL     1     -18.396   0.597  -1.813  1.00  0.00     0.187 HD
ENDROOT
BRANCH   4  10
HETATM   10  C9  UNL     1     -14.556   1.695   1.494  1.00  0.00     0.008 A 
HETATM   11  C10 UNL     1     -14.106   0.981   2.565  1.00  0.00     0.019 A 
HETATM   12  C11 UNL     1     -13.056   1.403   3.351  1.00  0.00     0.049 A 
HETATM   13  C12 UNL     1     -12.380   2.614   3.089  1.00  0.00     0.106 A 
HETATM   14  N10 UNL     1     -12.855   3.286   2.032  1.00  0.00    -0.351 N 
HETATM   15  C18 UNL     1     -13.869   2.903   1.252  1.00  0.00     0.103 A 
ATOM     16  H10 UNL     1     -12.401   4.170   1.803  1.00  0.00     0.166 HD
BRANCH  13  17
HETATM   17  N5  UNL     1     -11.317   3.010   3.864  1.00  0.00    -0.327 N 
ATOM     18  H5  UNL     1     -11.529   2.823   4.844  1.00  0.00     0.169 HD
BRANCH  17  19
HETATM   19  C13 UNL     1     -10.200   3.511   3.780  1.00  0.00     0.138 A 
HETATM   20  N6  UNL     1     -10.173   4.877   3.559  1.00  0.00    -0.337 N 
HETATM   21  C14 UNL     1      -9.042   5.569   3.446  1.00  0.00     0.183 A 
ATOM     22  H6  UNL     1     -11.060   5.376   3.479  1.00  0.00     0.168 HD
HETATM   23  N7  UNL     1      -7.844   4.962   3.541  1.00  0.00    -0.337 N 
HETATM   24  C15 UNL     1      -7.759   3.639   3.754  1.00  0.00     0.138 A 
ATOM     25  H7  UNL     1      -6.991   5.514   3.451  1.00  0.00     0.168 HD
HETATM   26  N8  UNL     1      -6.732   2.765   3.891  1.00  0.00    -0.337 N 
HETATM   27  C17 UNL     1      -8.952   2.934   3.871  1.00  0.00     0.122 A 
HETATM   28  C16 UNL     1      -7.265   1.564   4.086  1.00  0.00     0.182 A 
ATOM     29  H8  UNL     1      -5.738   2.988   3.853  1.00  0.00     0.168 HD
HETATM   30  N9  UNL     1      -8.600   1.655   4.074  1.00  0.00    -0.346 N 
ATOM     31  H9  UNL     1      -9.247   0.876   4.200  1.00  0.00     0.167 HD
ENDBRANCH  17  19
ENDBRANCH  13  17
ENDBRANCH   4  10
BRANCH   5  32
HETATM   32  C20 UNL     1     -14.197  -0.353  -0.776  1.00  0.00     0.272 C 
HETATM   33  N11 UNL     1     -13.745  -1.605  -0.355  1.00  0.00    -0.057 NA
HETATM   34  O2  UNL     1     -13.424   0.278  -1.563  1.00  0.00    -0.271 OA
ENDBRANCH   5  32
BRANCH   1  35
HETATM   35  N3  UNL     1     -18.931   2.339  -0.206  1.00  0.00    -0.192 N 
ATOM     36  H3  UNL     1     -19.740   1.851  -0.591  1.00  0.00     0.184 HD
BRANCH  35  37
HETATM   37  C6  UNL     1     -19.126   3.623   0.332  1.00  0.00     0.050 A 
HETATM   38  C5  UNL     1     -18.141   4.514   0.675  1.00  0.00     0.032 A 
HETATM   39  C4  UNL     1     -18.345   5.746   1.197  1.00  0.00     0.033 A 
HETATM   40  C3  UNL     1     -19.661   6.202   1.428  1.00  0.00     0.050 A 
HETATM   41  N2  UNL     1     -20.007   7.355   1.921  1.00  0.00    -0.345 N 
HETATM   42  C23 UNL     1     -20.667   5.332   1.094  1.00  0.00     0.036 A 
HETATM   43  C2  UNL     1     -21.281   7.654   2.087  1.00  0.00     0.141 A 
ATOM     44  H2  UNL     1     -19.289   8.031   2.182  1.00  0.00     0.167 HD
HETATM   45  S1  UNL     1     -22.057   6.243   1.520  1.00  0.00    -0.065 SA
HETATM   46  C22 UNL     1     -20.421   4.061   0.555  1.00  0.00     0.051 A 
BRANCH  43  47
HETATM   47  C1  UNL     1     -21.854   8.901   2.622  1.00  0.00     0.288 C 
HETATM   48  N1  UNL     1     -21.311   9.543   3.757  1.00  0.00    -0.055 NA
HETATM   49  O1  UNL     1     -22.852   9.354   2.006  1.00  0.00    -0.269 OA
ENDBRANCH  43  47
ENDBRANCH  35  37
ENDBRANCH   1  35
TORSDOF 7
ENDMDL
