MODEL 1
REMARK VINA RESULT: -6.727538348      0.000      0.000
REMARK  10 active torsions:
REMARK  status: ('A' for Active; 'I' for Inactive)
REMARK    1  A    between atoms: C2_2  and  S1_3 
REMARK    2  A    between atoms: C2_2  and  C12_19 
REMARK    3  A    between atoms: S1_3  and  C3_4 
REMARK    4  A    between atoms: C3_4  and  O1_5 
REMARK    5  A    between atoms: C3_4  and  N1_7 
REMARK    6  A    between atoms: N2_10  and  S2_11 
REMARK    7  A    between atoms: S2_11  and  C6_13 
REMARK       I    between atoms: C12_19  and  N3_21 
REMARK    8  A    between atoms: N3_21  and  C13_23 
REMARK    9  A    between atoms: C15_25  and  N4_26 
REMARK   10  A    between atoms: C18_34  and  N7_35 
ROOT
HETATM    1  C12 UNL     1     -13.876  -3.095  -2.347  1.00  0.00     0.236 C 
HETATM    2  O3  UNL     1     -12.690  -2.731  -2.456  1.00  0.00    -0.272 OA
HETATM    3  N3  UNL     1     -14.701  -2.615  -1.330  1.00  0.00    -0.323 N 
ATOM      4  H3  UNL     1     -15.653  -2.979  -1.340  1.00  0.00     0.169 HD
ENDROOT
BRANCH   3   5
HETATM    5  C13 UNL     1     -14.423  -1.703  -0.289  1.00  0.00     0.079 A 
HETATM    6  C14 UNL     1     -13.275  -1.697   0.471  1.00  0.00     0.071 A 
HETATM    7  C15 UNL     1     -13.100  -0.767   1.463  1.00  0.00     0.144 A 
HETATM    8  C19 UNL     1     -14.061   0.166   1.712  1.00  0.00     0.276 A 
HETATM    9  O5  UNL     1     -13.900   1.033   2.635  1.00  0.00    -0.266 OA
HETATM   10  N8  UNL     1     -15.157   0.140   0.966  1.00  0.00    -0.308 N 
HETATM   11  C20 UNL     1     -15.387  -0.737  -0.012  1.00  0.00     0.146 A 
ATOM     12  H8  UNL     1     -15.875   0.839   1.155  1.00  0.00     0.170 HD
HETATM   13  N9  UNL     1     -16.612  -0.682  -0.769  1.00  0.00    -0.080 NA
BRANCH   7  14
HETATM   14  N4  UNL     1     -11.898  -0.780   2.243  1.00  0.00    -0.081 N 
HETATM   15  N5  UNL     1     -11.886  -1.308   3.460  1.00  0.00    -0.285 N 
HETATM   16  C16 UNL     1     -10.758  -1.317   4.188  1.00  0.00     0.183 A 
ATOM     17  H5  UNL     1     -12.741  -1.710   3.846  1.00  0.00     0.187 HD
HETATM   18  C17 UNL     1      -9.610  -0.770   3.656  1.00  0.00     0.276 A 
HETATM   19  O4  UNL     1      -8.557  -0.774   4.326  1.00  0.00    -0.266 OA
HETATM   20  N6  UNL     1      -9.622  -0.234   2.424  1.00  0.00    -0.153 N 
HETATM   21  C18 UNL     1     -10.784  -0.245   1.716  1.00  0.00     0.700 A 
ATOM     22  H6  UNL     1      -8.775   0.173   2.027  1.00  0.00     0.187 HD
BRANCH  21  23
HETATM   23  N7  UNL     1     -10.805   0.269   0.525  1.00  0.00    -0.233 N 
ATOM     24  H72 UNL     1     -11.193  -0.275  -0.245  1.00  0.00     0.174 HD
ATOM     25  H71 UNL     1     -10.437   1.206   0.362  1.00  0.00     0.174 HD
ENDBRANCH  21  23
ENDBRANCH   7  14
ENDBRANCH   3   5
BRANCH   1  26
HETATM   26  C2  UNL     1     -14.373  -4.083  -3.375  1.00  0.00     0.144 C 
HETATM   27  C1  UNL     1     -13.161  -4.879  -3.851  1.00  0.00     0.032 C 
BRANCH  26  28
HETATM   28  S1  UNL     1     -15.061  -3.257  -4.791  1.00  0.00    -0.073 SA
BRANCH  28  29
HETATM   29  C3  UNL     1     -16.026  -1.852  -4.417  1.00  0.00     0.178 C 
BRANCH  29  30
HETATM   30  O1  UNL     1     -17.272  -2.142  -4.102  1.00  0.00    -0.341 OA
ATOM     31  H1  UNL     1     -17.659  -1.527  -3.490  1.00  0.00     0.220 HD
ENDBRANCH  29  30
BRANCH  29  32
HETATM   32  N1  UNL     1     -15.691  -0.500  -4.394  1.00  0.00    -0.353 N 
HETATM   33  C4  UNL     1     -14.264  -0.146  -4.563  1.00  0.00     0.146 C 
HETATM   34  C5  UNL     1     -13.807   0.451  -3.257  1.00  0.00     0.152 C 
HETATM   35  N2  UNL     1     -14.718   1.474  -2.856  1.00  0.00    -0.328 N 
HETATM   36  C10 UNL     1     -15.691   1.861  -3.798  1.00  0.00     0.152 C 
HETATM   37  C11 UNL     1     -16.552   0.613  -4.177  1.00  0.00     0.146 C 
BRANCH  35  38
HETATM   38  S2  UNL     1     -14.156   2.625  -1.766  1.00  0.00     0.120 S 
HETATM   39  O2  UNL     1     -12.998   2.009  -0.714  1.00  0.00    -0.235 OA
BRANCH  38  40
HETATM   40  C6  UNL     1     -15.405   3.533  -0.938  1.00  0.00     0.046 C 
HETATM   41  C7  UNL     1     -16.749   2.839  -0.907  1.00  0.00     0.030 C 
HETATM   42  C8  UNL     1     -15.005   3.769   0.515  1.00  0.00     0.030 C 
HETATM   43  C9  UNL     1     -15.571   4.875  -1.583  1.00  0.00     0.030 C 
ENDBRANCH  38  40
ENDBRANCH  35  38
ENDBRANCH  29  32
ENDBRANCH  28  29
ENDBRANCH  26  28
ENDBRANCH   1  26
TORSDOF 10
ENDMDL
MODEL 2
REMARK VINA RESULT: -6.662177746      3.297      7.575
REMARK  10 active torsions:
REMARK  status: ('A' for Active; 'I' for Inactive)
REMARK    1  A    between atoms: C2_2  and  S1_3 
REMARK    2  A    between atoms: C2_2  and  C12_19 
REMARK    3  A    between atoms: S1_3  and  C3_4 
REMARK    4  A    between atoms: C3_4  and  O1_5 
REMARK    5  A    between atoms: C3_4  and  N1_7 
REMARK    6  A    between atoms: N2_10  and  S2_11 
REMARK    7  A    between atoms: S2_11  and  C6_13 
REMARK       I    between atoms: C12_19  and  N3_21 
REMARK    8  A    between atoms: N3_21  and  C13_23 
REMARK    9  A    between atoms: C15_25  and  N4_26 
REMARK   10  A    between atoms: C18_34  and  N7_35 
ROOT
HETATM    1  C12 UNL     1     -12.612   2.621   2.124  1.00  0.00     0.236 C 
HETATM    2  O3  UNL     1     -12.600   3.859   2.252  1.00  0.00    -0.272 OA
HETATM    3  N3  UNL     1     -13.439   1.986   1.197  1.00  0.00    -0.323 N 
ATOM      4  H3  UNL     1     -13.363   0.970   1.178  1.00  0.00     0.169 HD
ENDROOT
BRANCH   3   5
HETATM    5  C13 UNL     1     -14.364   2.532   0.283  1.00  0.00     0.079 A 
HETATM    6  C14 UNL     1     -15.682   2.815   0.565  1.00  0.00     0.071 A 
HETATM    7  C15 UNL     1     -16.503   3.345  -0.397  1.00  0.00     0.144 A 
HETATM    8  C19 UNL     1     -16.027   3.598  -1.648  1.00  0.00     0.276 A 
HETATM    9  O5  UNL     1     -16.790   4.091  -2.544  1.00  0.00    -0.266 OA
HETATM   10  N8  UNL     1     -14.755   3.316  -1.895  1.00  0.00    -0.308 N 
HETATM   11  C20 UNL     1     -13.906   2.801  -1.005  1.00  0.00     0.146 A 
ATOM     12  H8  UNL     1     -14.402   3.506  -2.833  1.00  0.00     0.170 HD
HETATM   13  N9  UNL     1     -12.539   2.531  -1.370  1.00  0.00    -0.080 NA
BRANCH   7  14
HETATM   14  N4  UNL     1     -17.871   3.632  -0.081  1.00  0.00    -0.081 N 
HETATM   15  N5  UNL     1     -18.845   2.844  -0.517  1.00  0.00    -0.285 N 
HETATM   16  C16 UNL     1     -20.126   3.117  -0.220  1.00  0.00     0.183 A 
ATOM     17  H5  UNL     1     -18.620   2.026  -1.083  1.00  0.00     0.187 HD
HETATM   18  C17 UNL     1     -20.418   4.226   0.543  1.00  0.00     0.276 A 
HETATM   19  O4  UNL     1     -21.606   4.488   0.823  1.00  0.00    -0.266 OA
HETATM   20  N6  UNL     1     -19.431   5.025   0.984  1.00  0.00    -0.153 N 
HETATM   21  C18 UNL     1     -18.145   4.715   0.664  1.00  0.00     0.700 A 
ATOM     22  H6  UNL     1     -19.642   5.848   1.549  1.00  0.00     0.187 HD
BRANCH  21  23
HETATM   23  N7  UNL     1     -17.186   5.479   1.086  1.00  0.00    -0.233 N 
ATOM     24  H72 UNL     1     -16.315   5.055   1.404  1.00  0.00     0.174 HD
ATOM     25  H71 UNL     1     -17.302   6.492   1.100  1.00  0.00     0.174 HD
ENDBRANCH  21  23
ENDBRANCH   7  14
ENDBRANCH   3   5
BRANCH   1  26
HETATM   26  C2  UNL     1     -11.682   1.843   3.024  1.00  0.00     0.144 C 
HETATM   27  C1  UNL     1     -10.564   2.796   3.440  1.00  0.00     0.032 C 
BRANCH  26  28
HETATM   28  S1  UNL     1     -10.932   0.479   2.165  1.00  0.00    -0.073 SA
BRANCH  28  29
HETATM   29  C3  UNL     1     -11.848  -1.005   2.216  1.00  0.00     0.178 C 
BRANCH  29  30
HETATM   30  O1  UNL     1     -11.597  -1.738   3.281  1.00  0.00    -0.341 OA
ATOM     31  H1  UNL     1     -12.224  -2.439   3.413  1.00  0.00     0.220 HD
ENDBRANCH  29  30
BRANCH  29  32
HETATM   32  N1  UNL     1     -12.789  -1.523   1.328  1.00  0.00    -0.353 N 
HETATM   33  C4  UNL     1     -12.288  -2.092   0.057  1.00  0.00     0.146 C 
HETATM   34  C5  UNL     1     -12.792  -1.198  -1.047  1.00  0.00     0.152 C 
HETATM   35  N2  UNL     1     -14.197  -1.002  -0.897  1.00  0.00    -0.328 N 
HETATM   36  C10 UNL     1     -14.851  -1.801   0.063  1.00  0.00     0.152 C 
HETATM   37  C11 UNL     1     -14.206  -1.537   1.462  1.00  0.00     0.146 C 
BRANCH  35  38
HETATM   38  S2  UNL     1     -15.060  -0.520  -2.259  1.00  0.00     0.120 S 
HETATM   39  O2  UNL     1     -16.583   0.081  -1.880  1.00  0.00    -0.235 OA
BRANCH  38  40
HETATM   40  C6  UNL     1     -15.100  -1.691  -3.562  1.00  0.00     0.046 C 
HETATM   41  C7  UNL     1     -14.739  -3.096  -3.135  1.00  0.00     0.030 C 
HETATM   42  C8  UNL     1     -16.504  -1.765  -4.155  1.00  0.00     0.030 C 
HETATM   43  C9  UNL     1     -14.171  -1.265  -4.657  1.00  0.00     0.030 C 
ENDBRANCH  38  40
ENDBRANCH  35  38
ENDBRANCH  29  32
ENDBRANCH  28  29
ENDBRANCH  26  28
ENDBRANCH   1  26
TORSDOF 10
ENDMDL
MODEL 3
REMARK VINA RESULT: -6.620798333      3.151      7.800
REMARK  10 active torsions:
REMARK  status: ('A' for Active; 'I' for Inactive)
REMARK    1  A    between atoms: C2_2  and  S1_3 
REMARK    2  A    between atoms: C2_2  and  C12_19 
REMARK    3  A    between atoms: S1_3  and  C3_4 
REMARK    4  A    between atoms: C3_4  and  O1_5 
REMARK    5  A    between atoms: C3_4  and  N1_7 
REMARK    6  A    between atoms: N2_10  and  S2_11 
REMARK    7  A    between atoms: S2_11  and  C6_13 
REMARK       I    between atoms: C12_19  and  N3_21 
REMARK    8  A    between atoms: N3_21  and  C13_23 
REMARK    9  A    between atoms: C15_25  and  N4_26 
REMARK   10  A    between atoms: C18_34  and  N7_35 
ROOT
HETATM    1  C12 UNL     1     -17.488   3.250  -0.644  1.00  0.00     0.236 C 
HETATM    2  O3  UNL     1     -18.388   2.437  -0.928  1.00  0.00    -0.272 OA
HETATM    3  N3  UNL     1     -16.433   3.513  -1.518  1.00  0.00    -0.323 N 
ATOM      4  H3  UNL     1     -15.757   4.198  -1.183  1.00  0.00     0.169 HD
ENDROOT
BRANCH   3   5
HETATM    5  C13 UNL     1     -16.157   2.978  -2.794  1.00  0.00     0.079 A 
HETATM    6  C14 UNL     1     -16.046   1.636  -3.082  1.00  0.00     0.071 A 
HETATM    7  C15 UNL     1     -15.772   1.217  -4.359  1.00  0.00     0.144 A 
HETATM    8  C19 UNL     1     -15.605   2.124  -5.362  1.00  0.00     0.276 A 
HETATM    9  O5  UNL     1     -15.351   1.735  -6.551  1.00  0.00    -0.266 OA
HETATM   10  N8  UNL     1     -15.717   3.409  -5.060  1.00  0.00    -0.308 N 
HETATM   11  C20 UNL     1     -15.981   3.881  -3.840  1.00  0.00     0.146 A 
ATOM     12  H8  UNL     1     -15.591   4.086  -5.813  1.00  0.00     0.170 HD
HETATM   13  N9  UNL     1     -16.085   5.300  -3.612  1.00  0.00    -0.080 NA
BRANCH   7  14
HETATM   14  N4  UNL     1     -15.660  -0.185  -4.636  1.00  0.00    -0.081 N 
HETATM   15  N5  UNL     1     -16.661  -0.843  -5.205  1.00  0.00    -0.285 N 
HETATM   16  C16 UNL     1     -16.553  -2.157  -5.462  1.00  0.00     0.183 A 
ATOM     17  H5  UNL     1     -17.520  -0.349  -5.448  1.00  0.00     0.187 HD
HETATM   18  C17 UNL     1     -15.389  -2.814  -5.128  1.00  0.00     0.276 A 
HETATM   19  O4  UNL     1     -15.281  -4.035  -5.363  1.00  0.00    -0.266 OA
HETATM   20  N6  UNL     1     -14.375  -2.147  -4.551  1.00  0.00    -0.153 N 
HETATM   21  C18 UNL     1     -14.521  -0.816  -4.307  1.00  0.00     0.700 A 
ATOM     22  H6  UNL     1     -13.512  -2.629  -4.301  1.00  0.00     0.187 HD
BRANCH  21  23
HETATM   23  N7  UNL     1     -13.547  -0.163  -3.752  1.00  0.00    -0.233 N 
ATOM     24  H72 UNL     1     -12.750   0.118  -4.321  1.00  0.00     0.174 HD
ATOM     25  H71 UNL     1     -13.580   0.065  -2.759  1.00  0.00     0.174 HD
ENDBRANCH  21  23
ENDBRANCH   7  14
ENDBRANCH   3   5
BRANCH   1  26
HETATM   26  C2  UNL     1     -17.601   3.937   0.696  1.00  0.00     0.144 C 
HETATM   27  C1  UNL     1     -18.960   4.631   0.728  1.00  0.00     0.032 C 
BRANCH  26  28
HETATM   28  S1  UNL     1     -16.354   5.189   0.893  1.00  0.00    -0.073 SA
BRANCH  28  29
HETATM   29  C3  UNL     1     -14.874   4.632   1.630  1.00  0.00     0.178 C 
BRANCH  29  30
HETATM   30  O1  UNL     1     -14.166   5.599   2.177  1.00  0.00    -0.341 OA
ATOM     31  H1  UNL     1     -13.335   5.750   1.743  1.00  0.00     0.220 HD
ENDBRANCH  29  30
BRANCH  29  32
HETATM   32  N1  UNL     1     -14.337   3.350   1.735  1.00  0.00    -0.353 N 
HETATM   33  C4  UNL     1     -13.178   3.023   0.875  1.00  0.00     0.146 C 
HETATM   34  C5  UNL     1     -13.645   1.975  -0.102  1.00  0.00     0.152 C 
HETATM   35  N2  UNL     1     -14.287   0.915   0.606  1.00  0.00    -0.328 N 
HETATM   36  C10 UNL     1     -14.181   0.936   2.011  1.00  0.00     0.152 C 
HETATM   37  C11 UNL     1     -14.794   2.272   2.544  1.00  0.00     0.146 C 
BRANCH  35  38
HETATM   38  S2  UNL     1     -14.397  -0.575  -0.167  1.00  0.00     0.120 S 
HETATM   39  O2  UNL     1     -15.831  -1.379   0.180  1.00  0.00    -0.235 OA
BRANCH  38  40
HETATM   40  C6  UNL     1     -12.988  -1.603   0.004  1.00  0.00     0.046 C 
HETATM   41  C7  UNL     1     -11.679  -0.846   0.058  1.00  0.00     0.030 C 
HETATM   42  C8  UNL     1     -13.079  -2.405   1.300  1.00  0.00     0.030 C 
HETATM   43  C9  UNL     1     -12.932  -2.583  -1.128  1.00  0.00     0.030 C 
ENDBRANCH  38  40
ENDBRANCH  35  38
ENDBRANCH  29  32
ENDBRANCH  28  29
ENDBRANCH  26  28
ENDBRANCH   1  26
TORSDOF 10
ENDMDL
MODEL 4
REMARK VINA RESULT: -6.609309826      3.175      7.916
REMARK  10 active torsions:
REMARK  status: ('A' for Active; 'I' for Inactive)
REMARK    1  A    between atoms: C2_2  and  S1_3 
REMARK    2  A    between atoms: C2_2  and  C12_19 
REMARK    3  A    between atoms: S1_3  and  C3_4 
REMARK    4  A    between atoms: C3_4  and  O1_5 
REMARK    5  A    between atoms: C3_4  and  N1_7 
REMARK    6  A    between atoms: N2_10  and  S2_11 
REMARK    7  A    between atoms: S2_11  and  C6_13 
REMARK       I    between atoms: C12_19  and  N3_21 
REMARK    8  A    between atoms: N3_21  and  C13_23 
REMARK    9  A    between atoms: C15_25  and  N4_26 
REMARK   10  A    between atoms: C18_34  and  N7_35 
ROOT
HETATM    1  C12 UNL     1     -17.477   3.460  -0.662  1.00  0.00     0.236 C 
HETATM    2  O3  UNL     1     -18.544   2.983  -1.094  1.00  0.00    -0.272 OA
HETATM    3  N3  UNL     1     -16.300   3.422  -1.408  1.00  0.00    -0.323 N 
ATOM      4  H3  UNL     1     -15.490   3.845  -0.955  1.00  0.00     0.169 HD
ENDROOT
BRANCH   3   5
HETATM    5  C13 UNL     1     -16.055   2.891  -2.692  1.00  0.00     0.079 A 
HETATM    6  C14 UNL     1     -15.951   1.550  -2.986  1.00  0.00     0.071 A 
HETATM    7  C15 UNL     1     -15.709   1.134  -4.270  1.00  0.00     0.144 A 
HETATM    8  C19 UNL     1     -15.568   2.043  -5.275  1.00  0.00     0.276 A 
HETATM    9  O5  UNL     1     -15.343   1.657  -6.471  1.00  0.00    -0.266 OA
HETATM   10  N8  UNL     1     -15.673   3.328  -4.967  1.00  0.00    -0.308 N 
HETATM   11  C20 UNL     1     -15.907   3.796  -3.740  1.00  0.00     0.146 A 
ATOM     12  H8  UNL     1     -15.567   4.006  -5.721  1.00  0.00     0.170 HD
HETATM   13  N9  UNL     1     -16.006   5.214  -3.506  1.00  0.00    -0.080 NA
BRANCH   7  14
HETATM   14  N4  UNL     1     -15.603  -0.267  -4.553  1.00  0.00    -0.081 N 
HETATM   15  N5  UNL     1     -14.503  -0.939  -4.241  1.00  0.00    -0.285 N 
HETATM   16  C16 UNL     1     -14.407  -2.251  -4.509  1.00  0.00     0.183 A 
ATOM     17  H5  UNL     1     -13.724  -0.455  -3.794  1.00  0.00     0.187 HD
HETATM   18  C17 UNL     1     -15.466  -2.893  -5.114  1.00  0.00     0.276 A 
HETATM   19  O4  UNL     1     -15.385  -4.113  -5.367  1.00  0.00    -0.266 OA
HETATM   20  N6  UNL     1     -16.580  -2.212  -5.431  1.00  0.00    -0.153 N 
HETATM   21  C18 UNL     1     -16.641  -0.883  -5.143  1.00  0.00     0.700 A 
ATOM     22  H6  UNL     1     -17.366  -2.683  -5.880  1.00  0.00     0.187 HD
BRANCH  21  23
HETATM   23  N7  UNL     1     -17.713  -0.218  -5.444  1.00  0.00    -0.233 N 
ATOM     24  H72 UNL     1     -17.785   0.760  -5.168  1.00  0.00     0.174 HD
ATOM     25  H71 UNL     1     -18.473  -0.670  -5.951  1.00  0.00     0.174 HD
ENDBRANCH  21  23
ENDBRANCH   7  14
ENDBRANCH   3   5
BRANCH   1  26
HETATM   26  C2  UNL     1     -17.529   4.081   0.714  1.00  0.00     0.144 C 
HETATM   27  C1  UNL     1     -18.866   4.809   0.825  1.00  0.00     0.032 C 
BRANCH  26  28
HETATM   28  S1  UNL     1     -16.242   5.289   0.931  1.00  0.00    -0.073 SA
BRANCH  28  29
HETATM   29  C3  UNL     1     -14.790   4.678   1.682  1.00  0.00     0.178 C 
BRANCH  29  30
HETATM   30  O1  UNL     1     -14.042   5.621   2.217  1.00  0.00    -0.341 OA
ATOM     31  H1  UNL     1     -13.502   5.312   2.935  1.00  0.00     0.220 HD
ENDBRANCH  29  30
BRANCH  29  32
HETATM   32  N1  UNL     1     -14.311   3.376   1.807  1.00  0.00    -0.353 N 
HETATM   33  C4  UNL     1     -13.102   3.015   1.032  1.00  0.00     0.146 C 
HETATM   34  C5  UNL     1     -13.532   1.997   0.007  1.00  0.00     0.152 C 
HETATM   35  N2  UNL     1     -14.265   0.955   0.648  1.00  0.00    -0.328 N 
HETATM   36  C10 UNL     1     -14.266   0.954   2.057  1.00  0.00     0.152 C 
HETATM   37  C11 UNL     1     -14.868   2.305   2.562  1.00  0.00     0.146 C 
BRANCH  35  38
HETATM   38  S2  UNL     1     -14.371  -0.521  -0.154  1.00  0.00     0.120 S 
HETATM   39  O2  UNL     1     -15.838  -1.297   0.112  1.00  0.00    -0.235 OA
BRANCH  38  40
HETATM   40  C6  UNL     1     -12.995  -1.583   0.066  1.00  0.00     0.046 C 
HETATM   41  C7  UNL     1     -13.032  -2.377   1.353  1.00  0.00     0.030 C 
HETATM   42  C8  UNL     1     -12.932  -2.600  -1.070  1.00  0.00     0.030 C 
HETATM   43  C9  UNL     1     -11.726  -0.787   0.028  1.00  0.00     0.030 C 
ENDBRANCH  38  40
ENDBRANCH  35  38
ENDBRANCH  29  32
ENDBRANCH  28  29
ENDBRANCH  26  28
ENDBRANCH   1  26
TORSDOF 10
ENDMDL
MODEL 5
REMARK VINA RESULT: -6.596866203      3.364      7.078
REMARK  10 active torsions:
REMARK  status: ('A' for Active; 'I' for Inactive)
REMARK    1  A    between atoms: C2_2  and  S1_3 
REMARK    2  A    between atoms: C2_2  and  C12_19 
REMARK    3  A    between atoms: S1_3  and  C3_4 
REMARK    4  A    between atoms: C3_4  and  O1_5 
REMARK    5  A    between atoms: C3_4  and  N1_7 
REMARK    6  A    between atoms: N2_10  and  S2_11 
REMARK    7  A    between atoms: S2_11  and  C6_13 
REMARK       I    between atoms: C12_19  and  N3_21 
REMARK    8  A    between atoms: N3_21  and  C13_23 
REMARK    9  A    between atoms: C15_25  and  N4_26 
REMARK   10  A    between atoms: C18_34  and  N7_35 
ROOT
HETATM    1  C12 UNL     1     -13.880  -0.012   1.594  1.00  0.00     0.236 C 
HETATM    2  O3  UNL     1     -14.663  -0.801   1.033  1.00  0.00    -0.272 OA
HETATM    3  N3  UNL     1     -13.890   1.355   1.315  1.00  0.00    -0.323 N 
ATOM      4  H3  UNL     1     -13.207   1.905   1.834  1.00  0.00     0.169 HD
ENDROOT
BRANCH   3   5
HETATM    5  C13 UNL     1     -14.697   2.094   0.425  1.00  0.00     0.079 A 
HETATM    6  C14 UNL     1     -16.007   2.452   0.657  1.00  0.00     0.071 A 
HETATM    7  C15 UNL     1     -16.709   3.172  -0.275  1.00  0.00     0.144 A 
HETATM    8  C19 UNL     1     -16.120   3.545  -1.446  1.00  0.00     0.276 A 
HETATM    9  O5  UNL     1     -16.772   4.216  -2.314  1.00  0.00    -0.266 OA
HETATM   10  N8  UNL     1     -14.859   3.188  -1.646  1.00  0.00    -0.308 N 
HETATM   11  C20 UNL     1     -14.123   2.489  -0.781  1.00  0.00     0.146 A 
ATOM     12  H8  UNL     1     -14.422   3.468  -2.523  1.00  0.00     0.170 HD
HETATM   13  N9  UNL     1     -12.757   2.151  -1.090  1.00  0.00    -0.080 NA
BRANCH   7  14
HETATM   14  N4  UNL     1     -18.071   3.534  -0.013  1.00  0.00    -0.081 N 
HETATM   15  N5  UNL     1     -19.067   2.775  -0.449  1.00  0.00    -0.285 N 
HETATM   16  C16 UNL     1     -20.342   3.117  -0.202  1.00  0.00     0.183 A 
ATOM     17  H5  UNL     1     -18.864   1.926  -0.976  1.00  0.00     0.187 HD
HETATM   18  C17 UNL     1     -20.604   4.268   0.510  1.00  0.00     0.276 A 
HETATM   19  O4  UNL     1     -21.786   4.594   0.743  1.00  0.00    -0.266 OA
HETATM   20  N6  UNL     1     -19.594   5.037   0.951  1.00  0.00    -0.153 N 
HETATM   21  C18 UNL     1     -18.315   4.656   0.682  1.00  0.00     0.700 A 
ATOM     22  H6  UNL     1     -19.783   5.890   1.478  1.00  0.00     0.187 HD
BRANCH  21  23
HETATM   23  N7  UNL     1     -17.334   5.392   1.106  1.00  0.00    -0.233 N 
ATOM     24  H72 UNL     1     -16.397   5.229   0.740  1.00  0.00     0.174 HD
ATOM     25  H71 UNL     1     -17.500   6.124   1.796  1.00  0.00     0.174 HD
ENDBRANCH  21  23
ENDBRANCH   7  14
ENDBRANCH   3   5
BRANCH   1  26
HETATM   26  C2  UNL     1     -12.920  -0.613   2.592  1.00  0.00     0.144 C 
HETATM   27  C1  UNL     1     -12.376   0.536   3.436  1.00  0.00     0.032 C 
BRANCH  26  28
HETATM   28  S1  UNL     1     -11.538  -1.385   1.783  1.00  0.00    -0.073 SA
BRANCH  28  29
HETATM   29  C3  UNL     1     -11.326  -0.930   0.112  1.00  0.00     0.178 C 
BRANCH  29  30
HETATM   30  O1  UNL     1     -10.661   0.197  -0.042  1.00  0.00    -0.341 OA
ATOM     31  H1  UNL     1     -11.070   0.794  -0.657  1.00  0.00     0.220 HD
ENDBRANCH  29  30
BRANCH  29  32
HETATM   32  N1  UNL     1     -11.737  -1.561  -1.060  1.00  0.00    -0.353 N 
HETATM   33  C4  UNL     1     -11.008  -1.231  -2.305  1.00  0.00     0.146 C 
HETATM   34  C5  UNL     1     -11.982  -0.507  -3.199  1.00  0.00     0.152 C 
HETATM   35  N2  UNL     1     -13.189  -1.260  -3.298  1.00  0.00    -0.328 N 
HETATM   36  C10 UNL     1     -13.172  -2.560  -2.755  1.00  0.00     0.152 C 
HETATM   37  C11 UNL     1     -12.821  -2.468  -1.235  1.00  0.00     0.146 C 
BRANCH  35  38
HETATM   38  S2  UNL     1     -14.182  -0.958  -4.622  1.00  0.00     0.120 S 
HETATM   39  O2  UNL     1     -13.567   0.236  -5.633  1.00  0.00    -0.235 OA
BRANCH  38  40
HETATM   40  C6  UNL     1     -15.874  -0.713  -4.238  1.00  0.00     0.046 C 
HETATM   41  C7  UNL     1     -16.108  -0.015  -2.917  1.00  0.00     0.030 C 
HETATM   42  C8  UNL     1     -16.534   0.151  -5.309  1.00  0.00     0.030 C 
HETATM   43  C9  UNL     1     -16.588  -2.031  -4.220  1.00  0.00     0.030 C 
ENDBRANCH  38  40
ENDBRANCH  35  38
ENDBRANCH  29  32
ENDBRANCH  28  29
ENDBRANCH  26  28
ENDBRANCH   1  26
TORSDOF 10
ENDMDL
