MODEL 1
REMARK VINA RESULT: -8.280126982      0.000      0.000
REMARK  8 active torsions:
REMARK  status: ('A' for Active; 'I' for Inactive)
REMARK    1  A    between atoms: C2_3  and  C3_4 
REMARK       I    between atoms: C3_4  and  N2_6 
REMARK    2  A    between atoms: N2_6  and  C4_8 
REMARK    3  A    between atoms: C5_9  and  N3_10 
REMARK    4  A    between atoms: N3_10  and  N4_12 
REMARK    5  A    between atoms: N4_12  and  C6_14 
REMARK    6  A    between atoms: C11_28  and  C12_29 
REMARK    7  A    between atoms: C12_29  and  O2_30 
REMARK    8  A    between atoms: O2_30  and  C13_31 
REMARK       I    between atoms: C13_31  and  N10_33 
ROOT
HETATM    1  C4  UNL     1     -16.080  -0.200  -2.537  1.00  0.00     0.186 C 
HETATM    2  C5  UNL     1     -16.404   1.247  -2.873  1.00  0.00     0.121 C 
HETATM    3  N9  UNL     1     -15.446   1.258  -3.934  1.00  0.00    -0.344 N 
HETATM    4  C11 UNL     1     -14.497   1.685  -4.944  1.00  0.00     0.120 C 
HETATM    5  C18 UNL     1     -13.195   0.939  -4.678  1.00  0.00     0.103 C 
HETATM    6  S1  UNL     1     -13.843  -0.675  -4.145  1.00  0.00    -0.139 SA
HETATM    7  C19 UNL     1     -15.594  -0.200  -3.940  1.00  0.00     0.178 C 
ENDROOT
BRANCH   2   8
HETATM    8  N3  UNL     1     -17.271   1.992  -2.301  1.00  0.00    -0.286 N 
ATOM      9  H3  UNL     1     -17.635   2.799  -2.808  1.00  0.00     0.188 HD
BRANCH   8  10
HETATM   10  N4  UNL     1     -17.732   1.749  -1.033  1.00  0.00    -0.282 N 
ATOM     11  H4  UNL     1     -17.506   0.879  -0.551  1.00  0.00     0.188 HD
BRANCH  10  12
HETATM   12  C6  UNL     1     -18.464   2.657  -0.464  1.00  0.00     0.152 A 
HETATM   13  N5  UNL     1     -19.815   2.556  -0.432  1.00  0.00    -0.336 N 
HETATM   14  C7  UNL     1     -20.581   3.477   0.157  1.00  0.00     0.183 A 
ATOM     15  H5  UNL     1     -20.261   1.750  -0.871  1.00  0.00     0.168 HD
HETATM   16  N6  UNL     1     -20.007   4.547   0.744  1.00  0.00    -0.337 N 
HETATM   17  C8  UNL     1     -18.680   4.687   0.737  1.00  0.00     0.138 A 
ATOM     18  H6  UNL     1     -20.590   5.252   1.196  1.00  0.00     0.168 HD
HETATM   19  N7  UNL     1     -17.884   5.655   1.252  1.00  0.00    -0.337 N 
HETATM   20  C10 UNL     1     -17.862   3.742   0.129  1.00  0.00     0.123 A 
HETATM   21  C9  UNL     1     -16.633   5.301   0.962  1.00  0.00     0.182 A 
ATOM     22  H7  UNL     1     -18.182   6.488   1.760  1.00  0.00     0.168 HD
HETATM   23  N8  UNL     1     -16.580   4.150   0.283  1.00  0.00    -0.346 N 
ATOM     24  H8  UNL     1     -15.741   3.674  -0.050  1.00  0.00     0.167 HD
ENDBRANCH  10  12
ENDBRANCH   8  10
ENDBRANCH   2   8
BRANCH   1  25
HETATM   25  N2  UNL     1     -15.075  -0.170  -1.496  1.00  0.00    -0.341 N 
HETATM   26  C3  UNL     1     -15.378  -0.713  -0.208  1.00  0.00     0.269 C 
HETATM   27  O1  UNL     1     -16.537  -1.199  -0.043  1.00  0.00    -0.266 OA
ATOM     28  H2  UNL     1     -14.159   0.237  -1.678  1.00  0.00     0.163 HD
BRANCH  26  29
HETATM   29  C2  UNL     1     -14.353  -0.675   0.813  1.00  0.00     0.104 A 
HETATM   30  N1  UNL     1     -14.291   0.363   1.691  1.00  0.00    -0.332 N 
HETATM   31  C1  UNL     1     -15.212   1.460   1.536  1.00  0.00     0.158 C 
HETATM   32  C23 UNL     1     -13.367   0.409   2.689  1.00  0.00     0.126 A 
HETATM   33  C22 UNL     1     -12.424  -0.624   2.854  1.00  0.00     0.090 A 
HETATM   34  N12 UNL     1     -13.258   1.336   3.552  1.00  0.00    -0.384 N 
HETATM   35  C21 UNL     1     -12.466  -1.667   1.990  1.00  0.00     0.033 A 
HETATM   36  N11 UNL     1     -11.456  -0.598   3.887  1.00  0.00    -0.098 NA
HETATM   37  C20 UNL     1     -13.427  -1.685   0.980  1.00  0.00     0.037 A 
ATOM     38 2H12 UNL     1     -13.940   2.085   3.431  1.00  0.00     0.157 HD
ATOM     39 1H12 UNL     1     -12.565   1.371   4.300  1.00  0.00     0.157 HD
ENDBRANCH  26  29
ENDBRANCH   1  25
BRANCH   4  40
HETATM   40  C12 UNL     1     -14.172   3.139  -4.729  1.00  0.00     0.206 C 
BRANCH  40  41
HETATM   41  O2  UNL     1     -13.909   3.354  -3.368  1.00  0.00    -0.302 OA
BRANCH  41  42
HETATM   42  C13 UNL     1     -14.360   4.421  -2.620  1.00  0.00     0.362 C 
HETATM   43  O3  UNL     1     -15.594   4.634  -2.544  1.00  0.00    -0.238 OA
HETATM   44  N10 UNL     1     -13.472   5.300  -1.923  1.00  0.00    -0.328 N 
HETATM   45  C14 UNL     1     -12.044   5.178  -1.939  1.00  0.00     0.128 C 
HETATM   46  C17 UNL     1     -13.869   6.415  -1.113  1.00  0.00     0.128 C 
HETATM   47  C15 UNL     1     -11.541   6.246  -0.986  1.00  0.00     0.022 C 
HETATM   48  C16 UNL     1     -12.761   6.538  -0.103  1.00  0.00     0.022 C 
ENDBRANCH  41  42
ENDBRANCH  40  41
ENDBRANCH   4  40
TORSDOF 8
ENDMDL
MODEL 2
REMARK VINA RESULT: -8.163892848      2.564      7.137
REMARK  8 active torsions:
REMARK  status: ('A' for Active; 'I' for Inactive)
REMARK    1  A    between atoms: C2_3  and  C3_4 
REMARK       I    between atoms: C3_4  and  N2_6 
REMARK    2  A    between atoms: N2_6  and  C4_8 
REMARK    3  A    between atoms: C5_9  and  N3_10 
REMARK    4  A    between atoms: N3_10  and  N4_12 
REMARK    5  A    between atoms: N4_12  and  C6_14 
REMARK    6  A    between atoms: C11_28  and  C12_29 
REMARK    7  A    between atoms: C12_29  and  O2_30 
REMARK    8  A    between atoms: O2_30  and  C13_31 
REMARK       I    between atoms: C13_31  and  N10_33 
ROOT
HETATM    1  C4  UNL     1     -15.298   1.299  -1.579  1.00  0.00     0.186 C 
HETATM    2  C5  UNL     1     -15.869   0.063  -2.254  1.00  0.00     0.121 C 
HETATM    3  N9  UNL     1     -15.658   0.624  -3.551  1.00  0.00    -0.344 N 
HETATM    4  C11 UNL     1     -15.740   0.912  -4.970  1.00  0.00     0.120 C 
HETATM    5  C18 UNL     1     -16.022   2.403  -5.108  1.00  0.00     0.103 C 
HETATM    6  S1  UNL     1     -15.022   3.056  -3.735  1.00  0.00    -0.139 SA
HETATM    7  C19 UNL     1     -14.653   1.472  -2.904  1.00  0.00     0.178 C 
ENDROOT
BRANCH   2   8
HETATM    8  N3  UNL     1     -16.303  -0.995  -1.680  1.00  0.00    -0.286 N 
ATOM      9  H3  UNL     1     -17.008  -1.557  -2.156  1.00  0.00     0.188 HD
BRANCH   8  10
HETATM   10  N4  UNL     1     -15.857  -1.403  -0.450  1.00  0.00    -0.282 N 
ATOM     11  H4  UNL     1     -16.497  -1.480   0.340  1.00  0.00     0.188 HD
BRANCH  10  12
HETATM   12  C6  UNL     1     -14.597  -1.686  -0.320  1.00  0.00     0.152 A 
HETATM   13  N5  UNL     1     -13.931  -2.386  -1.271  1.00  0.00    -0.336 N 
HETATM   14  C7  UNL     1     -12.633  -2.678  -1.156  1.00  0.00     0.183 A 
ATOM     15  H5  UNL     1     -14.436  -2.700  -2.099  1.00  0.00     0.168 HD
HETATM   16  N6  UNL     1     -11.950  -2.269  -0.068  1.00  0.00    -0.337 N 
HETATM   17  C8  UNL     1     -12.565  -1.577   0.892  1.00  0.00     0.138 A 
ATOM     18  H6  UNL     1     -10.957  -2.490   0.022  1.00  0.00     0.168 HD
HETATM   19  N7  UNL     1     -12.102  -1.063   2.057  1.00  0.00    -0.337 N 
HETATM   20  C10 UNL     1     -13.916  -1.262   0.796  1.00  0.00     0.123 A 
HETATM   21  C9  UNL     1     -13.139  -0.462   2.637  1.00  0.00     0.182 A 
ATOM     22  H7  UNL     1     -11.149  -1.124   2.417  1.00  0.00     0.168 HD
HETATM   23  N8  UNL     1     -14.254  -0.561   1.905  1.00  0.00    -0.346 N 
ATOM     24  H8  UNL     1     -15.173  -0.184   2.135  1.00  0.00     0.167 HD
ENDBRANCH  10  12
ENDBRANCH   8  10
ENDBRANCH   2   8
BRANCH   1  25
HETATM   25  N2  UNL     1     -16.420   2.162  -1.277  1.00  0.00    -0.341 N 
HETATM   26  C3  UNL     1     -17.041   2.089   0.009  1.00  0.00     0.269 C 
HETATM   27  O1  UNL     1     -16.568   1.250   0.833  1.00  0.00    -0.266 OA
ATOM     28  H2  UNL     1     -16.766   2.818  -1.977  1.00  0.00     0.163 HD
BRANCH  26  29
HETATM   29  C2  UNL     1     -18.157   2.968   0.285  1.00  0.00     0.104 A 
HETATM   30  N1  UNL     1     -17.943   4.233   0.743  1.00  0.00    -0.332 N 
HETATM   31  C1  UNL     1     -16.594   4.651   1.024  1.00  0.00     0.158 C 
HETATM   32  C23 UNL     1     -18.967   5.099   0.973  1.00  0.00     0.126 A 
HETATM   33  C22 UNL     1     -20.304   4.719   0.746  1.00  0.00     0.090 A 
HETATM   34  N12 UNL     1     -18.843   6.294   1.385  1.00  0.00    -0.384 N 
HETATM   35  C21 UNL     1     -20.541   3.465   0.292  1.00  0.00     0.033 A 
HETATM   36  N11 UNL     1     -21.386   5.605   0.975  1.00  0.00    -0.098 NA
HETATM   37  C20 UNL     1     -19.469   2.602   0.065  1.00  0.00     0.037 A 
ATOM     38 2H12 UNL     1     -17.875   6.569   1.550  1.00  0.00     0.157 HD
ATOM     39 1H12 UNL     1     -19.611   6.944   1.558  1.00  0.00     0.157 HD
ENDBRANCH  26  29
ENDBRANCH   1  25
BRANCH   4  40
HETATM   40  C12 UNL     1     -16.952   0.225  -5.541  1.00  0.00     0.206 C 
BRANCH  40  41
HETATM   41  O2  UNL     1     -16.582  -1.046  -6.006  1.00  0.00    -0.302 OA
BRANCH  41  42
HETATM   42  C13 UNL     1     -16.243  -2.124  -5.217  1.00  0.00     0.362 C 
HETATM   43  O3  UNL     1     -17.011  -2.464  -4.285  1.00  0.00    -0.238 OA
HETATM   44  N10 UNL     1     -15.044  -2.877  -5.419  1.00  0.00    -0.328 N 
HETATM   45  C14 UNL     1     -14.075  -2.588  -6.436  1.00  0.00     0.128 C 
HETATM   46  C17 UNL     1     -14.636  -4.019  -4.653  1.00  0.00     0.128 C 
HETATM   47  C15 UNL     1     -13.048  -3.700  -6.337  1.00  0.00     0.022 C 
HETATM   48  C16 UNL     1     -13.806  -4.822  -5.616  1.00  0.00     0.022 C 
ENDBRANCH  41  42
ENDBRANCH  40  41
ENDBRANCH   4  40
TORSDOF 8
ENDMDL
MODEL 3
REMARK VINA RESULT: -8.062514659      1.433      1.971
REMARK  8 active torsions:
REMARK  status: ('A' for Active; 'I' for Inactive)
REMARK    1  A    between atoms: C2_3  and  C3_4 
REMARK       I    between atoms: C3_4  and  N2_6 
REMARK    2  A    between atoms: N2_6  and  C4_8 
REMARK    3  A    between atoms: C5_9  and  N3_10 
REMARK    4  A    between atoms: N3_10  and  N4_12 
REMARK    5  A    between atoms: N4_12  and  C6_14 
REMARK    6  A    between atoms: C11_28  and  C12_29 
REMARK    7  A    between atoms: C12_29  and  O2_30 
REMARK    8  A    between atoms: O2_30  and  C13_31 
REMARK       I    between atoms: C13_31  and  N10_33 
ROOT
HETATM    1  C4  UNL     1     -16.348   0.179  -1.010  1.00  0.00     0.186 C 
HETATM    2  C5  UNL     1     -16.915   1.281  -1.891  1.00  0.00     0.121 C 
HETATM    3  N9  UNL     1     -16.164   0.821  -3.018  1.00  0.00    -0.344 N 
HETATM    4  C11 UNL     1     -15.469   0.751  -4.288  1.00  0.00     0.120 C 
HETATM    5  C18 UNL     1     -14.053   0.269  -3.997  1.00  0.00     0.103 C 
HETATM    6  S1  UNL     1     -14.379  -0.921  -2.661  1.00  0.00    -0.139 SA
HETATM    7  C19 UNL     1     -16.116  -0.469  -2.324  1.00  0.00     0.178 C 
ENDROOT
BRANCH   2   8
HETATM    8  N3  UNL     1     -17.762   2.177  -1.552  1.00  0.00    -0.286 N 
ATOM      9  H3  UNL     1     -17.842   3.018  -2.123  1.00  0.00     0.188 HD
BRANCH   8  10
HETATM   10  N4  UNL     1     -18.568   2.051  -0.450  1.00  0.00    -0.282 N 
ATOM     11  H4  UNL     1     -18.723   1.141  -0.016  1.00  0.00     0.188 HD
BRANCH  10  12
HETATM   12  C6  UNL     1     -19.126   3.122   0.024  1.00  0.00     0.152 A 
HETATM   13  N5  UNL     1     -20.475   3.252   0.069  1.00  0.00    -0.336 N 
HETATM   14  C7  UNL     1     -21.065   4.344   0.562  1.00  0.00     0.183 A 
ATOM     15  H5  UNL     1     -21.057   2.493  -0.284  1.00  0.00     0.168 HD
HETATM   16  N6  UNL     1     -20.310   5.356   1.035  1.00  0.00    -0.337 N 
HETATM   17  C8  UNL     1     -18.978   5.270   1.010  1.00  0.00     0.138 A 
ATOM     18  H6  UNL     1     -20.758   6.191   1.413  1.00  0.00     0.168 HD
HETATM   19  N7  UNL     1     -18.022   6.137   1.422  1.00  0.00    -0.337 N 
HETATM   20  C10 UNL     1     -18.341   4.145   0.501  1.00  0.00     0.123 A 
HETATM   21  C9  UNL     1     -16.853   5.551   1.167  1.00  0.00     0.182 A 
ATOM     22  H7  UNL     1     -18.167   7.055   1.842  1.00  0.00     0.168 HD
HETATM   23  N8  UNL     1     -17.006   4.344   0.610  1.00  0.00    -0.346 N 
ATOM     24  H8  UNL     1     -16.265   3.703   0.326  1.00  0.00     0.167 HD
ENDBRANCH  10  12
ENDBRANCH   8  10
ENDBRANCH   2   8
BRANCH   1  25
HETATM   25  N2  UNL     1     -15.193   0.736  -0.340  1.00  0.00    -0.341 N 
HETATM   26  C3  UNL     1     -15.334   1.282   0.974  1.00  0.00     0.269 C 
HETATM   27  O1  UNL     1     -16.491   1.253   1.491  1.00  0.00    -0.266 OA
ATOM     28  H2  UNL     1     -14.284   0.740  -0.802  1.00  0.00     0.163 HD
BRANCH  26  29
HETATM   29  C2  UNL     1     -14.160   1.827   1.622  1.00  0.00     0.104 A 
HETATM   30  N1  UNL     1     -13.331   1.021   2.341  1.00  0.00    -0.332 N 
HETATM   31  C1  UNL     1     -13.686  -0.365   2.511  1.00  0.00     0.158 C 
HETATM   32  C23 UNL     1     -12.198   1.492   2.928  1.00  0.00     0.126 A 
HETATM   33  C22 UNL     1     -11.833   2.848   2.817  1.00  0.00     0.090 A 
HETATM   34  N12 UNL     1     -11.372   0.798   3.599  1.00  0.00    -0.384 N 
HETATM   35  C21 UNL     1     -12.644   3.669   2.108  1.00  0.00     0.033 A 
HETATM   36  N11 UNL     1     -10.656   3.359   3.417  1.00  0.00    -0.098 NA
HETATM   37  C20 UNL     1     -13.797   3.154   1.518  1.00  0.00     0.037 A 
ATOM     38 2H12 UNL     1     -11.637  -0.183   3.680  1.00  0.00     0.157 HD
ATOM     39 1H12 UNL     1     -10.522   1.152   4.040  1.00  0.00     0.157 HD
ENDBRANCH  26  29
ENDBRANCH   1  25
BRANCH   4  40
HETATM   40  C12 UNL     1     -15.308   2.144  -4.837  1.00  0.00     0.206 C 
BRANCH  40  41
HETATM   41  O2  UNL     1     -14.544   2.905  -3.940  1.00  0.00    -0.302 OA
BRANCH  41  42
HETATM   42  C13 UNL     1     -14.967   4.044  -3.288  1.00  0.00     0.362 C 
HETATM   43  O3  UNL     1     -16.174   4.377  -3.362  1.00  0.00    -0.238 OA
HETATM   44  N10 UNL     1     -14.080   4.866  -2.524  1.00  0.00    -0.328 N 
HETATM   45  C14 UNL     1     -12.678   4.608  -2.370  1.00  0.00     0.128 C 
HETATM   46  C17 UNL     1     -14.450   6.050  -1.806  1.00  0.00     0.128 C 
HETATM   47  C15 UNL     1     -12.180   5.666  -1.404  1.00  0.00     0.022 C 
HETATM   48  C16 UNL     1     -13.456   6.115  -0.679  1.00  0.00     0.022 C 
ENDBRANCH  41  42
ENDBRANCH  40  41
ENDBRANCH   4  40
TORSDOF 8
ENDMDL
MODEL 4
REMARK VINA RESULT: -8.044578591      2.835      7.770
REMARK  8 active torsions:
REMARK  status: ('A' for Active; 'I' for Inactive)
REMARK    1  A    between atoms: C2_3  and  C3_4 
REMARK       I    between atoms: C3_4  and  N2_6 
REMARK    2  A    between atoms: N2_6  and  C4_8 
REMARK    3  A    between atoms: C5_9  and  N3_10 
REMARK    4  A    between atoms: N3_10  and  N4_12 
REMARK    5  A    between atoms: N4_12  and  C6_14 
REMARK    6  A    between atoms: C11_28  and  C12_29 
REMARK    7  A    between atoms: C12_29  and  O2_30 
REMARK    8  A    between atoms: O2_30  and  C13_31 
REMARK       I    between atoms: C13_31  and  N10_33 
ROOT
HETATM    1  C4  UNL     1     -15.546   3.660   0.885  1.00  0.00     0.186 C 
HETATM    2  C5  UNL     1     -15.555   2.159   1.126  1.00  0.00     0.121 C 
HETATM    3  N9  UNL     1     -15.707   1.895  -0.271  1.00  0.00    -0.344 N 
HETATM    4  C11 UNL     1     -16.010   1.262  -1.540  1.00  0.00     0.120 C 
HETATM    5  C18 UNL     1     -16.933   2.204  -2.302  1.00  0.00     0.103 C 
HETATM    6  S1  UNL     1     -16.232   3.813  -1.820  1.00  0.00    -0.139 SA
HETATM    7  C19 UNL     1     -15.141   3.232  -0.476  1.00  0.00     0.178 C 
ENDROOT
BRANCH   2   8
HETATM    8  N3  UNL     1     -15.432   1.560   2.249  1.00  0.00    -0.286 N 
ATOM      9  H3  UNL     1     -16.093   0.820   2.484  1.00  0.00     0.188 HD
BRANCH   8  10
HETATM   10  N4  UNL     1     -14.448   1.875   3.149  1.00  0.00    -0.282 N 
ATOM     11  H4  UNL     1     -14.560   2.655   3.797  1.00  0.00     0.188 HD
BRANCH  10  12
HETATM   12  C6  UNL     1     -13.370   1.152   3.153  1.00  0.00     0.152 A 
HETATM   13  N5  UNL     1     -13.426  -0.197   3.032  1.00  0.00    -0.336 N 
HETATM   14  C7  UNL     1     -12.325  -0.953   3.025  1.00  0.00     0.183 A 
ATOM     15  H5  UNL     1     -14.336  -0.648   2.943  1.00  0.00     0.168 HD
HETATM   16  N6  UNL     1     -11.115  -0.372   3.139  1.00  0.00    -0.337 N 
HETATM   17  C8  UNL     1     -11.013   0.953   3.260  1.00  0.00     0.138 A 
ATOM     18  H6  UNL     1     -10.272  -0.948   3.133  1.00  0.00     0.168 HD
HETATM   19  N7  UNL     1      -9.928   1.755   3.384  1.00  0.00    -0.337 N 
HETATM   20  C10 UNL     1     -12.143   1.761   3.271  1.00  0.00     0.123 A 
HETATM   21  C9  UNL     1     -10.394   3.000   3.467  1.00  0.00     0.182 A 
ATOM     22  H7  UNL     1      -8.951   1.464   3.409  1.00  0.00     0.168 HD
HETATM   23  N8  UNL     1     -11.729   3.044   3.402  1.00  0.00    -0.346 N 
ATOM     24  H8  UNL     1     -12.317   3.877   3.443  1.00  0.00     0.167 HD
ENDBRANCH  10  12
ENDBRANCH   8  10
ENDBRANCH   2   8
BRANCH   1  25
HETATM   25  N2  UNL     1     -16.910   4.115   1.051  1.00  0.00    -0.341 N 
HETATM   26  C3  UNL     1     -17.172   5.508   1.236  1.00  0.00     0.269 C 
HETATM   27  O1  UNL     1     -16.173   6.288   1.250  1.00  0.00    -0.266 OA
ATOM     28  H2  UNL     1     -17.679   3.446   1.037  1.00  0.00     0.163 HD
BRANCH  26  29
HETATM   29  C2  UNL     1     -18.546   5.935   1.393  1.00  0.00     0.104 A 
HETATM   30  N1  UNL     1     -18.834   7.156   1.923  1.00  0.00    -0.332 N 
HETATM   31  C1  UNL     1     -17.751   7.980   2.397  1.00  0.00     0.158 C 
HETATM   32  C23 UNL     1     -20.112   7.605   2.046  1.00  0.00     0.126 A 
HETATM   33  C22 UNL     1     -21.202   6.817   1.628  1.00  0.00     0.090 A 
HETATM   34  N12 UNL     1     -20.454   8.736   2.515  1.00  0.00    -0.384 N 
HETATM   35  C21 UNL     1     -20.939   5.598   1.100  1.00  0.00     0.033 A 
HETATM   36  N11 UNL     1     -22.541   7.267   1.743  1.00  0.00    -0.098 NA
HETATM   37  C20 UNL     1     -19.618   5.168   0.986  1.00  0.00     0.037 A 
ATOM     38 2H12 UNL     1     -19.665   9.306   2.818  1.00  0.00     0.157 HD
ATOM     39 1H12 UNL     1     -21.413   9.073   2.608  1.00  0.00     0.157 HD
ENDBRANCH  26  29
ENDBRANCH   1  25
BRANCH   4  40
HETATM   40  C12 UNL     1     -16.827   0.024  -1.288  1.00  0.00     0.206 C 
BRANCH  40  41
HETATM   41  O2  UNL     1     -16.005  -1.104  -1.421  1.00  0.00    -0.302 OA
BRANCH  41  42
HETATM   42  C13 UNL     1     -14.961  -1.443  -0.586  1.00  0.00     0.362 C 
HETATM   43  O3  UNL     1     -15.121  -1.359   0.655  1.00  0.00    -0.238 OA
HETATM   44  N10 UNL     1     -13.695  -1.890  -1.081  1.00  0.00    -0.328 N 
HETATM   45  C14 UNL     1     -13.376  -2.017  -2.473  1.00  0.00     0.128 C 
HETATM   46  C17 UNL     1     -12.574  -2.276  -0.275  1.00  0.00     0.128 C 
HETATM   47  C15 UNL     1     -11.984  -2.618  -2.510  1.00  0.00     0.022 C 
HETATM   48  C16 UNL     1     -11.841  -3.273  -1.130  1.00  0.00     0.022 C 
ENDBRANCH  41  42
ENDBRANCH  40  41
ENDBRANCH   4  40
TORSDOF 8
ENDMDL
MODEL 5
REMARK VINA RESULT: -7.960633455      1.626      2.328
REMARK  8 active torsions:
REMARK  status: ('A' for Active; 'I' for Inactive)
REMARK    1  A    between atoms: C2_3  and  C3_4 
REMARK       I    between atoms: C3_4  and  N2_6 
REMARK    2  A    between atoms: N2_6  and  C4_8 
REMARK    3  A    between atoms: C5_9  and  N3_10 
REMARK    4  A    between atoms: N3_10  and  N4_12 
REMARK    5  A    between atoms: N4_12  and  C6_14 
REMARK    6  A    between atoms: C11_28  and  C12_29 
REMARK    7  A    between atoms: C12_29  and  O2_30 
REMARK    8  A    between atoms: O2_30  and  C13_31 
REMARK       I    between atoms: C13_31  and  N10_33 
ROOT
HETATM    1  C4  UNL     1     -15.773  -0.786  -0.617  1.00  0.00     0.186 C 
HETATM    2  C5  UNL     1     -16.731   0.314  -1.042  1.00  0.00     0.121 C 
HETATM    3  N9  UNL     1     -16.223   0.298  -2.378  1.00  0.00    -0.344 N 
HETATM    4  C11 UNL     1     -15.872   0.668  -3.736  1.00  0.00     0.120 C 
HETATM    5  C18 UNL     1     -14.367   0.481  -3.876  1.00  0.00     0.103 C 
HETATM    6  S1  UNL     1     -14.125  -1.012  -2.864  1.00  0.00    -0.139 SA
HETATM    7  C19 UNL     1     -15.771  -1.064  -2.075  1.00  0.00     0.178 C 
ENDROOT
BRANCH   2   8
HETATM    8  N3  UNL     1     -17.610   0.891  -0.314  1.00  0.00    -0.286 N 
ATOM      9  H3  UNL     1     -17.756   0.554   0.638  1.00  0.00     0.188 HD
BRANCH   8  10
HETATM   10  N4  UNL     1     -18.364   1.944  -0.762  1.00  0.00    -0.282 N 
ATOM     11  H4  UNL     1     -18.985   1.841  -1.564  1.00  0.00     0.188 HD
BRANCH  10  12
HETATM   12  C6  UNL     1     -18.262   3.077  -0.137  1.00  0.00     0.152 A 
HETATM   13  N5  UNL     1     -17.053   3.615   0.157  1.00  0.00    -0.336 N 
HETATM   14  C7  UNL     1     -16.933   4.783   0.792  1.00  0.00     0.183 A 
ATOM     15  H5  UNL     1     -16.209   3.111  -0.114  1.00  0.00     0.168 HD
HETATM   16  N6  UNL     1     -18.038   5.463   1.155  1.00  0.00    -0.337 N 
HETATM   17  C8  UNL     1     -19.249   4.972   0.885  1.00  0.00     0.138 A 
ATOM     18  H6  UNL     1     -17.949   6.357   1.639  1.00  0.00     0.168 HD
HETATM   19  N7  UNL     1     -20.487   5.461   1.142  1.00  0.00    -0.337 N 
HETATM   20  C10 UNL     1     -19.401   3.757   0.227  1.00  0.00     0.123 A 
HETATM   21  C9  UNL     1     -21.348   4.569   0.655  1.00  0.00     0.182 A 
ATOM     22  H7  UNL     1     -20.713   6.337   1.614  1.00  0.00     0.168 HD
HETATM   23  N8  UNL     1     -20.728   3.525   0.094  1.00  0.00    -0.346 N 
ATOM     24  H8  UNL     1     -21.168   2.717  -0.347  1.00  0.00     0.167 HD
ENDBRANCH  10  12
ENDBRANCH   8  10
ENDBRANCH   2   8
BRANCH   1  25
HETATM   25  N2  UNL     1     -14.603  -0.131  -0.073  1.00  0.00    -0.341 N 
HETATM   26  C3  UNL     1     -13.852  -0.771   0.962  1.00  0.00     0.269 C 
HETATM   27  O1  UNL     1     -14.263  -1.903   1.359  1.00  0.00    -0.266 OA
ATOM     28  H2  UNL     1     -14.317   0.783  -0.424  1.00  0.00     0.163 HD
BRANCH  26  29
HETATM   29  C2  UNL     1     -12.684  -0.095   1.483  1.00  0.00     0.104 A 
HETATM   30  N1  UNL     1     -12.803   0.813   2.490  1.00  0.00    -0.332 N 
HETATM   31  C1  UNL     1     -14.119   1.148   2.971  1.00  0.00     0.158 C 
HETATM   32  C23 UNL     1     -11.721   1.436   3.032  1.00  0.00     0.126 A 
HETATM   33  C22 UNL     1     -10.420   1.164   2.567  1.00  0.00     0.090 A 
HETATM   34  N12 UNL     1     -11.754   2.281   3.980  1.00  0.00    -0.384 N 
HETATM   35  C21 UNL     1     -10.277   0.265   1.564  1.00  0.00     0.033 A 
HETATM   36  N11 UNL     1      -9.279   1.798   3.118  1.00  0.00    -0.098 NA
HETATM   37  C20 UNL     1     -11.406  -0.356   1.032  1.00  0.00     0.037 A 
ATOM     38 2H12 UNL     1     -12.697   2.477   4.316  1.00  0.00     0.157 HD
ATOM     39 1H12 UNL     1     -10.943   2.747   4.387  1.00  0.00     0.157 HD
ENDBRANCH  26  29
ENDBRANCH   1  25
BRANCH   4  40
HETATM   40  C12 UNL     1     -16.107   2.143  -3.917  1.00  0.00     0.206 C 
BRANCH  40  41
HETATM   41  O2  UNL     1     -14.942   2.841  -3.567  1.00  0.00    -0.302 OA
BRANCH  41  42
HETATM   42  C13 UNL     1     -14.842   3.798  -2.580  1.00  0.00     0.362 C 
HETATM   43  O3  UNL     1     -15.694   4.717  -2.534  1.00  0.00    -0.238 OA
HETATM   44  N10 UNL     1     -13.800   3.784  -1.600  1.00  0.00    -0.328 N 
HETATM   45  C14 UNL     1     -12.757   2.802  -1.548  1.00  0.00     0.128 C 
HETATM   46  C17 UNL     1     -13.644   4.733  -0.535  1.00  0.00     0.128 C 
HETATM   47  C15 UNL     1     -11.964   3.126  -0.297  1.00  0.00     0.022 C 
HETATM   48  C16 UNL     1     -12.946   3.952   0.544  1.00  0.00     0.022 C 
ENDBRANCH  41  42
ENDBRANCH  40  41
ENDBRANCH   4  40
TORSDOF 8
ENDMDL
