MODEL 1
REMARK VINA RESULT: -10.332365390      0.000      0.000
REMARK  8 active torsions:
REMARK  status: ('A' for Active; 'I' for Inactive)
REMARK       I    between atoms: C2_2  and  N1_4 
REMARK    1  A    between atoms: N1_4  and  C3_6 
REMARK    2  A    between atoms: C5_8  and  N2_9 
REMARK    3  A    between atoms: C8_17  and  N5_18 
REMARK    4  A    between atoms: N5_18  and  C9_20 
REMARK    5  A    between atoms: C10_23  and  N7_24 
REMARK    6  A    between atoms: N7_24  and  C11_25 
REMARK    7  A    between atoms: C14_28  and  N8_29 
REMARK    8  A    between atoms: C17_36  and  N10_37 
ROOT
HETATM    1  C9  UNL     1     -17.315   1.839  -0.407  1.00  0.00     0.715 A 
HETATM    2  N6  UNL     1     -18.265   2.641  -0.011  1.00  0.00    -0.147 N 
ATOM      3  H6  UNL     1     -19.219   2.281   0.019  1.00  0.00     0.188 HD
HETATM    4  C10 UNL     1     -18.051   3.936   0.367  1.00  0.00     0.288 A 
HETATM    5  N9  UNL     1     -16.730   4.351   0.301  1.00  0.00    -0.148 N 
ATOM      6  H9  UNL     1     -16.507   5.309   0.572  1.00  0.00     0.188 HD
HETATM    7  C17 UNL     1     -15.736   3.555  -0.100  1.00  0.00     0.698 A 
HETATM    8  N12 UNL     1     -16.061   2.298  -0.450  1.00  0.00    -0.021 N 
ATOM      9  H12 UNL     1     -15.320   1.669  -0.761  1.00  0.00     0.203 HD
ENDROOT
BRANCH   1  10
HETATM   10  N5  UNL     1     -17.603   0.462  -0.801  1.00  0.00    -0.021 N 
ATOM     11  H5  UNL     1     -18.558   0.113  -0.882  1.00  0.00     0.203 HD
BRANCH  10  12
HETATM   12  C8  UNL     1     -16.559  -0.305  -1.046  1.00  0.00     0.712 A 
HETATM   13  N4  UNL     1     -16.469  -0.999  -2.182  1.00  0.00    -0.186 N 
HETATM   14  C7  UNL     1     -15.424  -1.778  -2.419  1.00  0.00     0.215 A 
ATOM     15  H4  UNL     1     -17.213  -0.929  -2.876  1.00  0.00     0.185 HD
HETATM   16  N3  UNL     1     -14.441  -1.885  -1.528  1.00  0.00    -0.186 N 
HETATM   17  C6  UNL     1     -14.468  -1.193  -0.326  1.00  0.00     0.699 A 
ATOM     18  H3  UNL     1     -13.648  -2.491  -1.735  1.00  0.00     0.185 HD
HETATM   19  N2  UNL     1     -13.516  -1.363   0.427  1.00  0.00    -0.175 N 
HETATM   20  N13 UNL     1     -15.566  -0.415  -0.151  1.00  0.00    -0.021 N 
ATOM     21  H2  UNL     1     -12.895  -2.014  -0.054  1.00  0.00     0.186 HD
ATOM     22  H13 UNL     1     -15.641   0.119   0.715  1.00  0.00     0.203 HD
BRANCH  19  23
HETATM   23  C5  UNL     1     -12.917  -1.084   1.595  1.00  0.00     0.139 A 
HETATM   24  C4  UNL     1     -11.636  -1.233   2.068  1.00  0.00     0.100 A 
HETATM   25  C3  UNL     1     -11.538  -0.784   3.387  1.00  0.00     0.126 A 
HETATM   26  N15 UNL     1     -12.782  -0.371   3.672  1.00  0.00    -0.284 N 
HETATM   27  N14 UNL     1     -13.594  -0.529   2.672  1.00  0.00    -0.283 N 
ATOM     28  H15 UNL     1     -13.059   0.022   4.572  1.00  0.00     0.188 HD
ATOM     29  H14 UNL     1     -14.583  -0.282   2.676  1.00  0.00     0.188 HD
BRANCH  25  30
HETATM   30  N1  UNL     1     -10.492  -0.772   4.158  1.00  0.00    -0.312 N 
HETATM   31  C2  UNL     1      -9.270  -0.314   3.578  1.00  0.00     0.219 C 
HETATM   32  C1  UNL     1      -9.131   1.143   3.292  1.00  0.00     0.117 C 
HETATM   33  O1  UNL     1      -8.351  -1.118   3.322  1.00  0.00    -0.274 OA
ATOM     34  H1  UNL     1     -10.541  -1.077   5.130  1.00  0.00     0.170 HD
ENDBRANCH  25  30
ENDBRANCH  19  23
ENDBRANCH  10  12
ENDBRANCH   1  10
BRANCH   4  35
HETATM   35  N7  UNL     1     -18.947   4.639   0.703  1.00  0.00    -0.370 NA
BRANCH  35  36
HETATM   36  C11 UNL     1     -19.921   5.409   1.070  1.00  0.00     0.111 A 
HETATM   37  C12 UNL     1     -21.264   4.980   0.943  1.00  0.00     0.047 A 
HETATM   38  C13 UNL     1     -22.303   5.767   1.329  1.00  0.00     0.039 A 
HETATM   39  C14 UNL     1     -22.097   7.009   1.860  1.00  0.00     0.103 A 
HETATM   40  C15 UNL     1     -20.807   7.456   1.997  1.00  0.00     0.039 A 
HETATM   41  C16 UNL     1     -19.737   6.712   1.628  1.00  0.00     0.047 A 
BRANCH  39  42
HETATM   42  N8  UNL     1     -23.220   7.775   2.247  1.00  0.00    -0.116 N 
HETATM   43  O2  UNL     1     -24.356   7.284   2.308  1.00  0.00    -0.532 OA
HETATM   44  O3  UNL     1     -23.048   9.094   2.565  1.00  0.00    -0.532 OA
ENDBRANCH  39  42
ENDBRANCH  35  36
ENDBRANCH   4  35
BRANCH   7  45
HETATM   45  N10 UNL     1     -14.406   4.081  -0.118  1.00  0.00    -0.213 N 
HETATM   46  C18 UNL     1     -13.338   3.410   0.633  1.00  0.00     0.168 C 
HETATM   47  C19 UNL     1     -12.818   4.369   1.663  1.00  0.00     0.253 C 
HETATM   48  N11 UNL     1     -13.407   5.687   1.521  1.00  0.00    -0.068 N 
HETATM   49  C20 UNL     1     -13.379   6.199   0.178  1.00  0.00     0.200 C 
ATOM     50 2H11 UNL     1     -14.360   5.695   1.887  1.00  0.00     0.277 HD
ATOM     51 1H11 UNL     1     -12.970   6.346   2.166  1.00  0.00     0.277 HD
HETATM   52  C21 UNL     1     -11.942   6.506  -0.202  1.00  0.00     0.041 C 
HETATM   53  C22 UNL     1     -14.006   5.265  -0.834  1.00  0.00     0.173 C 
ENDBRANCH   7  45
TORSDOF 8
ENDMDL
MODEL 2
REMARK VINA RESULT: -10.137564616      2.583      6.084
REMARK  8 active torsions:
REMARK  status: ('A' for Active; 'I' for Inactive)
REMARK       I    between atoms: C2_2  and  N1_4 
REMARK    1  A    between atoms: N1_4  and  C3_6 
REMARK    2  A    between atoms: C5_8  and  N2_9 
REMARK    3  A    between atoms: C8_17  and  N5_18 
REMARK    4  A    between atoms: N5_18  and  C9_20 
REMARK    5  A    between atoms: C10_23  and  N7_24 
REMARK    6  A    between atoms: N7_24  and  C11_25 
REMARK    7  A    between atoms: C14_28  and  N8_29 
REMARK    8  A    between atoms: C17_36  and  N10_37 
ROOT
HETATM    1  C9  UNL     1     -15.270  -1.035  -0.086  1.00  0.00     0.715 A 
HETATM    2  N6  UNL     1     -16.032  -0.024   0.229  1.00  0.00    -0.147 N 
ATOM      3  H6  UNL     1     -16.166   0.190   1.218  1.00  0.00     0.188 HD
HETATM    4  C10 UNL     1     -16.660   0.763  -0.693  1.00  0.00     0.288 A 
HETATM    5  N9  UNL     1     -16.430   0.410  -2.013  1.00  0.00    -0.148 N 
ATOM      6  H9  UNL     1     -16.872   0.962  -2.749  1.00  0.00     0.188 HD
HETATM    7  C17 UNL     1     -15.656  -0.618  -2.368  1.00  0.00     0.698 A 
HETATM    8  N12 UNL     1     -15.087  -1.327  -1.376  1.00  0.00    -0.021 N 
ATOM      9  H12 UNL     1     -14.491  -2.118  -1.619  1.00  0.00     0.203 HD
ENDROOT
BRANCH   1  10
HETATM   10  N5  UNL     1     -14.624  -1.844   0.945  1.00  0.00    -0.021 N 
ATOM     11  H5  UNL     1     -14.938  -2.789   1.164  1.00  0.00     0.203 HD
BRANCH  10  12
HETATM   12  C8  UNL     1     -13.611  -1.284   1.577  1.00  0.00     0.712 A 
HETATM   13  N4  UNL     1     -12.644  -2.027   2.116  1.00  0.00    -0.186 N 
HETATM   14  C7  UNL     1     -11.634  -1.461   2.761  1.00  0.00     0.215 A 
ATOM     15  H4  UNL     1     -12.681  -3.043   2.032  1.00  0.00     0.185 HD
HETATM   16  N3  UNL     1     -11.564  -0.137   2.883  1.00  0.00    -0.186 N 
HETATM   17  C6  UNL     1     -12.534   0.698   2.347  1.00  0.00     0.699 A 
ATOM     18  H3  UNL     1     -10.776   0.274   3.384  1.00  0.00     0.185 HD
HETATM   19  N2  UNL     1     -12.378   1.901   2.518  1.00  0.00    -0.175 N 
HETATM   20  N13 UNL     1     -13.536   0.050   1.702  1.00  0.00    -0.021 N 
ATOM     21  H2  UNL     1     -11.510   1.996   3.045  1.00  0.00     0.186 HD
ATOM     22  H13 UNL     1     -14.279   0.612   1.286  1.00  0.00     0.203 HD
BRANCH  19  23
HETATM   23  C5  UNL     1     -12.828   3.151   2.328  1.00  0.00     0.139 A 
HETATM   24  C4  UNL     1     -13.817   3.699   1.548  1.00  0.00     0.100 A 
HETATM   25  C3  UNL     1     -13.871   5.085   1.714  1.00  0.00     0.126 A 
HETATM   26  N15 UNL     1     -12.897   5.333   2.603  1.00  0.00    -0.284 N 
HETATM   27  N14 UNL     1     -12.282   4.251   2.973  1.00  0.00    -0.283 N 
ATOM     28  H15 UNL     1     -12.666   6.264   2.949  1.00  0.00     0.188 HD
ATOM     29  H14 UNL     1     -11.511   4.216   3.640  1.00  0.00     0.188 HD
BRANCH  25  30
HETATM   30  N1  UNL     1     -14.669   5.934   1.140  1.00  0.00    -0.312 N 
HETATM   31  C2  UNL     1     -14.295   6.393  -0.159  1.00  0.00     0.219 C 
HETATM   32  C1  UNL     1     -14.412   5.441  -1.301  1.00  0.00     0.117 C 
HETATM   33  O1  UNL     1     -13.883   7.559  -0.323  1.00  0.00    -0.274 OA
ATOM     34  H1  UNL     1     -15.523   6.257   1.596  1.00  0.00     0.170 HD
ENDBRANCH  25  30
ENDBRANCH  19  23
ENDBRANCH  10  12
ENDBRANCH   1  10
BRANCH   4  35
HETATM   35  N7  UNL     1     -17.362   1.664  -0.365  1.00  0.00    -0.370 NA
BRANCH  35  36
HETATM   36  C11 UNL     1     -18.129   2.643  -0.008  1.00  0.00     0.111 A 
HETATM   37  C12 UNL     1     -19.537   2.519  -0.084  1.00  0.00     0.047 A 
HETATM   38  C13 UNL     1     -20.363   3.531   0.293  1.00  0.00     0.039 A 
HETATM   39  C14 UNL     1     -19.870   4.715   0.765  1.00  0.00     0.103 A 
HETATM   40  C15 UNL     1     -18.510   4.868   0.853  1.00  0.00     0.039 A 
HETATM   41  C16 UNL     1     -17.643   3.892   0.489  1.00  0.00     0.047 A 
BRANCH  39  42
HETATM   42  N8  UNL     1     -20.782   5.725   1.146  1.00  0.00    -0.116 N 
HETATM   43  O2  UNL     1     -22.007   5.566   1.055  1.00  0.00    -0.532 OA
HETATM   44  O3  UNL     1     -20.300   6.909   1.630  1.00  0.00    -0.532 OA
ENDBRANCH  39  42
ENDBRANCH  35  36
ENDBRANCH   4  35
BRANCH   7  45
HETATM   45  N10 UNL     1     -15.475  -0.888  -3.761  1.00  0.00    -0.213 N 
HETATM   46  C18 UNL     1     -15.267   0.218  -4.704  1.00  0.00     0.168 C 
HETATM   47  C19 UNL     1     -16.395   0.207  -5.693  1.00  0.00     0.253 C 
HETATM   48  N11 UNL     1     -17.256  -0.948  -5.519  1.00  0.00    -0.068 N 
HETATM   49  C20 UNL     1     -16.549  -2.196  -5.424  1.00  0.00     0.200 C 
ATOM     50 2H11 UNL     1     -17.867  -0.820  -4.712  1.00  0.00     0.277 HD
ATOM     51 1H11 UNL     1     -17.956  -0.987  -6.260  1.00  0.00     0.277 HD
HETATM   52  C21 UNL     1     -15.937  -2.520  -6.775  1.00  0.00     0.041 C 
HETATM   53  C22 UNL     1     -15.486  -2.203  -4.346  1.00  0.00     0.173 C 
ENDBRANCH   7  45
TORSDOF 8
ENDMDL
MODEL 3
REMARK VINA RESULT: -10.101628173      1.081      1.554
REMARK  8 active torsions:
REMARK  status: ('A' for Active; 'I' for Inactive)
REMARK       I    between atoms: C2_2  and  N1_4 
REMARK    1  A    between atoms: N1_4  and  C3_6 
REMARK    2  A    between atoms: C5_8  and  N2_9 
REMARK    3  A    between atoms: C8_17  and  N5_18 
REMARK    4  A    between atoms: N5_18  and  C9_20 
REMARK    5  A    between atoms: C10_23  and  N7_24 
REMARK    6  A    between atoms: N7_24  and  C11_25 
REMARK    7  A    between atoms: C14_28  and  N8_29 
REMARK    8  A    between atoms: C17_36  and  N10_37 
ROOT
HETATM    1  C9  UNL     1     -17.091   2.486  -0.337  1.00  0.00     0.715 A 
HETATM    2  N6  UNL     1     -17.936   3.381   0.095  1.00  0.00    -0.147 N 
ATOM      3  H6  UNL     1     -18.933   3.196  -0.016  1.00  0.00     0.188 HD
HETATM    4  C10 UNL     1     -17.558   4.551   0.689  1.00  0.00     0.288 A 
HETATM    5  N9  UNL     1     -16.189   4.730   0.804  1.00  0.00    -0.148 N 
ATOM      6  H9  UNL     1     -15.845   5.586   1.240  1.00  0.00     0.188 HD
HETATM    7  C17 UNL     1     -15.298   3.834   0.372  1.00  0.00     0.698 A 
HETATM    8  N12 UNL     1     -15.782   2.716  -0.198  1.00  0.00    -0.021 N 
ATOM      9  H12 UNL     1     -15.123   2.015  -0.537  1.00  0.00     0.203 HD
ENDROOT
BRANCH   1  10
HETATM   10  N5  UNL     1     -17.553   1.251  -0.966  1.00  0.00    -0.021 N 
ATOM     11  H5  UNL     1     -18.528   1.114  -1.232  1.00  0.00     0.203 HD
BRANCH  10  12
HETATM   12  C8  UNL     1     -16.639   0.322  -1.170  1.00  0.00     0.712 A 
HETATM   13  N4  UNL     1     -16.654  -0.424  -2.274  1.00  0.00    -0.186 N 
HETATM   14  C7  UNL     1     -15.740  -1.364  -2.470  1.00  0.00     0.215 A 
ATOM     15  H4  UNL     1     -17.376  -0.270  -2.978  1.00  0.00     0.185 HD
HETATM   16  N3  UNL     1     -14.788  -1.583  -1.565  1.00  0.00    -0.186 N 
HETATM   17  C6  UNL     1     -14.712  -0.845  -0.393  1.00  0.00     0.699 A 
ATOM     18  H3  UNL     1     -14.097  -2.312  -1.739  1.00  0.00     0.185 HD
HETATM   19  N2  UNL     1     -13.800  -1.127   0.374  1.00  0.00    -0.175 N 
HETATM   20  N13 UNL     1     -15.677   0.099  -0.261  1.00  0.00    -0.021 N 
ATOM     21  H2  UNL     1     -13.285  -1.885  -0.073  1.00  0.00     0.186 HD
ATOM     22  H13 UNL     1     -15.672   0.674   0.582  1.00  0.00     0.203 HD
BRANCH  19  23
HETATM   23  C5  UNL     1     -13.168  -0.894   1.536  1.00  0.00     0.139 A 
HETATM   24  C4  UNL     1     -11.891  -1.121   1.988  1.00  0.00     0.100 A 
HETATM   25  C3  UNL     1     -11.747  -0.692   3.309  1.00  0.00     0.126 A 
HETATM   26  N15 UNL     1     -12.962  -0.211   3.617  1.00  0.00    -0.284 N 
HETATM   27  N14 UNL     1     -13.795  -0.312   2.628  1.00  0.00    -0.283 N 
ATOM     28  H15 UNL     1     -13.202   0.189   4.524  1.00  0.00     0.188 HD
ATOM     29  H14 UNL     1     -14.769  -0.008   2.650  1.00  0.00     0.188 HD
BRANCH  25  30
HETATM   30  N1  UNL     1     -10.691  -0.748   4.064  1.00  0.00    -0.312 N 
HETATM   31  C2  UNL     1      -9.470  -0.269   3.499  1.00  0.00     0.219 C 
HETATM   32  C1  UNL     1      -9.313   1.202   3.311  1.00  0.00     0.117 C 
HETATM   33  O1  UNL     1      -8.567  -1.066   3.176  1.00  0.00    -0.274 OA
ATOM     34  H1  UNL     1     -10.732  -1.117   5.014  1.00  0.00     0.170 HD
ENDBRANCH  25  30
ENDBRANCH  19  23
ENDBRANCH  10  12
ENDBRANCH   1  10
BRANCH   4  35
HETATM   35  N7  UNL     1     -18.360   5.349   1.052  1.00  0.00    -0.370 NA
BRANCH  35  36
HETATM   36  C11 UNL     1     -19.232   6.220   1.450  1.00  0.00     0.111 A 
HETATM   37  C12 UNL     1     -18.816   7.421   2.074  1.00  0.00     0.047 A 
HETATM   38  C13 UNL     1     -19.712   8.353   2.492  1.00  0.00     0.039 A 
HETATM   39  C14 UNL     1     -21.057   8.174   2.327  1.00  0.00     0.103 A 
HETATM   40  C15 UNL     1     -21.494   7.021   1.726  1.00  0.00     0.039 A 
HETATM   41  C16 UNL     1     -20.643   6.060   1.292  1.00  0.00     0.047 A 
BRANCH  39  42
HETATM   42  N8  UNL     1     -21.936   9.184   2.779  1.00  0.00    -0.116 N 
HETATM   43  O2  UNL     1     -22.908   9.553   2.107  1.00  0.00    -0.532 OA
HETATM   44  O3  UNL     1     -21.707   9.770   3.994  1.00  0.00    -0.532 OA
ENDBRANCH  39  42
ENDBRANCH  35  36
ENDBRANCH   4  35
BRANCH   7  45
HETATM   45  N10 UNL     1     -13.908   4.113   0.552  1.00  0.00    -0.213 N 
HETATM   46  C18 UNL     1     -12.903   3.386  -0.234  1.00  0.00     0.168 C 
HETATM   47  C19 UNL     1     -12.027   2.624   0.716  1.00  0.00     0.253 C 
HETATM   48  N11 UNL     1     -12.332   2.935   2.100  1.00  0.00    -0.068 N 
HETATM   49  C20 UNL     1     -12.412   4.344   2.379  1.00  0.00     0.200 C 
ATOM     50 2H11 UNL     1     -13.188   2.464   2.393  1.00  0.00     0.277 HD
ATOM     51 1H11 UNL     1     -11.664   2.483   2.724  1.00  0.00     0.277 HD
HETATM   52  C21 UNL     1     -11.023   4.947   2.269  1.00  0.00     0.041 C 
HETATM   53  C22 UNL     1     -13.382   5.079   1.481  1.00  0.00     0.173 C 
ENDBRANCH   7  45
TORSDOF 8
ENDMDL
MODEL 4
REMARK VINA RESULT: -10.038231639      2.767      5.306
REMARK  8 active torsions:
REMARK  status: ('A' for Active; 'I' for Inactive)
REMARK       I    between atoms: C2_2  and  N1_4 
REMARK    1  A    between atoms: N1_4  and  C3_6 
REMARK    2  A    between atoms: C5_8  and  N2_9 
REMARK    3  A    between atoms: C8_17  and  N5_18 
REMARK    4  A    between atoms: N5_18  and  C9_20 
REMARK    5  A    between atoms: C10_23  and  N7_24 
REMARK    6  A    between atoms: N7_24  and  C11_25 
REMARK    7  A    between atoms: C14_28  and  N8_29 
REMARK    8  A    between atoms: C17_36  and  N10_37 
ROOT
HETATM    1  C9  UNL     1     -16.319  -0.357  -0.908  1.00  0.00     0.715 A 
HETATM    2  N6  UNL     1     -17.039   0.605  -0.399  1.00  0.00    -0.147 N 
ATOM      3  H6  UNL     1     -17.248   0.576   0.599  1.00  0.00     0.188 HD
HETATM    4  C10 UNL     1     -17.528   1.649  -1.132  1.00  0.00     0.288 A 
HETATM    5  N9  UNL     1     -17.202   1.619  -2.478  1.00  0.00    -0.148 N 
ATOM      6  H9  UNL     1     -17.538   2.373  -3.077  1.00  0.00     0.188 HD
HETATM    7  C17 UNL     1     -16.468   0.649  -3.028  1.00  0.00     0.698 A 
HETATM    8  N12 UNL     1     -16.038  -0.331  -2.213  1.00  0.00    -0.021 N 
ATOM      9  H12 UNL     1     -15.476  -1.085  -2.608  1.00  0.00     0.203 HD
ENDROOT
BRANCH   1  10
HETATM   10  N5  UNL     1     -15.823  -1.451  -0.075  1.00  0.00    -0.021 N 
ATOM     11  H5  UNL     1     -16.277  -2.364  -0.060  1.00  0.00     0.203 HD
BRANCH  10  12
HETATM   12  C8  UNL     1     -14.757  -1.191   0.655  1.00  0.00     0.712 A 
HETATM   13  N4  UNL     1     -13.990  -2.176   1.124  1.00  0.00    -0.186 N 
HETATM   14  C7  UNL     1     -12.926  -1.912   1.868  1.00  0.00     0.215 A 
ATOM     15  H4  UNL     1     -14.225  -3.145   0.908  1.00  0.00     0.185 HD
HETATM   16  N3  UNL     1     -12.600  -0.655   2.163  1.00  0.00    -0.186 N 
HETATM   17  C6  UNL     1     -13.352   0.420   1.710  1.00  0.00     0.699 A 
ATOM     18  H3  UNL     1     -11.776  -0.478   2.737  1.00  0.00     0.185 HD
HETATM   19  N2  UNL     1     -12.968   1.535   2.040  1.00  0.00    -0.175 N 
HETATM   20  N13 UNL     1     -14.425   0.074   0.955  1.00  0.00    -0.021 N 
ATOM     21  H2  UNL     1     -12.131   1.386   2.602  1.00  0.00     0.186 HD
ATOM     22  H13 UNL     1     -15.015   0.823   0.592  1.00  0.00     0.203 HD
BRANCH  19  23
HETATM   23  C5  UNL     1     -13.148   2.865   1.999  1.00  0.00     0.139 A 
HETATM   24  C4  UNL     1     -13.932   3.698   1.238  1.00  0.00     0.100 A 
HETATM   25  C3  UNL     1     -13.732   5.033   1.596  1.00  0.00     0.126 A 
HETATM   26  N15 UNL     1     -12.820   4.962   2.578  1.00  0.00    -0.284 N 
HETATM   27  N14 UNL     1     -12.465   3.740   2.832  1.00  0.00    -0.283 N 
ATOM     28  H15 UNL     1     -12.449   5.776   3.068  1.00  0.00     0.188 HD
ATOM     29  H14 UNL     1     -11.784   3.464   3.539  1.00  0.00     0.188 HD
BRANCH  25  30
HETATM   30  N1  UNL     1     -14.292   6.093   1.095  1.00  0.00    -0.312 N 
HETATM   31  C2  UNL     1     -13.824   6.524  -0.183  1.00  0.00     0.219 C 
HETATM   32  C1  UNL     1     -14.192   5.710  -1.377  1.00  0.00     0.117 C 
HETATM   33  O1  UNL     1     -13.130   7.555  -0.287  1.00  0.00    -0.274 OA
ATOM     34  H1  UNL     1     -15.031   6.593   1.591  1.00  0.00     0.170 HD
ENDBRANCH  25  30
ENDBRANCH  19  23
ENDBRANCH  10  12
ENDBRANCH   1  10
BRANCH   4  35
HETATM   35  N7  UNL     1     -18.196   2.496  -0.634  1.00  0.00    -0.370 NA
BRANCH  35  36
HETATM   36  C11 UNL     1     -18.926   3.420  -0.095  1.00  0.00     0.111 A 
HETATM   37  C12 UNL     1     -20.338   3.347  -0.154  1.00  0.00     0.047 A 
HETATM   38  C13 UNL     1     -21.125   4.301   0.412  1.00  0.00     0.039 A 
HETATM   39  C14 UNL     1     -20.586   5.373   1.066  1.00  0.00     0.103 A 
HETATM   40  C15 UNL     1     -19.220   5.474   1.142  1.00  0.00     0.039 A 
HETATM   41  C16 UNL     1     -18.391   4.551   0.594  1.00  0.00     0.047 A 
BRANCH  39  42
HETATM   42  N8  UNL     1     -21.459   6.326   1.637  1.00  0.00    -0.116 N 
HETATM   43  O2  UNL     1     -22.676   6.121   1.735  1.00  0.00    -0.532 OA
HETATM   44  O3  UNL     1     -20.945   7.508   2.096  1.00  0.00    -0.532 OA
ENDBRANCH  39  42
ENDBRANCH  35  36
ENDBRANCH   4  35
BRANCH   7  45
HETATM   45  N10 UNL     1     -16.179   0.722  -4.427  1.00  0.00    -0.213 N 
HETATM   46  C18 UNL     1     -16.443  -0.433  -5.294  1.00  0.00     0.168 C 
HETATM   47  C19 UNL     1     -15.140  -0.877  -5.890  1.00  0.00     0.253 C 
HETATM   48  N11 UNL     1     -14.056   0.028  -5.556  1.00  0.00    -0.068 N 
HETATM   49  C20 UNL     1     -14.361   1.415  -5.785  1.00  0.00     0.200 C 
ATOM     50 2H11 UNL     1     -13.751  -0.118  -4.594  1.00  0.00     0.277 HD
ATOM     51 1H11 UNL     1     -13.203  -0.238  -6.050  1.00  0.00     0.277 HD
HETATM   52  C21 UNL     1     -14.462   1.658  -7.280  1.00  0.00     0.041 C 
HETATM   53  C22 UNL     1     -15.623   1.874  -5.087  1.00  0.00     0.173 C 
ENDBRANCH   7  45
TORSDOF 8
ENDMDL
MODEL 5
REMARK VINA RESULT: -9.974110689      2.881      5.319
REMARK  8 active torsions:
REMARK  status: ('A' for Active; 'I' for Inactive)
REMARK       I    between atoms: C2_2  and  N1_4 
REMARK    1  A    between atoms: N1_4  and  C3_6 
REMARK    2  A    between atoms: C5_8  and  N2_9 
REMARK    3  A    between atoms: C8_17  and  N5_18 
REMARK    4  A    between atoms: N5_18  and  C9_20 
REMARK    5  A    between atoms: C10_23  and  N7_24 
REMARK    6  A    between atoms: N7_24  and  C11_25 
REMARK    7  A    between atoms: C14_28  and  N8_29 
REMARK    8  A    between atoms: C17_36  and  N10_37 
ROOT
HETATM    1  C9  UNL     1     -14.989   3.486   1.228  1.00  0.00     0.715 A 
HETATM    2  N6  UNL     1     -16.157   4.016   1.471  1.00  0.00    -0.147 N 
ATOM      3  H6  UNL     1     -16.467   4.076   2.440  1.00  0.00     0.188 HD
HETATM    4  C10 UNL     1     -16.985   4.494   0.496  1.00  0.00     0.288 A 
HETATM    5  N9  UNL     1     -16.493   4.378  -0.795  1.00  0.00    -0.148 N 
ATOM      6  H9  UNL     1     -17.067   4.718  -1.566  1.00  0.00     0.188 HD
HETATM    7  C17 UNL     1     -15.304   3.841  -1.076  1.00  0.00     0.698 A 
HETATM    8  N12 UNL     1     -14.570   3.401  -0.037  1.00  0.00    -0.021 N 
ATOM      9  H12 UNL     1     -13.657   2.986  -0.224  1.00  0.00     0.203 HD
ENDROOT
BRANCH   1  10
HETATM   10  N5  UNL     1     -14.145   2.989   2.313  1.00  0.00    -0.021 N 
ATOM     11  H5  UNL     1     -13.749   3.612   3.016  1.00  0.00     0.203 HD
BRANCH  10  12
HETATM   12  C8  UNL     1     -13.922   1.690   2.330  1.00  0.00     0.712 A 
HETATM   13  N4  UNL     1     -13.383   1.100   3.397  1.00  0.00    -0.186 N 
HETATM   14  C7  UNL     1     -13.149  -0.204   3.406  1.00  0.00     0.215 A 
ATOM     15  H4  UNL     1     -13.147   1.660   4.217  1.00  0.00     0.185 HD
HETATM   16  N3  UNL     1     -13.450  -0.954   2.348  1.00  0.00    -0.186 N 
HETATM   17  C6  UNL     1     -14.013  -0.409   1.203  1.00  0.00     0.699 A 
ATOM     18  H3  UNL     1     -13.260  -1.956   2.380  1.00  0.00     0.185 HD
HETATM   19  N2  UNL     1     -14.248  -1.184   0.284  1.00  0.00    -0.175 N 
HETATM   20  N13 UNL     1     -14.223   0.930   1.265  1.00  0.00    -0.021 N 
ATOM     21  H2  UNL     1     -13.954  -2.103   0.615  1.00  0.00     0.186 HD
ATOM     22  H13 UNL     1     -14.637   1.387   0.452  1.00  0.00     0.203 HD
BRANCH  19  23
HETATM   23  C5  UNL     1     -14.715  -1.377  -0.959  1.00  0.00     0.139 A 
HETATM   24  C4  UNL     1     -14.120  -1.542  -2.186  1.00  0.00     0.100 A 
HETATM   25  C3  UNL     1     -15.081  -1.699  -3.188  1.00  0.00     0.126 A 
HETATM   26  N15 UNL     1     -16.244  -1.623  -2.523  1.00  0.00    -0.284 N 
HETATM   27  N14 UNL     1     -16.071  -1.439  -1.250  1.00  0.00    -0.283 N 
ATOM     28  H15 UNL     1     -17.158  -1.701  -2.966  1.00  0.00     0.188 HD
ATOM     29  H14 UNL     1     -16.821  -1.352  -0.564  1.00  0.00     0.188 HD
BRANCH  25  30
HETATM   30  N1  UNL     1     -14.894  -1.873  -4.462  1.00  0.00    -0.312 N 
HETATM   31  C2  UNL     1     -16.061  -1.917  -5.283  1.00  0.00     0.219 C 
HETATM   32  C1  UNL     1     -16.803  -0.646  -5.518  1.00  0.00     0.117 C 
HETATM   33  O1  UNL     1     -16.440  -2.994  -5.785  1.00  0.00    -0.274 OA
ATOM     34  H1  UNL     1     -13.958  -1.972  -4.856  1.00  0.00     0.170 HD
ENDBRANCH  25  30
ENDBRANCH  19  23
ENDBRANCH  10  12
ENDBRANCH   1  10
BRANCH   4  35
HETATM   35  N7  UNL     1     -18.050   4.951   0.757  1.00  0.00    -0.370 NA
BRANCH  35  36
HETATM   36  C11 UNL     1     -19.210   5.448   1.044  1.00  0.00     0.111 A 
HETATM   37  C12 UNL     1     -19.317   6.728   1.641  1.00  0.00     0.047 A 
HETATM   38  C13 UNL     1     -20.524   7.274   1.944  1.00  0.00     0.039 A 
HETATM   39  C14 UNL     1     -21.691   6.611   1.684  1.00  0.00     0.103 A 
HETATM   40  C15 UNL     1     -21.624   5.369   1.106  1.00  0.00     0.039 A 
HETATM   41  C16 UNL     1     -20.446   4.780   0.785  1.00  0.00     0.047 A 
BRANCH  39  42
HETATM   42  N8  UNL     1     -22.914   7.237   2.018  1.00  0.00    -0.116 N 
HETATM   43  O2  UNL     1     -23.011   8.467   2.124  1.00  0.00    -0.532 OA
HETATM   44  O3  UNL     1     -24.021   6.462   2.229  1.00  0.00    -0.532 OA
ENDBRANCH  39  42
ENDBRANCH  35  36
ENDBRANCH   4  35
BRANCH   7  45
HETATM   45  N10 UNL     1     -14.887   3.782  -2.442  1.00  0.00    -0.213 N 
HETATM   46  C18 UNL     1     -15.088   4.939  -3.324  1.00  0.00     0.168 C 
HETATM   47  C19 UNL     1     -15.995   4.520  -4.444  1.00  0.00     0.253 C 
HETATM   48  N11 UNL     1     -16.281   3.099  -4.405  1.00  0.00    -0.068 N 
HETATM   49  C20 UNL     1     -15.115   2.270  -4.257  1.00  0.00     0.200 C 
ATOM     50 2H11 UNL     1     -16.963   2.890  -3.676  1.00  0.00     0.277 HD
ATOM     51 1H11 UNL     1     -16.817   2.819  -5.227  1.00  0.00     0.277 HD
HETATM   52  C21 UNL     1     -14.293   2.344  -5.531  1.00  0.00     0.041 C 
HETATM   53  C22 UNL     1     -14.267   2.638  -3.058  1.00  0.00     0.173 C 
ENDBRANCH   7  45
TORSDOF 8
ENDMDL
