MODEL 1
REMARK VINA RESULT: -6.022486921      0.000      0.000
REMARK  5 active torsions:
REMARK  status: ('A' for Active; 'I' for Inactive)
REMARK       I    between atoms: C1_4  and  N2_5 
REMARK       I    between atoms: C1_4  and  N5_10 
REMARK    1  A    between atoms: N5_10  and  O1_12 
REMARK    2  A    between atoms: O1_12  and  C3_13 
REMARK    3  A    between atoms: C3_13  and  C4_14 
REMARK    4  A    between atoms: C4_14  and  C15_25 
REMARK    5  A    between atoms: C11_21  and  C13_23 
ROOT
HETATM    1  C4  UNL     1       8.841  12.131   0.146  1.00  0.00    -0.012 C 
HETATM    2  C5  UNL     1       8.196  12.671   1.365  1.00  0.00     0.017 C 
HETATM    3  C6  UNL     1       9.044  12.865   2.560  1.00  0.00    -0.013 C 
HETATM    4  C7  UNL     1       9.271  11.621   3.381  1.00  0.00     0.005 C 
HETATM    5  C8  UNL     1       9.972  10.518   2.749  1.00  0.00     0.005 C 
HETATM    6  C9  UNL     1      10.579  10.768   1.388  1.00  0.00    -0.013 C 
HETATM    7  C10 UNL     1      11.621  11.805   1.388  1.00  0.00     0.010 C 
HETATM    8  C11 UNL     1      11.214  13.223   1.316  1.00  0.00    -0.009 C 
HETATM    9  C12 UNL     1      10.264  13.681   2.358  1.00  0.00     0.010 C 
HETATM   10  C16 UNL     1       9.552  10.832   0.336  1.00  0.00     0.017 C 
ENDROOT
BRANCH   1  11
HETATM   11  C3  UNL     1       7.649  11.743  -0.767  1.00  0.00     0.211 C 
BRANCH  11  12
HETATM   12  O1  UNL     1       7.322  10.451  -0.444  1.00  0.00    -0.266 OA
BRANCH  12  13
HETATM   13  N5  UNL     1       6.064  10.274  -0.064  1.00  0.00    -0.097 N 
HETATM   14  C1  UNL     1       5.773   9.807   1.237  1.00  0.00     0.697 C 
HETATM   15  N1  UNL     1       6.621   9.223   2.009  1.00  0.00    -0.233 N 
HETATM   16  N2  UNL     1       4.450   9.974   1.775  1.00  0.00    -0.164 N 
ATOM     17  H12 UNL     1       6.410   8.885   2.948  1.00  0.00     0.174 HD
ATOM     18  H11 UNL     1       7.559   9.104   1.627  1.00  0.00     0.174 HD
HETATM   19  C2  UNL     1       3.642   8.962   1.650  1.00  0.00     0.215 C 
ATOM     20  H2  UNL     1       4.161  10.839   2.231  1.00  0.00     0.186 HD
HETATM   21  N3  UNL     1       2.328   9.137   2.189  1.00  0.00    -0.066 NA
HETATM   22  N4  UNL     1       4.019   7.748   1.022  1.00  0.00    -0.066 NA
ATOM     23  H5  UNL     1       5.304  10.476  -0.714  1.00  0.00     0.213 HD
ENDBRANCH  12  13
ENDBRANCH  11  12
ENDBRANCH   1  11
BRANCH   1  24
HETATM   24  C15 UNL     1       9.605  13.155  -0.622  1.00  0.00     0.001 A 
HETATM   25  C13 UNL     1       9.426  13.233  -2.047  1.00  0.00    -0.005 A 
HETATM   26  C14 UNL     1       8.924  14.352  -1.206  1.00  0.00     0.011 A 
ENDBRANCH   1  24
TORSDOF 5
ENDMDL
MODEL 2
REMARK VINA RESULT: -5.722141922      0.958      1.260
REMARK  5 active torsions:
REMARK  status: ('A' for Active; 'I' for Inactive)
REMARK       I    between atoms: C1_4  and  N2_5 
REMARK       I    between atoms: C1_4  and  N5_10 
REMARK    1  A    between atoms: N5_10  and  O1_12 
REMARK    2  A    between atoms: O1_12  and  C3_13 
REMARK    3  A    between atoms: C3_13  and  C4_14 
REMARK    4  A    between atoms: C4_14  and  C15_25 
REMARK    5  A    between atoms: C11_21  and  C13_23 
ROOT
HETATM    1  C4  UNL     1       8.625  11.605  -0.004  1.00  0.00    -0.012 C 
HETATM    2  C5  UNL     1       7.893  12.067   1.198  1.00  0.00     0.017 C 
HETATM    3  C6  UNL     1       8.675  12.289   2.433  1.00  0.00    -0.013 C 
HETATM    4  C7  UNL     1       8.956  11.043   3.233  1.00  0.00     0.005 C 
HETATM    5  C8  UNL     1       9.759  10.009   2.607  1.00  0.00     0.005 C 
HETATM    6  C9  UNL     1      10.403  10.336   1.279  1.00  0.00    -0.013 C 
HETATM    7  C10 UNL     1      11.368  11.442   1.348  1.00  0.00     0.010 C 
HETATM    8  C11 UNL     1      10.864  12.830   1.291  1.00  0.00    -0.009 C 
HETATM    9  C12 UNL     1       9.842  13.193   2.302  1.00  0.00     0.010 C 
HETATM   10  C16 UNL     1       9.418  10.355   0.186  1.00  0.00     0.017 C 
ENDROOT
BRANCH   1  11
HETATM   11  C3  UNL     1       7.502  11.159  -0.976  1.00  0.00     0.211 C 
BRANCH  11  12
HETATM   12  O1  UNL     1       6.354  11.085  -0.229  1.00  0.00    -0.266 OA
BRANCH  12  13
HETATM   13  N5  UNL     1       5.865   9.860  -0.082  1.00  0.00    -0.097 N 
HETATM   14  C1  UNL     1       4.928   9.587   0.938  1.00  0.00     0.697 C 
HETATM   15  N1  UNL     1       4.723  10.339   1.963  1.00  0.00    -0.233 N 
HETATM   16  N2  UNL     1       4.124   8.396   0.868  1.00  0.00    -0.164 N 
ATOM     17  H12 UNL     1       4.046  10.141   2.699  1.00  0.00     0.174 HD
ATOM     18  H11 UNL     1       5.294  11.184   2.013  1.00  0.00     0.174 HD
HETATM   19  C2  UNL     1       4.562   7.364   1.527  1.00  0.00     0.215 C 
ATOM     20  H2  UNL     1       3.258   8.364   0.330  1.00  0.00     0.186 HD
HETATM   21  N3  UNL     1       3.756   6.184   1.452  1.00  0.00    -0.066 NA
HETATM   22  N4  UNL     1       5.762   7.383   2.283  1.00  0.00    -0.066 NA
ATOM     23  H5  UNL     1       6.168   9.114  -0.708  1.00  0.00     0.213 HD
ENDBRANCH  12  13
ENDBRANCH  11  12
ENDBRANCH   1  11
BRANCH   1  24
HETATM   24  C15 UNL     1       9.345  12.701  -0.715  1.00  0.00     0.001 A 
HETATM   25  C13 UNL     1       9.220  12.803  -2.145  1.00  0.00    -0.005 A 
HETATM   26  C14 UNL     1       8.606  13.862  -1.300  1.00  0.00     0.011 A 
ENDBRANCH   1  24
TORSDOF 5
ENDMDL
MODEL 3
REMARK VINA RESULT: -5.665241093      2.353      3.921
REMARK  5 active torsions:
REMARK  status: ('A' for Active; 'I' for Inactive)
REMARK       I    between atoms: C1_4  and  N2_5 
REMARK       I    between atoms: C1_4  and  N5_10 
REMARK    1  A    between atoms: N5_10  and  O1_12 
REMARK    2  A    between atoms: O1_12  and  C3_13 
REMARK    3  A    between atoms: C3_13  and  C4_14 
REMARK    4  A    between atoms: C4_14  and  C15_25 
REMARK    5  A    between atoms: C11_21  and  C13_23 
ROOT
HETATM    1  C4  UNL     1       6.248  10.504   0.849  1.00  0.00    -0.012 C 
HETATM    2  C5  UNL     1       7.085   9.734   1.798  1.00  0.00     0.017 C 
HETATM    3  C6  UNL     1       8.463  10.212   2.040  1.00  0.00    -0.013 C 
HETATM    4  C7  UNL     1       9.468   9.787   1.000  1.00  0.00     0.005 C 
HETATM    5  C8  UNL     1       9.271  10.259  -0.358  1.00  0.00     0.005 C 
HETATM    6  C9  UNL     1       8.184  11.283  -0.588  1.00  0.00    -0.013 C 
HETATM    7  C10 UNL     1       8.408  12.550   0.124  1.00  0.00     0.010 C 
HETATM    8  C11 UNL     1       8.012  12.649   1.544  1.00  0.00    -0.009 C 
HETATM    9  C12 UNL     1       8.589  11.629   2.453  1.00  0.00     0.010 C 
HETATM   10  C16 UNL     1       6.843  10.683  -0.509  1.00  0.00     0.017 C 
ENDROOT
BRANCH   1  11
HETATM   11  C3  UNL     1       5.039   9.572   0.577  1.00  0.00     0.211 C 
BRANCH  11  12
HETATM   12  O1  UNL     1       5.167   8.514   1.440  1.00  0.00    -0.266 OA
BRANCH  12  13
HETATM   13  N5  UNL     1       4.285   7.540   1.260  1.00  0.00    -0.097 N 
HETATM   14  C1  UNL     1       4.543   6.246   1.762  1.00  0.00     0.697 C 
HETATM   15  N1  UNL     1       5.705   5.817   2.113  1.00  0.00    -0.233 N 
HETATM   16  N2  UNL     1       3.462   5.309   1.909  1.00  0.00    -0.164 N 
ATOM     17  H12 UNL     1       5.891   4.882   2.476  1.00  0.00     0.174 HD
ATOM     18  H11 UNL     1       6.472   6.481   2.009  1.00  0.00     0.174 HD
HETATM   19  C2  UNL     1       3.285   4.472   0.928  1.00  0.00     0.215 C 
ATOM     20  H2  UNL     1       2.866   5.301   2.736  1.00  0.00     0.186 HD
HETATM   21  N3  UNL     1       2.208   3.544   1.082  1.00  0.00    -0.066 NA
HETATM   22  N4  UNL     1       4.100   4.462  -0.233  1.00  0.00    -0.066 NA
ATOM     23  H5  UNL     1       3.418   7.727   0.757  1.00  0.00     0.213 HD
ENDBRANCH  12  13
ENDBRANCH  11  12
ENDBRANCH   1  11
BRANCH   1  24
HETATM   24  C15 UNL     1       5.664  11.740   1.443  1.00  0.00     0.001 A 
HETATM   25  C13 UNL     1       4.709  12.497   0.678  1.00  0.00    -0.005 A 
HETATM   26  C14 UNL     1       4.239  11.783   1.895  1.00  0.00     0.011 A 
ENDBRANCH   1  24
TORSDOF 5
ENDMDL
MODEL 4
REMARK VINA RESULT: -5.564171491      1.253      2.926
REMARK  5 active torsions:
REMARK  status: ('A' for Active; 'I' for Inactive)
REMARK       I    between atoms: C1_4  and  N2_5 
REMARK       I    between atoms: C1_4  and  N5_10 
REMARK    1  A    between atoms: N5_10  and  O1_12 
REMARK    2  A    between atoms: O1_12  and  C3_13 
REMARK    3  A    between atoms: C3_13  and  C4_14 
REMARK    4  A    between atoms: C4_14  and  C15_25 
REMARK    5  A    between atoms: C11_21  and  C13_23 
ROOT
HETATM    1  C4  UNL     1       8.856  12.085  -0.243  1.00  0.00    -0.012 C 
HETATM    2  C5  UNL     1       9.588  12.948  -1.199  1.00  0.00     0.017 C 
HETATM    3  C6  UNL     1      10.330  14.103  -0.649  1.00  0.00    -0.013 C 
HETATM    4  C7  UNL     1       9.486  15.324  -0.383  1.00  0.00     0.005 C 
HETATM    5  C8  UNL     1       8.429  15.207   0.604  1.00  0.00     0.005 C 
HETATM    6  C9  UNL     1       8.373  13.935   1.418  1.00  0.00    -0.013 C 
HETATM    7  C10 UNL     1       9.565  13.715   2.250  1.00  0.00     0.010 C 
HETATM    8  C11 UNL     1      10.761  13.106   1.633  1.00  0.00    -0.009 C 
HETATM    9  C12 UNL     1      11.294  13.793   0.431  1.00  0.00     0.010 C 
HETATM   10  C16 UNL     1       7.875  12.801   0.623  1.00  0.00     0.017 C 
ENDROOT
BRANCH   1  11
HETATM   11  C3  UNL     1       7.947  11.214  -1.149  1.00  0.00     0.211 C 
BRANCH  11  12
HETATM   12  O1  UNL     1       6.674  11.344  -0.655  1.00  0.00    -0.266 OA
BRANCH  12  13
HETATM   13  N5  UNL     1       6.083  10.201  -0.333  1.00  0.00    -0.097 N 
HETATM   14  C1  UNL     1       5.305  10.109   0.842  1.00  0.00     0.697 C 
HETATM   15  N1  UNL     1       5.359  10.943   1.821  1.00  0.00    -0.233 N 
HETATM   16  N2  UNL     1       4.373   9.024   0.997  1.00  0.00    -0.164 N 
ATOM     17  H12 UNL     1       4.797  10.876   2.669  1.00  0.00     0.174 HD
ATOM     18  H11 UNL     1       6.020  11.712   1.711  1.00  0.00     0.174 HD
HETATM   19  C2  UNL     1       4.797   7.989   1.661  1.00  0.00     0.215 C 
ATOM     20  H2  UNL     1       3.431   9.065   0.608  1.00  0.00     0.186 HD
HETATM   21  N3  UNL     1       3.863   6.915   1.810  1.00  0.00    -0.066 NA
HETATM   22  N4  UNL     1       6.100   7.907   2.213  1.00  0.00    -0.066 NA
ATOM     23  H5  UNL     1       6.193   9.385  -0.936  1.00  0.00     0.213 HD
ENDBRANCH  12  13
ENDBRANCH  11  12
ENDBRANCH   1  11
BRANCH   1  24
HETATM   24  C15 UNL     1       9.735  11.117   0.474  1.00  0.00     0.001 A 
HETATM   25  C13 UNL     1       9.133  10.005   1.159  1.00  0.00    -0.005 A 
HETATM   26  C14 UNL     1       9.955   9.734  -0.051  1.00  0.00     0.011 A 
ENDBRANCH   1  24
TORSDOF 5
ENDMDL
MODEL 5
REMARK VINA RESULT: -5.422096586      3.215      5.671
REMARK  5 active torsions:
REMARK  status: ('A' for Active; 'I' for Inactive)
REMARK       I    between atoms: C1_4  and  N2_5 
REMARK       I    between atoms: C1_4  and  N5_10 
REMARK    1  A    between atoms: N5_10  and  O1_12 
REMARK    2  A    between atoms: O1_12  and  C3_13 
REMARK    3  A    between atoms: C3_13  and  C4_14 
REMARK    4  A    between atoms: C4_14  and  C15_25 
REMARK    5  A    between atoms: C11_21  and  C13_23 
ROOT
HETATM    1  C4  UNL     1       7.639  11.204   0.997  1.00  0.00    -0.012 C 
HETATM    2  C5  UNL     1       8.542  10.227   0.346  1.00  0.00     0.017 C 
HETATM    3  C6  UNL     1       9.672   9.703   1.143  1.00  0.00    -0.013 C 
HETATM    4  C7  UNL     1      10.880  10.603   1.190  1.00  0.00     0.005 C 
HETATM    5  C8  UNL     1      10.722  11.909   1.803  1.00  0.00     0.005 C 
HETATM    6  C9  UNL     1       9.415  12.193   2.508  1.00  0.00    -0.013 C 
HETATM    7  C10 UNL     1       9.159  11.308   3.654  1.00  0.00     0.010 C 
HETATM    8  C11 UNL     1       8.577   9.973   3.405  1.00  0.00    -0.009 C 
HETATM    9  C12 UNL     1       9.315   9.108   2.452  1.00  0.00     0.010 C 
HETATM   10  C16 UNL     1       8.317  12.412   1.553  1.00  0.00     0.017 C 
ENDROOT
BRANCH   1  11
HETATM   11  C3  UNL     1       6.808  11.784  -0.178  1.00  0.00     0.211 C 
BRANCH  11  12
HETATM   12  O1  UNL     1       7.712  12.156  -1.140  1.00  0.00    -0.266 OA
BRANCH  12  13
HETATM   13  N5  UNL     1       7.600  13.412  -1.550  1.00  0.00    -0.097 N 
HETATM   14  C1  UNL     1       8.697  14.061  -2.158  1.00  0.00     0.697 C 
HETATM   15  N1  UNL     1       9.918  13.663  -2.076  1.00  0.00    -0.233 N 
HETATM   16  N2  UNL     1       8.481  15.254  -2.932  1.00  0.00    -0.164 N 
ATOM     17  H12 UNL     1      10.711  14.132  -2.515  1.00  0.00     0.174 HD
ATOM     18  H11 UNL     1      10.072  12.817  -1.527  1.00  0.00     0.174 HD
HETATM   19  C2  UNL     1       8.652  16.385  -2.312  1.00  0.00     0.215 C 
ATOM     20  H2  UNL     1       8.208  15.215  -3.914  1.00  0.00     0.186 HD
HETATM   21  N3  UNL     1       8.434  17.566  -3.090  1.00  0.00    -0.066 NA
HETATM   22  N4  UNL     1       9.031  16.467  -0.948  1.00  0.00    -0.066 NA
ATOM     23  H5  UNL     1       6.719  13.911  -1.426  1.00  0.00     0.213 HD
ENDBRANCH  12  13
ENDBRANCH  11  12
ENDBRANCH   1  11
BRANCH   1  24
HETATM   24  C15 UNL     1       6.641  10.572   1.907  1.00  0.00     0.001 A 
HETATM   25  C13 UNL     1       5.246  10.877   1.731  1.00  0.00    -0.005 A 
HETATM   26  C14 UNL     1       5.717   9.501   1.420  1.00  0.00     0.011 A 
ENDBRANCH   1  24
TORSDOF 5
ENDMDL
