MODEL 1
REMARK VINA RESULT: -7.685979002      0.000      0.000
REMARK  6 active torsions:
REMARK  status: ('A' for Active; 'I' for Inactive)
REMARK    1  A    between atoms: C6_6  and  C7_7 
REMARK    2  A    between atoms: C7_7  and  N1_8 
REMARK    3  A    between atoms: N1_8  and  C8_10 
REMARK    4  A    between atoms: C9_13  and  N3_14 
REMARK    5  A    between atoms: N3_14  and  C10_16 
REMARK    6  A    between atoms: C10_16  and  C11_17 
ROOT
HETATM    1  C1  UNL     1      10.243   9.182   0.119  1.00  0.00     0.012 C 
HETATM    2  C2  UNL     1       9.464   9.962   0.599  1.00  0.00    -0.113 C 
HETATM    3  C3  UNL     1       8.506  10.938   1.171  1.00  0.00     0.064 C 
HETATM    4  C4  UNL     1       8.054  10.343   2.499  1.00  0.00     0.017 C 
HETATM    5  C5  UNL     1       7.314   9.063   2.167  1.00  0.00     0.007 C 
HETATM    6  C6  UNL     1       6.130   9.297   1.267  1.00  0.00     0.004 C 
HETATM    7  C16 UNL     1       6.055  10.773   0.950  1.00  0.00     0.007 C 
HETATM    8  C17 UNL     1       7.348  11.150   0.242  1.00  0.00     0.017 C 
ENDROOT
BRANCH   6   9
HETATM    9  C7  UNL     1       4.839   8.784   1.866  1.00  0.00     0.142 C 
BRANCH   9  10
HETATM   10  N1  UNL     1       4.169   7.883   0.973  1.00  0.00    -0.226 N 
ATOM     11  H1  UNL     1       3.627   8.244   0.187  1.00  0.00     0.177 HD
BRANCH  10  12
HETATM   12  C8  UNL     1       4.258   6.611   1.174  1.00  0.00     0.681 A 
HETATM   13  N2  UNL     1       3.252   5.786   0.847  1.00  0.00    -0.175 N 
HETATM   14  C9  UNL     1       3.297   4.458   1.036  1.00  0.00     0.149 A 
ATOM     15  H2  UNL     1       2.410   6.188   0.435  1.00  0.00     0.186 HD
HETATM   16  C14 UNL     1       4.434   3.925   1.593  1.00  0.00     0.138 A 
HETATM   17  N4  UNL     1       5.179   2.922   2.041  1.00  0.00    -0.292 N 
HETATM   18  C15 UNL     1       5.493   4.749   1.943  1.00  0.00     0.167 A 
HETATM   19  N5  UNL     1       6.197   3.693   2.379  1.00  0.00    -0.282 N 
ATOM     20  H4  UNL     1       5.022   1.916   2.103  1.00  0.00     0.187 HD
ATOM     21  H5  UNL     1       7.119   3.549   2.793  1.00  0.00     0.188 HD
HETATM   22  N6  UNL     1       5.362   6.065   1.718  1.00  0.00    -0.173 N 
ATOM     23  H6  UNL     1       6.135   6.680   1.970  1.00  0.00     0.186 HD
BRANCH  14  24
HETATM   24  N3  UNL     1       2.304   3.754   0.700  1.00  0.00    -0.373 N 
ATOM     25  H3  UNL     1       1.766   4.115  -0.088  1.00  0.00     0.161 HD
BRANCH  24  26
HETATM   26  C10 UNL     1       1.824   2.541   1.250  1.00  0.00     0.126 C 
BRANCH  26  27
HETATM   27  C11 UNL     1       2.020   1.421   0.227  1.00  0.00     0.003 A 
HETATM   28  C12 UNL     1       0.999   1.317  -0.889  1.00  0.00     0.007 A 
HETATM   29  C13 UNL     1       2.403   1.704  -1.153  1.00  0.00     0.007 A 
ENDBRANCH  26  27
ENDBRANCH  24  26
ENDBRANCH  14  24
ENDBRANCH  10  12
ENDBRANCH   9  10
ENDBRANCH   6   9
TORSDOF 6
ENDMDL
MODEL 2
REMARK VINA RESULT: -7.424604609      2.862      4.258
REMARK  6 active torsions:
REMARK  status: ('A' for Active; 'I' for Inactive)
REMARK    1  A    between atoms: C6_6  and  C7_7 
REMARK    2  A    between atoms: C7_7  and  N1_8 
REMARK    3  A    between atoms: N1_8  and  C8_10 
REMARK    4  A    between atoms: C9_13  and  N3_14 
REMARK    5  A    between atoms: N3_14  and  C10_16 
REMARK    6  A    between atoms: C10_16  and  C11_17 
ROOT
HETATM    1  C1  UNL     1       0.986  10.654   5.794  1.00  0.00     0.012 C 
HETATM    2  C2  UNL     1       0.996  10.986   4.638  1.00  0.00    -0.113 C 
HETATM    3  C3  UNL     1       1.016  11.415   3.219  1.00  0.00     0.064 C 
HETATM    4  C4  UNL     1       0.548  10.209   2.415  1.00  0.00     0.017 C 
HETATM    5  C5  UNL     1       1.590   9.127   2.618  1.00  0.00     0.007 C 
HETATM    6  C6  UNL     1       2.962   9.555   2.170  1.00  0.00     0.004 C 
HETATM    7  C16 UNL     1       2.877  10.976   1.661  1.00  0.00     0.007 C 
HETATM    8  C17 UNL     1       2.397  11.842   2.816  1.00  0.00     0.017 C 
ENDROOT
BRANCH   6   9
HETATM    9  C7  UNL     1       3.550   8.622   1.135  1.00  0.00     0.142 C 
BRANCH   9  10
HETATM   10  N1  UNL     1       4.667   7.892   1.662  1.00  0.00    -0.226 N 
ATOM     11  H1  UNL     1       5.467   8.388   2.056  1.00  0.00     0.177 HD
BRANCH  10  12
HETATM   12  C8  UNL     1       4.650   6.601   1.632  1.00  0.00     0.681 A 
HETATM   13  N2  UNL     1       3.586   5.933   1.164  1.00  0.00    -0.175 N 
HETATM   14  C9  UNL     1       3.522   4.593   1.112  1.00  0.00     0.149 A 
ATOM     15  H2  UNL     1       2.786   6.469   0.830  1.00  0.00     0.186 HD
HETATM   16  C14 UNL     1       4.604   3.878   1.564  1.00  0.00     0.138 A 
HETATM   17  N4  UNL     1       5.260   2.754   1.826  1.00  0.00    -0.292 N 
HETATM   18  C15 UNL     1       5.720   4.537   2.055  1.00  0.00     0.167 A 
HETATM   19  N5  UNL     1       6.332   3.367   2.296  1.00  0.00    -0.282 N 
ATOM     20  H4  UNL     1       5.021   1.770   1.707  1.00  0.00     0.187 HD
ATOM     21  H5  UNL     1       7.233   3.077   2.677  1.00  0.00     0.188 HD
HETATM   22  N6  UNL     1       5.699   5.879   2.069  1.00  0.00    -0.173 N 
ATOM     23  H6  UNL     1       6.515   6.374   2.427  1.00  0.00     0.186 HD
BRANCH  14  24
HETATM   24  N3  UNL     1       2.481   4.043   0.655  1.00  0.00    -0.373 N 
ATOM     25  H3  UNL     1       2.135   4.434  -0.221  1.00  0.00     0.161 HD
BRANCH  24  26
HETATM   26  C10 UNL     1       1.720   2.969   1.175  1.00  0.00     0.126 C 
BRANCH  26  27
HETATM   27  C11 UNL     1       2.099   1.687   0.431  1.00  0.00     0.003 A 
HETATM   28  C12 UNL     1       1.183   1.244  -0.694  1.00  0.00     0.007 A 
HETATM   29  C13 UNL     1       2.562   1.716  -0.954  1.00  0.00     0.007 A 
ENDBRANCH  26  27
ENDBRANCH  24  26
ENDBRANCH  14  24
ENDBRANCH  10  12
ENDBRANCH   9  10
ENDBRANCH   6   9
TORSDOF 6
ENDMDL
MODEL 3
REMARK VINA RESULT: -7.356552927      1.564      8.290
REMARK  6 active torsions:
REMARK  status: ('A' for Active; 'I' for Inactive)
REMARK    1  A    between atoms: C6_6  and  C7_7 
REMARK    2  A    between atoms: C7_7  and  N1_8 
REMARK    3  A    between atoms: N1_8  and  C8_10 
REMARK    4  A    between atoms: C9_13  and  N3_14 
REMARK    5  A    between atoms: N3_14  and  C10_16 
REMARK    6  A    between atoms: C10_16  and  C11_17 
ROOT
HETATM    1  C1  UNL     1       0.873   1.800  -1.769  1.00  0.00     0.012 C 
HETATM    2  C2  UNL     1       1.577   1.565  -0.822  1.00  0.00    -0.113 C 
HETATM    3  C3  UNL     1       2.455   1.258   0.331  1.00  0.00     0.064 C 
HETATM    4  C4  UNL     1       2.060   2.243   1.424  1.00  0.00     0.017 C 
HETATM    5  C5  UNL     1       2.399   3.624   0.901  1.00  0.00     0.007 C 
HETATM    6  C6  UNL     1       3.858   3.773   0.564  1.00  0.00     0.004 C 
HETATM    7  C16 UNL     1       4.549   2.457   0.842  1.00  0.00     0.007 C 
HETATM    8  C17 UNL     1       3.899   1.408  -0.048  1.00  0.00     0.017 C 
ENDROOT
BRANCH   6   9
HETATM    9  C7  UNL     1       4.510   4.918   1.307  1.00  0.00     0.142 C 
BRANCH   9  10
HETATM   10  N1  UNL     1       3.574   5.972   1.570  1.00  0.00    -0.226 N 
ATOM     11  H1  UNL     1       2.584   5.761   1.704  1.00  0.00     0.177 HD
BRANCH  10  12
HETATM   12  C8  UNL     1       3.995   7.191   1.634  1.00  0.00     0.681 A 
HETATM   13  N2  UNL     1       5.304   7.468   1.733  1.00  0.00    -0.175 N 
HETATM   14  C9  UNL     1       5.790   8.717   1.803  1.00  0.00     0.149 A 
ATOM     15  H2  UNL     1       5.963   6.690   1.757  1.00  0.00     0.186 HD
HETATM   16  C14 UNL     1       4.895   9.759   1.770  1.00  0.00     0.138 A 
HETATM   17  N4  UNL     1       4.570  11.045   1.785  1.00  0.00    -0.292 N 
HETATM   18  C15 UNL     1       3.536   9.509   1.669  1.00  0.00     0.167 A 
HETATM   19  N5  UNL     1       3.271  10.824   1.687  1.00  0.00    -0.282 N 
ATOM     20  H4  UNL     1       5.124  11.899   1.848  1.00  0.00     0.187 HD
ATOM     21  H5  UNL     1       2.431  11.402   1.645  1.00  0.00     0.188 HD
HETATM   22  N6  UNL     1       3.138   8.229   1.604  1.00  0.00    -0.173 N 
ATOM     23  H6  UNL     1       2.140   8.033   1.528  1.00  0.00     0.186 HD
BRANCH  14  24
HETATM   24  N3  UNL     1       7.037   8.888   1.895  1.00  0.00    -0.373 N 
ATOM     25  H3  UNL     1       7.510   8.271   2.555  1.00  0.00     0.161 HD
BRANCH  24  26
HETATM   26  C10 UNL     1       7.879   9.806   1.222  1.00  0.00     0.126 C 
BRANCH  26  27
HETATM   27  C11 UNL     1       9.335   9.383   1.423  1.00  0.00     0.003 A 
HETATM   28  C12 UNL     1      10.156   9.118   0.175  1.00  0.00     0.007 A 
HETATM   29  C13 UNL     1      10.443  10.265   1.066  1.00  0.00     0.007 A 
ENDBRANCH  26  27
ENDBRANCH  24  26
ENDBRANCH  14  24
ENDBRANCH  10  12
ENDBRANCH   9  10
ENDBRANCH   6   9
TORSDOF 6
ENDMDL
MODEL 4
REMARK VINA RESULT: -7.048714452      2.136      4.317
REMARK  6 active torsions:
REMARK  status: ('A' for Active; 'I' for Inactive)
REMARK    1  A    between atoms: C6_6  and  C7_7 
REMARK    2  A    between atoms: C7_7  and  N1_8 
REMARK    3  A    between atoms: N1_8  and  C8_10 
REMARK    4  A    between atoms: C9_13  and  N3_14 
REMARK    5  A    between atoms: N3_14  and  C10_16 
REMARK    6  A    between atoms: C10_16  and  C11_17 
ROOT
HETATM    1  C1  UNL     1      10.561  14.449   2.426  1.00  0.00     0.012 C 
HETATM    2  C2  UNL     1      10.561  13.503   1.682  1.00  0.00    -0.113 C 
HETATM    3  C3  UNL     1      10.583  12.335   0.771  1.00  0.00     0.064 C 
HETATM    4  C4  UNL     1       9.162  12.199   0.239  1.00  0.00     0.017 C 
HETATM    5  C5  UNL     1       8.286  11.876   1.432  1.00  0.00     0.007 C 
HETATM    6  C6  UNL     1       8.706  10.612   2.133  1.00  0.00     0.004 C 
HETATM    7  C16 UNL     1       9.916  10.051   1.422  1.00  0.00     0.007 C 
HETATM    8  C17 UNL     1      11.016  11.100   1.504  1.00  0.00     0.017 C 
ENDROOT
BRANCH   6   9
HETATM    9  C7  UNL     1       7.586   9.599   2.221  1.00  0.00     0.142 C 
BRANCH   9  10
HETATM   10  N1  UNL     1       6.554   9.876   1.264  1.00  0.00    -0.226 N 
ATOM     11  H1  UNL     1       6.775  10.360   0.393  1.00  0.00     0.177 HD
BRANCH  10  12
HETATM   12  C8  UNL     1       5.343   9.506   1.515  1.00  0.00     0.681 A 
HETATM   13  N2  UNL     1       5.008   8.208   1.549  1.00  0.00    -0.175 N 
HETATM   14  C9  UNL     1       3.763   7.774   1.805  1.00  0.00     0.149 A 
ATOM     15  H2  UNL     1       5.735   7.515   1.371  1.00  0.00     0.186 HD
HETATM   16  C14 UNL     1       2.790   8.714   2.043  1.00  0.00     0.138 A 
HETATM   17  N4  UNL     1       1.550   9.094   2.322  1.00  0.00    -0.292 N 
HETATM   18  C15 UNL     1       3.102  10.064   2.015  1.00  0.00     0.167 A 
HETATM   19  N5  UNL     1       1.830  10.385   2.300  1.00  0.00    -0.282 N 
ATOM     20  H4  UNL     1       0.688   8.575   2.493  1.00  0.00     0.187 HD
ATOM     21  H5  UNL     1       1.308  11.250   2.439  1.00  0.00     0.188 HD
HETATM   22  N6  UNL     1       4.371  10.408   1.751  1.00  0.00    -0.173 N 
ATOM     23  H6  UNL     1       4.612  11.399   1.729  1.00  0.00     0.186 HD
BRANCH  14  24
HETATM   24  N3  UNL     1       3.534   6.533   1.819  1.00  0.00    -0.373 N 
ATOM     25  H3  UNL     1       3.022   6.196   2.634  1.00  0.00     0.161 HD
BRANCH  24  26
HETATM   26  C10 UNL     1       3.880   5.536   0.874  1.00  0.00     0.126 C 
BRANCH  26  27
HETATM   27  C11 UNL     1       3.834   4.168   1.557  1.00  0.00     0.003 A 
HETATM   28  C12 UNL     1       4.225   2.965   0.720  1.00  0.00     0.007 A 
HETATM   29  C13 UNL     1       5.053   3.423   1.859  1.00  0.00     0.007 A 
ENDBRANCH  26  27
ENDBRANCH  24  26
ENDBRANCH  14  24
ENDBRANCH  10  12
ENDBRANCH   9  10
ENDBRANCH   6   9
TORSDOF 6
ENDMDL
MODEL 5
REMARK VINA RESULT: -6.928914862      2.220      4.220
REMARK  6 active torsions:
REMARK  status: ('A' for Active; 'I' for Inactive)
REMARK    1  A    between atoms: C6_6  and  C7_7 
REMARK    2  A    between atoms: C7_7  and  N1_8 
REMARK    3  A    between atoms: N1_8  and  C8_10 
REMARK    4  A    between atoms: C9_13  and  N3_14 
REMARK    5  A    between atoms: N3_14  and  C10_16 
REMARK    6  A    between atoms: C10_16  and  C11_17 
ROOT
HETATM    1  C1  UNL     1      10.313  14.158  -0.809  1.00  0.00     0.012 C 
HETATM    2  C2  UNL     1      10.478  13.432   0.136  1.00  0.00    -0.113 C 
HETATM    3  C3  UNL     1      10.682  12.556   1.314  1.00  0.00     0.064 C 
HETATM    4  C4  UNL     1      10.600  11.129   0.787  1.00  0.00     0.017 C 
HETATM    5  C5  UNL     1       9.187  10.942   0.273  1.00  0.00     0.007 C 
HETATM    6  C6  UNL     1       8.149  11.167   1.340  1.00  0.00     0.004 C 
HETATM    7  C16 UNL     1       8.856  11.539   2.623  1.00  0.00     0.007 C 
HETATM    8  C17 UNL     1       9.635  12.818   2.356  1.00  0.00     0.017 C 
ENDROOT
BRANCH   6   9
HETATM    9  C7  UNL     1       7.241   9.972   1.525  1.00  0.00     0.142 C 
BRANCH   9  10
HETATM   10  N1  UNL     1       6.026  10.116   0.776  1.00  0.00    -0.226 N 
ATOM     11  H1  UNL     1       6.031  10.590  -0.128  1.00  0.00     0.177 HD
BRANCH  10  12
HETATM   12  C8  UNL     1       4.926   9.640   1.257  1.00  0.00     0.681 A 
HETATM   13  N2  UNL     1       4.722   8.318   1.341  1.00  0.00    -0.175 N 
HETATM   14  C9  UNL     1       3.596   7.775   1.833  1.00  0.00     0.149 A 
ATOM     15  H2  UNL     1       5.458   7.692   1.015  1.00  0.00     0.186 HD
HETATM   16  C14 UNL     1       2.609   8.626   2.269  1.00  0.00     0.138 A 
HETATM   17  N4  UNL     1       1.420   8.895   2.792  1.00  0.00    -0.292 N 
HETATM   18  C15 UNL     1       2.788   9.998   2.196  1.00  0.00     0.167 A 
HETATM   19  N5  UNL     1       1.574  10.206   2.730  1.00  0.00    -0.282 N 
ATOM     20  H4  UNL     1       0.658   8.302   3.122  1.00  0.00     0.187 HD
ATOM     21  H5  UNL     1       1.014  11.021   2.979  1.00  0.00     0.188 HD
HETATM   22  N6  UNL     1       3.944  10.453   1.691  1.00  0.00    -0.173 N 
ATOM     23  H6  UNL     1       4.087  11.461   1.633  1.00  0.00     0.186 HD
BRANCH  14  24
HETATM   24  N3  UNL     1       3.486   6.519   1.876  1.00  0.00    -0.373 N 
ATOM     25  H3  UNL     1       3.056   6.152   2.725  1.00  0.00     0.161 HD
BRANCH  24  26
HETATM   26  C10 UNL     1       3.868   5.541   0.926  1.00  0.00     0.126 C 
BRANCH  26  27
HETATM   27  C11 UNL     1       3.809   4.161   1.582  1.00  0.00     0.003 A 
HETATM   28  C12 UNL     1       4.076   2.961   0.694  1.00  0.00     0.007 A 
HETATM   29  C13 UNL     1       5.012   3.354   1.772  1.00  0.00     0.007 A 
ENDBRANCH  26  27
ENDBRANCH  24  26
ENDBRANCH  14  24
ENDBRANCH  10  12
ENDBRANCH   9  10
ENDBRANCH   6   9
TORSDOF 6
ENDMDL
