MODEL 1
REMARK VINA RESULT: -6.442118380      0.000      0.000
REMARK  4 active torsions:
REMARK  status: ('A' for Active; 'I' for Inactive)
REMARK    1  A    between atoms: C5_10  and  C6_11 
REMARK       I    between atoms: C6_11  and  N3_13 
REMARK    2  A    between atoms: N3_13  and  C7_15 
REMARK    3  A    between atoms: C7_15  and  C8_16 
REMARK    4  A    between atoms: C8_16  and  C9_17 
ROOT
HETATM    1  C6  UNL     1       6.914  10.431   0.545  1.00  0.00     0.256 C 
HETATM    2  O1  UNL     1       6.556  10.528  -0.656  1.00  0.00    -0.271 OA
HETATM    3  N3  UNL     1       5.917  10.100   1.502  1.00  0.00    -0.359 N 
ATOM      4  H3  UNL     1       6.184  10.016   2.482  1.00  0.00     0.162 HD
ENDROOT
BRANCH   1   5
HETATM    5  C5  UNL     1       8.318  10.654   0.933  1.00  0.00     0.343 C 
HETATM    6  C4  UNL     1       9.270  10.353  -0.136  1.00  0.00     0.111 C 
HETATM    7  N1  UNL     1       9.594  11.362  -1.087  1.00  0.00    -0.376 N 
HETATM    8  N2  UNL     1       9.806   9.189  -0.213  1.00  0.00    -0.387 N 
HETATM    9  C3  UNL     1       9.287  12.738  -0.693  1.00  0.00     0.153 C 
ATOM     10  H1  UNL     1      10.016  11.139  -1.988  1.00  0.00     0.160 HD
HETATM   11  C2  UNL     1       9.439  12.786   0.813  1.00  0.00     0.201 C 
HETATM   12  C1  UNL     1      10.846  12.417   1.204  1.00  0.00     0.041 C 
HETATM   13  N4  UNL     1       8.462  11.987   1.485  1.00  0.00    -0.050 N 
ATOM     14  H42 UNL     1       8.659  11.943   2.485  1.00  0.00     0.279 HD
ATOM     15  H41 UNL     1       7.561  12.465   1.510  1.00  0.00     0.279 HD
ATOM     16  H22 UNL     1      10.471   8.980  -0.959  1.00  0.00     0.157 HD
ATOM     17  H21 UNL     1       9.574   8.467   0.468  1.00  0.00     0.157 HD
ENDBRANCH   1   5
BRANCH   3  18
HETATM   18  C7  UNL     1       4.531   9.878   1.131  1.00  0.00     0.123 C 
BRANCH  18  19
HETATM   19  C8  UNL     1       3.733  11.104   1.491  1.00  0.00     0.029 C 
BRANCH  19  20
HETATM   20  C9  UNL     1       2.440  10.807   2.149  1.00  0.00    -0.038 C 
HETATM   21  C10 UNL     1       2.268   9.380   2.546  1.00  0.00     0.014 C 
HETATM   22  C11 UNL     1       1.007   9.163   3.326  1.00  0.00    -0.013 C 
HETATM   23  C12 UNL     1       0.884  10.150   4.492  1.00  0.00     0.010 C 
HETATM   24  C16 UNL     1      -0.185   9.632   2.483  1.00  0.00     0.010 C 
HETATM   25  C13 UNL     1       0.827  11.466   3.703  1.00  0.00    -0.009 C 
HETATM   26  C14 UNL     1       2.289  11.758   3.336  1.00  0.00     0.014 C 
HETATM   27  C15 UNL     1       0.141  11.128   2.396  1.00  0.00    -0.009 C 
HETATM   28  C17 UNL     1       1.234  11.225   1.323  1.00  0.00     0.014 C 
ENDBRANCH  19  20
ENDBRANCH  18  19
ENDBRANCH   3  18
TORSDOF 4
ENDMDL
MODEL 2
REMARK VINA RESULT: -6.358906041      1.397      1.733
REMARK  4 active torsions:
REMARK  status: ('A' for Active; 'I' for Inactive)
REMARK    1  A    between atoms: C5_10  and  C6_11 
REMARK       I    between atoms: C6_11  and  N3_13 
REMARK    2  A    between atoms: N3_13  and  C7_15 
REMARK    3  A    between atoms: C7_15  and  C8_16 
REMARK    4  A    between atoms: C8_16  and  C9_17 
ROOT
HETATM    1  C6  UNL     1       6.831   9.695   2.001  1.00  0.00     0.256 C 
HETATM    2  O1  UNL     1       6.713   8.447   2.082  1.00  0.00    -0.271 OA
HETATM    3  N3  UNL     1       5.668  10.444   1.673  1.00  0.00    -0.359 N 
ATOM      4  H3  UNL     1       5.740  11.459   1.603  1.00  0.00     0.162 HD
ENDROOT
BRANCH   1   5
HETATM    5  C5  UNL     1       8.130  10.347   2.241  1.00  0.00     0.343 C 
HETATM    6  C4  UNL     1       9.231   9.398   2.412  1.00  0.00     0.111 C 
HETATM    7  N1  UNL     1       9.924   8.917   1.266  1.00  0.00    -0.376 N 
HETATM    8  N2  UNL     1       9.568   9.007   3.588  1.00  0.00    -0.387 N 
HETATM    9  C3  UNL     1       9.773   9.710   0.044  1.00  0.00     0.153 C 
ATOM     10  H1  UNL     1      10.491   8.069   1.293  1.00  0.00     0.160 HD
HETATM   11  C2  UNL     1       9.593  11.144   0.497  1.00  0.00     0.201 C 
HETATM   12  C1  UNL     1      10.796  11.594   1.284  1.00  0.00     0.041 C 
HETATM   13  N4  UNL     1       8.371  11.341   1.213  1.00  0.00    -0.050 N 
ATOM     14  H42 UNL     1       8.332  12.281   1.605  1.00  0.00     0.279 HD
ATOM     15  H41 UNL     1       7.581  11.391   0.569  1.00  0.00     0.279 HD
ATOM     16  H22 UNL     1      10.335   8.346   3.708  1.00  0.00     0.157 HD
ATOM     17  H21 UNL     1       9.072   9.352   4.410  1.00  0.00     0.157 HD
ENDBRANCH   1   5
BRANCH   3  18
HETATM   18  C7  UNL     1       4.383   9.814   1.435  1.00  0.00     0.123 C 
BRANCH  18  19
HETATM   19  C8  UNL     1       3.322  10.882   1.390  1.00  0.00     0.029 C 
BRANCH  19  20
HETATM   20  C9  UNL     1       2.138  10.589   2.229  1.00  0.00    -0.038 C 
HETATM   21  C10 UNL     1       2.079   9.188   2.738  1.00  0.00     0.014 C 
HETATM   22  C11 UNL     1       0.938   8.984   3.688  1.00  0.00    -0.013 C 
HETATM   23  C12 UNL     1       0.924  10.046   4.794  1.00  0.00     0.010 C 
HETATM   24  C16 UNL     1      -0.370   9.352   2.980  1.00  0.00     0.010 C 
HETATM   25  C13 UNL     1       0.710  11.300   3.935  1.00  0.00    -0.009 C 
HETATM   26  C14 UNL     1       2.100  11.615   3.362  1.00  0.00     0.014 C 
HETATM   27  C15 UNL     1      -0.122  10.848   2.753  1.00  0.00    -0.009 C 
HETATM   28  C17 UNL     1       0.820  10.906   1.542  1.00  0.00     0.014 C 
ENDBRANCH  19  20
ENDBRANCH  18  19
ENDBRANCH   3  18
TORSDOF 4
ENDMDL
MODEL 3
REMARK VINA RESULT: -6.300433873      1.413      2.243
REMARK  4 active torsions:
REMARK  status: ('A' for Active; 'I' for Inactive)
REMARK    1  A    between atoms: C5_10  and  C6_11 
REMARK       I    between atoms: C6_11  and  N3_13 
REMARK    2  A    between atoms: N3_13  and  C7_15 
REMARK    3  A    between atoms: C7_15  and  C8_16 
REMARK    4  A    between atoms: C8_16  and  C9_17 
ROOT
HETATM    1  C6  UNL     1       6.789   9.769   1.972  1.00  0.00     0.256 C 
HETATM    2  O1  UNL     1       6.689   8.518   2.029  1.00  0.00    -0.271 OA
HETATM    3  N3  UNL     1       5.607  10.509   1.698  1.00  0.00    -0.359 N 
ATOM      4  H3  UNL     1       5.664  11.526   1.647  1.00  0.00     0.162 HD
ENDROOT
BRANCH   1   5
HETATM    5  C5  UNL     1       8.088  10.432   2.181  1.00  0.00     0.343 C 
HETATM    6  C4  UNL     1       9.180   9.496   2.451  1.00  0.00     0.111 C 
HETATM    7  N1  UNL     1       9.890   8.918   1.362  1.00  0.00    -0.376 N 
HETATM    8  N2  UNL     1       9.492   9.202   3.662  1.00  0.00    -0.387 N 
HETATM    9  C3  UNL     1       9.767   9.607   0.076  1.00  0.00     0.153 C 
ATOM     10  H1  UNL     1      10.451   8.073   1.470  1.00  0.00     0.160 HD
HETATM   11  C2  UNL     1       9.588  11.075   0.404  1.00  0.00     0.201 C 
HETATM   12  C1  UNL     1      10.778  11.583   1.175  1.00  0.00     0.041 C 
HETATM   13  N4  UNL     1       8.354  11.336   1.078  1.00  0.00    -0.050 N 
ATOM     14  H42 UNL     1       8.313  12.306   1.391  1.00  0.00     0.279 HD
ATOM     15  H41 UNL     1       7.576  11.336   0.418  1.00  0.00     0.279 HD
ATOM     16  H22 UNL     1      10.253   8.550   3.850  1.00  0.00     0.157 HD
ATOM     17  H21 UNL     1       8.983   9.617   4.442  1.00  0.00     0.157 HD
ENDBRANCH   1   5
BRANCH   3  18
HETATM   18  C7  UNL     1       4.322   9.867   1.491  1.00  0.00     0.123 C 
BRANCH  18  19
HETATM   19  C8  UNL     1       3.245  10.919   1.530  1.00  0.00     0.029 C 
BRANCH  19  20
HETATM   20  C9  UNL     1       2.096  10.571   2.397  1.00  0.00    -0.038 C 
HETATM   21  C10 UNL     1       1.974  11.416   3.620  1.00  0.00     0.014 C 
HETATM   22  C11 UNL     1       0.724  11.114   4.389  1.00  0.00    -0.013 C 
HETATM   23  C12 UNL     1      -0.517  11.143   3.489  1.00  0.00     0.010 C 
HETATM   24  C16 UNL     1       0.718   9.627   4.762  1.00  0.00     0.010 C 
HETATM   25  C13 UNL     1      -0.162   9.994   2.534  1.00  0.00    -0.009 C 
HETATM   26  C14 UNL     1       0.831  10.613   1.540  1.00  0.00     0.014 C 
HETATM   27  C15 UNL     1       0.646   9.015   3.358  1.00  0.00    -0.009 C 
HETATM   28  C17 UNL     1       2.080   9.111   2.819  1.00  0.00     0.014 C 
ENDBRANCH  19  20
ENDBRANCH  18  19
ENDBRANCH   3  18
TORSDOF 4
ENDMDL
MODEL 4
REMARK VINA RESULT: -6.236411572      0.366      1.451
REMARK  4 active torsions:
REMARK  status: ('A' for Active; 'I' for Inactive)
REMARK    1  A    between atoms: C5_10  and  C6_11 
REMARK       I    between atoms: C6_11  and  N3_13 
REMARK    2  A    between atoms: N3_13  and  C7_15 
REMARK    3  A    between atoms: C7_15  and  C8_16 
REMARK    4  A    between atoms: C8_16  and  C9_17 
ROOT
HETATM    1  C6  UNL     1       6.913  10.374   0.628  1.00  0.00     0.256 C 
HETATM    2  O1  UNL     1       6.541  10.504  -0.565  1.00  0.00    -0.271 OA
HETATM    3  N3  UNL     1       5.921  10.050   1.592  1.00  0.00    -0.359 N 
ATOM      4  H3  UNL     1       6.200   9.940   2.567  1.00  0.00     0.162 HD
ENDROOT
BRANCH   1   5
HETATM    5  C5  UNL     1       8.327  10.555   1.000  1.00  0.00     0.343 C 
HETATM    6  C4  UNL     1       9.256  10.261  -0.091  1.00  0.00     0.111 C 
HETATM    7  N1  UNL     1       9.590  11.286  -1.020  1.00  0.00    -0.376 N 
HETATM    8  N2  UNL     1       9.764   9.087  -0.207  1.00  0.00    -0.387 N 
HETATM    9  C3  UNL     1       9.321  12.658  -0.586  1.00  0.00     0.153 C 
ATOM     10  H1  UNL     1       9.993  11.078  -1.934  1.00  0.00     0.160 HD
HETATM   11  C2  UNL     1       9.497  12.662   0.918  1.00  0.00     0.201 C 
HETATM   12  C1  UNL     1      10.900  12.251   1.278  1.00  0.00     0.041 C 
HETATM   13  N4  UNL     1       8.511  11.869   1.584  1.00  0.00    -0.050 N 
ATOM     14  H42 UNL     1       8.722  11.794   2.579  1.00  0.00     0.279 HD
ATOM     15  H41 UNL     1       7.622  12.367   1.636  1.00  0.00     0.279 HD
ATOM     16  H22 UNL     1      10.412   8.882  -0.968  1.00  0.00     0.157 HD
ATOM     17  H21 UNL     1       9.525   8.352   0.458  1.00  0.00     0.157 HD
ENDBRANCH   1   5
BRANCH   3  18
HETATM   18  C7  UNL     1       4.525   9.870   1.238  1.00  0.00     0.123 C 
BRANCH  18  19
HETATM   19  C8  UNL     1       3.789  11.156   1.508  1.00  0.00     0.029 C 
BRANCH  19  20
HETATM   20  C9  UNL     1       2.417  10.965   2.031  1.00  0.00    -0.038 C 
HETATM   21  C10 UNL     1       1.344  11.506   1.149  1.00  0.00     0.014 C 
HETATM   22  C11 UNL     1      -0.024  11.167   1.657  1.00  0.00    -0.013 C 
HETATM   23  C12 UNL     1      -0.164   9.670   1.955  1.00  0.00     0.010 C 
HETATM   24  C16 UNL     1      -0.175  11.714   3.081  1.00  0.00     0.010 C 
HETATM   25  C13 UNL     1       0.887   9.536   3.066  1.00  0.00    -0.009 C 
HETATM   26  C14 UNL     1       2.229   9.475   2.321  1.00  0.00     0.014 C 
HETATM   27  C15 UNL     1       0.886  10.865   3.790  1.00  0.00    -0.009 C 
HETATM   28  C17 UNL     1       2.221  11.530   3.428  1.00  0.00     0.014 C 
ENDBRANCH  19  20
ENDBRANCH  18  19
ENDBRANCH   3  18
TORSDOF 4
ENDMDL
MODEL 5
REMARK VINA RESULT: -6.174138681      0.408      1.374
REMARK  4 active torsions:
REMARK  status: ('A' for Active; 'I' for Inactive)
REMARK    1  A    between atoms: C5_10  and  C6_11 
REMARK       I    between atoms: C6_11  and  N3_13 
REMARK    2  A    between atoms: N3_13  and  C7_15 
REMARK    3  A    between atoms: C7_15  and  C8_16 
REMARK    4  A    between atoms: C8_16  and  C9_17 
ROOT
HETATM    1  C6  UNL     1       6.886  10.665   0.415  1.00  0.00     0.256 C 
HETATM    2  O1  UNL     1       6.561  10.596  -0.797  1.00  0.00    -0.271 OA
HETATM    3  N3  UNL     1       5.845  10.583   1.379  1.00  0.00    -0.359 N 
ATOM      4  H3  UNL     1       6.086  10.636   2.368  1.00  0.00     0.162 HD
ENDROOT
BRANCH   1   5
HETATM    5  C5  UNL     1       8.296  10.826   0.808  1.00  0.00     0.343 C 
HETATM    6  C4  UNL     1       9.238  10.508  -0.265  1.00  0.00     0.111 C 
HETATM    7  N1  UNL     1       9.604  11.520  -1.197  1.00  0.00    -0.376 N 
HETATM    8  N2  UNL     1       9.729   9.325  -0.363  1.00  0.00    -0.387 N 
HETATM    9  C3  UNL     1       9.349  12.900  -0.779  1.00  0.00     0.153 C 
ATOM     10  H1  UNL     1      10.017  11.297  -2.102  1.00  0.00     0.160 HD
HETATM   11  C2  UNL     1       9.501  12.914   0.729  1.00  0.00     0.201 C 
HETATM   12  C1  UNL     1      10.892  12.483   1.114  1.00  0.00     0.041 C 
HETATM   13  N4  UNL     1       8.492  12.142   1.385  1.00  0.00    -0.050 N 
ATOM     14  H42 UNL     1       8.686  12.072   2.384  1.00  0.00     0.279 HD
ATOM     15  H41 UNL     1       7.611  12.655   1.418  1.00  0.00     0.279 HD
ATOM     16  H22 UNL     1      10.385   9.103  -1.111  1.00  0.00     0.157 HD
ATOM     17  H21 UNL     1       9.467   8.600   0.305  1.00  0.00     0.157 HD
ENDBRANCH   1   5
BRANCH   3  18
HETATM   18  C7  UNL     1       4.452  10.424   1.003  1.00  0.00     0.123 C 
BRANCH  18  19
HETATM   19  C8  UNL     1       3.647  11.510   1.667  1.00  0.00     0.029 C 
BRANCH  19  20
HETATM   20  C9  UNL     1       2.406  11.028   2.315  1.00  0.00    -0.038 C 
HETATM   21  C10 UNL     1       2.099  11.689   3.617  1.00  0.00     0.014 C 
HETATM   22  C11 UNL     1       0.769  11.264   4.161  1.00  0.00    -0.013 C 
HETATM   23  C12 UNL     1      -0.344  11.406   3.117  1.00  0.00     0.010 C 
HETATM   24  C16 UNL     1       0.761   9.740   4.320  1.00  0.00     0.010 C 
HETATM   25  C13 UNL     1       0.169  10.409   2.067  1.00  0.00    -0.009 C 
HETATM   26  C14 UNL     1       1.264  11.175   1.311  1.00  0.00     0.014 C 
HETATM   27  C15 UNL     1       0.893   9.333   2.848  1.00  0.00    -0.009 C 
HETATM   28  C17 UNL     1       2.381   9.523   2.524  1.00  0.00     0.014 C 
ENDBRANCH  19  20
ENDBRANCH  18  19
ENDBRANCH   3  18
TORSDOF 4
ENDMDL
