MODEL 1
REMARK VINA RESULT: -5.564375251      0.000      0.000
REMARK  10 active torsions:
REMARK  status: ('A' for Active; 'I' for Inactive)
REMARK    1  A    between atoms: C2_2  and  C3_3 
REMARK    2  A    between atoms: C3_3  and  C4_4 
REMARK    3  A    between atoms: C4_4  and  C5_5 
REMARK    4  A    between atoms: C5_5  and  C6_6 
REMARK    5  A    between atoms: C6_6  and  O1_7 
REMARK    6  A    between atoms: C14_16  and  C15_17 
REMARK    7  A    between atoms: C16_18  and  O2_19 
REMARK    8  A    between atoms: C16_18  and  C17_21 
REMARK    9  A    between atoms: N2_23  and  O3_25 
REMARK   10  A    between atoms: C18_27  and  C19_28 
ROOT
HETATM    1  C5  UNL     1       8.875   9.708   1.312  1.00  0.00    -0.018 C 
HETATM    2  C7  UNL     1       8.766   8.921   2.574  1.00  0.00     0.012 C 
HETATM    3  C8  UNL     1       9.648   9.374   3.706  1.00  0.00     0.010 C 
HETATM    4  C9  UNL     1       9.696  10.813   3.977  1.00  0.00     0.024 C 
HETATM    5  C10 UNL     1       9.141  11.266   5.275  1.00  0.00    -0.024 C 
HETATM    6  C11 UNL     1       9.326  12.582   5.523  1.00  0.00    -0.025 C 
HETATM    7  C12 UNL     1      10.034  13.355   4.494  1.00  0.00     0.012 C 
HETATM    8  C13 UNL     1       9.871  14.855   4.690  1.00  0.00     0.015 C 
HETATM    9  C14 UNL     1       9.654  13.048   3.076  1.00  0.00     0.034 C 
HETATM   10  C18 UNL     1       9.055  11.669   2.912  1.00  0.00     0.028 C 
HETATM   11  C20 UNL     1       9.275  11.156   1.538  1.00  0.00     0.029 C 
ENDROOT
BRANCH   9  12
HETATM   12  C15 UNL     1      10.882  13.244   2.267  1.00  0.00     0.020 C 
HETATM   13  C16 UNL     1      10.980  14.109   1.289  1.00  0.00     0.105 C 
BRANCH  13  14
HETATM   14  O2  UNL     1       9.928  14.932   0.915  1.00  0.00    -0.358 OA
ATOM     15  H2  UNL     1       9.093  14.590   0.620  1.00  0.00     0.217 HD
ENDBRANCH  13  14
BRANCH  13  16
HETATM   16  C17 UNL     1      12.228  14.230   0.550  1.00  0.00     0.168 C 
HETATM   17  N1  UNL     1      12.282  14.148  -0.873  1.00  0.00    -0.078 NA
HETATM   18  N2  UNL     1      13.355  14.421   1.180  1.00  0.00    -0.253 N 
ATOM     19  H2  UNL     1      13.349  14.484   2.198  1.00  0.00     0.195 HD
BRANCH  18  20
HETATM   20  O3  UNL     1      14.540  14.539   0.515  1.00  0.00    -0.288 OA
ATOM     21  H3  UNL     1      15.280  15.001   0.890  1.00  0.00     0.244 HD
ENDBRANCH  18  20
ENDBRANCH  13  16
ENDBRANCH   9  12
BRANCH  10  22
HETATM   22  C19 UNL     1       7.596  11.837   3.118  1.00  0.00     0.242 C 
HETATM   23  O4  UNL     1       6.890  12.626   2.567  1.00  0.00    -0.306 OA
ENDBRANCH  10  22
BRANCH   1  24
HETATM   24  C4  UNL     1       7.626   9.685   0.559  1.00  0.00     0.012 C 
BRANCH  24  25
HETATM   25  C3  UNL     1       6.419   8.973   0.936  1.00  0.00     0.000 C 
BRANCH  25  26
HETATM   26  C2  UNL     1       5.289   9.678   1.591  1.00  0.00    -0.005 C 
HETATM   27  C1  UNL     1       4.068   8.727   1.680  1.00  0.00     0.005 C 
ENDBRANCH  25  26
ENDBRANCH  24  25
ENDBRANCH   1  24
BRANCH   1  28
HETATM   28  C6  UNL     1      10.079   9.114   0.566  1.00  0.00     0.173 C 
BRANCH  28  29
HETATM   29  O1  UNL     1       9.757   8.006  -0.164  1.00  0.00    -0.400 OA
ATOM     30  H1  UNL     1       9.457   8.216  -1.040  1.00  0.00     0.209 HD
ENDBRANCH  28  29
ENDBRANCH   1  28
TORSDOF 10
ENDMDL
MODEL 2
REMARK VINA RESULT: -5.539070475      3.762      6.904
REMARK  10 active torsions:
REMARK  status: ('A' for Active; 'I' for Inactive)
REMARK    1  A    between atoms: C2_2  and  C3_3 
REMARK    2  A    between atoms: C3_3  and  C4_4 
REMARK    3  A    between atoms: C4_4  and  C5_5 
REMARK    4  A    between atoms: C5_5  and  C6_6 
REMARK    5  A    between atoms: C6_6  and  O1_7 
REMARK    6  A    between atoms: C14_16  and  C15_17 
REMARK    7  A    between atoms: C16_18  and  O2_19 
REMARK    8  A    between atoms: C16_18  and  C17_21 
REMARK    9  A    between atoms: N2_23  and  O3_25 
REMARK   10  A    between atoms: C18_27  and  C19_28 
ROOT
HETATM    1  C5  UNL     1       7.829  13.662   1.339  1.00  0.00    -0.018 C 
HETATM    2  C7  UNL     1       8.997  13.749   2.262  1.00  0.00     0.012 C 
HETATM    3  C8  UNL     1       8.982  12.798   3.428  1.00  0.00     0.010 C 
HETATM    4  C9  UNL     1       8.629  11.404   3.144  1.00  0.00     0.024 C 
HETATM    5  C10 UNL     1       9.694  10.392   3.348  1.00  0.00    -0.024 C 
HETATM    6  C11 UNL     1       9.275   9.115   3.192  1.00  0.00    -0.025 C 
HETATM    7  C12 UNL     1       7.860   8.920   2.852  1.00  0.00     0.012 C 
HETATM    8  C13 UNL     1       7.580   7.513   2.349  1.00  0.00     0.015 C 
HETATM    9  C14 UNL     1       7.299   9.875   1.840  1.00  0.00     0.034 C 
HETATM   10  C18 UNL     1       8.073  11.171   1.760  1.00  0.00     0.028 C 
HETATM   11  C20 UNL     1       7.206  12.278   1.285  1.00  0.00     0.029 C 
ENDROOT
BRANCH   9  12
HETATM   12  C15 UNL     1       5.875  10.074   2.204  1.00  0.00     0.020 C 
HETATM   13  C16 UNL     1       4.874   9.535   1.554  1.00  0.00     0.105 C 
BRANCH  13  14
HETATM   14  O2  UNL     1       5.058   8.718   0.449  1.00  0.00    -0.358 OA
ATOM     15  H2  UNL     1       5.316   9.058  -0.399  1.00  0.00     0.217 HD
ENDBRANCH  13  14
BRANCH  13  16
HETATM   16  C17 UNL     1       3.507   9.789   1.987  1.00  0.00     0.168 C 
HETATM   17  N1  UNL     1       3.087  11.063   2.472  1.00  0.00    -0.078 NA
HETATM   18  N2  UNL     1       2.612   8.842   1.941  1.00  0.00    -0.253 N 
ATOM     19  H2  UNL     1       2.882   7.920   1.598  1.00  0.00     0.195 HD
BRANCH  18  20
HETATM   20  O3  UNL     1       1.323   9.050   2.338  1.00  0.00    -0.288 OA
ATOM     21  H3  UNL     1       0.606   8.523   2.007  1.00  0.00     0.244 HD
ENDBRANCH  18  20
ENDBRANCH  13  16
ENDBRANCH   9  12
BRANCH  10  22
HETATM   22  C19 UNL     1       9.135  10.945   0.750  1.00  0.00     0.242 C 
HETATM   23  O4  UNL     1       8.972  10.617  -0.386  1.00  0.00    -0.306 OA
ENDBRANCH  10  22
BRANCH   1  24
HETATM   24  C4  UNL     1       8.190  14.059  -0.018  1.00  0.00     0.012 C 
BRANCH  24  25
HETATM   25  C3  UNL     1       9.435  14.690  -0.415  1.00  0.00     0.000 C 
BRANCH  25  26
HETATM   26  C2  UNL     1      10.494  13.918  -1.113  1.00  0.00    -0.005 C 
HETATM   27  C1  UNL     1      11.782  13.909  -0.251  1.00  0.00     0.005 C 
ENDBRANCH  25  26
ENDBRANCH  24  25
ENDBRANCH   1  24
BRANCH   1  28
HETATM   28  C6  UNL     1       6.735  14.524   1.985  1.00  0.00     0.173 C 
BRANCH  28  29
HETATM   29  O1  UNL     1       5.650  13.796   2.380  1.00  0.00    -0.400 OA
ATOM     30  H1  UNL     1       4.845  14.078   1.962  1.00  0.00     0.209 HD
ENDBRANCH  28  29
ENDBRANCH   1  28
TORSDOF 10
ENDMDL
MODEL 3
REMARK VINA RESULT: -5.500312657      2.697      6.149
REMARK  10 active torsions:
REMARK  status: ('A' for Active; 'I' for Inactive)
REMARK    1  A    between atoms: C2_2  and  C3_3 
REMARK    2  A    between atoms: C3_3  and  C4_4 
REMARK    3  A    between atoms: C4_4  and  C5_5 
REMARK    4  A    between atoms: C5_5  and  C6_6 
REMARK    5  A    between atoms: C6_6  and  O1_7 
REMARK    6  A    between atoms: C14_16  and  C15_17 
REMARK    7  A    between atoms: C16_18  and  O2_19 
REMARK    8  A    between atoms: C16_18  and  C17_21 
REMARK    9  A    between atoms: N2_23  and  O3_25 
REMARK   10  A    between atoms: C18_27  and  C19_28 
ROOT
HETATM    1  C5  UNL     1      11.660  14.497   1.402  1.00  0.00    -0.018 C 
HETATM    2  C7  UNL     1      10.960  15.805   1.246  1.00  0.00     0.012 C 
HETATM    3  C8  UNL     1       9.599  15.746   0.606  1.00  0.00     0.010 C 
HETATM    4  C9  UNL     1       8.685  14.704   1.083  1.00  0.00     0.024 C 
HETATM    5  C10 UNL     1       7.463  15.162   1.788  1.00  0.00    -0.024 C 
HETATM    6  C11 UNL     1       6.600  14.167   2.093  1.00  0.00    -0.025 C 
HETATM    7  C12 UNL     1       6.987  12.809   1.691  1.00  0.00     0.012 C 
HETATM    8  C13 UNL     1       6.151  11.744   2.385  1.00  0.00     0.015 C 
HETATM    9  C14 UNL     1       8.429  12.454   1.908  1.00  0.00     0.034 C 
HETATM   10  C18 UNL     1       9.330  13.667   1.969  1.00  0.00     0.028 C 
HETATM   11  C20 UNL     1      10.712  13.321   1.553  1.00  0.00     0.029 C 
ENDROOT
BRANCH   9  12
HETATM   12  C15 UNL     1       8.793  11.517   0.818  1.00  0.00     0.020 C 
HETATM   13  C16 UNL     1       9.121  10.265   1.012  1.00  0.00     0.105 C 
BRANCH  13  14
HETATM   14  O2  UNL     1       9.157   9.692   2.275  1.00  0.00    -0.358 OA
ATOM     15  H2  UNL     1       9.945   9.677   2.805  1.00  0.00     0.217 HD
ENDBRANCH  13  14
BRANCH  13  16
HETATM   16  C17 UNL     1       9.464   9.420  -0.123  1.00  0.00     0.168 C 
HETATM   17  N1  UNL     1       9.094   9.754  -1.460  1.00  0.00    -0.078 NA
HETATM   18  N2  UNL     1      10.135   8.315   0.053  1.00  0.00    -0.253 N 
ATOM     19  H2  UNL     1      10.413   8.050   0.998  1.00  0.00     0.195 HD
BRANCH  18  20
HETATM   20  O3  UNL     1      10.472   7.504  -0.990  1.00  0.00    -0.288 OA
ATOM     21  H3  UNL     1      10.666   6.582  -0.866  1.00  0.00     0.244 HD
ENDBRANCH  18  20
ENDBRANCH  13  16
ENDBRANCH   9  12
BRANCH  10  22
HETATM   22  C19 UNL     1       9.362  14.074   3.394  1.00  0.00     0.242 C 
HETATM   23  O4  UNL     1       9.514  13.353   4.333  1.00  0.00    -0.306 OA
ENDBRANCH  10  22
BRANCH   1  24
HETATM   24  C4  UNL     1      12.567  14.511   2.546  1.00  0.00     0.012 C 
BRANCH  24  25
HETATM   25  C3  UNL     1      12.865  15.660   3.379  1.00  0.00     0.000 C 
BRANCH  25  26
HETATM   26  C2  UNL     1      12.344  15.754   4.766  1.00  0.00    -0.005 C 
HETATM   27  C1  UNL     1      11.292  16.890   4.848  1.00  0.00     0.005 C 
ENDBRANCH  25  26
ENDBRANCH  24  25
ENDBRANCH   1  24
BRANCH   1  28
HETATM   28  C6  UNL     1      12.343  14.238   0.051  1.00  0.00     0.173 C 
BRANCH  28  29
HETATM   29  O1  UNL     1      13.706  14.254   0.135  1.00  0.00    -0.400 OA
ATOM     30  H1  UNL     1      14.126  13.842  -0.611  1.00  0.00     0.209 HD
ENDBRANCH  28  29
ENDBRANCH   1  28
TORSDOF 10
ENDMDL
MODEL 4
REMARK VINA RESULT: -5.412892943      2.786      3.827
REMARK  10 active torsions:
REMARK  status: ('A' for Active; 'I' for Inactive)
REMARK    1  A    between atoms: C2_2  and  C3_3 
REMARK    2  A    between atoms: C3_3  and  C4_4 
REMARK    3  A    between atoms: C4_4  and  C5_5 
REMARK    4  A    between atoms: C5_5  and  C6_6 
REMARK    5  A    between atoms: C6_6  and  O1_7 
REMARK    6  A    between atoms: C14_16  and  C15_17 
REMARK    7  A    between atoms: C16_18  and  O2_19 
REMARK    8  A    between atoms: C16_18  and  C17_21 
REMARK    9  A    between atoms: N2_23  and  O3_25 
REMARK   10  A    between atoms: C18_27  and  C19_28 
ROOT
HETATM    1  C5  UNL     1       9.213  10.958   0.970  1.00  0.00    -0.018 C 
HETATM    2  C7  UNL     1      10.435  10.864   1.821  1.00  0.00     0.012 C 
HETATM    3  C8  UNL     1      11.509  11.878   1.535  1.00  0.00     0.010 C 
HETATM    4  C9  UNL     1      11.082  13.270   1.366  1.00  0.00     0.024 C 
HETATM    5  C10 UNL     1      11.543  14.238   2.391  1.00  0.00    -0.024 C 
HETATM    6  C11 UNL     1      11.223  15.523   2.115  1.00  0.00    -0.025 C 
HETATM    7  C12 UNL     1      10.485  15.768   0.870  1.00  0.00     0.012 C 
HETATM    8  C13 UNL     1       9.868  17.158   0.834  1.00  0.00     0.015 C 
HETATM    9  C14 UNL     1       9.392  14.788   0.560  1.00  0.00     0.034 C 
HETATM   10  C18 UNL     1       9.589  13.452   1.242  1.00  0.00     0.028 C 
HETATM   11  C20 UNL     1       8.929  12.366   0.477  1.00  0.00     0.029 C 
ENDROOT
BRANCH   9  12
HETATM   12  C15 UNL     1       9.341  14.680  -0.918  1.00  0.00     0.020 C 
HETATM   13  C16 UNL     1       8.349  15.125  -1.647  1.00  0.00     0.105 C 
BRANCH  13  14
HETATM   14  O2  UNL     1       7.239  15.747  -1.094  1.00  0.00    -0.358 OA
ATOM     15  H2  UNL     1       6.366  15.646  -1.455  1.00  0.00     0.217 HD
ENDBRANCH  13  14
BRANCH  13  16
HETATM   16  C17 UNL     1       8.387  14.973  -3.095  1.00  0.00     0.168 C 
HETATM   17  N1  UNL     1       7.456  14.153  -3.799  1.00  0.00    -0.078 NA
HETATM   18  N2  UNL     1       9.289  15.596  -3.802  1.00  0.00    -0.253 N 
ATOM     19  H2  UNL     1       9.969  16.190  -3.327  1.00  0.00     0.195 HD
BRANCH  18  20
HETATM   20  O3  UNL     1       9.350  15.473  -5.159  1.00  0.00    -0.288 OA
ATOM     21  H3  UNL     1      10.162  15.272  -5.609  1.00  0.00     0.244 HD
ENDBRANCH  18  20
ENDBRANCH  13  16
ENDBRANCH   9  12
BRANCH  10  22
HETATM   22  C19 UNL     1       8.918  13.570   2.558  1.00  0.00     0.242 C 
HETATM   23  O4  UNL     1       7.822  14.000   2.758  1.00  0.00    -0.306 OA
ENDBRANCH  10  22
BRANCH   1  24
HETATM   24  C4  UNL     1       8.033  10.468   1.676  1.00  0.00     0.012 C 
BRANCH  24  25
HETATM   25  C3  UNL     1       7.979   9.294   2.527  1.00  0.00     0.000 C 
BRANCH  25  26
HETATM   26  C2  UNL     1       7.148   8.120   2.160  1.00  0.00    -0.005 C 
HETATM   27  C1  UNL     1       5.768   8.604   1.646  1.00  0.00     0.005 C 
ENDBRANCH  25  26
ENDBRANCH  24  25
ENDBRANCH   1  24
BRANCH   1  28
HETATM   28  C6  UNL     1       9.552  10.187  -0.314  1.00  0.00     0.173 C 
BRANCH  28  29
HETATM   29  O1  UNL     1       8.442   9.766  -0.989  1.00  0.00    -0.400 OA
ATOM     30  H1  UNL     1       8.546   9.808  -1.932  1.00  0.00     0.209 HD
ENDBRANCH  28  29
ENDBRANCH   1  28
TORSDOF 10
ENDMDL
MODEL 5
REMARK VINA RESULT: -5.378712402      2.955      6.329
REMARK  10 active torsions:
REMARK  status: ('A' for Active; 'I' for Inactive)
REMARK    1  A    between atoms: C2_2  and  C3_3 
REMARK    2  A    between atoms: C3_3  and  C4_4 
REMARK    3  A    between atoms: C4_4  and  C5_5 
REMARK    4  A    between atoms: C5_5  and  C6_6 
REMARK    5  A    between atoms: C6_6  and  O1_7 
REMARK    6  A    between atoms: C14_16  and  C15_17 
REMARK    7  A    between atoms: C16_18  and  O2_19 
REMARK    8  A    between atoms: C16_18  and  C17_21 
REMARK    9  A    between atoms: N2_23  and  O3_25 
REMARK   10  A    between atoms: C18_27  and  C19_28 
ROOT
HETATM    1  C5  UNL     1      10.759  14.460   1.257  1.00  0.00    -0.018 C 
HETATM    2  C7  UNL     1      10.096  15.510   0.431  1.00  0.00     0.012 C 
HETATM    3  C8  UNL     1       8.942  15.045  -0.416  1.00  0.00     0.010 C 
HETATM    4  C9  UNL     1       7.957  14.169   0.226  1.00  0.00     0.024 C 
HETATM    5  C10 UNL     1       6.588  14.716   0.391  1.00  0.00    -0.024 C 
HETATM    6  C11 UNL     1       5.695  13.822   0.873  1.00  0.00    -0.025 C 
HETATM    7  C12 UNL     1       6.198  12.471   1.154  1.00  0.00     0.012 C 
HETATM    8  C13 UNL     1       5.233  11.669   2.015  1.00  0.00     0.015 C 
HETATM    9  C14 UNL     1       7.544  12.404   1.813  1.00  0.00     0.034 C 
HETATM   10  C18 UNL     1       8.377  13.643   1.576  1.00  0.00     0.028 C 
HETATM   11  C20 UNL     1       9.825  13.331   1.657  1.00  0.00     0.029 C 
ENDROOT
BRANCH   9  12
HETATM   12  C15 UNL     1       8.189  11.168   1.309  1.00  0.00     0.020 C 
HETATM   13  C16 UNL     1       8.536  10.163   2.073  1.00  0.00     0.105 C 
BRANCH  13  14
HETATM   14  O2  UNL     1       8.326  10.164   3.445  1.00  0.00    -0.358 OA
ATOM     15  H2  UNL     1       7.675   9.613   3.861  1.00  0.00     0.217 HD
ENDBRANCH  13  14
BRANCH  13  16
HETATM   16  C17 UNL     1       9.166   8.989   1.487  1.00  0.00     0.168 C 
HETATM   17  N1  UNL     1       9.401   7.797   2.235  1.00  0.00    -0.078 NA
HETATM   18  N2  UNL     1       9.540   8.994   0.237  1.00  0.00    -0.253 N 
ATOM     19  H2  UNL     1       9.385   9.831  -0.324  1.00  0.00     0.195 HD
BRANCH  18  20
HETATM   20  O3  UNL     1      10.132   7.909  -0.340  1.00  0.00    -0.288 OA
ATOM     21  H3  UNL     1      10.305   7.870  -1.274  1.00  0.00     0.244 HD
ENDBRANCH  18  20
ENDBRANCH  13  16
ENDBRANCH   9  12
BRANCH  10  22
HETATM   22  C19 UNL     1       8.039  14.574   2.680  1.00  0.00     0.242 C 
HETATM   23  O4  UNL     1       7.805  14.273   3.812  1.00  0.00    -0.306 OA
ENDBRANCH  10  22
BRANCH   1  24
HETATM   24  C4  UNL     1      11.346  15.025   2.468  1.00  0.00     0.012 C 
BRANCH  24  25
HETATM   25  C3  UNL     1      12.762  15.087   2.775  1.00  0.00     0.000 C 
BRANCH  25  26
HETATM   26  C2  UNL     1      13.595  16.228   2.317  1.00  0.00    -0.005 C 
HETATM   27  C1  UNL     1      12.751  17.528   2.341  1.00  0.00     0.005 C 
ENDBRANCH  25  26
ENDBRANCH  24  25
ENDBRANCH   1  24
BRANCH   1  28
HETATM   28  C6  UNL     1      11.766  13.780   0.319  1.00  0.00     0.173 C 
BRANCH  28  29
HETATM   29  O1  UNL     1      11.777  12.421   0.448  1.00  0.00    -0.400 OA
ATOM     30  H1  UNL     1      12.641  12.045   0.321  1.00  0.00     0.209 HD
ENDBRANCH  28  29
ENDBRANCH   1  28
TORSDOF 10
ENDMDL
