MODEL 1
REMARK VINA RESULT: -6.229631918      0.000      0.000
REMARK  11 active torsions:
REMARK  status: ('A' for Active; 'I' for Inactive)
REMARK    1  A    between atoms: C5_5  and  O1_6 
REMARK    2  A    between atoms: C8_10  and  N1_11 
REMARK    3  A    between atoms: N1_11  and  C9_13 
REMARK    4  A    between atoms: C9_13  and  C10_14 
REMARK    5  A    between atoms: C10_14  and  C11_15 
REMARK    6  A    between atoms: C11_15  and  C12_16 
REMARK    7  A    between atoms: C12_16  and  C13_17 
REMARK    8  A    between atoms: C13_17  and  N2_18 
REMARK       I    between atoms: N2_18  and  C14_19 
REMARK    9  A    between atoms: C14_19  and  O3_21 
REMARK   10  A    between atoms: O3_21  and  C15_22 
REMARK   11  A    between atoms: C20_27  and  O4_28 
ROOT
HETATM    1  N1  UNL     1       1.534   9.259   1.995  1.00  0.00    -0.417 N 
ATOM      2  H1  UNL     1       1.450   9.452   0.997  1.00  0.00     0.153 HD
ENDROOT
BRANCH   1   3
HETATM    3  C8  UNL     1       0.431   9.499   2.935  1.00  0.00     0.079 C 
HETATM    4  C7  UNL     1       0.841   9.085   4.304  1.00  0.00     0.028 C 
HETATM    5  C6  UNL     1       0.916  10.241   5.310  1.00  0.00     0.037 C 
HETATM    6  C5  UNL     1      -0.398  10.482   6.003  1.00  0.00     0.140 C 
HETATM    7  C4  UNL     1      -1.045   9.183   6.344  1.00  0.00     0.001 C 
HETATM    8  C3  UNL     1      -1.936   8.713   5.533  1.00  0.00    -0.021 C 
HETATM    9  C2  UNL     1      -2.400   9.308   4.278  1.00  0.00     0.033 C 
HETATM   10  C1  UNL     1      -3.942   9.227   4.378  1.00  0.00     0.017 C 
HETATM   11  C20 UNL     1      -1.979   8.568   3.032  1.00  0.00     0.127 C 
HETATM   12  C19 UNL     1      -0.795   9.030   2.326  1.00  0.00     0.057 C 
BRANCH   6  13
HETATM   13  O1  UNL     1      -0.072  11.100   7.240  1.00  0.00    -0.392 OA
ATOM     14  H1  UNL     1      -0.898  11.350   7.637  1.00  0.00     0.210 HD
ENDBRANCH   6  13
BRANCH  11  15
HETATM   15  O4  UNL     1      -2.017   7.165   3.215  1.00  0.00    -0.395 OA
ATOM     16  H4  UNL     1      -1.778   6.699   2.423  1.00  0.00     0.210 HD
ENDBRANCH  11  15
ENDBRANCH   1   3
BRANCH   1  17
HETATM   17  C9  UNL     1       2.729   8.738   2.568  1.00  0.00     0.114 C 
BRANCH  17  18
HETATM   18  C10 UNL     1       3.906   9.439   1.944  1.00  0.00     0.019 C 
BRANCH  18  19
HETATM   19  C11 UNL     1       5.041   8.542   1.576  1.00  0.00     0.004 C 
BRANCH  19  20
HETATM   20  C12 UNL     1       6.432   9.053   1.911  1.00  0.00     0.034 C 
BRANCH  20  21
HETATM   21  C13 UNL     1       7.408   7.883   2.175  1.00  0.00     0.224 C 
BRANCH  21  22
HETATM   22  N2  UNL     1       8.603   8.285   1.459  1.00  0.00    -0.391 NA
HETATM   23  C14 UNL     1       9.672   8.643   0.816  1.00  0.00     0.435 C 
HETATM   24  O2  UNL     1      10.159   8.285  -0.327  1.00  0.00    -0.221 OA
BRANCH  23  25
HETATM   25  O3  UNL     1      10.564   9.659   1.377  1.00  0.00    -0.283 OA
BRANCH  25  26
HETATM   26  C15 UNL     1      10.083  10.969   1.478  1.00  0.00     0.062 C 
HETATM   27  C16 UNL     1       9.085  11.341   0.389  1.00  0.00     0.046 C 
HETATM   28  C17 UNL     1       9.492  11.240   2.854  1.00  0.00     0.046 C 
HETATM   29  C18 UNL     1      11.303  11.887   1.338  1.00  0.00     0.046 C 
ENDBRANCH  25  26
ENDBRANCH  23  25
ENDBRANCH  21  22
ENDBRANCH  20  21
ENDBRANCH  19  20
ENDBRANCH  18  19
ENDBRANCH  17  18
ENDBRANCH   1  17
TORSDOF 11
ENDMDL
MODEL 2
REMARK VINA RESULT: -6.207212650      4.735      9.824
REMARK  11 active torsions:
REMARK  status: ('A' for Active; 'I' for Inactive)
REMARK    1  A    between atoms: C5_5  and  O1_6 
REMARK    2  A    between atoms: C8_10  and  N1_11 
REMARK    3  A    between atoms: N1_11  and  C9_13 
REMARK    4  A    between atoms: C9_13  and  C10_14 
REMARK    5  A    between atoms: C10_14  and  C11_15 
REMARK    6  A    between atoms: C11_15  and  C12_16 
REMARK    7  A    between atoms: C12_16  and  C13_17 
REMARK    8  A    between atoms: C13_17  and  N2_18 
REMARK       I    between atoms: N2_18  and  C14_19 
REMARK    9  A    between atoms: C14_19  and  O3_21 
REMARK   10  A    between atoms: O3_21  and  C15_22 
REMARK   11  A    between atoms: C20_27  and  O4_28 
ROOT
HETATM    1  N1  UNL     1       5.947   9.771   2.352  1.00  0.00    -0.417 N 
ATOM      2  H1  UNL     1       6.044   9.195   3.188  1.00  0.00     0.153 HD
ENDROOT
BRANCH   1   3
HETATM    3  C8  UNL     1       7.103  10.172   1.539  1.00  0.00     0.079 C 
HETATM    4  C7  UNL     1       8.333   9.514   2.058  1.00  0.00     0.028 C 
HETATM    5  C6  UNL     1       8.973   8.523   1.078  1.00  0.00     0.037 C 
HETATM    6  C5  UNL     1       9.967   9.187   0.162  1.00  0.00     0.140 C 
HETATM    7  C4  UNL     1      10.780  10.180   0.920  1.00  0.00     0.001 C 
HETATM    8  C3  UNL     1      10.418  11.421   0.884  1.00  0.00    -0.021 C 
HETATM    9  C2  UNL     1       9.269  11.992   0.178  1.00  0.00     0.033 C 
HETATM   10  C1  UNL     1       9.860  13.217  -0.561  1.00  0.00     0.017 C 
HETATM   11  C20 UNL     1       8.157  12.486   1.071  1.00  0.00     0.127 C 
HETATM   12  C19 UNL     1       7.031  11.600   1.320  1.00  0.00     0.057 C 
BRANCH   6  13
HETATM   13  O1  UNL     1      10.865   8.161  -0.237  1.00  0.00    -0.392 OA
ATOM     14  H1  UNL     1      10.325   7.434  -0.526  1.00  0.00     0.210 HD
ENDBRANCH   6  13
BRANCH  11  15
HETATM   15  O4  UNL     1       8.659  13.106   2.242  1.00  0.00    -0.395 OA
ATOM     16  H4  UNL     1       8.969  13.987   2.069  1.00  0.00     0.210 HD
ENDBRANCH  11  15
ENDBRANCH   1   3
BRANCH   1  17
HETATM   17  C9  UNL     1       4.682  10.240   1.897  1.00  0.00     0.114 C 
BRANCH  17  18
HETATM   18  C10 UNL     1       3.797   9.052   1.632  1.00  0.00     0.019 C 
BRANCH  18  19
HETATM   19  C11 UNL     1       4.448   7.949   0.864  1.00  0.00     0.004 C 
BRANCH  19  20
HETATM   20  C12 UNL     1       4.820   6.710   1.662  1.00  0.00     0.034 C 
BRANCH  20  21
HETATM   21  C13 UNL     1       3.602   5.775   1.841  1.00  0.00     0.224 C 
BRANCH  21  22
HETATM   22  N2  UNL     1       4.108   4.489   1.401  1.00  0.00    -0.391 NA
HETATM   23  C14 UNL     1       4.561   3.339   1.009  1.00  0.00     0.435 C 
HETATM   24  O2  UNL     1       5.268   2.435   1.605  1.00  0.00    -0.221 OA
BRANCH  23  25
HETATM   25  O3  UNL     1       4.261   2.847  -0.336  1.00  0.00    -0.283 OA
BRANCH  25  26
HETATM   26  C15 UNL     1       3.597   1.620  -0.451  1.00  0.00     0.062 C 
HETATM   27  C16 UNL     1       4.508   0.411  -0.278  1.00  0.00     0.046 C 
HETATM   28  C17 UNL     1       2.417   1.535   0.507  1.00  0.00     0.046 C 
HETATM   29  C18 UNL     1       3.015   1.577  -1.869  1.00  0.00     0.046 C 
ENDBRANCH  25  26
ENDBRANCH  23  25
ENDBRANCH  21  22
ENDBRANCH  20  21
ENDBRANCH  19  20
ENDBRANCH  18  19
ENDBRANCH  17  18
ENDBRANCH   1  17
TORSDOF 11
ENDMDL
MODEL 3
REMARK VINA RESULT: -6.154957631      1.186      1.652
REMARK  11 active torsions:
REMARK  status: ('A' for Active; 'I' for Inactive)
REMARK    1  A    between atoms: C5_5  and  O1_6 
REMARK    2  A    between atoms: C8_10  and  N1_11 
REMARK    3  A    between atoms: N1_11  and  C9_13 
REMARK    4  A    between atoms: C9_13  and  C10_14 
REMARK    5  A    between atoms: C10_14  and  C11_15 
REMARK    6  A    between atoms: C11_15  and  C12_16 
REMARK    7  A    between atoms: C12_16  and  C13_17 
REMARK    8  A    between atoms: C13_17  and  N2_18 
REMARK       I    between atoms: N2_18  and  C14_19 
REMARK    9  A    between atoms: C14_19  and  O3_21 
REMARK   10  A    between atoms: O3_21  and  C15_22 
REMARK   11  A    between atoms: C20_27  and  O4_28 
ROOT
HETATM    1  N1  UNL     1       0.968   9.005   2.325  1.00  0.00    -0.417 N 
ATOM      2  H1  UNL     1       1.199   8.084   1.954  1.00  0.00     0.153 HD
ENDROOT
BRANCH   1   3
HETATM    3  C8  UNL     1      -0.142   9.215   3.265  1.00  0.00     0.079 C 
HETATM    4  C7  UNL     1       0.297   8.867   4.644  1.00  0.00     0.028 C 
HETATM    5  C6  UNL     1       0.314  10.057   5.612  1.00  0.00     0.037 C 
HETATM    6  C5  UNL     1      -1.008  10.249   6.306  1.00  0.00     0.140 C 
HETATM    7  C4  UNL     1      -1.581   8.928   6.692  1.00  0.00     0.001 C 
HETATM    8  C3  UNL     1      -2.450   8.385   5.902  1.00  0.00    -0.021 C 
HETATM    9  C2  UNL     1      -2.952   8.914   4.632  1.00  0.00     0.033 C 
HETATM   10  C1  UNL     1      -4.487   8.753   4.744  1.00  0.00     0.017 C 
HETATM   11  C20 UNL     1      -2.498   8.159   3.407  1.00  0.00     0.127 C 
HETATM   12  C19 UNL     1      -1.344   8.662   2.678  1.00  0.00     0.057 C 
BRANCH   6  13
HETATM   13  O1  UNL     1      -0.710  10.922   7.520  1.00  0.00    -0.392 OA
ATOM     14  H1  UNL     1      -0.824  11.848   7.345  1.00  0.00     0.210 HD
ENDBRANCH   6  13
BRANCH  11  15
HETATM   15  O4  UNL     1      -2.459   6.762   3.634  1.00  0.00    -0.395 OA
ATOM     16  H4  UNL     1      -2.851   6.276   2.918  1.00  0.00     0.210 HD
ENDBRANCH  11  15
ENDBRANCH   1   3
BRANCH   1  17
HETATM   17  C9  UNL     1       1.700  10.173   1.966  1.00  0.00     0.114 C 
BRANCH  17  18
HETATM   18  C10 UNL     1       3.147   9.959   2.317  1.00  0.00     0.019 C 
BRANCH  18  19
HETATM   19  C11 UNL     1       3.702   8.639   1.894  1.00  0.00     0.004 C 
BRANCH  19  20
HETATM   20  C12 UNL     1       5.139   8.646   1.399  1.00  0.00     0.034 C 
BRANCH  20  21
HETATM   21  C13 UNL     1       5.892   7.374   1.853  1.00  0.00     0.224 C 
BRANCH  21  22
HETATM   22  N2  UNL     1       7.166   7.893   2.311  1.00  0.00    -0.391 NA
HETATM   23  C14 UNL     1       8.305   8.358   2.723  1.00  0.00     0.435 C 
HETATM   24  O2  UNL     1       8.667   8.908   3.835  1.00  0.00    -0.221 OA
BRANCH  23  25
HETATM   25  O3  UNL     1       9.488   8.279   1.865  1.00  0.00    -0.283 OA
BRANCH  25  26
HETATM   26  C15 UNL     1       9.760   9.365   1.024  1.00  0.00     0.062 C 
HETATM   27  C16 UNL     1       8.513  10.098   0.546  1.00  0.00     0.046 C 
HETATM   28  C17 UNL     1      10.732  10.340   1.674  1.00  0.00     0.046 C 
HETATM   29  C18 UNL     1      10.473   8.789  -0.205  1.00  0.00     0.046 C 
ENDBRANCH  25  26
ENDBRANCH  23  25
ENDBRANCH  21  22
ENDBRANCH  20  21
ENDBRANCH  19  20
ENDBRANCH  18  19
ENDBRANCH  17  18
ENDBRANCH   1  17
TORSDOF 11
ENDMDL
MODEL 4
REMARK VINA RESULT: -6.149690832      1.099      1.452
REMARK  11 active torsions:
REMARK  status: ('A' for Active; 'I' for Inactive)
REMARK    1  A    between atoms: C5_5  and  O1_6 
REMARK    2  A    between atoms: C8_10  and  N1_11 
REMARK    3  A    between atoms: N1_11  and  C9_13 
REMARK    4  A    between atoms: C9_13  and  C10_14 
REMARK    5  A    between atoms: C10_14  and  C11_15 
REMARK    6  A    between atoms: C11_15  and  C12_16 
REMARK    7  A    between atoms: C12_16  and  C13_17 
REMARK    8  A    between atoms: C13_17  and  N2_18 
REMARK       I    between atoms: N2_18  and  C14_19 
REMARK    9  A    between atoms: C14_19  and  O3_21 
REMARK   10  A    between atoms: O3_21  and  C15_22 
REMARK   11  A    between atoms: C20_27  and  O4_28 
ROOT
HETATM    1  N1  UNL     1       1.184   9.026   2.353  1.00  0.00    -0.417 N 
ATOM      2  H1  UNL     1       1.414   8.102   1.986  1.00  0.00     0.153 HD
ENDROOT
BRANCH   1   3
HETATM    3  C8  UNL     1       0.038   9.253   3.244  1.00  0.00     0.079 C 
HETATM    4  C7  UNL     1       0.411   8.899   4.640  1.00  0.00     0.028 C 
HETATM    5  C6  UNL     1       0.404  10.088   5.609  1.00  0.00     0.037 C 
HETATM    6  C5  UNL     1      -0.944  10.300   6.245  1.00  0.00     0.140 C 
HETATM    7  C4  UNL     1      -1.553   8.988   6.605  1.00  0.00     0.001 C 
HETATM    8  C3  UNL     1      -2.395   8.457   5.778  1.00  0.00    -0.021 C 
HETATM    9  C2  UNL     1      -2.832   8.994   4.488  1.00  0.00     0.033 C 
HETATM   10  C1  UNL     1      -4.373   8.856   4.533  1.00  0.00     0.017 C 
HETATM   11  C20 UNL     1      -2.337   8.232   3.283  1.00  0.00     0.127 C 
HETATM   12  C19 UNL     1      -1.145   8.717   2.605  1.00  0.00     0.057 C 
BRANCH   6  13
HETATM   13  O1  UNL     1      -0.689  10.968   7.471  1.00  0.00    -0.392 OA
ATOM     14  H1  UNL     1       0.105  10.583   7.823  1.00  0.00     0.210 HD
ENDBRANCH   6  13
BRANCH  11  15
HETATM   15  O4  UNL     1      -2.329   6.835   3.511  1.00  0.00    -0.395 OA
ATOM     16  H4  UNL     1      -1.701   6.389   2.953  1.00  0.00     0.210 HD
ENDBRANCH  11  15
ENDBRANCH   1   3
BRANCH   1  17
HETATM   17  C9  UNL     1       1.955  10.181   2.036  1.00  0.00     0.114 C 
BRANCH  17  18
HETATM   18  C10 UNL     1       3.408   9.789   1.986  1.00  0.00     0.019 C 
BRANCH  18  19
HETATM   19  C11 UNL     1       3.658   8.318   2.027  1.00  0.00     0.004 C 
BRANCH  19  20
HETATM   20  C12 UNL     1       5.061   7.869   1.655  1.00  0.00     0.034 C 
BRANCH  20  21
HETATM   21  C13 UNL     1       5.937   9.070   1.230  1.00  0.00     0.224 C 
BRANCH  21  22
HETATM   22  N2  UNL     1       7.206   8.795   1.876  1.00  0.00    -0.391 NA
HETATM   23  C14 UNL     1       8.340   8.547   2.454  1.00  0.00     0.435 C 
HETATM   24  O2  UNL     1       8.828   7.473   2.984  1.00  0.00    -0.221 OA
BRANCH  23  25
HETATM   25  O3  UNL     1       9.356   9.594   2.565  1.00  0.00    -0.283 OA
BRANCH  25  26
HETATM   26  C15 UNL     1       9.923  10.085   1.383  1.00  0.00     0.062 C 
HETATM   27  C16 UNL     1      10.306   8.997   0.389  1.00  0.00     0.046 C 
HETATM   28  C17 UNL     1       9.019  11.115   0.720  1.00  0.00     0.046 C 
HETATM   29  C18 UNL     1      11.202  10.824   1.794  1.00  0.00     0.046 C 
ENDBRANCH  25  26
ENDBRANCH  23  25
ENDBRANCH  21  22
ENDBRANCH  20  21
ENDBRANCH  19  20
ENDBRANCH  18  19
ENDBRANCH  17  18
ENDBRANCH   1  17
TORSDOF 11
ENDMDL
MODEL 5
REMARK VINA RESULT: -6.149143183      3.468      5.356
REMARK  11 active torsions:
REMARK  status: ('A' for Active; 'I' for Inactive)
REMARK    1  A    between atoms: C5_5  and  O1_6 
REMARK    2  A    between atoms: C8_10  and  N1_11 
REMARK    3  A    between atoms: N1_11  and  C9_13 
REMARK    4  A    between atoms: C9_13  and  C10_14 
REMARK    5  A    between atoms: C10_14  and  C11_15 
REMARK    6  A    between atoms: C11_15  and  C12_16 
REMARK    7  A    between atoms: C12_16  and  C13_17 
REMARK    8  A    between atoms: C13_17  and  N2_18 
REMARK       I    between atoms: N2_18  and  C14_19 
REMARK    9  A    between atoms: C14_19  and  O3_21 
REMARK   10  A    between atoms: O3_21  and  C15_22 
REMARK   11  A    between atoms: C20_27  and  O4_28 
ROOT
HETATM    1  N1  UNL     1       7.102   9.004   1.518  1.00  0.00    -0.417 N 
ATOM      2  H1  UNL     1       7.583   9.263   0.657  1.00  0.00     0.153 HD
ENDROOT
BRANCH   1   3
HETATM    3  C8  UNL     1       5.861   9.661   1.951  1.00  0.00     0.079 C 
HETATM    4  C7  UNL     1       4.704   9.078   1.219  1.00  0.00     0.028 C 
HETATM    5  C6  UNL     1       3.705   8.337   2.118  1.00  0.00     0.037 C 
HETATM    6  C5  UNL     1       2.637   9.249   2.658  1.00  0.00     0.140 C 
HETATM    7  C4  UNL     1       2.189  10.198   1.600  1.00  0.00     0.001 C 
HETATM    8  C3  UNL     1       2.718  11.378   1.574  1.00  0.00    -0.021 C 
HETATM    9  C2  UNL     1       3.740  11.915   2.475  1.00  0.00     0.033 C 
HETATM   10  C1  UNL     1       3.185  13.302   2.880  1.00  0.00     0.017 C 
HETATM   11  C20 UNL     1       5.093  12.128   1.843  1.00  0.00     0.127 C 
HETATM   12  C19 UNL     1       6.098  11.087   2.003  1.00  0.00     0.057 C 
BRANCH   6  13
HETATM   13  O1  UNL     1       1.524   8.412   2.937  1.00  0.00    -0.392 OA
ATOM     14  H1  UNL     1       1.203   8.108   2.096  1.00  0.00     0.210 HD
ENDBRANCH   6  13
BRANCH  11  15
HETATM   15  O4  UNL     1       4.985  12.609   0.515  1.00  0.00    -0.395 OA
ATOM     16  H4  UNL     1       5.673  13.231   0.308  1.00  0.00     0.210 HD
ENDBRANCH  11  15
ENDBRANCH   1   3
BRANCH   1  17
HETATM   17  C9  UNL     1       7.589   7.980   2.380  1.00  0.00     0.114 C 
BRANCH  17  18
HETATM   18  C10 UNL     1       9.019   8.290   2.733  1.00  0.00     0.019 C 
BRANCH  18  19
HETATM   19  C11 UNL     1       9.197   9.476   3.622  1.00  0.00     0.004 C 
BRANCH  19  20
HETATM   20  C12 UNL     1       9.740  10.732   2.960  1.00  0.00     0.034 C 
BRANCH  20  21
HETATM   21  C13 UNL     1      10.807  10.384   1.896  1.00  0.00     0.224 C 
BRANCH  21  22
HETATM   22  N2  UNL     1      10.088  10.547   0.646  1.00  0.00    -0.391 NA
HETATM   23  C14 UNL     1       9.445  10.690  -0.470  1.00  0.00     0.435 C 
HETATM   24  O2  UNL     1       8.506   9.996  -1.027  1.00  0.00    -0.221 OA
BRANCH  23  25
HETATM   25  O3  UNL     1       9.727  11.830  -1.344  1.00  0.00    -0.283 OA
BRANCH  25  26
HETATM   26  C15 UNL     1       9.685  13.111  -0.781  1.00  0.00     0.062 C 
HETATM   27  C16 UNL     1       8.591  13.287   0.264  1.00  0.00     0.046 C 
HETATM   28  C17 UNL     1      11.037  13.510  -0.206  1.00  0.00     0.046 C 
HETATM   29  C18 UNL     1       9.399  14.078  -1.936  1.00  0.00     0.046 C 
ENDBRANCH  25  26
ENDBRANCH  23  25
ENDBRANCH  21  22
ENDBRANCH  20  21
ENDBRANCH  19  20
ENDBRANCH  18  19
ENDBRANCH  17  18
ENDBRANCH   1  17
TORSDOF 11
ENDMDL
