MODEL 1
REMARK VINA RESULT: -6.140711759      0.000      0.000
REMARK  10 active torsions:
REMARK  status: ('A' for Active; 'I' for Inactive)
REMARK    1  A    between atoms: C2_2  and  C4_4 
REMARK    2  A    between atoms: C4_4  and  C5_5 
REMARK    3  A    between atoms: C5_5  and  C6_6 
REMARK    4  A    between atoms: C7_7  and  S1_8 
REMARK    5  A    between atoms: S1_8  and  N1_9 
REMARK    6  A    between atoms: N1_9  and  C8_10 
REMARK    7  A    between atoms: C8_10  and  C9_11 
REMARK    8  A    between atoms: C13_15  and  O1_16 
REMARK    9  A    between atoms: C18_22  and  O2_23 
REMARK   10  A    between atoms: C19_25  and  O3_27 
ROOT
HETATM    1  C6  UNL     1       7.619   9.286   1.245  1.00  0.00     0.037 C 
HETATM    2  C7  UNL     1       8.469  10.333   0.577  1.00  0.00     0.075 C 
HETATM    3  C15 UNL     1       9.951  10.112   0.704  1.00  0.00    -0.001 C 
HETATM    4  C16 UNL     1      10.433   8.835   0.108  1.00  0.00     0.011 C 
HETATM    5  C17 UNL     1      10.223  10.192   2.213  1.00  0.00     0.040 C 
HETATM    6  C18 UNL     1       9.646   8.923   2.732  1.00  0.00     0.153 C 
HETATM    7  C19 UNL     1       8.171   8.769   2.530  1.00  0.00     0.085 C 
HETATM    8  C20 UNL     1       7.916   7.278   2.628  1.00  0.00     0.049 C 
ENDROOT
BRANCH   2   9
HETATM    9  S1  UNL     1       8.096  12.023   0.981  1.00  0.00    -0.060 SA
BRANCH   9  10
HETATM   10  N1  UNL     1       8.759  13.165  -0.185  1.00  0.00    -0.178 NA
BRANCH  10  11
HETATM   11  C8  UNL     1       9.444  14.259   0.523  1.00  0.00     0.127 C 
BRANCH  11  12
HETATM   12  C9  UNL     1      10.671  13.660   1.179  1.00  0.00     0.003 C 
HETATM   13  C10 UNL     1      10.764  14.135   2.624  1.00  0.00     0.006 C 
HETATM   14  C11 UNL     1      11.227  15.583   2.681  1.00  0.00     0.003 C 
HETATM   15  C12 UNL     1      12.519  15.765   1.907  1.00  0.00     0.032 C 
HETATM   16  C13 UNL     1      12.990  14.434   1.342  1.00  0.00     0.118 C 
HETATM   17  C14 UNL     1      11.919  13.938   0.401  1.00  0.00     0.037 C 
BRANCH  16  18
HETATM   18  O1  UNL     1      14.180  14.655   0.655  1.00  0.00    -0.396 OA
ATOM     19  H1  UNL     1      14.551  13.810   0.430  1.00  0.00     0.210 HD
ENDBRANCH  16  18
ENDBRANCH  11  12
ENDBRANCH  10  11
ENDBRANCH   9  10
ENDBRANCH   2   9
BRANCH   1  20
HETATM   20  C5  UNL     1       6.223   9.765   1.287  1.00  0.00     0.009 C 
BRANCH  20  21
HETATM   21  C4  UNL     1       5.173   8.849   0.734  1.00  0.00     0.004 C 
BRANCH  21  22
HETATM   22  C2  UNL     1       4.413   8.295   1.959  1.00  0.00    -0.023 C 
HETATM   23  C1  UNL     1       4.140   6.809   1.715  1.00  0.00     0.009 C 
HETATM   24  C3  UNL     1       3.078   8.990   2.081  1.00  0.00     0.009 C 
ENDBRANCH  21  22
ENDBRANCH  20  21
ENDBRANCH   1  20
BRANCH   7  25
HETATM   25  O3  UNL     1       7.597   9.358   3.660  1.00  0.00    -0.387 OA
ATOM     26  H3  UNL     1       8.188   9.407   4.402  1.00  0.00     0.210 HD
ENDBRANCH   7  25
BRANCH   6  27
HETATM   27  O2  UNL     1       9.930   8.752   4.094  1.00  0.00    -0.393 OA
ATOM     28  H2  UNL     1       9.766   7.859   4.373  1.00  0.00     0.210 HD
ENDBRANCH   6  27
TORSDOF 10
ENDMDL
MODEL 2
REMARK VINA RESULT: -5.965539336      3.929      8.726
REMARK  10 active torsions:
REMARK  status: ('A' for Active; 'I' for Inactive)
REMARK    1  A    between atoms: C2_2  and  C4_4 
REMARK    2  A    between atoms: C4_4  and  C5_5 
REMARK    3  A    between atoms: C5_5  and  C6_6 
REMARK    4  A    between atoms: C7_7  and  S1_8 
REMARK    5  A    between atoms: S1_8  and  N1_9 
REMARK    6  A    between atoms: N1_9  and  C8_10 
REMARK    7  A    between atoms: C8_10  and  C9_11 
REMARK    8  A    between atoms: C13_15  and  O1_16 
REMARK    9  A    between atoms: C18_22  and  O2_23 
REMARK   10  A    between atoms: C19_25  and  O3_27 
ROOT
HETATM    1  C6  UNL     1       6.532   9.491   1.958  1.00  0.00     0.037 C 
HETATM    2  C7  UNL     1       7.030   8.224   2.598  1.00  0.00     0.075 C 
HETATM    3  C15 UNL     1       8.512   8.193   2.856  1.00  0.00    -0.001 C 
HETATM    4  C16 UNL     1       8.995   9.263   3.772  1.00  0.00     0.011 C 
HETATM    5  C17 UNL     1       9.147   8.287   1.462  1.00  0.00     0.040 C 
HETATM    6  C18 UNL     1       8.901   9.701   1.068  1.00  0.00     0.153 C 
HETATM    7  C19 UNL     1       7.459  10.083   0.953  1.00  0.00     0.085 C 
HETATM    8  C20 UNL     1       7.444  11.595   1.077  1.00  0.00     0.049 C 
ENDROOT
BRANCH   2   9
HETATM    9  S1  UNL     1       6.545   6.704   1.813  1.00  0.00    -0.060 SA
BRANCH   9  10
HETATM   10  N1  UNL     1       4.852   6.303   2.091  1.00  0.00    -0.178 NA
BRANCH  10  11
HETATM   11  C8  UNL     1       4.374   5.396   1.036  1.00  0.00     0.127 C 
BRANCH  11  12
HETATM   12  C9  UNL     1       3.857   4.150   1.727  1.00  0.00     0.003 C 
HETATM   13  C10 UNL     1       4.957   3.097   1.776  1.00  0.00     0.006 C 
HETATM   14  C11 UNL     1       5.154   2.465   0.406  1.00  0.00     0.003 C 
HETATM   15  C12 UNL     1       3.839   1.934  -0.135  1.00  0.00     0.032 C 
HETATM   16  C13 UNL     1       2.724   2.151   0.876  1.00  0.00     0.118 C 
HETATM   17  C14 UNL     1       2.599   3.638   1.098  1.00  0.00     0.037 C 
BRANCH  16  18
HETATM   18  O1  UNL     1       1.549   1.636   0.338  1.00  0.00    -0.396 OA
ATOM     19  H1  UNL     1       1.357   2.115  -0.460  1.00  0.00     0.210 HD
ENDBRANCH  16  18
ENDBRANCH  11  12
ENDBRANCH  10  11
ENDBRANCH   9  10
ENDBRANCH   2   9
BRANCH   1  20
HETATM   20  C5  UNL     1       5.140   9.281   1.510  1.00  0.00     0.009 C 
BRANCH  20  21
HETATM   21  C4  UNL     1       4.108  10.239   2.022  1.00  0.00     0.004 C 
BRANCH  21  22
HETATM   22  C2  UNL     1       2.747   9.539   1.814  1.00  0.00    -0.023 C 
HETATM   23  C1  UNL     1       1.673  10.621   1.684  1.00  0.00     0.009 C 
HETATM   24  C3  UNL     1       2.415   8.710   3.031  1.00  0.00     0.009 C 
ENDBRANCH  21  22
ENDBRANCH  20  21
ENDBRANCH   1  20
BRANCH   7  25
HETATM   25  O3  UNL     1       7.118   9.778  -0.367  1.00  0.00    -0.387 OA
ATOM     26  H3  UNL     1       7.517  10.358  -1.005  1.00  0.00     0.210 HD
ENDBRANCH   7  25
BRANCH   6  27
HETATM   27  O2  UNL     1       9.545  10.015  -0.136  1.00  0.00    -0.393 OA
ATOM     28  H2  UNL     1       8.918  10.203  -0.825  1.00  0.00     0.210 HD
ENDBRANCH   6  27
TORSDOF 10
ENDMDL
MODEL 3
REMARK VINA RESULT: -5.793108585      1.094      1.233
REMARK  10 active torsions:
REMARK  status: ('A' for Active; 'I' for Inactive)
REMARK    1  A    between atoms: C2_2  and  C4_4 
REMARK    2  A    between atoms: C4_4  and  C5_5 
REMARK    3  A    between atoms: C5_5  and  C6_6 
REMARK    4  A    between atoms: C7_7  and  S1_8 
REMARK    5  A    between atoms: S1_8  and  N1_9 
REMARK    6  A    between atoms: N1_9  and  C8_10 
REMARK    7  A    between atoms: C8_10  and  C9_11 
REMARK    8  A    between atoms: C13_15  and  O1_16 
REMARK    9  A    between atoms: C18_22  and  O2_23 
REMARK   10  A    between atoms: C19_25  and  O3_27 
ROOT
HETATM    1  C6  UNL     1       7.598  10.278   1.814  1.00  0.00     0.037 C 
HETATM    2  C7  UNL     1       8.579  11.312   1.334  1.00  0.00     0.075 C 
HETATM    3  C15 UNL     1       9.986  10.809   1.159  1.00  0.00    -0.001 C 
HETATM    4  C16 UNL     1      10.122   9.707   0.166  1.00  0.00     0.011 C 
HETATM    5  C17 UNL     1      10.418  10.381   2.568  1.00  0.00     0.040 C 
HETATM    6  C18 UNL     1       9.639   9.136   2.803  1.00  0.00     0.153 C 
HETATM    7  C19 UNL     1       8.153   9.310   2.803  1.00  0.00     0.085 C 
HETATM    8  C20 UNL     1       7.597   7.926   2.526  1.00  0.00     0.049 C 
ENDROOT
BRANCH   2   9
HETATM    9  S1  UNL     1       8.617  12.840   2.241  1.00  0.00    -0.060 SA
BRANCH   9  10
HETATM   10  N1  UNL     1       9.054  14.219   1.236  1.00  0.00    -0.178 NA
BRANCH  10  11
HETATM   11  C8  UNL     1       9.866  15.168   2.015  1.00  0.00     0.127 C 
BRANCH  11  12
HETATM   12  C9  UNL     1      11.129  14.436   2.422  1.00  0.00     0.003 C 
HETATM   13  C10 UNL     1      11.734  15.103   3.651  1.00  0.00     0.006 C 
HETATM   14  C11 UNL     1      12.407  16.413   3.272  1.00  0.00     0.003 C 
HETATM   15  C12 UNL     1      13.410  16.198   2.152  1.00  0.00     0.032 C 
HETATM   16  C13 UNL     1      13.474  14.726   1.775  1.00  0.00     0.118 C 
HETATM   17  C14 UNL     1      12.103  14.322   1.291  1.00  0.00     0.037 C 
BRANCH  16  18
HETATM   18  O1  UNL     1      14.414  14.583   0.758  1.00  0.00    -0.396 OA
ATOM     19  H1  UNL     1      15.276  14.707   1.136  1.00  0.00     0.210 HD
ENDBRANCH  16  18
ENDBRANCH  11  12
ENDBRANCH  10  11
ENDBRANCH   9  10
ENDBRANCH   2   9
BRANCH   1  20
HETATM   20  C5  UNL     1       6.347  10.957   2.206  1.00  0.00     0.009 C 
BRANCH  20  21
HETATM   21  C4  UNL     1       5.144  10.722   1.343  1.00  0.00     0.004 C 
BRANCH  21  22
HETATM   22  C2  UNL     1       4.267   9.712   2.113  1.00  0.00    -0.023 C 
HETATM   23  C1  UNL     1       4.178   8.431   1.281  1.00  0.00     0.009 C 
HETATM   24  C3  UNL     1       2.868  10.263   2.254  1.00  0.00     0.009 C 
ENDBRANCH  21  22
ENDBRANCH  20  21
ENDBRANCH   1  20
BRANCH   7  25
HETATM   25  O3  UNL     1       7.834   9.622   4.127  1.00  0.00    -0.387 OA
ATOM     26  H3  UNL     1       7.978  10.534   4.346  1.00  0.00     0.210 HD
ENDBRANCH   7  25
BRANCH   6  27
HETATM   27  O2  UNL     1      10.016   8.516   4.003  1.00  0.00    -0.393 OA
ATOM     28  H2  UNL     1      10.759   7.937   3.875  1.00  0.00     0.210 HD
ENDBRANCH   6  27
TORSDOF 10
ENDMDL
MODEL 4
REMARK VINA RESULT: -5.739389538      1.441      2.018
REMARK  10 active torsions:
REMARK  status: ('A' for Active; 'I' for Inactive)
REMARK    1  A    between atoms: C2_2  and  C4_4 
REMARK    2  A    between atoms: C4_4  and  C5_5 
REMARK    3  A    between atoms: C5_5  and  C6_6 
REMARK    4  A    between atoms: C7_7  and  S1_8 
REMARK    5  A    between atoms: S1_8  and  N1_9 
REMARK    6  A    between atoms: N1_9  and  C8_10 
REMARK    7  A    between atoms: C8_10  and  C9_11 
REMARK    8  A    between atoms: C13_15  and  O1_16 
REMARK    9  A    between atoms: C18_22  and  O2_23 
REMARK   10  A    between atoms: C19_25  and  O3_27 
ROOT
HETATM    1  C6  UNL     1       7.562  10.294   1.856  1.00  0.00     0.037 C 
HETATM    2  C7  UNL     1       8.489  11.439   1.552  1.00  0.00     0.075 C 
HETATM    3  C15 UNL     1       9.932  11.049   1.383  1.00  0.00    -0.001 C 
HETATM    4  C16 UNL     1      10.180  10.091   0.270  1.00  0.00     0.011 C 
HETATM    5  C17 UNL     1      10.338  10.476   2.748  1.00  0.00     0.040 C 
HETATM    6  C18 UNL     1       9.636   9.166   2.792  1.00  0.00     0.153 C 
HETATM    7  C19 UNL     1       8.143   9.246   2.744  1.00  0.00     0.085 C 
HETATM    8  C20 UNL     1       7.693   7.876   2.274  1.00  0.00     0.049 C 
ENDROOT
BRANCH   2   9
HETATM    9  S1  UNL     1       8.390  12.841   2.641  1.00  0.00    -0.060 SA
BRANCH   9  10
HETATM   10  N1  UNL     1       9.713  13.980   2.407  1.00  0.00    -0.178 NA
BRANCH  10  11
HETATM   11  C8  UNL     1       9.209  15.207   1.770  1.00  0.00     0.127 C 
BRANCH  11  12
HETATM   12  C9  UNL     1      10.240  15.623   0.739  1.00  0.00     0.003 C 
HETATM   13  C10 UNL     1       9.581  15.725  -0.631  1.00  0.00     0.006 C 
HETATM   14  C11 UNL     1       9.318  14.340  -1.201  1.00  0.00     0.003 C 
HETATM   15  C12 UNL     1      10.588  13.509  -1.207  1.00  0.00     0.032 C 
HETATM   16  C13 UNL     1      11.757  14.327  -0.681  1.00  0.00     0.118 C 
HETATM   17  C14 UNL     1      11.433  14.720   0.739  1.00  0.00     0.037 C 
BRANCH  16  18
HETATM   18  O1  UNL     1      12.895  13.527  -0.720  1.00  0.00    -0.396 OA
ATOM     19  H1  UNL     1      12.616  12.619  -0.712  1.00  0.00     0.210 HD
ENDBRANCH  16  18
ENDBRANCH  11  12
ENDBRANCH  10  11
ENDBRANCH   9  10
ENDBRANCH   2   9
BRANCH   1  20
HETATM   20  C5  UNL     1       6.254  10.840   2.270  1.00  0.00     0.009 C 
BRANCH  20  21
HETATM   21  C4  UNL     1       5.092  10.591   1.356  1.00  0.00     0.004 C 
BRANCH  21  22
HETATM   22  C2  UNL     1       4.267   9.470   2.023  1.00  0.00    -0.023 C 
HETATM   23  C1  UNL     1       4.261   8.262   1.083  1.00  0.00     0.009 C 
HETATM   24  C3  UNL     1       2.837   9.926   2.189  1.00  0.00     0.009 C 
ENDBRANCH  21  22
ENDBRANCH  20  21
ENDBRANCH   1  20
BRANCH   7  25
HETATM   25  O3  UNL     1       7.753   9.369   4.080  1.00  0.00    -0.387 OA
ATOM     26  H3  UNL     1       6.985   9.914   4.201  1.00  0.00     0.210 HD
ENDBRANCH   7  25
BRANCH   6  27
HETATM   27  O2  UNL     1      10.008   8.425   3.923  1.00  0.00    -0.393 OA
ATOM     28  H2  UNL     1      10.523   8.949   4.526  1.00  0.00     0.210 HD
ENDBRANCH   6  27
TORSDOF 10
ENDMDL
MODEL 5
REMARK VINA RESULT: -5.737573813      1.196      1.585
REMARK  10 active torsions:
REMARK  status: ('A' for Active; 'I' for Inactive)
REMARK    1  A    between atoms: C2_2  and  C4_4 
REMARK    2  A    between atoms: C4_4  and  C5_5 
REMARK    3  A    between atoms: C5_5  and  C6_6 
REMARK    4  A    between atoms: C7_7  and  S1_8 
REMARK    5  A    between atoms: S1_8  and  N1_9 
REMARK    6  A    between atoms: N1_9  and  C8_10 
REMARK    7  A    between atoms: C8_10  and  C9_11 
REMARK    8  A    between atoms: C13_15  and  O1_16 
REMARK    9  A    between atoms: C18_22  and  O2_23 
REMARK   10  A    between atoms: C19_25  and  O3_27 
ROOT
HETATM    1  C6  UNL     1       7.655   9.435   1.230  1.00  0.00     0.037 C 
HETATM    2  C7  UNL     1       8.552  10.477   0.620  1.00  0.00     0.075 C 
HETATM    3  C15 UNL     1      10.024  10.204   0.772  1.00  0.00    -0.001 C 
HETATM    4  C16 UNL     1      10.478   8.935   0.138  1.00  0.00     0.011 C 
HETATM    5  C17 UNL     1      10.263  10.218   2.287  1.00  0.00     0.040 C 
HETATM    6  C18 UNL     1       9.635   8.950   2.746  1.00  0.00     0.153 C 
HETATM    7  C19 UNL     1       8.161   8.852   2.505  1.00  0.00     0.085 C 
HETATM    8  C20 UNL     1       7.856   7.367   2.541  1.00  0.00     0.049 C 
ENDROOT
BRANCH   2   9
HETATM    9  S1  UNL     1       8.224  12.163   1.081  1.00  0.00    -0.060 SA
BRANCH   9  10
HETATM   10  N1  UNL     1       8.423  13.287  -0.261  1.00  0.00    -0.178 NA
BRANCH  10  11
HETATM   11  C8  UNL     1       9.723  13.060  -0.913  1.00  0.00     0.127 C 
BRANCH  11  12
HETATM   12  C9  UNL     1      10.556  14.305  -0.682  1.00  0.00     0.003 C 
HETATM   13  C10 UNL     1      11.900  13.917  -0.077  1.00  0.00     0.006 C 
HETATM   14  C11 UNL     1      11.738  13.544   1.388  1.00  0.00     0.003 C 
HETATM   15  C12 UNL     1      11.035  14.651   2.151  1.00  0.00     0.032 C 
HETATM   16  C13 UNL     1      10.741  15.825   1.230  1.00  0.00     0.118 C 
HETATM   17  C14 UNL     1       9.829  15.325   0.136  1.00  0.00     0.037 C 
BRANCH  16  18
HETATM   18  O1  UNL     1      10.110  16.813   1.979  1.00  0.00    -0.396 OA
ATOM     19  H1  UNL     1       9.850  17.509   1.388  1.00  0.00     0.210 HD
ENDBRANCH  16  18
ENDBRANCH  11  12
ENDBRANCH  10  11
ENDBRANCH   9  10
ENDBRANCH   2   9
BRANCH   1  20
HETATM   20  C5  UNL     1       6.274   9.956   1.260  1.00  0.00     0.009 C 
BRANCH  20  21
HETATM   21  C4  UNL     1       5.197   9.064   0.719  1.00  0.00     0.004 C 
BRANCH  21  22
HETATM   22  C2  UNL     1       4.375   8.611   1.945  1.00  0.00    -0.023 C 
HETATM   23  C1  UNL     1       4.097   7.113   1.801  1.00  0.00     0.009 C 
HETATM   24  C3  UNL     1       3.044   9.323   1.951  1.00  0.00     0.009 C 
ENDBRANCH  21  22
ENDBRANCH  20  21
ENDBRANCH   1  20
BRANCH   7  25
HETATM   25  O3  UNL     1       7.580   9.416   3.644  1.00  0.00    -0.387 OA
ATOM     26  H3  UNL     1       6.666   9.184   3.758  1.00  0.00     0.210 HD
ENDBRANCH   7  25
BRANCH   6  27
HETATM   27  O2  UNL     1       9.882   8.719   4.106  1.00  0.00    -0.393 OA
ATOM     28  H2  UNL     1      10.294   7.874   4.244  1.00  0.00     0.210 HD
ENDBRANCH   6  27
TORSDOF 10
ENDMDL
