MODEL 1
REMARK VINA RESULT: -5.409472104      0.000      0.000
REMARK  11 active torsions:
REMARK  status: ('A' for Active; 'I' for Inactive)
REMARK    1  A    between atoms: C2_2  and  C4_4 
REMARK    2  A    between atoms: C4_4  and  C7_7 
REMARK    3  A    between atoms: C7_7  and  C9_9 
REMARK    4  A    between atoms: C7_7  and  C12_14 
REMARK    5  A    between atoms: C9_9  and  O1_10 
REMARK    6  A    between atoms: O1_10  and  C10_11 
REMARK    7  A    between atoms: C13_15  and  C14_16 
REMARK    8  A    between atoms: C14_16  and  O3_17 
REMARK    9  A    between atoms: C14_16  and  C15_19 
REMARK   10  A    between atoms: C15_19  and  C18_22 
REMARK   11  A    between atoms: C18_22  and  O4_23 
ROOT
HETATM    1  C12 UNL     1       9.566  13.342  -0.241  1.00  0.00     0.049 A 
HETATM    2  C13 UNL     1       9.507  11.945  -0.345  1.00  0.00     0.068 A 
HETATM    3  N1  UNL     1      10.009  11.657  -1.569  1.00  0.00    -0.299 N 
ATOM      4  H1  UNL     1      10.106  10.712  -1.941  1.00  0.00     0.186 HD
HETATM    5  N2  UNL     1      10.355  12.740  -2.212  1.00  0.00    -0.266 N 
ATOM      6  H2  UNL     1      10.753  12.756  -3.152  1.00  0.00     0.190 HD
HETATM    7  C19 UNL     1      10.116  13.817  -1.472  1.00  0.00     0.269 A 
HETATM    8  O5  UNL     1      10.369  14.962  -1.889  1.00  0.00    -0.266 OA
ENDROOT
BRANCH   1   9
HETATM    9  C7  UNL     1       9.383  14.282   0.827  1.00  0.00     0.024 C 
HETATM   10  C8  UNL     1       9.497  13.507   2.176  1.00  0.00     0.024 C 
BRANCH   9  11
HETATM   11  C4  UNL     1       8.208  15.202   0.825  1.00  0.00    -0.012 C 
HETATM   12  C5  UNL     1       8.548  16.626   0.372  1.00  0.00     0.021 C 
HETATM   13  C6  UNL     1       7.610  15.418   2.215  1.00  0.00     0.021 C 
BRANCH  11  14
HETATM   14  C2  UNL     1       7.015  14.768   0.036  1.00  0.00    -0.084 C 
HETATM   15  C1  UNL     1       6.151  13.921   0.529  1.00  0.00     0.015 C 
HETATM   16  C3  UNL     1       6.674  15.218  -1.329  1.00  0.00     0.043 C 
ENDBRANCH  11  14
ENDBRANCH   9  11
BRANCH   9  17
HETATM   17  C9  UNL     1      10.603  15.225   1.060  1.00  0.00     0.194 C 
BRANCH  17  18
HETATM   18  O1  UNL     1      11.677  14.755   1.701  1.00  0.00    -0.321 OA
BRANCH  18  19
HETATM   19  C10 UNL     1      12.929  14.709   1.150  1.00  0.00     0.254 C 
HETATM   20  C11 UNL     1      14.078  15.192   1.960  1.00  0.00     0.126 C 
HETATM   21  O2  UNL     1      13.121  14.268  -0.021  1.00  0.00    -0.266 OA
ENDBRANCH  18  19
ENDBRANCH  17  18
ENDBRANCH   9  17
ENDBRANCH   1   9
BRANCH   2  22
HETATM   22  C14 UNL     1       8.916  10.953   0.520  1.00  0.00     0.179 C 
BRANCH  22  23
HETATM   23  O3  UNL     1       8.313   9.885  -0.258  1.00  0.00    -0.389 OA
ATOM     24  H3  UNL     1       7.482   9.621   0.119  1.00  0.00     0.210 HD
ENDBRANCH  22  23
BRANCH  22  25
HETATM   25  C15 UNL     1       9.960  10.087   1.244  1.00  0.00     0.005 C 
HETATM   26  C16 UNL     1      10.261   8.997   0.139  1.00  0.00     0.020 C 
HETATM   27  C17 UNL     1      11.292  10.714   1.424  1.00  0.00     0.020 C 
BRANCH  25  28
HETATM   28  C18 UNL     1       9.410   9.294   2.365  1.00  0.00     0.175 C 
BRANCH  28  29
HETATM   29  O4  UNL     1       8.998   8.003   1.953  1.00  0.00    -0.400 OA
ATOM     30  H4  UNL     1       8.592   7.514   2.660  1.00  0.00     0.209 HD
ENDBRANCH  28  29
ENDBRANCH  25  28
ENDBRANCH  22  25
ENDBRANCH   2  22
TORSDOF 11
ENDMDL
MODEL 2
REMARK VINA RESULT: -5.261691346      1.167      1.529
REMARK  11 active torsions:
REMARK  status: ('A' for Active; 'I' for Inactive)
REMARK    1  A    between atoms: C2_2  and  C4_4 
REMARK    2  A    between atoms: C4_4  and  C7_7 
REMARK    3  A    between atoms: C7_7  and  C9_9 
REMARK    4  A    between atoms: C7_7  and  C12_14 
REMARK    5  A    between atoms: C9_9  and  O1_10 
REMARK    6  A    between atoms: O1_10  and  C10_11 
REMARK    7  A    between atoms: C13_15  and  C14_16 
REMARK    8  A    between atoms: C14_16  and  O3_17 
REMARK    9  A    between atoms: C14_16  and  C15_19 
REMARK   10  A    between atoms: C15_19  and  C18_22 
REMARK   11  A    between atoms: C18_22  and  O4_23 
ROOT
HETATM    1  C12 UNL     1       9.892  12.934  -0.056  1.00  0.00     0.049 A 
HETATM    2  C13 UNL     1       9.422  11.613  -0.044  1.00  0.00     0.068 A 
HETATM    3  N1  UNL     1       9.658  11.138  -1.289  1.00  0.00    -0.299 N 
ATOM      4  H1  UNL     1       9.431  10.192  -1.595  1.00  0.00     0.186 HD
HETATM    5  N2  UNL     1      10.214  12.044  -2.050  1.00  0.00    -0.266 N 
ATOM      6  H2  UNL     1      10.474  11.903  -3.027  1.00  0.00     0.190 HD
HETATM    7  C19 UNL     1      10.391  13.174  -1.374  1.00  0.00     0.269 A 
HETATM    8  O5  UNL     1      10.904  14.176  -1.905  1.00  0.00    -0.266 OA
ENDROOT
BRANCH   1   9
HETATM    9  C7  UNL     1      10.125  13.931   0.948  1.00  0.00     0.024 C 
HETATM   10  C8  UNL     1      10.463  13.199   2.284  1.00  0.00     0.024 C 
BRANCH   9  11
HETATM   11  C4  UNL     1       9.135  15.027   1.164  1.00  0.00    -0.012 C 
HETATM   12  C5  UNL     1       9.522  16.341   0.477  1.00  0.00     0.021 C 
HETATM   13  C6  UNL     1       8.998  15.435   2.630  1.00  0.00     0.021 C 
BRANCH  11  14
HETATM   14  C2  UNL     1       7.718  14.738   0.786  1.00  0.00    -0.084 C 
HETATM   15  C1  UNL     1       6.893  14.183   1.633  1.00  0.00     0.015 C 
HETATM   16  C3  UNL     1       7.099  15.029  -0.524  1.00  0.00     0.043 C 
ENDBRANCH  11  14
ENDBRANCH   9  11
BRANCH   9  17
HETATM   17  C9  UNL     1      11.489  14.673   0.803  1.00  0.00     0.194 C 
BRANCH  17  18
HETATM   18  O1  UNL     1      12.387  14.585   1.787  1.00  0.00    -0.321 OA
BRANCH  18  19
HETATM   19  C10 UNL     1      13.476  15.407   1.896  1.00  0.00     0.254 C 
HETATM   20  C11 UNL     1      13.260  16.819   2.310  1.00  0.00     0.126 C 
HETATM   21  O2  UNL     1      14.647  14.991   1.653  1.00  0.00    -0.266 OA
ENDBRANCH  18  19
ENDBRANCH  17  18
ENDBRANCH   9  17
ENDBRANCH   1   9
BRANCH   2  22
HETATM   22  C14 UNL     1       8.689  10.876   0.957  1.00  0.00     0.179 C 
BRANCH  22  23
HETATM   23  O3  UNL     1       7.457  10.342   0.403  1.00  0.00    -0.389 OA
ATOM     24  H3  UNL     1       7.635   9.599  -0.161  1.00  0.00     0.210 HD
ENDBRANCH  22  23
BRANCH  22  25
HETATM   25  C15 UNL     1       9.337   9.525   1.304  1.00  0.00     0.005 C 
HETATM   26  C16 UNL     1       9.847   9.809   2.774  1.00  0.00     0.020 C 
HETATM   27  C17 UNL     1       8.391   8.403   1.522  1.00  0.00     0.020 C 
BRANCH  25  28
HETATM   28  C18 UNL     1      10.583   9.247   0.557  1.00  0.00     0.175 C 
BRANCH  28  29
HETATM   29  O4  UNL     1      10.416   8.205  -0.389  1.00  0.00    -0.400 OA
ATOM     30  H4  UNL     1      11.248   7.871  -0.704  1.00  0.00     0.209 HD
ENDBRANCH  28  29
ENDBRANCH  25  28
ENDBRANCH  22  25
ENDBRANCH   2  22
TORSDOF 11
ENDMDL
MODEL 3
REMARK VINA RESULT: -5.213494596      1.644      3.951
REMARK  11 active torsions:
REMARK  status: ('A' for Active; 'I' for Inactive)
REMARK    1  A    between atoms: C2_2  and  C4_4 
REMARK    2  A    between atoms: C4_4  and  C7_7 
REMARK    3  A    between atoms: C7_7  and  C9_9 
REMARK    4  A    between atoms: C7_7  and  C12_14 
REMARK    5  A    between atoms: C9_9  and  O1_10 
REMARK    6  A    between atoms: O1_10  and  C10_11 
REMARK    7  A    between atoms: C13_15  and  C14_16 
REMARK    8  A    between atoms: C14_16  and  O3_17 
REMARK    9  A    between atoms: C14_16  and  C15_19 
REMARK   10  A    between atoms: C15_19  and  C18_22 
REMARK   11  A    between atoms: C18_22  and  O4_23 
ROOT
HETATM    1  C12 UNL     1       9.277  13.358  -0.062  1.00  0.00     0.049 A 
HETATM    2  C13 UNL     1       9.475  11.991  -0.304  1.00  0.00     0.068 A 
HETATM    3  N1  UNL     1      10.213  11.931  -1.437  1.00  0.00    -0.299 N 
ATOM      4  H1  UNL     1      10.528  11.064  -1.871  1.00  0.00     0.186 HD
HETATM    5  N2  UNL     1      10.470  13.124  -1.905  1.00  0.00    -0.266 N 
ATOM      6  H2  UNL     1      11.008  13.314  -2.751  1.00  0.00     0.190 HD
HETATM    7  C19 UNL     1       9.933  14.056  -1.124  1.00  0.00     0.269 A 
HETATM    8  O5  UNL     1      10.053  15.268  -1.380  1.00  0.00    -0.266 OA
ENDROOT
BRANCH   1   9
HETATM    9  C7  UNL     1       8.764  14.124   1.036  1.00  0.00     0.024 C 
HETATM   10  C8  UNL     1       8.092  15.407   0.457  1.00  0.00     0.024 C 
BRANCH   9  11
HETATM   11  C4  UNL     1       9.640  14.448   2.201  1.00  0.00    -0.012 C 
HETATM   12  C5  UNL     1       9.799  13.285   3.186  1.00  0.00     0.021 C 
HETATM   13  C6  UNL     1       9.083  15.567   3.080  1.00  0.00     0.021 C 
BRANCH  11  14
HETATM   14  C2  UNL     1      11.014  14.948   1.891  1.00  0.00    -0.084 C 
HETATM   15  C1  UNL     1      11.249  16.223   1.734  1.00  0.00     0.015 C 
HETATM   16  C3  UNL     1      12.221  14.110   1.733  1.00  0.00     0.043 C 
ENDBRANCH  11  14
ENDBRANCH   9  11
BRANCH   9  17
HETATM   17  C9  UNL     1       7.477  13.527   1.682  1.00  0.00     0.194 C 
BRANCH  17  18
HETATM   18  O1  UNL     1       6.378  13.386   0.937  1.00  0.00    -0.321 OA
BRANCH  18  19
HETATM   19  C10 UNL     1       5.383  12.488   1.215  1.00  0.00     0.254 C 
HETATM   20  C11 UNL     1       5.725  11.272   1.999  1.00  0.00     0.126 C 
HETATM   21  O2  UNL     1       4.194  12.675   0.822  1.00  0.00    -0.266 OA
ENDBRANCH  18  19
ENDBRANCH  17  18
ENDBRANCH   9  17
ENDBRANCH   1   9
BRANCH   2  22
HETATM   22  C14 UNL     1       8.927  10.824   0.344  1.00  0.00     0.179 C 
BRANCH  22  23
HETATM   23  O3  UNL     1       8.607   9.796  -0.631  1.00  0.00    -0.389 OA
ATOM     24  H3  UNL     1       9.269   9.759  -1.311  1.00  0.00     0.210 HD
ENDBRANCH  22  23
BRANCH  22  25
HETATM   25  C15 UNL     1       9.980  10.019   1.124  1.00  0.00     0.005 C 
HETATM   26  C16 UNL     1      10.366   8.920   0.054  1.00  0.00     0.020 C 
HETATM   27  C17 UNL     1      11.277  10.706   1.337  1.00  0.00     0.020 C 
BRANCH  25  28
HETATM   28  C18 UNL     1       9.423   9.226   2.242  1.00  0.00     0.175 C 
BRANCH  28  29
HETATM   29  O4  UNL     1       8.838   8.015   1.797  1.00  0.00    -0.400 OA
ATOM     30  H4  UNL     1       8.135   7.726   2.368  1.00  0.00     0.209 HD
ENDBRANCH  28  29
ENDBRANCH  25  28
ENDBRANCH  22  25
ENDBRANCH   2  22
TORSDOF 11
ENDMDL
MODEL 4
REMARK VINA RESULT: -5.195630455      1.758      3.988
REMARK  11 active torsions:
REMARK  status: ('A' for Active; 'I' for Inactive)
REMARK    1  A    between atoms: C2_2  and  C4_4 
REMARK    2  A    between atoms: C4_4  and  C7_7 
REMARK    3  A    between atoms: C7_7  and  C9_9 
REMARK    4  A    between atoms: C7_7  and  C12_14 
REMARK    5  A    between atoms: C9_9  and  O1_10 
REMARK    6  A    between atoms: O1_10  and  C10_11 
REMARK    7  A    between atoms: C13_15  and  C14_16 
REMARK    8  A    between atoms: C14_16  and  O3_17 
REMARK    9  A    between atoms: C14_16  and  C15_19 
REMARK   10  A    between atoms: C15_19  and  C18_22 
REMARK   11  A    between atoms: C18_22  and  O4_23 
ROOT
HETATM    1  C12 UNL     1       9.538  12.832  -0.127  1.00  0.00     0.049 A 
HETATM    2  C13 UNL     1       9.182  11.484  -0.280  1.00  0.00     0.068 A 
HETATM    3  N1  UNL     1       9.669  11.121  -1.490  1.00  0.00    -0.299 N 
ATOM      4  H1  UNL     1       9.575  10.187  -1.889  1.00  0.00     0.186 HD
HETATM    5  N2  UNL     1      10.273  12.117  -2.082  1.00  0.00    -0.266 N 
ATOM      6  H2  UNL     1      10.709  12.067  -3.003  1.00  0.00     0.190 HD
HETATM    7  C19 UNL     1      10.238  13.203  -1.318  1.00  0.00     0.269 A 
HETATM    8  O5  UNL     1      10.753  14.274  -1.685  1.00  0.00    -0.266 OA
ENDROOT
BRANCH   1   9
HETATM    9  C7  UNL     1       9.512  13.765   0.962  1.00  0.00     0.024 C 
HETATM   10  C8  UNL     1       9.186  15.175   0.381  1.00  0.00     0.024 C 
BRANCH   9  11
HETATM   11  C4  UNL     1      10.648  13.825   1.928  1.00  0.00    -0.012 C 
HETATM   12  C5  UNL     1      11.589  12.618   1.839  1.00  0.00     0.021 C 
HETATM   13  C6  UNL     1      10.200  13.802   3.388  1.00  0.00     0.021 C 
BRANCH  11  14
HETATM   14  C2  UNL     1      11.506  15.049   1.883  1.00  0.00    -0.084 C 
HETATM   15  C1  UNL     1      12.636  15.058   1.227  1.00  0.00     0.015 C 
HETATM   16  C3  UNL     1      11.202  16.338   2.537  1.00  0.00     0.043 C 
ENDBRANCH  11  14
ENDBRANCH   9  11
BRANCH   9  17
HETATM   17  C9  UNL     1       8.249  13.649   1.868  1.00  0.00     0.194 C 
BRANCH  17  18
HETATM   18  O1  UNL     1       7.120  14.258   1.494  1.00  0.00    -0.321 OA
BRANCH  18  19
HETATM   19  C10 UNL     1       6.061  13.606   0.921  1.00  0.00     0.254 C 
HETATM   20  C11 UNL     1       5.450  12.466   1.655  1.00  0.00     0.126 C 
HETATM   21  O2  UNL     1       5.602  13.954  -0.206  1.00  0.00    -0.266 OA
ENDBRANCH  18  19
ENDBRANCH  17  18
ENDBRANCH   9  17
ENDBRANCH   1   9
BRANCH   2  22
HETATM   22  C14 UNL     1       8.348  10.626   0.526  1.00  0.00     0.179 C 
BRANCH  22  23
HETATM   23  O3  UNL     1       7.513   9.784  -0.312  1.00  0.00    -0.389 OA
ATOM     24  H3  UNL     1       7.514  10.096  -1.209  1.00  0.00     0.210 HD
ENDBRANCH  22  23
BRANCH  22  25
HETATM   25  C15 UNL     1       9.132   9.490   1.206  1.00  0.00     0.005 C 
HETATM   26  C16 UNL     1       9.517  10.175   2.578  1.00  0.00     0.020 C 
HETATM   27  C17 UNL     1       8.318   8.337   1.659  1.00  0.00     0.020 C 
BRANCH  25  28
HETATM   28  C18 UNL     1      10.445   9.211   0.583  1.00  0.00     0.175 C 
BRANCH  28  29
HETATM   29  O4  UNL     1      10.357   8.213  -0.419  1.00  0.00    -0.400 OA
ATOM     30  H4  UNL     1      11.191   8.066  -0.852  1.00  0.00     0.209 HD
ENDBRANCH  28  29
ENDBRANCH  25  28
ENDBRANCH  22  25
ENDBRANCH   2  22
TORSDOF 11
ENDMDL
MODEL 5
REMARK VINA RESULT: -5.141443566      1.868      3.650
REMARK  11 active torsions:
REMARK  status: ('A' for Active; 'I' for Inactive)
REMARK    1  A    between atoms: C2_2  and  C4_4 
REMARK    2  A    between atoms: C4_4  and  C7_7 
REMARK    3  A    between atoms: C7_7  and  C9_9 
REMARK    4  A    between atoms: C7_7  and  C12_14 
REMARK    5  A    between atoms: C9_9  and  O1_10 
REMARK    6  A    between atoms: O1_10  and  C10_11 
REMARK    7  A    between atoms: C13_15  and  C14_16 
REMARK    8  A    between atoms: C14_16  and  O3_17 
REMARK    9  A    between atoms: C14_16  and  C15_19 
REMARK   10  A    between atoms: C15_19  and  C18_22 
REMARK   11  A    between atoms: C18_22  and  O4_23 
ROOT
HETATM    1  C12 UNL     1      10.117  13.757   1.064  1.00  0.00     0.049 A 
HETATM    2  C13 UNL     1      10.351  12.463   0.578  1.00  0.00     0.068 A 
HETATM    3  N1  UNL     1      11.698  12.330   0.547  1.00  0.00    -0.299 N 
ATOM      4  H1  UNL     1      12.184  11.487   0.242  1.00  0.00     0.186 HD
HETATM    5  N2  UNL     1      12.296  13.417   0.956  1.00  0.00    -0.266 N 
ATOM      6  H2  UNL     1      13.308  13.539   1.011  1.00  0.00     0.190 HD
HETATM    7  C19 UNL     1      11.403  14.342   1.291  1.00  0.00     0.269 A 
HETATM    8  O5  UNL     1      11.750  15.461   1.709  1.00  0.00    -0.266 OA
ENDROOT
BRANCH   1   9
HETATM    9  C7  UNL     1       8.959  14.470   1.517  1.00  0.00     0.024 C 
HETATM   10  C8  UNL     1       9.293  15.994   1.497  1.00  0.00     0.024 C 
BRANCH   9  11
HETATM   11  C4  UNL     1       8.285  14.079   2.790  1.00  0.00    -0.012 C 
HETATM   12  C5  UNL     1       7.330  12.891   2.633  1.00  0.00     0.021 C 
HETATM   13  C6  UNL     1       7.381  15.173   3.354  1.00  0.00     0.021 C 
BRANCH  11  14
HETATM   14  C2  UNL     1       9.171  13.773   3.954  1.00  0.00    -0.084 C 
HETATM   15  C1  UNL     1       9.304  12.552   4.400  1.00  0.00     0.015 C 
HETATM   16  C3  UNL     1       9.972  14.758   4.710  1.00  0.00     0.043 C 
ENDBRANCH  11  14
ENDBRANCH   9  11
BRANCH   9  17
HETATM   17  C9  UNL     1       7.800  14.529   0.475  1.00  0.00     0.194 C 
BRANCH  17  18
HETATM   18  O1  UNL     1       7.897  15.365  -0.561  1.00  0.00    -0.321 OA
BRANCH  18  19
HETATM   19  C10 UNL     1       8.097  14.953  -1.852  1.00  0.00     0.254 C 
HETATM   20  C11 UNL     1       9.492  14.864  -2.359  1.00  0.00     0.126 C 
HETATM   21  O2  UNL     1       7.128  14.652  -2.608  1.00  0.00    -0.266 OA
ENDBRANCH  18  19
ENDBRANCH  17  18
ENDBRANCH   9  17
ENDBRANCH   1   9
BRANCH   2  22
HETATM   22  C14 UNL     1       9.447  11.471   0.045  1.00  0.00     0.179 C 
BRANCH  22  23
HETATM   23  O3  UNL     1       9.992  10.873  -1.160  1.00  0.00    -0.389 OA
ATOM     24  H3  UNL     1       9.436  10.166  -1.466  1.00  0.00     0.210 HD
ENDBRANCH  22  23
BRANCH  22  25
HETATM   25  C15 UNL     1       9.402  10.185   0.887  1.00  0.00     0.005 C 
HETATM   26  C16 UNL     1      10.222   9.197  -0.035  1.00  0.00     0.020 C 
HETATM   27  C17 UNL     1      10.224  10.203   2.122  1.00  0.00     0.020 C 
BRANCH  25  28
HETATM   28  C18 UNL     1       8.063   9.559   0.955  1.00  0.00     0.175 C 
BRANCH  28  29
HETATM   29  O4  UNL     1       7.317   9.765  -0.232  1.00  0.00    -0.400 OA
ATOM     30  H4  UNL     1       7.288   8.987  -0.776  1.00  0.00     0.209 HD
ENDBRANCH  28  29
ENDBRANCH  25  28
ENDBRANCH  22  25
ENDBRANCH   2  22
TORSDOF 11
ENDMDL
