MODEL 1
REMARK VINA RESULT: -5.726879835      0.000      0.000
REMARK  11 active torsions:
REMARK  status: ('A' for Active; 'I' for Inactive)
REMARK    1  A    between atoms: C2_2  and  C4_4 
REMARK    2  A    between atoms: C7_7  and  O1_8 
REMARK    3  A    between atoms: C7_7  and  C8_10 
REMARK    4  A    between atoms: C9_11  and  C10_12 
REMARK    5  A    between atoms: C13_15  and  O2_16 
REMARK    6  A    between atoms: C14_18  and  O3_19 
REMARK    7  A    between atoms: C15_21  and  O4_22 
REMARK    8  A    between atoms: O4_22  and  C16_23 
REMARK    9  A    between atoms: C16_23  and  C19_26 
REMARK   10  A    between atoms: C19_26  and  C20_27 
REMARK   11  A    between atoms: C20_27  and  O5_29 
ROOT
HETATM    1  C10 UNL     1       8.687  12.543  -0.134  1.00  0.00     0.040 C 
HETATM    2  C11 UNL     1       9.179  12.623  -1.559  1.00  0.00     0.013 C 
HETATM    3  C12 UNL     1       9.875  13.947  -1.818  1.00  0.00     0.035 C 
HETATM    4  C13 UNL     1      11.090  14.032  -0.939  1.00  0.00     0.149 C 
HETATM    5  C14 UNL     1      11.075  12.902   0.059  1.00  0.00     0.176 C 
HETATM    6  C15 UNL     1       9.772  12.884   0.875  1.00  0.00     0.161 C 
ENDROOT
BRANCH   1   7
HETATM    7  C9  UNL     1       8.138  11.190   0.088  1.00  0.00    -0.021 C 
HETATM    8  C8  UNL     1       8.682  10.222   0.790  1.00  0.00     0.007 C 
BRANCH   8   9
HETATM    9  C7  UNL     1       7.909   8.921   0.863  1.00  0.00     0.075 C 
HETATM   10  C6  UNL     1       7.894   8.378   2.249  1.00  0.00     0.043 C 
HETATM   11  C5  UNL     1       7.136   7.074   2.272  1.00  0.00     0.012 C 
HETATM   12  C4  UNL     1       6.118   6.978   1.177  1.00  0.00     0.013 C 
HETATM   13  C23 UNL     1       5.467   8.371   1.091  1.00  0.00     0.012 C 
HETATM   14  C22 UNL     1       6.522   9.244   0.413  1.00  0.00     0.043 C 
BRANCH  12  15
HETATM   15  C2  UNL     1       5.087   5.934   1.398  1.00  0.00    -0.089 C 
HETATM   16  C1  UNL     1       3.826   6.247   1.487  1.00  0.00     0.014 C 
HETATM   17  C3  UNL     1       5.496   4.488   1.512  1.00  0.00     0.043 C 
ENDBRANCH  12  15
BRANCH   9  18
HETATM   18  O1  UNL     1       8.603   8.072  -0.017  1.00  0.00    -0.386 OA
ATOM     19  H1  UNL     1       8.014   7.476  -0.465  1.00  0.00     0.211 HD
ENDBRANCH   9  18
ENDBRANCH   8   9
ENDBRANCH   1   7
BRANCH   6  20
HETATM   20  O4  UNL     1       9.649  14.094   1.441  1.00  0.00    -0.372 OA
BRANCH  20  21
HETATM   21  C16 UNL     1       9.161  14.278   2.682  1.00  0.00     0.056 C 
HETATM   22  C17 UNL     1       8.389  13.147   3.301  1.00  0.00     0.045 C 
HETATM   23  C18 UNL     1       8.365  15.574   2.703  1.00  0.00     0.045 C 
BRANCH  21  24
HETATM   24  C19 UNL     1      10.359  14.499   3.585  1.00  0.00     0.068 C 
BRANCH  24  25
HETATM   25  C20 UNL     1      11.156  15.715   3.294  1.00  0.00     0.117 C 
HETATM   26  C21 UNL     1      11.925  16.178   4.546  1.00  0.00     0.039 C 
BRANCH  25  27
HETATM   27  O5  UNL     1      12.153  15.491   2.347  1.00  0.00    -0.396 OA
ATOM     28  H5  UNL     1      12.488  14.602   2.370  1.00  0.00     0.210 HD
ENDBRANCH  25  27
ENDBRANCH  24  25
ENDBRANCH  21  24
ENDBRANCH  20  21
ENDBRANCH   6  20
BRANCH   5  29
HETATM   29  O3  UNL     1      12.174  13.110   0.895  1.00  0.00    -0.390 OA
ATOM     30  H3  UNL     1      11.827  13.484   1.697  1.00  0.00     0.210 HD
ENDBRANCH   5  29
BRANCH   4  31
HETATM   31  O2  UNL     1      11.167  15.252  -0.265  1.00  0.00    -0.393 OA
ATOM     32  H2  UNL     1      11.325  15.138   0.665  1.00  0.00     0.210 HD
ENDBRANCH   4  31
TORSDOF 11
ENDMDL
MODEL 2
REMARK VINA RESULT: -5.674934805      1.434      3.239
REMARK  11 active torsions:
REMARK  status: ('A' for Active; 'I' for Inactive)
REMARK    1  A    between atoms: C2_2  and  C4_4 
REMARK    2  A    between atoms: C7_7  and  O1_8 
REMARK    3  A    between atoms: C7_7  and  C8_10 
REMARK    4  A    between atoms: C9_11  and  C10_12 
REMARK    5  A    between atoms: C13_15  and  O2_16 
REMARK    6  A    between atoms: C14_18  and  O3_19 
REMARK    7  A    between atoms: C15_21  and  O4_22 
REMARK    8  A    between atoms: O4_22  and  C16_23 
REMARK    9  A    between atoms: C16_23  and  C19_26 
REMARK   10  A    between atoms: C19_26  and  C20_27 
REMARK   11  A    between atoms: C20_27  and  O5_29 
ROOT
HETATM    1  C10 UNL     1       9.107  12.231   2.568  1.00  0.00     0.040 C 
HETATM    2  C11 UNL     1       9.006  12.465   4.056  1.00  0.00     0.013 C 
HETATM    3  C12 UNL     1       9.532  13.841   4.424  1.00  0.00     0.035 C 
HETATM    4  C13 UNL     1       8.667  14.878   3.768  1.00  0.00     0.149 C 
HETATM    5  C14 UNL     1       7.733  14.215   2.788  1.00  0.00     0.176 C 
HETATM    6  C15 UNL     1       8.500  13.368   1.759  1.00  0.00     0.161 C 
ENDROOT
BRANCH   1   7
HETATM    7  C9  UNL     1       8.466  10.937   2.260  1.00  0.00    -0.021 C 
HETATM    8  C8  UNL     1       8.721  10.151   1.239  1.00  0.00     0.007 C 
BRANCH   8   9
HETATM    9  C7  UNL     1       7.918   8.869   1.153  1.00  0.00     0.075 C 
HETATM   10  C6  UNL     1       7.987   8.102   2.427  1.00  0.00     0.043 C 
HETATM   11  C5  UNL     1       7.197   6.825   2.291  1.00  0.00     0.012 C 
HETATM   12  C4  UNL     1       6.101   6.930   1.275  1.00  0.00     0.013 C 
HETATM   13  C23 UNL     1       5.485   8.328   1.470  1.00  0.00     0.012 C 
HETATM   14  C22 UNL     1       6.513   9.285   0.869  1.00  0.00     0.043 C 
BRANCH  12  15
HETATM   15  C2  UNL     1       5.058   5.881   1.396  1.00  0.00    -0.089 C 
HETATM   16  C1  UNL     1       3.799   6.196   1.491  1.00  0.00     0.014 C 
HETATM   17  C3  UNL     1       5.455   4.427   1.401  1.00  0.00     0.043 C 
ENDBRANCH  12  15
BRANCH   9  18
HETATM   18  O1  UNL     1       8.524   8.168   0.096  1.00  0.00    -0.386 OA
ATOM     19  H1  UNL     1       9.468   8.141   0.191  1.00  0.00     0.211 HD
ENDBRANCH   9  18
ENDBRANCH   8   9
ENDBRANCH   1   7
BRANCH   6  20
HETATM   20  O4  UNL     1       9.395  14.179   1.175  1.00  0.00    -0.372 OA
BRANCH  20  21
HETATM   21  C16 UNL     1       9.641  14.168  -0.148  1.00  0.00     0.056 C 
HETATM   22  C17 UNL     1       9.740  15.494  -0.850  1.00  0.00     0.045 C 
HETATM   23  C18 UNL     1       8.630  13.254  -0.823  1.00  0.00     0.045 C 
BRANCH  21  24
HETATM   24  C19 UNL     1      10.996  13.510  -0.327  1.00  0.00     0.068 C 
BRANCH  24  25
HETATM   25  C20 UNL     1      12.163  14.410  -0.167  1.00  0.00     0.117 C 
HETATM   26  C21 UNL     1      12.672  14.395   1.287  1.00  0.00     0.039 C 
BRANCH  25  27
HETATM   27  O5  UNL     1      13.265  14.001  -0.917  1.00  0.00    -0.396 OA
ATOM     28  H5  UNL     1      13.723  13.266  -0.525  1.00  0.00     0.210 HD
ENDBRANCH  25  27
ENDBRANCH  24  25
ENDBRANCH  21  24
ENDBRANCH  20  21
ENDBRANCH   6  20
BRANCH   5  29
HETATM   29  O3  UNL     1       7.041  15.248   2.153  1.00  0.00    -0.390 OA
ATOM     30  H3  UNL     1       6.228  15.354   2.632  1.00  0.00     0.210 HD
ENDBRANCH   5  29
BRANCH   4  31
HETATM   31  O2  UNL     1       9.421  15.853   3.111  1.00  0.00    -0.393 OA
ATOM     32  H2  UNL     1       9.450  16.669   3.596  1.00  0.00     0.210 HD
ENDBRANCH   4  31
TORSDOF 11
ENDMDL
MODEL 3
REMARK VINA RESULT: -5.667582974      1.112      1.737
REMARK  11 active torsions:
REMARK  status: ('A' for Active; 'I' for Inactive)
REMARK    1  A    between atoms: C2_2  and  C4_4 
REMARK    2  A    between atoms: C7_7  and  O1_8 
REMARK    3  A    between atoms: C7_7  and  C8_10 
REMARK    4  A    between atoms: C9_11  and  C10_12 
REMARK    5  A    between atoms: C13_15  and  O2_16 
REMARK    6  A    between atoms: C14_18  and  O3_19 
REMARK    7  A    between atoms: C15_21  and  O4_22 
REMARK    8  A    between atoms: O4_22  and  C16_23 
REMARK    9  A    between atoms: C16_23  and  C19_26 
REMARK   10  A    between atoms: C19_26  and  C20_27 
REMARK   11  A    between atoms: C20_27  and  O5_29 
ROOT
HETATM    1  C10 UNL     1       8.690  12.510  -0.253  1.00  0.00     0.040 C 
HETATM    2  C11 UNL     1       9.201  12.592  -1.671  1.00  0.00     0.013 C 
HETATM    3  C12 UNL     1       9.876  13.929  -1.926  1.00  0.00     0.035 C 
HETATM    4  C13 UNL     1      11.075  14.041  -1.030  1.00  0.00     0.149 C 
HETATM    5  C14 UNL     1      11.067  12.916  -0.027  1.00  0.00     0.176 C 
HETATM    6  C15 UNL     1       9.753  12.878   0.770  1.00  0.00     0.161 C 
ENDROOT
BRANCH   1   7
HETATM    7  C9  UNL     1       8.163  11.148  -0.032  1.00  0.00    -0.021 C 
HETATM    8  C8  UNL     1       8.330  10.401   1.035  1.00  0.00     0.007 C 
BRANCH   8   9
HETATM    9  C7  UNL     1       7.681   9.031   1.011  1.00  0.00     0.075 C 
HETATM   10  C6  UNL     1       7.813   8.349   2.327  1.00  0.00     0.043 C 
HETATM   11  C5  UNL     1       7.176   6.983   2.253  1.00  0.00     0.012 C 
HETATM   12  C4  UNL     1       6.094   6.906   1.219  1.00  0.00     0.013 C 
HETATM   13  C23 UNL     1       5.319   8.232   1.328  1.00  0.00     0.012 C 
HETATM   14  C22 UNL     1       6.243   9.267   0.686  1.00  0.00     0.043 C 
BRANCH  12  15
HETATM   15  C2  UNL     1       5.177   5.751   1.386  1.00  0.00    -0.089 C 
HETATM   16  C1  UNL     1       3.887   5.923   1.432  1.00  0.00     0.014 C 
HETATM   17  C3  UNL     1       5.738   4.357   1.497  1.00  0.00     0.043 C 
ENDBRANCH  12  15
BRANCH   9  18
HETATM   18  O1  UNL     1       8.382   8.348   0.003  1.00  0.00    -0.386 OA
ATOM     19  H1  UNL     1       7.893   7.599  -0.316  1.00  0.00     0.211 HD
ENDBRANCH   9  18
ENDBRANCH   8   9
ENDBRANCH   1   7
BRANCH   6  20
HETATM   20  O4  UNL     1       9.598  14.088   1.328  1.00  0.00    -0.372 OA
BRANCH  20  21
HETATM   21  C16 UNL     1       9.176  14.265   2.593  1.00  0.00     0.056 C 
HETATM   22  C17 UNL     1       7.696  14.198   2.849  1.00  0.00     0.045 C 
HETATM   23  C18 UNL     1       9.776  15.555   3.130  1.00  0.00     0.045 C 
BRANCH  21  24
HETATM   24  C19 UNL     1       9.783  13.140   3.409  1.00  0.00     0.068 C 
BRANCH  24  25
HETATM   25  C20 UNL     1       8.889  12.546   4.433  1.00  0.00     0.117 C 
HETATM   26  C21 UNL     1       9.128  11.029   4.554  1.00  0.00     0.039 C 
BRANCH  25  27
HETATM   27  O5  UNL     1       9.141  13.033   5.714  1.00  0.00    -0.396 OA
ATOM     28  H5  UNL     1       9.704  13.799   5.712  1.00  0.00     0.210 HD
ENDBRANCH  25  27
ENDBRANCH  24  25
ENDBRANCH  21  24
ENDBRANCH  20  21
ENDBRANCH   6  20
BRANCH   5  29
HETATM   29  O3  UNL     1      12.149  13.150   0.825  1.00  0.00    -0.390 OA
ATOM     30  H3  UNL     1      12.533  13.971   0.543  1.00  0.00     0.210 HD
ENDBRANCH   5  29
BRANCH   4  31
HETATM   31  O2  UNL     1      11.119  15.266  -0.361  1.00  0.00    -0.393 OA
ATOM     32  H2  UNL     1      10.785  15.201   0.526  1.00  0.00     0.210 HD
ENDBRANCH   4  31
TORSDOF 11
ENDMDL
MODEL 4
REMARK VINA RESULT: -5.397861905      0.783      1.766
REMARK  11 active torsions:
REMARK  status: ('A' for Active; 'I' for Inactive)
REMARK    1  A    between atoms: C2_2  and  C4_4 
REMARK    2  A    between atoms: C7_7  and  O1_8 
REMARK    3  A    between atoms: C7_7  and  C8_10 
REMARK    4  A    between atoms: C9_11  and  C10_12 
REMARK    5  A    between atoms: C13_15  and  O2_16 
REMARK    6  A    between atoms: C14_18  and  O3_19 
REMARK    7  A    between atoms: C15_21  and  O4_22 
REMARK    8  A    between atoms: O4_22  and  C16_23 
REMARK    9  A    between atoms: C16_23  and  C19_26 
REMARK   10  A    between atoms: C19_26  and  C20_27 
REMARK   11  A    between atoms: C20_27  and  O5_29 
ROOT
HETATM    1  C10 UNL     1       8.817  12.550  -0.022  1.00  0.00     0.040 C 
HETATM    2  C11 UNL     1       9.468  12.578  -1.384  1.00  0.00     0.013 C 
HETATM    3  C12 UNL     1      10.212  13.884  -1.601  1.00  0.00     0.035 C 
HETATM    4  C13 UNL     1      11.321  13.978  -0.594  1.00  0.00     0.149 C 
HETATM    5  C14 UNL     1      11.174  12.881   0.429  1.00  0.00     0.176 C 
HETATM    6  C15 UNL     1       9.787  12.908   1.093  1.00  0.00     0.161 C 
ENDROOT
BRANCH   1   7
HETATM    7  C9  UNL     1       8.222  11.214   0.176  1.00  0.00    -0.021 C 
HETATM    8  C8  UNL     1       8.721  10.224   0.881  1.00  0.00     0.007 C 
BRANCH   8   9
HETATM    9  C7  UNL     1       7.907   8.946   0.926  1.00  0.00     0.075 C 
HETATM   10  C6  UNL     1       7.904   8.356   2.292  1.00  0.00     0.043 C 
HETATM   11  C5  UNL     1       7.105   7.077   2.287  1.00  0.00     0.012 C 
HETATM   12  C4  UNL     1       6.060   7.053   1.214  1.00  0.00     0.013 C 
HETATM   13  C23 UNL     1       5.454   8.467   1.191  1.00  0.00     0.012 C 
HETATM   14  C22 UNL     1       6.522   9.330   0.520  1.00  0.00     0.043 C 
BRANCH  12  15
HETATM   15  C2  UNL     1       5.000   6.035   1.421  1.00  0.00    -0.089 C 
HETATM   16  C1  UNL     1       3.756   6.387   1.574  1.00  0.00     0.014 C 
HETATM   17  C3  UNL     1       5.360   4.572   1.448  1.00  0.00     0.043 C 
ENDBRANCH  12  15
BRANCH   9  18
HETATM   18  O1  UNL     1       8.553   8.107   0.002  1.00  0.00    -0.386 OA
ATOM     19  H1  UNL     1       9.474   8.001   0.212  1.00  0.00     0.211 HD
ENDBRANCH   9  18
ENDBRANCH   8   9
ENDBRANCH   1   7
BRANCH   6  20
HETATM   20  O4  UNL     1       9.623  14.137   1.605  1.00  0.00    -0.372 OA
BRANCH  20  21
HETATM   21  C16 UNL     1       9.261  14.357   2.882  1.00  0.00     0.056 C 
HETATM   22  C17 UNL     1      10.281  14.973   3.800  1.00  0.00     0.045 C 
HETATM   23  C18 UNL     1       8.701  13.066   3.458  1.00  0.00     0.045 C 
BRANCH  21  24
HETATM   24  C19 UNL     1       8.107  15.340   2.836  1.00  0.00     0.068 C 
BRANCH  24  25
HETATM   25  C20 UNL     1       7.816  15.914   1.500  1.00  0.00     0.117 C 
HETATM   26  C21 UNL     1       6.646  16.914   1.576  1.00  0.00     0.039 C 
BRANCH  25  27
HETATM   27  O5  UNL     1       8.875  16.668   0.997  1.00  0.00    -0.396 OA
ATOM     28  H5  UNL     1       9.444  16.166   0.426  1.00  0.00     0.210 HD
ENDBRANCH  25  27
ENDBRANCH  24  25
ENDBRANCH  21  24
ENDBRANCH  20  21
ENDBRANCH   6  20
BRANCH   5  29
HETATM   29  O3  UNL     1      12.175  13.099   1.378  1.00  0.00    -0.390 OA
ATOM     30  H3  UNL     1      11.727  13.295   2.193  1.00  0.00     0.210 HD
ENDBRANCH   5  29
BRANCH   4  31
HETATM   31  O2  UNL     1      11.344  15.218   0.049  1.00  0.00    -0.393 OA
ATOM     32  H2  UNL     1      12.207  15.432   0.384  1.00  0.00     0.210 HD
ENDBRANCH   4  31
TORSDOF 11
ENDMDL
MODEL 5
REMARK VINA RESULT: -5.375273156      1.687      2.143
REMARK  11 active torsions:
REMARK  status: ('A' for Active; 'I' for Inactive)
REMARK    1  A    between atoms: C2_2  and  C4_4 
REMARK    2  A    between atoms: C7_7  and  O1_8 
REMARK    3  A    between atoms: C7_7  and  C8_10 
REMARK    4  A    between atoms: C9_11  and  C10_12 
REMARK    5  A    between atoms: C13_15  and  O2_16 
REMARK    6  A    between atoms: C14_18  and  O3_19 
REMARK    7  A    between atoms: C15_21  and  O4_22 
REMARK    8  A    between atoms: O4_22  and  C16_23 
REMARK    9  A    between atoms: C16_23  and  C19_26 
REMARK   10  A    between atoms: C19_26  and  C20_27 
REMARK   11  A    between atoms: C20_27  and  O5_29 
ROOT
HETATM    1  C10 UNL     1       8.315  13.402   0.295  1.00  0.00     0.040 C 
HETATM    2  C11 UNL     1       7.540  14.340  -0.599  1.00  0.00     0.013 C 
HETATM    3  C12 UNL     1       8.309  15.629  -0.828  1.00  0.00     0.035 C 
HETATM    4  C13 UNL     1       9.585  15.306  -1.550  1.00  0.00     0.149 C 
HETATM    5  C14 UNL     1       9.784  13.811  -1.589  1.00  0.00     0.176 C 
HETATM    6  C15 UNL     1       9.746  13.199  -0.179  1.00  0.00     0.161 C 
ENDROOT
BRANCH   1   7
HETATM    7  C9  UNL     1       7.578  12.125   0.373  1.00  0.00    -0.021 C 
HETATM    8  C8  UNL     1       8.082  10.934   0.602  1.00  0.00     0.007 C 
BRANCH   8   9
HETATM    9  C7  UNL     1       7.102   9.778   0.634  1.00  0.00     0.075 C 
HETATM   10  C6  UNL     1       7.521   8.743   1.618  1.00  0.00     0.043 C 
HETATM   11  C5  UNL     1       6.535   7.602   1.600  1.00  0.00     0.012 C 
HETATM   12  C4  UNL     1       5.169   8.027   1.154  1.00  0.00     0.013 C 
HETATM   13  C23 UNL     1       4.920   9.393   1.819  1.00  0.00     0.012 C 
HETATM   14  C22 UNL     1       5.787  10.368   1.023  1.00  0.00     0.043 C 
BRANCH  12  15
HETATM   15  C2  UNL     1       4.090   7.071   1.509  1.00  0.00    -0.089 C 
HETATM   16  C1  UNL     1       3.028   7.468   2.148  1.00  0.00     0.014 C 
HETATM   17  C3  UNL     1       4.216   5.621   1.120  1.00  0.00     0.043 C 
ENDBRANCH  12  15
BRANCH   9  18
HETATM   18  O1  UNL     1       7.131   9.282  -0.681  1.00  0.00    -0.386 OA
ATOM     19  H1  UNL     1       6.426   8.665  -0.836  1.00  0.00     0.211 HD
ENDBRANCH   9  18
ENDBRANCH   8   9
ENDBRANCH   1   7
BRANCH   6  20
HETATM   20  O4  UNL     1      10.673  13.839   0.550  1.00  0.00    -0.372 OA
BRANCH  20  21
HETATM   21  C16 UNL     1      11.162  13.354   1.706  1.00  0.00     0.056 C 
HETATM   22  C17 UNL     1      11.397  11.871   1.795  1.00  0.00     0.045 C 
HETATM   23  C18 UNL     1      10.290  13.848   2.849  1.00  0.00     0.045 C 
BRANCH  21  24
HETATM   24  C19 UNL     1      12.522  13.995   1.899  1.00  0.00     0.068 C 
BRANCH  24  25
HETATM   25  C20 UNL     1      12.891  15.015   0.887  1.00  0.00     0.117 C 
HETATM   26  C21 UNL     1      14.049  15.895   1.394  1.00  0.00     0.039 C 
BRANCH  25  27
HETATM   27  O5  UNL     1      13.382  14.453  -0.289  1.00  0.00    -0.396 OA
ATOM     28  H5  UNL     1      14.307  14.243  -0.238  1.00  0.00     0.210 HD
ENDBRANCH  25  27
ENDBRANCH  24  25
ENDBRANCH  21  24
ENDBRANCH  20  21
ENDBRANCH   6  20
BRANCH   5  29
HETATM   29  O3  UNL     1      11.031  13.602  -2.180  1.00  0.00    -0.390 OA
ATOM     30  H3  UNL     1      11.561  13.159  -1.528  1.00  0.00     0.210 HD
ENDBRANCH   5  29
BRANCH   4  31
HETATM   31  O2  UNL     1      10.694  15.910  -0.954  1.00  0.00    -0.393 OA
ATOM     32  H2  UNL     1      11.233  16.371  -1.586  1.00  0.00     0.210 HD
ENDBRANCH   4  31
TORSDOF 11
ENDMDL
