MODEL 1
REMARK VINA RESULT: -7.486106085      0.000      0.000
REMARK  10 active torsions:
REMARK  status: ('A' for Active; 'I' for Inactive)
REMARK    1  A    between atoms: C2_2  and  C13_15 
REMARK    2  A    between atoms: C3_3  and  C4_4 
REMARK    3  A    between atoms: C11_11  and  C12_12 
REMARK    4  A    between atoms: C12_12  and  O1_13 
REMARK    5  A    between atoms: C13_15  and  C14_16 
REMARK    6  A    between atoms: C14_16  and  C15_17 
REMARK    7  A    between atoms: C15_17  and  C16_18 
REMARK    8  A    between atoms: C18_21  and  C19_22 
REMARK    9  A    between atoms: C19_22  and  O3_23 
REMARK   10  A    between atoms: C20_25  and  O4_26 
ROOT
HETATM    1  C14 UNL     1       1.201   9.264   2.727  1.00  0.00     0.002 C 
ENDROOT
BRANCH   1   2
HETATM    2  C13 UNL     1       2.514   9.794   2.564  1.00  0.00     0.006 C 
BRANCH   2   3
HETATM    3  C2  UNL     1       3.567   9.168   2.007  1.00  0.00    -0.062 C 
HETATM    4  C1  UNL     1       4.724   9.994   1.701  1.00  0.00     0.048 C 
HETATM    5  C3  UNL     1       3.451   7.779   1.732  1.00  0.00     0.007 C 
BRANCH   5   6
HETATM    6  C4  UNL     1       4.126   6.834   1.271  1.00  0.00     0.008 C 
HETATM    7  C5  UNL     1       4.246   5.408   1.125  1.00  0.00    -0.052 C 
HETATM    8  C6  UNL     1       3.140   4.486   1.256  1.00  0.00     0.010 C 
HETATM    9  C11 UNL     1       5.474   4.835   1.829  1.00  0.00     0.042 C 
HETATM   10  C7  UNL     1       3.393   3.209   0.842  1.00  0.00    -0.083 C 
HETATM   11  C8  UNL     1       2.357   2.159   0.918  1.00  0.00     0.043 C 
HETATM   12  C9  UNL     1       4.746   2.977   0.329  1.00  0.00     0.034 C 
HETATM   13  C10 UNL     1       5.824   3.517   1.198  1.00  0.00     0.016 C 
BRANCH   9  14
HETATM   14  C12 UNL     1       6.663   5.771   1.793  1.00  0.00     0.173 C 
BRANCH  14  15
HETATM   15  O1  UNL     1       7.479   5.689   2.891  1.00  0.00    -0.400 OA
ATOM     16  H1  UNL     1       8.019   6.457   3.035  1.00  0.00     0.209 HD
ENDBRANCH  14  15
ENDBRANCH   9  14
ENDBRANCH   5   6
ENDBRANCH   2   3
ENDBRANCH   1   2
BRANCH   1  17
HETATM   17  C15 UNL     1       0.760   8.829   3.926  1.00  0.00     0.040 C 
BRANCH  17  18
HETATM   18  C16 UNL     1      -0.689   8.796   4.212  1.00  0.00     0.181 C 
HETATM   19  C17 UNL     1      -1.379   8.497   2.875  1.00  0.00     0.084 C 
HETATM   20  O2  UNL     1      -1.093  10.036   4.603  1.00  0.00    -0.342 OA
HETATM   21  C18 UNL     1      -2.077  10.114   5.539  1.00  0.00     0.180 C 
HETATM   22  C20 UNL     1      -2.973   8.927   5.637  1.00  0.00     0.183 C 
HETATM   23  C21 UNL     1      -2.188   7.653   5.569  1.00  0.00     0.086 C 
HETATM   24  C22 UNL     1      -2.115   7.070   6.989  1.00  0.00     0.048 C 
HETATM   25  C23 UNL     1      -2.999   6.657   4.762  1.00  0.00     0.048 C 
HETATM   26  O5  UNL     1      -0.906   7.790   5.128  1.00  0.00    -0.339 OA
BRANCH  21  27
HETATM   27  C19 UNL     1      -1.443  10.506   6.860  1.00  0.00     0.199 C 
BRANCH  27  28
HETATM   28  O3  UNL     1      -2.256  11.341   7.613  1.00  0.00    -0.398 OA
ATOM     29  H3  UNL     1      -1.879  11.551   8.459  1.00  0.00     0.209 HD
ENDBRANCH  27  28
ENDBRANCH  21  27
BRANCH  22  30
HETATM   30  O4  UNL     1      -3.712   8.967   6.817  1.00  0.00    -0.390 OA
ATOM     31  H4  UNL     1      -4.187   8.154   6.942  1.00  0.00     0.210 HD
ENDBRANCH  22  30
ENDBRANCH  17  18
ENDBRANCH   1  17
TORSDOF 10
ENDMDL
MODEL 2
REMARK VINA RESULT: -7.162621079      0.944      2.206
REMARK  10 active torsions:
REMARK  status: ('A' for Active; 'I' for Inactive)
REMARK    1  A    between atoms: C2_2  and  C13_15 
REMARK    2  A    between atoms: C3_3  and  C4_4 
REMARK    3  A    between atoms: C11_11  and  C12_12 
REMARK    4  A    between atoms: C12_12  and  O1_13 
REMARK    5  A    between atoms: C13_15  and  C14_16 
REMARK    6  A    between atoms: C14_16  and  C15_17 
REMARK    7  A    between atoms: C15_17  and  C16_18 
REMARK    8  A    between atoms: C18_21  and  C19_22 
REMARK    9  A    between atoms: C19_22  and  O3_23 
REMARK   10  A    between atoms: C20_25  and  O4_26 
ROOT
HETATM    1  C14 UNL     1       1.337   8.951   3.448  1.00  0.00     0.002 C 
ENDROOT
BRANCH   1   2
HETATM    2  C13 UNL     1       2.343   9.622   2.694  1.00  0.00     0.006 C 
BRANCH   2   3
HETATM    3  C2  UNL     1       3.396   9.053   2.079  1.00  0.00    -0.062 C 
HETATM    4  C1  UNL     1       4.474   9.945   1.681  1.00  0.00     0.048 C 
HETATM    5  C3  UNL     1       3.353   7.654   1.836  1.00  0.00     0.007 C 
BRANCH   5   6
HETATM    6  C4  UNL     1       4.056   6.744   1.348  1.00  0.00     0.008 C 
HETATM    7  C5  UNL     1       4.219   5.328   1.156  1.00  0.00    -0.052 C 
HETATM    8  C6  UNL     1       3.140   4.371   1.253  1.00  0.00     0.010 C 
HETATM    9  C11 UNL     1       5.461   4.768   1.846  1.00  0.00     0.042 C 
HETATM   10  C7  UNL     1       3.432   3.115   0.798  1.00  0.00    -0.083 C 
HETATM   11  C8  UNL     1       2.426   2.034   0.836  1.00  0.00     0.043 C 
HETATM   12  C9  UNL     1       4.792   2.940   0.284  1.00  0.00     0.034 C 
HETATM   13  C10 UNL     1       5.851   3.483   1.174  1.00  0.00     0.016 C 
BRANCH   9  14
HETATM   14  C12 UNL     1       6.623   5.739   1.845  1.00  0.00     0.173 C 
BRANCH  14  15
HETATM   15  O1  UNL     1       7.482   5.591   2.902  1.00  0.00    -0.400 OA
ATOM     16  H1  UNL     1       8.395   5.740   2.686  1.00  0.00     0.209 HD
ENDBRANCH  14  15
ENDBRANCH   9  14
ENDBRANCH   5   6
ENDBRANCH   2   3
ENDBRANCH   1   2
BRANCH   1  17
HETATM   17  C15 UNL     1       0.054   9.369   3.440  1.00  0.00     0.040 C 
BRANCH  17  18
HETATM   18  C16 UNL     1      -0.728   9.377   4.694  1.00  0.00     0.181 C 
HETATM   19  C17 UNL     1       0.098  10.183   5.705  1.00  0.00     0.084 C 
HETATM   20  O2  UNL     1      -0.814   8.105   5.170  1.00  0.00    -0.342 OA
HETATM   21  C18 UNL     1      -1.962   7.745   5.806  1.00  0.00     0.180 C 
HETATM   22  C20 UNL     1      -2.754   8.863   6.395  1.00  0.00     0.183 C 
HETATM   23  C21 UNL     1      -2.825  10.026   5.454  1.00  0.00     0.086 C 
HETATM   24  C22 UNL     1      -4.229  10.044   4.833  1.00  0.00     0.048 C 
HETATM   25  C23 UNL     1      -2.731  11.292   6.284  1.00  0.00     0.048 C 
HETATM   26  O5  UNL     1      -1.933   9.988   4.424  1.00  0.00    -0.339 OA
BRANCH  21  27
HETATM   27  C19 UNL     1      -2.765   6.861   4.869  1.00  0.00     0.199 C 
BRANCH  27  28
HETATM   28  O3  UNL     1      -3.329   5.773   5.518  1.00  0.00    -0.398 OA
ATOM     29  H3  UNL     1      -2.867   4.962   5.341  1.00  0.00     0.209 HD
ENDBRANCH  27  28
ENDBRANCH  21  27
BRANCH  22  30
HETATM   30  O4  UNL     1      -4.040   8.435   6.718  1.00  0.00    -0.390 OA
ATOM     31  H4  UNL     1      -4.428   9.005   7.371  1.00  0.00     0.210 HD
ENDBRANCH  22  30
ENDBRANCH  17  18
ENDBRANCH   1  17
TORSDOF 10
ENDMDL
MODEL 3
REMARK VINA RESULT: -6.783910749      3.080      9.459
REMARK  10 active torsions:
REMARK  status: ('A' for Active; 'I' for Inactive)
REMARK    1  A    between atoms: C2_2  and  C13_15 
REMARK    2  A    between atoms: C3_3  and  C4_4 
REMARK    3  A    between atoms: C11_11  and  C12_12 
REMARK    4  A    between atoms: C12_12  and  O1_13 
REMARK    5  A    between atoms: C13_15  and  C14_16 
REMARK    6  A    between atoms: C14_16  and  C15_17 
REMARK    7  A    between atoms: C15_17  and  C16_18 
REMARK    8  A    between atoms: C18_21  and  C19_22 
REMARK    9  A    between atoms: C19_22  and  O3_23 
REMARK   10  A    between atoms: C20_25  and  O4_26 
ROOT
HETATM    1  C14 UNL     1       4.568  10.271   1.720  1.00  0.00     0.002 C 
ENDROOT
BRANCH   1   2
HETATM    2  C13 UNL     1       3.184  10.335   2.048  1.00  0.00     0.006 C 
BRANCH   2   3
HETATM    3  C2  UNL     1       2.491   9.445   2.782  1.00  0.00    -0.062 C 
HETATM    4  C1  UNL     1       2.650   8.045   2.421  1.00  0.00     0.048 C 
HETATM    5  C3  UNL     1       1.644   9.939   3.809  1.00  0.00     0.007 C 
BRANCH   5   6
HETATM    6  C4  UNL     1       0.875   9.522   4.701  1.00  0.00     0.008 C 
HETATM    7  C5  UNL     1      -0.409   8.948   5.004  1.00  0.00    -0.052 C 
HETATM    8  C6  UNL     1      -1.225   8.242   4.042  1.00  0.00     0.010 C 
HETATM    9  C11 UNL     1      -1.292   9.867   5.845  1.00  0.00     0.042 C 
HETATM   10  C7  UNL     1      -2.285   7.559   4.567  1.00  0.00    -0.083 C 
HETATM   11  C8  UNL     1      -3.206   6.792   3.704  1.00  0.00     0.043 C 
HETATM   12  C9  UNL     1      -2.426   7.650   6.023  1.00  0.00     0.034 C 
HETATM   13  C10 UNL     1      -2.320   9.034   6.556  1.00  0.00     0.016 C 
BRANCH   9  14
HETATM   14  C12 UNL     1      -0.503  10.694   6.839  1.00  0.00     0.173 C 
BRANCH  14  15
HETATM   15  O1  UNL     1      -0.968  10.624   8.126  1.00  0.00    -0.400 OA
ATOM     16  H1  UNL     1      -0.954  11.451   8.592  1.00  0.00     0.209 HD
ENDBRANCH  14  15
ENDBRANCH   9  14
ENDBRANCH   5   6
ENDBRANCH   2   3
ENDBRANCH   1   2
BRANCH   1  17
HETATM   17  C15 UNL     1       5.343  11.376   1.709  1.00  0.00     0.040 C 
BRANCH  17  18
HETATM   18  C16 UNL     1       6.815  11.247   1.683  1.00  0.00     0.181 C 
HETATM   19  C17 UNL     1       7.362  12.479   2.414  1.00  0.00     0.084 C 
HETATM   20  O2  UNL     1       7.244  11.323   0.393  1.00  0.00    -0.342 OA
HETATM   21  C18 UNL     1       8.321  10.570   0.040  1.00  0.00     0.180 C 
HETATM   22  C20 UNL     1       9.235  10.186   1.154  1.00  0.00     0.183 C 
HETATM   23  C21 UNL     1       8.461   9.755   2.362  1.00  0.00     0.086 C 
HETATM   24  C22 UNL     1       8.545   8.224   2.453  1.00  0.00     0.048 C 
HETATM   25  C23 UNL     1       9.192  10.276   3.585  1.00  0.00     0.048 C 
HETATM   26  O5  UNL     1       7.138  10.082   2.344  1.00  0.00    -0.339 OA
BRANCH  21  27
HETATM   27  C19 UNL     1       7.827   9.388  -0.773  1.00  0.00     0.199 C 
BRANCH  27  28
HETATM   28  O3  UNL     1       8.464   9.283  -2.000  1.00  0.00    -0.398 OA
ATOM     29  H3  UNL     1       9.226   8.716  -1.968  1.00  0.00     0.209 HD
ENDBRANCH  27  28
ENDBRANCH  21  27
BRANCH  22  30
HETATM   30  O4  UNL     1      10.094   9.166   0.752  1.00  0.00    -0.390 OA
ATOM     31  H4  UNL     1      10.605   8.849   1.488  1.00  0.00     0.210 HD
ENDBRANCH  22  30
ENDBRANCH  17  18
ENDBRANCH   1  17
TORSDOF 10
ENDMDL
MODEL 4
REMARK VINA RESULT: -6.752547758      4.084      9.988
REMARK  10 active torsions:
REMARK  status: ('A' for Active; 'I' for Inactive)
REMARK    1  A    between atoms: C2_2  and  C13_15 
REMARK    2  A    between atoms: C3_3  and  C4_4 
REMARK    3  A    between atoms: C11_11  and  C12_12 
REMARK    4  A    between atoms: C12_12  and  O1_13 
REMARK    5  A    between atoms: C13_15  and  C14_16 
REMARK    6  A    between atoms: C14_16  and  C15_17 
REMARK    7  A    between atoms: C15_17  and  C16_18 
REMARK    8  A    between atoms: C18_21  and  C19_22 
REMARK    9  A    between atoms: C19_22  and  O3_23 
REMARK   10  A    between atoms: C20_25  and  O4_26 
ROOT
HETATM    1  C14 UNL     1       7.013   7.877   1.632  1.00  0.00     0.002 C 
ENDROOT
BRANCH   1   2
HETATM    2  C13 UNL     1       6.039   6.857   1.435  1.00  0.00     0.006 C 
BRANCH   2   3
HETATM    3  C2  UNL     1       4.703   7.010   1.460  1.00  0.00    -0.062 C 
HETATM    4  C1  UNL     1       3.910   5.865   1.039  1.00  0.00     0.048 C 
HETATM    5  C3  UNL     1       4.181   8.271   1.854  1.00  0.00     0.007 C 
BRANCH   5   6
HETATM    6  C4  UNL     1       3.083   8.840   2.037  1.00  0.00     0.008 C 
HETATM    7  C5  UNL     1       2.406  10.084   2.287  1.00  0.00    -0.052 C 
HETATM    8  C6  UNL     1       2.973  11.383   2.007  1.00  0.00     0.010 C 
HETATM    9  C11 UNL     1       1.696  10.118   3.639  1.00  0.00     0.042 C 
HETATM   10  C7  UNL     1       2.097  12.430   2.076  1.00  0.00    -0.083 C 
HETATM   11  C8  UNL     1       2.536  13.815   1.814  1.00  0.00     0.043 C 
HETATM   12  C9  UNL     1       0.720  12.067   2.422  1.00  0.00     0.034 C 
HETATM   13  C10 UNL     1       0.610  11.155   3.590  1.00  0.00     0.016 C 
BRANCH   9  14
HETATM   14  C12 UNL     1       1.126   8.774   4.039  1.00  0.00     0.173 C 
BRANCH  14  15
HETATM   15  O1  UNL     1       0.046   8.846   4.878  1.00  0.00    -0.400 OA
ATOM     16  H1  UNL     1       0.146   8.359   5.687  1.00  0.00     0.209 HD
ENDBRANCH  14  15
ENDBRANCH   9  14
ENDBRANCH   5   6
ENDBRANCH   2   3
ENDBRANCH   1   2
BRANCH   1  17
HETATM   17  C15 UNL     1       7.465   8.628   0.605  1.00  0.00     0.040 C 
BRANCH  17  18
HETATM   18  C16 UNL     1       7.825  10.044   0.828  1.00  0.00     0.181 C 
HETATM   19  C17 UNL     1       6.782  10.598   1.808  1.00  0.00     0.084 C 
HETATM   20  O2  UNL     1       7.679  10.728  -0.340  1.00  0.00    -0.342 OA
HETATM   21  C18 UNL     1       8.552  11.740  -0.592  1.00  0.00     0.180 C 
HETATM   22  C20 UNL     1       9.196  12.354   0.605  1.00  0.00     0.183 C 
HETATM   23  C21 UNL     1       9.625  11.303   1.583  1.00  0.00     0.086 C 
HETATM   24  C22 UNL     1      11.150  11.158   1.477  1.00  0.00     0.048 C 
HETATM   25  C23 UNL     1       9.363  11.840   2.977  1.00  0.00     0.048 C 
HETATM   26  O5  UNL     1       9.091  10.067   1.371  1.00  0.00    -0.339 OA
BRANCH  21  27
HETATM   27  C19 UNL     1       9.544  11.262  -1.635  1.00  0.00     0.199 C 
BRANCH  27  28
HETATM   28  O3  UNL     1       9.922  12.268  -2.511  1.00  0.00    -0.398 OA
ATOM     29  H3  UNL     1      10.308  13.014  -2.067  1.00  0.00     0.209 HD
ENDBRANCH  27  28
ENDBRANCH  21  27
BRANCH  22  30
HETATM   30  O4  UNL     1      10.290  13.128   0.230  1.00  0.00    -0.390 OA
ATOM     31  H4  UNL     1      10.608  13.638   0.966  1.00  0.00     0.210 HD
ENDBRANCH  22  30
ENDBRANCH  17  18
ENDBRANCH   1  17
TORSDOF 10
ENDMDL
MODEL 5
REMARK VINA RESULT: -6.676705616      3.076      9.783
REMARK  10 active torsions:
REMARK  status: ('A' for Active; 'I' for Inactive)
REMARK    1  A    between atoms: C2_2  and  C13_15 
REMARK    2  A    between atoms: C3_3  and  C4_4 
REMARK    3  A    between atoms: C11_11  and  C12_12 
REMARK    4  A    between atoms: C12_12  and  O1_13 
REMARK    5  A    between atoms: C13_15  and  C14_16 
REMARK    6  A    between atoms: C14_16  and  C15_17 
REMARK    7  A    between atoms: C15_17  and  C16_18 
REMARK    8  A    between atoms: C18_21  and  C19_22 
REMARK    9  A    between atoms: C19_22  and  O3_23 
REMARK   10  A    between atoms: C20_25  and  O4_26 
ROOT
HETATM    1  C14 UNL     1       5.647   8.558   1.242  1.00  0.00     0.002 C 
ENDROOT
BRANCH   1   2
HETATM    2  C13 UNL     1       4.552   9.370   1.657  1.00  0.00     0.006 C 
BRANCH   2   3
HETATM    3  C2  UNL     1       3.360   8.938   2.107  1.00  0.00    -0.062 C 
HETATM    4  C1  UNL     1       3.149   7.499   2.106  1.00  0.00     0.048 C 
HETATM    5  C3  UNL     1       2.403   9.910   2.503  1.00  0.00     0.007 C 
BRANCH   5   6
HETATM    6  C4  UNL     1       1.247   9.981   2.973  1.00  0.00     0.008 C 
HETATM    7  C5  UNL     1       0.441  10.082   4.160  1.00  0.00    -0.052 C 
HETATM    8  C6  UNL     1       0.931  10.565   5.431  1.00  0.00     0.010 C 
HETATM    9  C11 UNL     1      -0.447   8.860   4.387  1.00  0.00     0.042 C 
HETATM   10  C7  UNL     1      -0.030  10.823   6.368  1.00  0.00    -0.083 C 
HETATM   11  C8  UNL     1       0.325  11.321   7.712  1.00  0.00     0.043 C 
HETATM   12  C9  UNL     1      -1.406  10.569   5.933  1.00  0.00     0.034 C 
HETATM   13  C10 UNL     1      -1.598   9.254   5.268  1.00  0.00     0.016 C 
BRANCH   9  14
HETATM   14  C12 UNL     1      -0.952   8.252   3.096  1.00  0.00     0.173 C 
BRANCH  14  15
HETATM   15  O1  UNL     1      -1.899   7.276   3.265  1.00  0.00    -0.400 OA
ATOM     16  H1  UNL     1      -2.096   6.782   2.478  1.00  0.00     0.209 HD
ENDBRANCH  14  15
ENDBRANCH   9  14
ENDBRANCH   5   6
ENDBRANCH   2   3
ENDBRANCH   1   2
BRANCH   1  17
HETATM   17  C15 UNL     1       6.365   8.853   0.137  1.00  0.00     0.040 C 
BRANCH  17  18
HETATM   18  C16 UNL     1       7.758   9.327   0.266  1.00  0.00     0.181 C 
HETATM   19  C17 UNL     1       8.226   9.663  -1.156  1.00  0.00     0.084 C 
HETATM   20  O2  UNL     1       8.535   8.302   0.713  1.00  0.00    -0.342 OA
HETATM   21  C18 UNL     1       9.568   8.608   1.544  1.00  0.00     0.180 C 
HETATM   22  C20 UNL     1      10.082  10.005   1.451  1.00  0.00     0.183 C 
HETATM   23  C21 UNL     1       8.956  10.988   1.362  1.00  0.00     0.086 C 
HETATM   24  C22 UNL     1       8.824  11.677   2.729  1.00  0.00     0.048 C 
HETATM   25  C23 UNL     1       9.375  12.080   0.396  1.00  0.00     0.048 C 
HETATM   26  O5  UNL     1       7.740  10.446   1.070  1.00  0.00    -0.339 OA
BRANCH  21  27
HETATM   27  C19 UNL     1       9.180   8.198   2.952  1.00  0.00     0.199 C 
BRANCH  27  28
HETATM   28  O3  UNL     1       8.491   6.995   2.985  1.00  0.00    -0.398 OA
ATOM     29  H3  UNL     1       7.659   7.063   3.437  1.00  0.00     0.209 HD
ENDBRANCH  27  28
ENDBRANCH  21  27
BRANCH  22  30
HETATM   30  O4  UNL     1      10.889  10.304   2.546  1.00  0.00    -0.390 OA
ATOM     31  H4  UNL     1      10.440  10.894   3.140  1.00  0.00     0.210 HD
ENDBRANCH  22  30
ENDBRANCH  17  18
ENDBRANCH   1  17
TORSDOF 10
ENDMDL
