MODEL 1
REMARK VINA RESULT: -5.947236033      0.000      0.000
REMARK  8 active torsions:
REMARK  status: ('A' for Active; 'I' for Inactive)
REMARK    1  A    between atoms: C2_2  and  C4_4 
REMARK    2  A    between atoms: C4_4  and  C5_5 
REMARK    3  A    between atoms: C15_15  and  O1_17 
REMARK    4  A    between atoms: C18_21  and  C19_22 
REMARK    5  A    between atoms: C19_22  and  N1_23 
REMARK    6  A    between atoms: C21_26  and  C22_27 
REMARK    7  A    between atoms: C22_27  and  O3_28 
REMARK    8  A    between atoms: C23_30  and  O4_31 
ROOT
HETATM    1  C5  UNL     1       7.855   9.620   1.120  1.00  0.00    -0.036 C 
HETATM    2  C6  UNL     1       7.845   9.056   2.501  1.00  0.00     0.016 C 
HETATM    3  C7  UNL     1       8.843   8.715   0.343  1.00  0.00     0.010 C 
HETATM    4  C8  UNL     1      10.270   9.060   0.611  1.00  0.00     0.002 C 
HETATM    5  C9  UNL     1      10.546  10.547   0.332  1.00  0.00     0.013 C 
HETATM    6  C10 UNL     1       9.719  11.339   1.280  1.00  0.00    -0.003 C 
HETATM    7  C11 UNL     1      10.219  11.042   2.661  1.00  0.00     0.019 C 
HETATM    8  C12 UNL     1       8.283  11.061   0.998  1.00  0.00     0.005 C 
HETATM    9  C13 UNL     1       8.021  11.471  -0.435  1.00  0.00     0.009 C 
HETATM   10  C14 UNL     1       8.637  12.697  -0.940  1.00  0.00     0.041 C 
HETATM   11  C15 UNL     1       9.843  13.245  -0.275  1.00  0.00     0.088 C 
HETATM   12  C16 UNL     1       9.909  14.734  -0.524  1.00  0.00     0.049 C 
HETATM   13  C17 UNL     1       9.877  12.857   1.165  1.00  0.00     0.126 C 
HETATM   14  O2  UNL     1      11.130  13.198   1.674  1.00  0.00    -0.366 OA
HETATM   15  C18 UNL     1      10.984  14.078   2.711  1.00  0.00     0.148 C 
HETATM   16  C21 UNL     1       9.650  14.741   2.580  1.00  0.00     0.072 C 
HETATM   17  C23 UNL     1       8.856  13.571   1.976  1.00  0.00     0.165 C 
ENDROOT
BRANCH  11  18
HETATM   18  O1  UNL     1      11.071  12.828  -0.852  1.00  0.00    -0.387 OA
ATOM     19  H1  UNL     1      11.841  13.233  -0.471  1.00  0.00     0.210 HD
ENDBRANCH  11  18
BRANCH  17  20
HETATM   20  O4  UNL     1       7.751  14.056   1.318  1.00  0.00    -0.392 OA
ATOM     21  H4  UNL     1       6.908  13.953   1.745  1.00  0.00     0.210 HD
ENDBRANCH  17  20
BRANCH  15  22
HETATM   22  C19 UNL     1      12.133  15.074   2.817  1.00  0.00     0.145 C 
BRANCH  22  23
HETATM   23  N1  UNL     1      13.265  14.541   2.108  1.00  0.00    -0.423 N 
HETATM   24  C20 UNL     1      13.967  15.475   1.286  1.00  0.00     0.139 C 
ATOM     25  H1  UNL     1      13.548  13.564   2.187  1.00  0.00     0.152 HD
ENDBRANCH  22  23
ENDBRANCH  15  22
BRANCH  16  26
HETATM   26  C22 UNL     1       9.045  15.126   3.926  1.00  0.00     0.174 C 
BRANCH  26  27
HETATM   27  O3  UNL     1       8.179  14.158   4.380  1.00  0.00    -0.400 OA
ATOM     28  H3  UNL     1       8.477  13.787   5.202  1.00  0.00     0.209 HD
ENDBRANCH  26  27
ENDBRANCH  16  26
BRANCH   1  29
HETATM   29  C4  UNL     1       6.521   9.373   0.504  1.00  0.00     0.042 C 
BRANCH  29  30
HETATM   30  C2  UNL     1       5.317   9.643   1.264  1.00  0.00    -0.092 C 
HETATM   31  C1  UNL     1       4.787  10.759   1.676  1.00  0.00     0.014 C 
HETATM   32  C3  UNL     1       4.520   8.388   1.636  1.00  0.00     0.042 C 
ENDBRANCH  29  30
ENDBRANCH   1  29
TORSDOF 8
ENDMDL
MODEL 2
REMARK VINA RESULT: -5.646681845      2.450      6.466
REMARK  8 active torsions:
REMARK  status: ('A' for Active; 'I' for Inactive)
REMARK    1  A    between atoms: C2_2  and  C4_4 
REMARK    2  A    between atoms: C4_4  and  C5_5 
REMARK    3  A    between atoms: C15_15  and  O1_17 
REMARK    4  A    between atoms: C18_21  and  C19_22 
REMARK    5  A    between atoms: C19_22  and  N1_23 
REMARK    6  A    between atoms: C21_26  and  C22_27 
REMARK    7  A    between atoms: C22_27  and  O3_28 
REMARK    8  A    between atoms: C23_30  and  O4_31 
ROOT
HETATM    1  C5  UNL     1      10.355  16.065   1.313  1.00  0.00    -0.036 C 
HETATM    2  C6  UNL     1      10.148  16.097   2.790  1.00  0.00     0.016 C 
HETATM    3  C7  UNL     1       9.292  17.044   0.756  1.00  0.00     0.010 C 
HETATM    4  C8  UNL     1       7.930  16.435   0.688  1.00  0.00     0.002 C 
HETATM    5  C9  UNL     1       7.946  15.122  -0.112  1.00  0.00     0.013 C 
HETATM    6  C10 UNL     1       8.817  14.164   0.620  1.00  0.00    -0.003 C 
HETATM    7  C11 UNL     1       8.158  13.880   1.936  1.00  0.00     0.019 C 
HETATM    8  C12 UNL     1      10.201  14.718   0.653  1.00  0.00     0.005 C 
HETATM    9  C13 UNL     1      10.650  14.884  -0.782  1.00  0.00     0.009 C 
HETATM   10  C14 UNL     1      10.305  13.845  -1.751  1.00  0.00     0.041 C 
HETATM   11  C15 UNL     1       9.164  12.938  -1.487  1.00  0.00     0.088 C 
HETATM   12  C16 UNL     1       9.384  11.641  -2.230  1.00  0.00     0.049 C 
HETATM   13  C17 UNL     1       8.940  12.780  -0.021  1.00  0.00     0.126 C 
HETATM   14  O2  UNL     1       7.729  12.114   0.162  1.00  0.00    -0.366 OA
HETATM   15  C18 UNL     1       7.940  10.951   0.851  1.00  0.00     0.148 C 
HETATM   16  C21 UNL     1       9.377  10.567   0.693  1.00  0.00     0.072 C 
HETATM   17  C23 UNL     1       9.999  11.971   0.638  1.00  0.00     0.165 C 
ENDROOT
BRANCH  11  18
HETATM   18  O1  UNL     1       7.934  13.361  -2.057  1.00  0.00    -0.387 OA
ATOM     19  H1  UNL     1       7.198  12.793  -1.867  1.00  0.00     0.210 HD
ENDBRANCH  11  18
BRANCH  17  20
HETATM   20  O4  UNL     1      11.224  11.907   0.017  1.00  0.00    -0.392 OA
ATOM     21  H4  UNL     1      11.575  11.044  -0.171  1.00  0.00     0.210 HD
ENDBRANCH  17  20
BRANCH  15  22
HETATM   22  C19 UNL     1       6.981   9.835   0.452  1.00  0.00     0.145 C 
BRANCH  22  23
HETATM   23  N1  UNL     1       6.541   9.165   1.646  1.00  0.00    -0.423 N 
HETATM   24  C20 UNL     1       6.780   7.758   1.680  1.00  0.00     0.139 C 
ATOM     25  H1  UNL     1       6.091   9.660   2.416  1.00  0.00     0.152 HD
ENDBRANCH  22  23
ENDBRANCH  15  22
BRANCH  16  26
HETATM   26  C22 UNL     1       9.925   9.814   1.902  1.00  0.00     0.174 C 
BRANCH  26  27
HETATM   27  O3  UNL     1       9.240  10.145   3.049  1.00  0.00    -0.400 OA
ATOM     28  H3  UNL     1       9.140   9.392   3.620  1.00  0.00     0.209 HD
ENDBRANCH  26  27
ENDBRANCH  16  26
BRANCH   1  29
HETATM   29  C4  UNL     1      11.671  16.694   1.011  1.00  0.00     0.042 C 
BRANCH  29  30
HETATM   30  C2  UNL     1      12.851  16.283   1.746  1.00  0.00    -0.092 C 
HETATM   31  C1  UNL     1      13.433  15.124   1.866  1.00  0.00     0.014 C 
HETATM   32  C3  UNL     1      13.540  17.420   2.506  1.00  0.00     0.042 C 
ENDBRANCH  29  30
ENDBRANCH   1  29
TORSDOF 8
ENDMDL
MODEL 3
REMARK VINA RESULT: -5.596357640      2.600      6.453
REMARK  8 active torsions:
REMARK  status: ('A' for Active; 'I' for Inactive)
REMARK    1  A    between atoms: C2_2  and  C4_4 
REMARK    2  A    between atoms: C4_4  and  C5_5 
REMARK    3  A    between atoms: C15_15  and  O1_17 
REMARK    4  A    between atoms: C18_21  and  C19_22 
REMARK    5  A    between atoms: C19_22  and  N1_23 
REMARK    6  A    between atoms: C21_26  and  C22_27 
REMARK    7  A    between atoms: C22_27  and  O3_28 
REMARK    8  A    between atoms: C23_30  and  O4_31 
ROOT
HETATM    1  C5  UNL     1      10.454  14.468   2.613  1.00  0.00    -0.036 C 
HETATM    2  C6  UNL     1      10.084  14.323   4.050  1.00  0.00     0.016 C 
HETATM    3  C7  UNL     1       9.654  15.705   2.134  1.00  0.00     0.010 C 
HETATM    4  C8  UNL     1       8.224  15.388   1.846  1.00  0.00     0.002 C 
HETATM    5  C9  UNL     1       8.102  14.228   0.843  1.00  0.00     0.013 C 
HETATM    6  C10 UNL     1       8.698  13.024   1.479  1.00  0.00    -0.003 C 
HETATM    7  C11 UNL     1       7.848  12.682   2.666  1.00  0.00     0.019 C 
HETATM    8  C12 UNL     1      10.143  13.288   1.727  1.00  0.00     0.005 C 
HETATM    9  C13 UNL     1      10.781  13.574   0.385  1.00  0.00     0.009 C 
HETATM   10  C14 UNL     1      10.375  12.775  -0.771  1.00  0.00     0.041 C 
HETATM   11  C15 UNL     1       9.068  12.078  -0.763  1.00  0.00     0.088 C 
HETATM   12  C16 UNL     1       9.141  10.886  -1.690  1.00  0.00     0.049 C 
HETATM   13  C17 UNL     1       8.649  11.751   0.630  1.00  0.00     0.126 C 
HETATM   14  O2  UNL     1       7.326  11.313   0.591  1.00  0.00    -0.366 OA
HETATM   15  C18 UNL     1       7.245  10.043   1.093  1.00  0.00     0.148 C 
HETATM   16  C21 UNL     1       8.600   9.415   1.002  1.00  0.00     0.072 C 
HETATM   17  C23 UNL     1       9.463  10.665   1.236  1.00  0.00     0.165 C 
ENDROOT
BRANCH  11  18
HETATM   18  O1  UNL     1       8.009  12.809  -1.362  1.00  0.00    -0.387 OA
ATOM     19  H1  UNL     1       7.702  12.452  -2.186  1.00  0.00     0.210 HD
ENDBRANCH  11  18
BRANCH  17  20
HETATM   20  O4  UNL     1      10.722  10.458   0.725  1.00  0.00    -0.392 OA
ATOM     21  H4  UNL     1      11.168   9.656   0.973  1.00  0.00     0.210 HD
ENDBRANCH  17  20
BRANCH  15  22
HETATM   22  C19 UNL     1       6.158   9.204   0.431  1.00  0.00     0.145 C 
BRANCH  22  23
HETATM   23  N1  UNL     1       5.355   8.604   1.462  1.00  0.00    -0.423 N 
HETATM   24  C20 UNL     1       5.255   7.180   1.408  1.00  0.00     0.139 C 
ATOM     25  H1  UNL     1       4.890   9.156   2.183  1.00  0.00     0.152 HD
ENDBRANCH  22  23
ENDBRANCH  15  22
BRANCH  16  26
HETATM   26  C22 UNL     1       8.860   8.401   2.112  1.00  0.00     0.174 C 
BRANCH  26  27
HETATM   27  O3  UNL     1       8.135   8.702   3.242  1.00  0.00    -0.400 OA
ATOM     28  H3  UNL     1       7.534   8.000   3.463  1.00  0.00     0.209 HD
ENDBRANCH  26  27
ENDBRANCH  16  26
BRANCH   1  29
HETATM   29  C4  UNL     1      11.887  14.869   2.537  1.00  0.00     0.042 C 
BRANCH  29  30
HETATM   30  C2  UNL     1      12.260  16.253   2.747  1.00  0.00    -0.092 C 
HETATM   31  C1  UNL     1      12.361  16.965   3.832  1.00  0.00     0.014 C 
HETATM   32  C3  UNL     1      12.608  17.007   1.460  1.00  0.00     0.042 C 
ENDBRANCH  29  30
ENDBRANCH   1  29
TORSDOF 8
ENDMDL
MODEL 4
REMARK VINA RESULT: -5.542713193      1.241      1.562
REMARK  8 active torsions:
REMARK  status: ('A' for Active; 'I' for Inactive)
REMARK    1  A    between atoms: C2_2  and  C4_4 
REMARK    2  A    between atoms: C4_4  and  C5_5 
REMARK    3  A    between atoms: C15_15  and  O1_17 
REMARK    4  A    between atoms: C18_21  and  C19_22 
REMARK    5  A    between atoms: C19_22  and  N1_23 
REMARK    6  A    between atoms: C21_26  and  C22_27 
REMARK    7  A    between atoms: C22_27  and  O3_28 
REMARK    8  A    between atoms: C23_30  and  O4_31 
ROOT
HETATM    1  C5  UNL     1       8.545   9.546   2.016  1.00  0.00    -0.036 C 
HETATM    2  C6  UNL     1       9.339   9.080   3.189  1.00  0.00     0.016 C 
HETATM    3  C7  UNL     1       8.910   8.551   0.886  1.00  0.00     0.010 C 
HETATM    4  C8  UNL     1      10.227   8.858   0.254  1.00  0.00     0.002 C 
HETATM    5  C9  UNL     1      10.278  10.309  -0.250  1.00  0.00     0.013 C 
HETATM    6  C10 UNL     1      10.145  11.198   0.934  1.00  0.00    -0.003 C 
HETATM    7  C11 UNL     1      11.353  10.979   1.793  1.00  0.00     0.019 C 
HETATM    8  C12 UNL     1       8.811  10.957   1.555  1.00  0.00     0.005 C 
HETATM    9  C13 UNL     1       7.767  11.276   0.508  1.00  0.00     0.009 C 
HETATM   10  C14 UNL     1       7.968  12.439  -0.355  1.00  0.00     0.041 C 
HETATM   11  C15 UNL     1       9.332  12.984  -0.553  1.00  0.00     0.088 C 
HETATM   12  C16 UNL     1       9.229  14.448  -0.913  1.00  0.00     0.049 C 
HETATM   13  C17 UNL     1      10.195  12.697   0.629  1.00  0.00     0.126 C 
HETATM   14  O2  UNL     1      11.509  13.022   0.293  1.00  0.00    -0.366 OA
HETATM   15  C18 UNL     1      11.981  13.978   1.151  1.00  0.00     0.148 C 
HETATM   16  C21 UNL     1      10.810  14.682   1.761  1.00  0.00     0.072 C 
HETATM   17  C23 UNL     1       9.824  13.504   1.820  1.00  0.00     0.165 C 
ENDROOT
BRANCH  11  18
HETATM   18  O1  UNL     1      10.004  12.480  -1.698  1.00  0.00    -0.387 OA
ATOM     19  H1  UNL     1       9.506  12.541  -2.504  1.00  0.00     0.210 HD
ENDBRANCH  11  18
BRANCH  17  20
HETATM   20  O4  UNL     1       8.538  13.985   1.884  1.00  0.00    -0.392 OA
ATOM     21  H4  UNL     1       7.846  13.361   2.072  1.00  0.00     0.210 HD
ENDBRANCH  17  20
BRANCH  15  22
HETATM   22  C19 UNL     1      12.972  14.934   0.496  1.00  0.00     0.145 C 
BRANCH  22  23
HETATM   23  N1  UNL     1      14.086  15.115   1.387  1.00  0.00    -0.423 N 
HETATM   24  C20 UNL     1      14.193  16.412   1.975  1.00  0.00     0.139 C 
ATOM     25  H1  UNL     1      14.753  14.370   1.585  1.00  0.00     0.152 HD
ENDBRANCH  22  23
ENDBRANCH  15  22
BRANCH  16  26
HETATM   26  C22 UNL     1      11.091  15.183   3.174  1.00  0.00     0.174 C 
BRANCH  26  27
HETATM   27  O3  UNL     1      10.307  14.535   4.099  1.00  0.00    -0.400 OA
ATOM     28  H3  UNL     1       9.678  15.128   4.494  1.00  0.00     0.209 HD
ENDBRANCH  26  27
ENDBRANCH  16  26
BRANCH   1  29
HETATM   29  C4  UNL     1       7.103   9.309   2.303  1.00  0.00     0.042 C 
BRANCH  29  30
HETATM   30  C2  UNL     1       6.431   8.165   1.720  1.00  0.00    -0.092 C 
HETATM   31  C1  UNL     1       6.595   6.885   1.897  1.00  0.00     0.014 C 
HETATM   32  C3  UNL     1       5.322   8.531   0.729  1.00  0.00     0.042 C 
ENDBRANCH  29  30
ENDBRANCH   1  29
TORSDOF 8
ENDMDL
MODEL 5
REMARK VINA RESULT: -5.517800876      2.518      6.137
REMARK  8 active torsions:
REMARK  status: ('A' for Active; 'I' for Inactive)
REMARK    1  A    between atoms: C2_2  and  C4_4 
REMARK    2  A    between atoms: C4_4  and  C5_5 
REMARK    3  A    between atoms: C15_15  and  O1_17 
REMARK    4  A    between atoms: C18_21  and  C19_22 
REMARK    5  A    between atoms: C19_22  and  N1_23 
REMARK    6  A    between atoms: C21_26  and  C22_27 
REMARK    7  A    between atoms: C22_27  and  O3_28 
REMARK    8  A    between atoms: C23_30  and  O4_31 
ROOT
HETATM    1  C5  UNL     1      10.758  14.864  -0.262  1.00  0.00    -0.036 C 
HETATM    2  C6  UNL     1      12.045  14.421  -0.872  1.00  0.00     0.016 C 
HETATM    3  C7  UNL     1      11.182  15.607   1.029  1.00  0.00     0.010 C 
HETATM    4  C8  UNL     1      11.515  14.674   2.146  1.00  0.00     0.002 C 
HETATM    5  C9  UNL     1      10.358  13.701   2.423  1.00  0.00     0.013 C 
HETATM    6  C10 UNL     1      10.170  12.872   1.203  1.00  0.00    -0.003 C 
HETATM    7  C11 UNL     1      11.413  12.053   1.026  1.00  0.00     0.019 C 
HETATM    8  C12 UNL     1       9.777  13.770   0.080  1.00  0.00     0.005 C 
HETATM    9  C13 UNL     1       8.489  14.454   0.485  1.00  0.00     0.009 C 
HETATM   10  C14 UNL     1       7.469  13.674   1.184  1.00  0.00     0.041 C 
HETATM   11  C15 UNL     1       7.851  12.440   1.908  1.00  0.00     0.088 C 
HETATM   12  C16 UNL     1       6.651  11.524   1.986  1.00  0.00     0.049 C 
HETATM   13  C17 UNL     1       9.063  11.820   1.298  1.00  0.00     0.126 C 
HETATM   14  O2  UNL     1       9.505  10.808   2.149  1.00  0.00    -0.366 OA
HETATM   15  C18 UNL     1       9.506   9.613   1.485  1.00  0.00     0.148 C 
HETATM   16  C21 UNL     1       8.571   9.721   0.322  1.00  0.00     0.072 C 
HETATM   17  C23 UNL     1       8.788  11.203  -0.026  1.00  0.00     0.165 C 
ENDROOT
BRANCH  11  18
HETATM   18  O1  UNL     1       8.125  12.630   3.288  1.00  0.00    -0.387 OA
ATOM     19  H1  UNL     1       8.049  11.844   3.815  1.00  0.00     0.210 HD
ENDBRANCH  11  18
BRANCH  17  20
HETATM   20  O4  UNL     1       7.705  11.673  -0.731  1.00  0.00    -0.392 OA
ATOM     21  H4  UNL     1       7.200  11.040  -1.230  1.00  0.00     0.210 HD
ENDBRANCH  17  20
BRANCH  15  22
HETATM   22  C19 UNL     1       9.194   8.425   2.388  1.00  0.00     0.145 C 
BRANCH  22  23
HETATM   23  N1  UNL     1       7.766   8.318   2.521  1.00  0.00    -0.423 N 
HETATM   24  C20 UNL     1       7.209   7.059   2.141  1.00  0.00     0.139 C 
ATOM     25  H1  UNL     1       7.191   9.087   2.863  1.00  0.00     0.152 HD
ENDBRANCH  22  23
ENDBRANCH  15  22
BRANCH  16  26
HETATM   26  C22 UNL     1       8.992   8.853  -0.860  1.00  0.00     0.174 C 
BRANCH  26  27
HETATM   27  O3  UNL     1       8.358   9.243  -2.017  1.00  0.00    -0.400 OA
ATOM     28  H3  UNL     1       8.594   8.681  -2.746  1.00  0.00     0.209 HD
ENDBRANCH  26  27
ENDBRANCH  16  26
BRANCH   1  29
HETATM   29  C4  UNL     1      10.157  15.905  -1.142  1.00  0.00     0.042 C 
BRANCH  29  30
HETATM   30  C2  UNL     1       9.747  15.561  -2.488  1.00  0.00    -0.092 C 
HETATM   31  C1  UNL     1       8.807  14.776  -2.930  1.00  0.00     0.014 C 
HETATM   32  C3  UNL     1      10.559  16.257  -3.585  1.00  0.00     0.042 C 
ENDBRANCH  29  30
ENDBRANCH   1  29
TORSDOF 8
ENDMDL
