MODEL 1
REMARK VINA RESULT: -5.965458282      0.000      0.000
REMARK  7 active torsions:
REMARK  status: ('A' for Active; 'I' for Inactive)
REMARK    1  A    between atoms: C3_3  and  C4_4 
REMARK    2  A    between atoms: C4_4  and  C5_5 
REMARK    3  A    between atoms: C5_5  and  N1_6 
REMARK    4  A    between atoms: N1_6  and  C6_8 
REMARK    5  A    between atoms: C6_8  and  N2_10 
REMARK    6  A    between atoms: N2_10  and  C7_12 
REMARK    7  A    between atoms: C7_12  and  C8_13 
ROOT
HETATM    1  C1  UNL     1       9.067  47.432  71.106  1.00  0.00     0.012 C 
HETATM    2  C2  UNL     1       8.755  48.418  71.724  1.00  0.00    -0.117 C 
HETATM    3  C3  UNL     1       8.373  49.636  72.472  1.00  0.00     0.094 C 
ENDROOT
BRANCH   3   4
HETATM    4  C4  UNL     1       8.960  50.800  71.746  1.00  0.00     0.032 C 
BRANCH   4   5
HETATM    5  C5  UNL     1       8.015  51.979  71.692  1.00  0.00     0.123 C 
BRANCH   5   6
HETATM    6  N1  UNL     1       6.893  51.701  72.590  1.00  0.00    -0.367 N 
ATOM      7  H1  UNL     1       6.889  50.876  73.189  1.00  0.00     0.161 HD
BRANCH   6   8
HETATM    8  C6  UNL     1       5.810  52.620  72.598  1.00  0.00     0.167 C 
HETATM    9  S1  UNL     1       4.662  52.401  73.748  1.00  0.00    -0.041 SA
BRANCH   8  10
HETATM   10  N2  UNL     1       5.724  53.679  71.659  1.00  0.00    -0.367 N 
ATOM     11  H2  UNL     1       5.908  53.492  70.673  1.00  0.00     0.161 HD
BRANCH  10  12
HETATM   12  C7  UNL     1       5.382  55.006  72.074  1.00  0.00     0.132 C 
BRANCH  12  13
HETATM   13  C8  UNL     1       4.499  55.730  71.109  1.00  0.00    -0.020 C 
HETATM   14  C9  UNL     1       5.112  57.037  70.619  1.00  0.00     0.016 C 
HETATM   15  C10 UNL     1       4.295  57.226  69.332  1.00  0.00    -0.013 C 
HETATM   16  C11 UNL     1       2.855  57.400  69.716  1.00  0.00     0.009 C 
HETATM   17  C15 UNL     1       4.550  55.857  68.685  1.00  0.00     0.010 C 
HETATM   18  C12 UNL     1       2.314  56.239  70.491  1.00  0.00    -0.013 C 
HETATM   19  C13 UNL     1       2.638  54.900  69.826  1.00  0.00     0.010 C 
HETATM   20  C16 UNL     1       3.180  56.106  71.753  1.00  0.00     0.016 C 
HETATM   21  C14 UNL     1       4.173  54.957  69.872  1.00  0.00    -0.004 C 
ENDBRANCH  12  13
ENDBRANCH  10  12
ENDBRANCH   8  10
ENDBRANCH   6   8
ENDBRANCH   5   6
ENDBRANCH   4   5
ENDBRANCH   3   4
TORSDOF 7
ENDMDL
MODEL 2
REMARK VINA RESULT: -5.852981973      1.150      1.719
REMARK  7 active torsions:
REMARK  status: ('A' for Active; 'I' for Inactive)
REMARK    1  A    between atoms: C3_3  and  C4_4 
REMARK    2  A    between atoms: C4_4  and  C5_5 
REMARK    3  A    between atoms: C5_5  and  N1_6 
REMARK    4  A    between atoms: N1_6  and  C6_8 
REMARK    5  A    between atoms: C6_8  and  N2_10 
REMARK    6  A    between atoms: N2_10  and  C7_12 
REMARK    7  A    between atoms: C7_12  and  C8_13 
ROOT
HETATM    1  C1  UNL     1       7.671  46.310  70.149  1.00  0.00     0.012 C 
HETATM    2  C2  UNL     1       8.314  46.995  70.904  1.00  0.00    -0.117 C 
HETATM    3  C3  UNL     1       9.094  47.846  71.829  1.00  0.00     0.094 C 
ENDROOT
BRANCH   3   4
HETATM    4  C4  UNL     1       8.789  49.265  71.483  1.00  0.00     0.032 C 
BRANCH   4   5
HETATM    5  C5  UNL     1       8.268  50.046  72.668  1.00  0.00     0.123 C 
BRANCH   5   6
HETATM    6  N1  UNL     1       7.944  51.398  72.212  1.00  0.00    -0.367 N 
ATOM      7  H1  UNL     1       8.589  51.925  71.624  1.00  0.00     0.161 HD
BRANCH   6   8
HETATM    8  C6  UNL     1       6.700  51.952  72.616  1.00  0.00     0.167 C 
HETATM    9  S1  UNL     1       5.882  51.154  73.793  1.00  0.00    -0.041 SA
BRANCH   8  10
HETATM   10  N2  UNL     1       6.187  53.137  72.033  1.00  0.00    -0.367 N 
ATOM     11  H2  UNL     1       6.817  53.766  71.533  1.00  0.00     0.161 HD
BRANCH  10  12
HETATM   12  C7  UNL     1       4.796  53.466  72.133  1.00  0.00     0.132 C 
BRANCH  12  13
HETATM   13  C8  UNL     1       4.507  54.921  71.946  1.00  0.00    -0.020 C 
HETATM   14  C9  UNL     1       5.736  55.797  72.167  1.00  0.00     0.016 C 
HETATM   15  C10 UNL     1       5.284  57.053  71.408  1.00  0.00    -0.013 C 
HETATM   16  C11 UNL     1       4.077  57.609  72.106  1.00  0.00     0.009 C 
HETATM   17  C15 UNL     1       4.915  56.403  70.067  1.00  0.00     0.010 C 
HETATM   18  C12 UNL     1       2.946  56.631  72.182  1.00  0.00    -0.013 C 
HETATM   19  C13 UNL     1       2.655  55.978  70.830  1.00  0.00     0.010 C 
HETATM   20  C16 UNL     1       3.472  55.404  72.942  1.00  0.00     0.016 C 
HETATM   21  C14 UNL     1       4.002  55.281  70.587  1.00  0.00    -0.004 C 
ENDBRANCH  12  13
ENDBRANCH  10  12
ENDBRANCH   8  10
ENDBRANCH   6   8
ENDBRANCH   5   6
ENDBRANCH   4   5
ENDBRANCH   3   4
TORSDOF 7
ENDMDL
MODEL 3
REMARK VINA RESULT: -5.835947631      0.892      1.616
REMARK  7 active torsions:
REMARK  status: ('A' for Active; 'I' for Inactive)
REMARK    1  A    between atoms: C3_3  and  C4_4 
REMARK    2  A    between atoms: C4_4  and  C5_5 
REMARK    3  A    between atoms: C5_5  and  N1_6 
REMARK    4  A    between atoms: N1_6  and  C6_8 
REMARK    5  A    between atoms: C6_8  and  N2_10 
REMARK    6  A    between atoms: N2_10  and  C7_12 
REMARK    7  A    between atoms: C7_12  and  C8_13 
ROOT
HETATM    1  C1  UNL     1       8.711  47.057  70.711  1.00  0.00     0.012 C 
HETATM    2  C2  UNL     1       8.278  47.605  71.693  1.00  0.00    -0.117 C 
HETATM    3  C3  UNL     1       7.745  48.289  72.892  1.00  0.00     0.094 C 
ENDROOT
BRANCH   3   4
HETATM    4  C4  UNL     1       8.076  49.737  72.755  1.00  0.00     0.032 C 
BRANCH   4   5
HETATM    5  C5  UNL     1       6.969  50.630  73.267  1.00  0.00     0.123 C 
BRANCH   5   6
HETATM    6  N1  UNL     1       7.006  51.879  72.505  1.00  0.00    -0.367 N 
ATOM      7  H1  UNL     1       7.827  52.140  71.959  1.00  0.00     0.161 HD
BRANCH   6   8
HETATM    8  C6  UNL     1       5.858  52.715  72.551  1.00  0.00     0.167 C 
HETATM    9  S1  UNL     1       4.743  52.378  73.705  1.00  0.00    -0.041 SA
BRANCH   8  10
HETATM   10  N2  UNL     1       5.683  53.790  71.644  1.00  0.00    -0.367 N 
ATOM     11  H2  UNL     1       5.745  53.617  70.640  1.00  0.00     0.161 HD
BRANCH  10  12
HETATM   12  C7  UNL     1       5.420  55.117  72.116  1.00  0.00     0.132 C 
BRANCH  12  13
HETATM   13  C8  UNL     1       4.467  55.883  71.255  1.00  0.00    -0.020 C 
HETATM   14  C9  UNL     1       3.455  56.683  72.068  1.00  0.00     0.016 C 
HETATM   15  C10 UNL     1       3.036  57.707  71.002  1.00  0.00    -0.013 C 
HETATM   16  C11 UNL     1       2.378  56.964  69.876  1.00  0.00     0.009 C 
HETATM   17  C15 UNL     1       4.427  58.222  70.606  1.00  0.00     0.010 C 
HETATM   18  C12 UNL     1       3.269  55.931  69.260  1.00  0.00    -0.013 C 
HETATM   19  C13 UNL     1       4.656  56.485  68.931  1.00  0.00     0.010 C 
HETATM   20  C16 UNL     1       3.652  54.952  70.380  1.00  0.00     0.016 C 
HETATM   21  C14 UNL     1       5.117  56.874  70.345  1.00  0.00    -0.004 C 
ENDBRANCH  12  13
ENDBRANCH  10  12
ENDBRANCH   8  10
ENDBRANCH   6   8
ENDBRANCH   5   6
ENDBRANCH   4   5
ENDBRANCH   3   4
TORSDOF 7
ENDMDL
MODEL 4
REMARK VINA RESULT: -5.815602315      2.856      4.091
REMARK  7 active torsions:
REMARK  status: ('A' for Active; 'I' for Inactive)
REMARK    1  A    between atoms: C3_3  and  C4_4 
REMARK    2  A    between atoms: C4_4  and  C5_5 
REMARK    3  A    between atoms: C5_5  and  N1_6 
REMARK    4  A    between atoms: N1_6  and  C6_8 
REMARK    5  A    between atoms: C6_8  and  N2_10 
REMARK    6  A    between atoms: N2_10  and  C7_12 
REMARK    7  A    between atoms: C7_12  and  C8_13 
ROOT
HETATM    1  C1  UNL     1       6.659  45.595  69.987  1.00  0.00     0.012 C 
HETATM    2  C2  UNL     1       7.621  46.253  70.297  1.00  0.00    -0.117 C 
HETATM    3  C3  UNL     1       8.802  47.053  70.689  1.00  0.00     0.094 C 
ENDROOT
BRANCH   3   4
HETATM    4  C4  UNL     1       8.883  47.016  72.178  1.00  0.00     0.032 C 
BRANCH   4   5
HETATM    5  C5  UNL     1       7.799  47.842  72.832  1.00  0.00     0.123 C 
BRANCH   5   6
HETATM    6  N1  UNL     1       8.404  49.086  73.310  1.00  0.00    -0.367 N 
ATOM      7  H1  UNL     1       9.114  49.081  74.041  1.00  0.00     0.161 HD
BRANCH   6   8
HETATM    8  C6  UNL     1       7.968  50.302  72.718  1.00  0.00     0.167 C 
HETATM    9  S1  UNL     1       8.907  50.924  71.527  1.00  0.00    -0.041 SA
BRANCH   8  10
HETATM   10  N2  UNL     1       6.778  50.949  73.137  1.00  0.00    -0.367 N 
ATOM     11  H2  UNL     1       6.188  50.509  73.843  1.00  0.00     0.161 HD
BRANCH  10  12
HETATM   12  C7  UNL     1       6.393  52.213  72.582  1.00  0.00     0.132 C 
BRANCH  12  13
HETATM   13  C8  UNL     1       5.014  52.643  72.968  1.00  0.00    -0.020 C 
HETATM   14  C9  UNL     1       4.829  54.155  72.896  1.00  0.00     0.016 C 
HETATM   15  C10 UNL     1       3.297  54.212  72.801  1.00  0.00    -0.013 C 
HETATM   16  C11 UNL     1       2.730  53.645  74.070  1.00  0.00     0.009 C 
HETATM   17  C15 UNL     1       3.096  53.260  71.614  1.00  0.00     0.010 C 
HETATM   18  C12 UNL     1       3.167  52.236  74.325  1.00  0.00    -0.013 C 
HETATM   19  C13 UNL     1       2.990  51.345  73.095  1.00  0.00     0.010 C 
HETATM   20  C16 UNL     1       4.702  52.255  74.399  1.00  0.00     0.016 C 
HETATM   21  C14 UNL     1       3.928  52.070  72.117  1.00  0.00    -0.004 C 
ENDBRANCH  12  13
ENDBRANCH  10  12
ENDBRANCH   8  10
ENDBRANCH   6   8
ENDBRANCH   5   6
ENDBRANCH   4   5
ENDBRANCH   3   4
TORSDOF 7
ENDMDL
MODEL 5
REMARK VINA RESULT: -5.785113297      1.284      2.280
REMARK  7 active torsions:
REMARK  status: ('A' for Active; 'I' for Inactive)
REMARK    1  A    between atoms: C3_3  and  C4_4 
REMARK    2  A    between atoms: C4_4  and  C5_5 
REMARK    3  A    between atoms: C5_5  and  N1_6 
REMARK    4  A    between atoms: N1_6  and  C6_8 
REMARK    5  A    between atoms: C6_8  and  N2_10 
REMARK    6  A    between atoms: N2_10  and  C7_12 
REMARK    7  A    between atoms: C7_12  and  C8_13 
ROOT
HETATM    1  C1  UNL     1       7.662  46.231  69.958  1.00  0.00     0.012 C 
HETATM    2  C2  UNL     1       8.238  46.771  70.868  1.00  0.00    -0.117 C 
HETATM    3  C3  UNL     1       8.939  47.445  71.984  1.00  0.00     0.094 C 
ENDROOT
BRANCH   3   4
HETATM    4  C4  UNL     1       8.782  48.914  71.778  1.00  0.00     0.032 C 
BRANCH   4   5
HETATM    5  C5  UNL     1       8.037  49.577  72.913  1.00  0.00     0.123 C 
BRANCH   5   6
HETATM    6  N1  UNL     1       7.809  50.976  72.549  1.00  0.00    -0.367 N 
ATOM      7  H1  UNL     1       8.508  51.507  72.029  1.00  0.00     0.161 HD
BRANCH   6   8
HETATM    8  C6  UNL     1       6.580  51.570  72.944  1.00  0.00     0.167 C 
HETATM    9  S1  UNL     1       5.768  50.844  74.169  1.00  0.00    -0.041 SA
BRANCH   8  10
HETATM   10  N2  UNL     1       6.078  52.734  72.310  1.00  0.00    -0.367 N 
ATOM     11  H2  UNL     1       6.555  53.106  71.489  1.00  0.00     0.161 HD
BRANCH  10  12
HETATM   12  C7  UNL     1       4.908  53.396  72.806  1.00  0.00     0.132 C 
BRANCH  12  13
HETATM   13  C8  UNL     1       4.477  54.559  71.972  1.00  0.00    -0.020 C 
HETATM   14  C9  UNL     1       4.272  54.188  70.507  1.00  0.00     0.016 C 
HETATM   15  C10 UNL     1       3.365  55.351  70.081  1.00  0.00    -0.013 C 
HETATM   16  C11 UNL     1       4.144  56.625  70.224  1.00  0.00     0.009 C 
HETATM   17  C15 UNL     1       2.285  55.220  71.164  1.00  0.00     0.010 C 
HETATM   18  C12 UNL     1       4.635  56.855  71.620  1.00  0.00    -0.013 C 
HETATM   19  C13 UNL     1       3.531  56.664  72.660  1.00  0.00     0.010 C 
HETATM   20  C16 UNL     1       5.525  55.654  71.978  1.00  0.00     0.016 C 
HETATM   21  C14 UNL     1       3.191  55.187  72.405  1.00  0.00    -0.004 C 
ENDBRANCH  12  13
ENDBRANCH  10  12
ENDBRANCH   8  10
ENDBRANCH   6   8
ENDBRANCH   5   6
ENDBRANCH   4   5
ENDBRANCH   3   4
TORSDOF 7
ENDMDL
