MODEL 1
REMARK VINA RESULT: -5.902453850      0.000      0.000
REMARK  8 active torsions:
REMARK  status: ('A' for Active; 'I' for Inactive)
REMARK    1  A    between atoms: N1_1  and  C1_4 
REMARK    2  A    between atoms: C2_9  and  C3_10 
REMARK    3  A    between atoms: C3_10  and  S1_11 
REMARK    4  A    between atoms: S1_11  and  C4_12 
REMARK    5  A    between atoms: C4_12  and  C5_13 
REMARK    6  A    between atoms: C5_13  and  O1_14 
REMARK    7  A    between atoms: C5_13  and  O2_16 
REMARK    8  A    between atoms: N6_26  and  N7_27 
ROOT
HETATM    1  C3  UNL     1     127.041-112.107 101.132  1.00  0.00     0.322 C 
HETATM    2  N4  UNL     1     125.854-112.992 101.166  1.00  0.00    -0.015 N 
ATOM      3  H41 UNL     1     126.113-113.977 101.114  1.00  0.00     0.283 HD
ATOM      4  H42 UNL     1     125.311-112.934 100.304  1.00  0.00     0.283 HD
HETATM    5  C6  UNL     1     125.041-112.701 102.344  1.00  0.00     0.363 C 
HETATM    6  N5  UNL     1     125.804-113.246 103.455  1.00  0.00    -0.318 N 
ATOM      7  H5  UNL     1     125.441-113.943 104.107  1.00  0.00     0.166 HD
HETATM    8  C7  UNL     1     127.122-112.695 103.531  1.00  0.00     0.341 C 
HETATM    9  O3  UNL     1     127.853-112.958 104.530  1.00  0.00    -0.245 OA
HETATM   10  N6  UNL     1     127.532-111.877 102.464  1.00  0.00    -0.196 N 
ENDROOT
BRANCH   1  11
HETATM   11  C2  UNL     1     128.072-112.847 100.376  1.00  0.00     0.139 A 
HETATM   12  N3  UNL     1     128.411-112.832  99.108  1.00  0.00    -0.291 N 
HETATM   13  N2  UNL     1     129.290-113.618  98.650  1.00  0.00    -0.279 N 
ATOM     14  H3  UNL     1     127.956-112.171  98.478  1.00  0.00     0.187 HD
HETATM   15  C1  UNL     1     129.885-114.483  99.480  1.00  0.00     0.158 A 
ATOM     16  H2  UNL     1     129.540-113.594  97.662  1.00  0.00     0.189 HD
HETATM   17  S2  UNL     1     129.116-114.110 100.964  1.00  0.00    -0.033 SA
BRANCH  15  18
HETATM   18  N1  UNL     1     130.799-115.376  99.207  1.00  0.00    -0.379 N 
ATOM     19  H12 UNL     1     131.326-115.535  98.349  1.00  0.00     0.158 HD
ATOM     20  H11 UNL     1     131.182-116.100  99.815  1.00  0.00     0.158 HD
ENDBRANCH  15  18
ENDBRANCH   1  11
BRANCH   1  21
HETATM   21  S1  UNL     1     126.613-110.543 100.393  1.00  0.00    -0.095 SA
BRANCH  21  22
HETATM   22  C4  UNL     1     125.211-110.581  99.293  1.00  0.00     0.139 C 
BRANCH  22  23
HETATM   23  C5  UNL     1     125.431-111.244  97.973  1.00  0.00     0.263 C 
BRANCH  23  24
HETATM   24  O1  UNL     1     125.495-112.609  97.995  1.00  0.00    -0.371 OA
ATOM     25  H1  UNL     1     126.298-112.991  97.659  1.00  0.00     0.212 HD
ENDBRANCH  23  24
BRANCH  23  26
HETATM   26  O2  UNL     1     124.429-110.792  97.074  1.00  0.00    -0.371 OA
ATOM     27  H2  UNL     1     124.812-110.132  96.509  1.00  0.00     0.212 HD
ENDBRANCH  23  26
ENDBRANCH  22  23
ENDBRANCH  21  22
ENDBRANCH   1  21
BRANCH  10  28
HETATM   28  N7  UNL     1     128.430-110.839 102.698  1.00  0.00    -0.336 N 
ATOM     29  H72 UNL     1     129.086-110.564 101.967  1.00  0.00     0.177 HD
ATOM     30  H71 UNL     1     128.420-110.356 103.596  1.00  0.00     0.177 HD
ENDBRANCH  10  28
TORSDOF 8
ENDMDL
MODEL 2
REMARK VINA RESULT: -5.867858164      2.501      5.048
REMARK  8 active torsions:
REMARK  status: ('A' for Active; 'I' for Inactive)
REMARK    1  A    between atoms: N1_1  and  C1_4 
REMARK    2  A    between atoms: C2_9  and  C3_10 
REMARK    3  A    between atoms: C3_10  and  S1_11 
REMARK    4  A    between atoms: S1_11  and  C4_12 
REMARK    5  A    between atoms: C4_12  and  C5_13 
REMARK    6  A    between atoms: C5_13  and  O1_14 
REMARK    7  A    between atoms: C5_13  and  O2_16 
REMARK    8  A    between atoms: N6_26  and  N7_27 
ROOT
HETATM    1  C3  UNL     1     127.760-111.566  99.622  1.00  0.00     0.322 C 
HETATM    2  N4  UNL     1     128.137-112.750  98.817  1.00  0.00    -0.015 N 
ATOM      3  H41 UNL     1     127.616-113.582  99.095  1.00  0.00     0.283 HD
ATOM      4  H42 UNL     1     129.077-113.079  99.040  1.00  0.00     0.283 HD
HETATM    5  C6  UNL     1     127.983-112.461  97.393  1.00  0.00     0.363 C 
HETATM    6  N5  UNL     1     126.546-112.447  97.178  1.00  0.00    -0.318 N 
ATOM      7  H5  UNL     1     126.066-113.045  96.505  1.00  0.00     0.166 HD
HETATM    8  C7  UNL     1     125.880-111.501  98.019  1.00  0.00     0.341 C 
HETATM    9  O3  UNL     1     124.650-111.266  97.844  1.00  0.00    -0.245 OA
HETATM   10  N6  UNL     1     126.655-110.876  99.012  1.00  0.00    -0.196 N 
ENDROOT
BRANCH   1  11
HETATM   11  C2  UNL     1     127.316-112.095 100.928  1.00  0.00     0.139 A 
HETATM   12  N3  UNL     1     126.561-111.584 101.872  1.00  0.00    -0.291 N 
HETATM   13  N2  UNL     1     126.366-112.191 102.965  1.00  0.00    -0.279 N 
ATOM     14  H3  UNL     1     126.121-110.676 101.721  1.00  0.00     0.187 HD
HETATM   15  C1  UNL     1     126.945-113.383 103.158  1.00  0.00     0.158 A 
ATOM     16  H2  UNL     1     125.778-111.779 103.688  1.00  0.00     0.189 HD
HETATM   17  S2  UNL     1     127.789-113.591 101.683  1.00  0.00    -0.033 SA
BRANCH  15  18
HETATM   18  N1  UNL     1     126.880-114.158 104.207  1.00  0.00    -0.379 N 
ATOM     19  H12 UNL     1     126.775-113.922 105.193  1.00  0.00     0.158 HD
ATOM     20  H11 UNL     1     126.912-115.177 104.248  1.00  0.00     0.158 HD
ENDBRANCH  15  18
ENDBRANCH   1  11
BRANCH   1  21
HETATM   21  S1  UNL     1     129.143-110.451  99.748  1.00  0.00    -0.095 SA
BRANCH  21  22
HETATM   22  C4  UNL     1     129.810-110.249 101.389  1.00  0.00     0.139 C 
BRANCH  22  23
HETATM   23  C5  UNL     1     129.093-109.283 102.273  1.00  0.00     0.263 C 
BRANCH  23  24
HETATM   24  O1  UNL     1     128.047-108.616 101.702  1.00  0.00    -0.371 OA
ATOM     25  H1  UNL     1     127.305-108.443 102.271  1.00  0.00     0.212 HD
ENDBRANCH  23  24
BRANCH  23  26
HETATM   26  O2  UNL     1     128.685-109.971 103.446  1.00  0.00    -0.371 OA
ATOM     27  H2  UNL     1     128.598-109.337 104.149  1.00  0.00     0.212 HD
ENDBRANCH  23  26
ENDBRANCH  22  23
ENDBRANCH  21  22
ENDBRANCH   1  21
BRANCH  10  28
HETATM   28  N7  UNL     1     126.345-109.581  99.416  1.00  0.00    -0.336 N 
ATOM     29  H72 UNL     1     127.090-108.954  99.719  1.00  0.00     0.177 HD
ATOM     30  H71 UNL     1     125.374-109.267  99.401  1.00  0.00     0.177 HD
ENDBRANCH  10  28
TORSDOF 8
ENDMDL
MODEL 3
REMARK VINA RESULT: -5.832529406      2.953      5.414
REMARK  8 active torsions:
REMARK  status: ('A' for Active; 'I' for Inactive)
REMARK    1  A    between atoms: N1_1  and  C1_4 
REMARK    2  A    between atoms: C2_9  and  C3_10 
REMARK    3  A    between atoms: C3_10  and  S1_11 
REMARK    4  A    between atoms: S1_11  and  C4_12 
REMARK    5  A    between atoms: C4_12  and  C5_13 
REMARK    6  A    between atoms: C5_13  and  O1_14 
REMARK    7  A    between atoms: C5_13  and  O2_16 
REMARK    8  A    between atoms: N6_26  and  N7_27 
ROOT
HETATM    1  C3  UNL     1     127.326-112.262 101.758  1.00  0.00     0.322 C 
HETATM    2  N4  UNL     1     128.229-113.434 101.682  1.00  0.00    -0.015 N 
ATOM      3  H41 UNL     1     127.711-114.310 101.616  1.00  0.00     0.283 HD
ATOM      4  H42 UNL     1     128.703-113.607 102.569  1.00  0.00     0.283 HD
HETATM    5  C6  UNL     1     129.174-113.273 100.580  1.00  0.00     0.363 C 
HETATM    6  N5  UNL     1     128.375-113.482  99.384  1.00  0.00    -0.318 N 
ATOM      7  H5  UNL     1     128.582-114.189  98.678  1.00  0.00     0.166 HD
HETATM    8  C7  UNL     1     127.265-112.584  99.308  1.00  0.00     0.341 C 
HETATM    9  O3  UNL     1     126.565-112.542  98.255  1.00  0.00    -0.245 OA
HETATM   10  N6  UNL     1     127.014-111.784 100.437  1.00  0.00    -0.196 N 
ENDROOT
BRANCH   1  11
HETATM   11  C2  UNL     1     126.082-112.755 102.382  1.00  0.00     0.139 A 
HETATM   12  N3  UNL     1     125.079-113.457 101.907  1.00  0.00    -0.291 N 
HETATM   13  N2  UNL     1     124.058-113.709 102.609  1.00  0.00    -0.279 N 
ATOM     14  H3  UNL     1     125.125-113.807 100.950  1.00  0.00     0.187 HD
HETATM   15  C1  UNL     1     124.002-113.250 103.865  1.00  0.00     0.158 A 
ATOM     16  H2  UNL     1     123.287-114.255 102.225  1.00  0.00     0.189 HD
HETATM   17  S2  UNL     1     125.501-112.429 103.990  1.00  0.00    -0.033 SA
BRANCH  15  18
HETATM   18  N1  UNL     1     123.044-113.389 104.742  1.00  0.00    -0.379 N 
ATOM     19  H12 UNL     1     122.834-114.167 105.367  1.00  0.00     0.158 HD
ATOM     20  H11 UNL     1     122.306-112.729 104.988  1.00  0.00     0.158 HD
ENDBRANCH  15  18
ENDBRANCH   1  11
BRANCH   1  21
HETATM   21  S1  UNL     1     128.106-110.952 102.680  1.00  0.00    -0.095 SA
BRANCH  21  22
HETATM   22  C4  UNL     1     129.301-109.990 101.771  1.00  0.00     0.139 C 
BRANCH  22  23
HETATM   23  C5  UNL     1     129.611-108.638 102.324  1.00  0.00     0.263 C 
BRANCH  23  24
HETATM   24  O1  UNL     1     130.568-107.927 101.657  1.00  0.00    -0.371 OA
ATOM     25  H1  UNL     1     130.581-106.992 101.824  1.00  0.00     0.212 HD
ENDBRANCH  23  24
BRANCH  23  26
HETATM   26  O2  UNL     1     128.399-107.906 102.418  1.00  0.00    -0.371 OA
ATOM     27  H2  UNL     1     128.273-107.431 101.604  1.00  0.00     0.212 HD
ENDBRANCH  23  26
ENDBRANCH  22  23
ENDBRANCH  21  22
ENDBRANCH   1  21
BRANCH  10  28
HETATM   28  N7  UNL     1     126.451-110.522 100.277  1.00  0.00    -0.336 N 
ATOM     29  H72 UNL     1     127.044-109.732 100.023  1.00  0.00     0.177 HD
ATOM     30  H71 UNL     1     125.447-110.397 100.410  1.00  0.00     0.177 HD
ENDBRANCH  10  28
TORSDOF 8
ENDMDL
MODEL 4
REMARK VINA RESULT: -5.727916715      3.072      5.158
REMARK  8 active torsions:
REMARK  status: ('A' for Active; 'I' for Inactive)
REMARK    1  A    between atoms: N1_1  and  C1_4 
REMARK    2  A    between atoms: C2_9  and  C3_10 
REMARK    3  A    between atoms: C3_10  and  S1_11 
REMARK    4  A    between atoms: S1_11  and  C4_12 
REMARK    5  A    between atoms: C4_12  and  C5_13 
REMARK    6  A    between atoms: C5_13  and  O1_14 
REMARK    7  A    between atoms: C5_13  and  O2_16 
REMARK    8  A    between atoms: N6_26  and  N7_27 
ROOT
HETATM    1  C3  UNL     1     128.001-111.509 100.570  1.00  0.00     0.322 C 
HETATM    2  N4  UNL     1     129.184-111.895  99.767  1.00  0.00    -0.015 N 
ATOM      3  H41 UNL     1     129.374-112.896  99.825  1.00  0.00     0.283 HD
ATOM      4  H42 UNL     1     130.052-111.553 100.179  1.00  0.00     0.283 HD
HETATM    5  C6  UNL     1     129.023-111.449  98.385  1.00  0.00     0.363 C 
HETATM    6  N5  UNL     1     128.025-112.348  97.827  1.00  0.00    -0.318 N 
ATOM      7  H5  UNL     1     128.179-112.926  97.000  1.00  0.00     0.166 HD
HETATM    8  C7  UNL     1     126.803-112.330  98.569  1.00  0.00     0.341 C 
HETATM    9  O3  UNL     1     125.791-112.944  98.123  1.00  0.00    -0.245 OA
HETATM   10  N6  UNL     1     126.803-111.614  99.780  1.00  0.00    -0.196 N 
ENDROOT
BRANCH   1  11
HETATM   11  C2  UNL     1     127.923-112.495 101.667  1.00  0.00     0.139 A 
HETATM   12  N3  UNL     1     127.892-113.808 101.669  1.00  0.00    -0.291 N 
HETATM   13  N2  UNL     1     127.746-114.464 102.740  1.00  0.00    -0.279 N 
ATOM     14  H3  UNL     1     127.989-114.309 100.786  1.00  0.00     0.187 HD
HETATM   15  C1  UNL     1     127.621-113.801 103.897  1.00  0.00     0.158 A 
ATOM     16  H2  UNL     1     127.723-115.483 102.724  1.00  0.00     0.189 HD
HETATM   17  S2  UNL     1     127.724-112.176 103.367  1.00  0.00    -0.033 SA
BRANCH  15  18
HETATM   18  N1  UNL     1     127.452-114.285 105.098  1.00  0.00    -0.379 N 
ATOM     19  H12 UNL     1     127.663-115.211 105.469  1.00  0.00     0.158 HD
ATOM     20  H11 UNL     1     127.076-113.820 105.924  1.00  0.00     0.158 HD
ENDBRANCH  15  18
ENDBRANCH   1  11
BRANCH   1  21
HETATM   21  S1  UNL     1     128.175-109.831 101.141  1.00  0.00    -0.095 SA
BRANCH  21  22
HETATM   22  C4  UNL     1     129.812-109.378 101.681  1.00  0.00     0.139 C 
BRANCH  22  23
HETATM   23  C5  UNL     1     129.912-108.128 102.492  1.00  0.00     0.263 C 
BRANCH  23  24
HETATM   24  O1  UNL     1     130.454-107.047 101.855  1.00  0.00    -0.371 OA
ATOM     25  H1  UNL     1     130.317-106.206 102.276  1.00  0.00     0.212 HD
ENDBRANCH  23  24
BRANCH  23  26
HETATM   26  O2  UNL     1     128.625-107.827 103.009  1.00  0.00    -0.371 OA
ATOM     27  H2  UNL     1     128.018-107.763 102.280  1.00  0.00     0.212 HD
ENDBRANCH  23  26
ENDBRANCH  22  23
ENDBRANCH  21  22
ENDBRANCH   1  21
BRANCH  10  28
HETATM   28  N7  UNL     1     125.631-111.008 100.222  1.00  0.00    -0.336 N 
ATOM     29  H72 UNL     1     124.729-111.347  99.888  1.00  0.00     0.177 HD
ATOM     30  H71 UNL     1     125.683-110.232 100.883  1.00  0.00     0.177 HD
ENDBRANCH  10  28
TORSDOF 8
ENDMDL
MODEL 5
REMARK VINA RESULT: -5.654500444      2.802      5.423
REMARK  8 active torsions:
REMARK  status: ('A' for Active; 'I' for Inactive)
REMARK    1  A    between atoms: N1_1  and  C1_4 
REMARK    2  A    between atoms: C2_9  and  C3_10 
REMARK    3  A    between atoms: C3_10  and  S1_11 
REMARK    4  A    between atoms: S1_11  and  C4_12 
REMARK    5  A    between atoms: C4_12  and  C5_13 
REMARK    6  A    between atoms: C5_13  and  O1_14 
REMARK    7  A    between atoms: C5_13  and  O2_16 
REMARK    8  A    between atoms: N6_26  and  N7_27 
ROOT
HETATM    1  C3  UNL     1     127.068-111.509 100.529  1.00  0.00     0.322 C 
HETATM    2  N4  UNL     1     128.206-112.393 100.186  1.00  0.00    -0.015 N 
ATOM      3  H41 UNL     1     127.996-113.374 100.373  1.00  0.00     0.283 HD
ATOM      4  H42 UNL     1     128.985-112.280 100.834  1.00  0.00     0.283 HD
HETATM    5  C6  UNL     1     128.613-112.177  98.799  1.00  0.00     0.363 C 
HETATM    6  N5  UNL     1     127.557-112.792  98.011  1.00  0.00    -0.318 N 
ATOM      7  H5  UNL     1     127.717-113.528  97.322  1.00  0.00     0.166 HD
HETATM    8  C7  UNL     1     126.269-112.248  98.310  1.00  0.00     0.341 C 
HETATM    9  O3  UNL     1     125.272-112.574  97.602  1.00  0.00    -0.245 OA
HETATM   10  N6  UNL     1     126.188-111.364  99.400  1.00  0.00    -0.196 N 
ENDROOT
BRANCH   1  11
HETATM   11  C2  UNL     1     126.334-112.201 101.607  1.00  0.00     0.139 A 
HETATM   12  N3  UNL     1     125.255-112.949 101.596  1.00  0.00    -0.291 N 
HETATM   13  N2  UNL     1     124.744-113.389 102.666  1.00  0.00    -0.279 N 
ATOM     14  H3  UNL     1     124.818-113.180 100.703  1.00  0.00     0.187 HD
HETATM   15  C1  UNL     1     125.321-113.084 103.835  1.00  0.00     0.158 A 
ATOM     16  H2  UNL     1     123.905-113.967 102.639  1.00  0.00     0.189 HD
HETATM   17  S2  UNL     1     126.643-112.127 103.319  1.00  0.00    -0.033 SA
BRANCH  15  18
HETATM   18  N1  UNL     1     124.949-113.426 105.039  1.00  0.00    -0.379 N 
ATOM     19  H12 UNL     1     124.476-114.268 105.367  1.00  0.00     0.158 HD
ATOM     20  H11 UNL     1     125.070-112.912 105.912  1.00  0.00     0.158 HD
ENDBRANCH  15  18
ENDBRANCH   1  11
BRANCH   1  21
HETATM   21  S1  UNL     1     127.670-109.902 101.006  1.00  0.00    -0.095 SA
BRANCH  21  22
HETATM   22  C4  UNL     1     129.268-109.893 101.797  1.00  0.00     0.139 C 
BRANCH  22  23
HETATM   23  C5  UNL     1     129.689-108.597 102.409  1.00  0.00     0.263 C 
BRANCH  23  24
HETATM   24  O1  UNL     1     130.431-107.774 101.610  1.00  0.00    -0.371 OA
ATOM     25  H1  UNL     1     130.957-107.124 102.060  1.00  0.00     0.212 HD
ENDBRANCH  23  24
BRANCH  23  26
HETATM   26  O2  UNL     1     128.530-107.935 102.893  1.00  0.00    -0.371 OA
ATOM     27  H2  UNL     1     128.471-107.088 102.467  1.00  0.00     0.212 HD
ENDBRANCH  23  26
ENDBRANCH  22  23
ENDBRANCH  21  22
ENDBRANCH   1  21
BRANCH  10  28
HETATM   28  N7  UNL     1     125.242-110.344  99.393  1.00  0.00    -0.336 N 
ATOM     29  H72 UNL     1     125.221-109.679  98.619  1.00  0.00     0.177 HD
ATOM     30  H71 UNL     1     124.571-110.272 100.158  1.00  0.00     0.177 HD
ENDBRANCH  10  28
TORSDOF 8
ENDMDL
