MODEL 1
REMARK VINA RESULT: -6.299969850      0.000      0.000
REMARK  9 active torsions:
REMARK  status: ('A' for Active; 'I' for Inactive)
REMARK    1  A    between atoms: N2_3  and  C2_5 
REMARK    2  A    between atoms: C5_12  and  N5_13 
REMARK    3  A    between atoms: N8_22  and  C7_23 
REMARK    4  A    between atoms: C7_23  and  C8_24 
REMARK    5  A    between atoms: C7_23  and  C9_27 
REMARK    6  A    between atoms: C8_24  and  O1_25 
REMARK    7  A    between atoms: C9_27  and  O2_28 
REMARK    8  A    between atoms: C9_27  and  C10_30 
REMARK    9  A    between atoms: C10_30  and  O3_31 
ROOT
HETATM    1  N1  UNL     1     128.339-114.390 105.593  1.00  0.00    -0.172 NA
HETATM    2  C1  UNL     1     127.554-114.168 104.764  1.00  0.00     0.183 C 
HETATM    3  N2  UNL     1     126.621-113.920 103.758  1.00  0.00    -0.277 N 
ATOM      4  H2  UNL     1     125.735-114.425 103.768  1.00  0.00     0.179 HD
ENDROOT
BRANCH   3   5
HETATM    5  C2  UNL     1     126.838-113.101 102.849  1.00  0.00     0.145 A 
HETATM    6  N3  UNL     1     128.148-112.911 102.503  1.00  0.00    -0.336 N 
HETATM    7  C3  UNL     1     128.461-112.073 101.520  1.00  0.00     0.182 A 
ATOM      8  H3  UNL     1     128.884-113.412 103.001  1.00  0.00     0.168 HD
HETATM    9  N4  UNL     1     127.479-111.425 100.879  1.00  0.00    -0.347 N 
HETATM   10  C4  UNL     1     126.180-111.594 101.198  1.00  0.00     0.109 A 
ATOM     11  H4  UNL     1     127.721-110.782 100.126  1.00  0.00     0.167 HD
HETATM   12  C5  UNL     1     125.200-110.922 100.506  1.00  0.00     0.144 A 
HETATM   13  C11 UNL     1     125.806-112.461 102.222  1.00  0.00     0.127 A 
HETATM   14  N6  UNL     1     123.935-111.147 100.862  1.00  0.00    -0.175 N 
HETATM   15  C6  UNL     1     123.593-112.003 101.872  1.00  0.00     0.680 A 
ATOM     16  H6  UNL     1     123.192-110.660 100.361  1.00  0.00     0.186 HD
HETATM   17  N7  UNL     1     122.315-112.086 102.023  1.00  0.00    -0.234 N 
HETATM   18  N8  UNL     1     124.511-112.686 102.586  1.00  0.00    -0.168 N 
ATOM     19  H72 UNL     1     121.621-111.569 101.483  1.00  0.00     0.174 HD
ATOM     20  H71 UNL     1     122.059-112.724 102.776  1.00  0.00     0.174 HD
BRANCH  12  21
HETATM   21  N5  UNL     1     125.539-110.115  99.553  1.00  0.00    -0.383 N 
ATOM     22  H52 UNL     1     124.969-109.957  98.722  1.00  0.00     0.157 HD
ATOM     23  H51 UNL     1     126.418-109.602  99.624  1.00  0.00     0.157 HD
ENDBRANCH  12  21
BRANCH  18  24
HETATM   24  C7  UNL     1     124.088-113.549 103.653  1.00  0.00     0.162 C 
BRANCH  24  25
HETATM   25  C8  UNL     1     122.834-114.311 103.317  1.00  0.00     0.193 C 
BRANCH  25  26
HETATM   26  O1  UNL     1     122.995-115.117 102.163  1.00  0.00    -0.399 OA
ATOM     27  H1  UNL     1     122.242-115.068 101.586  1.00  0.00     0.209 HD
ENDBRANCH  25  26
ENDBRANCH  24  25
BRANCH  24  28
HETATM   28  C9  UNL     1     123.644-112.593 104.820  1.00  0.00     0.167 C 
BRANCH  28  29
HETATM   29  O2  UNL     1     124.578-112.757 105.853  1.00  0.00    -0.391 OA
ATOM     30  H2  UNL     1     124.201-112.357 106.628  1.00  0.00     0.210 HD
ENDBRANCH  28  29
BRANCH  28  31
HETATM   31  C10 UNL     1     122.369-113.172 105.523  1.00  0.00     0.197 C 
BRANCH  31  32
HETATM   32  O3  UNL     1     122.606-113.400 106.853  1.00  0.00    -0.398 OA
ATOM     33  H3  UNL     1     123.262-112.801 107.189  1.00  0.00     0.209 HD
ENDBRANCH  31  32
ENDBRANCH  28  31
ENDBRANCH  24  28
ENDBRANCH  18  24
ENDBRANCH   3   5
TORSDOF 9
ENDMDL
MODEL 2
REMARK VINA RESULT: -6.053337710      1.411      4.137
REMARK  9 active torsions:
REMARK  status: ('A' for Active; 'I' for Inactive)
REMARK    1  A    between atoms: N2_3  and  C2_5 
REMARK    2  A    between atoms: C5_12  and  N5_13 
REMARK    3  A    between atoms: N8_22  and  C7_23 
REMARK    4  A    between atoms: C7_23  and  C8_24 
REMARK    5  A    between atoms: C7_23  and  C9_27 
REMARK    6  A    between atoms: C8_24  and  O1_25 
REMARK    7  A    between atoms: C9_27  and  O2_28 
REMARK    8  A    between atoms: C9_27  and  C10_30 
REMARK    9  A    between atoms: C10_30  and  O3_31 
ROOT
HETATM    1  N1  UNL     1     124.664-110.448  99.099  1.00  0.00    -0.172 NA
HETATM    2  C1  UNL     1     124.732-110.947 100.148  1.00  0.00     0.183 C 
HETATM    3  N2  UNL     1     124.817-111.523 101.415  1.00  0.00    -0.277 N 
ATOM      4  H2  UNL     1     123.984-111.555 102.001  1.00  0.00     0.179 HD
ENDROOT
BRANCH   3   5
HETATM    5  C2  UNL     1     125.879-111.999 101.849  1.00  0.00     0.145 A 
HETATM    6  N3  UNL     1     127.027-111.593 101.225  1.00  0.00    -0.336 N 
HETATM    7  C3  UNL     1     128.207-112.034 101.649  1.00  0.00     0.182 A 
ATOM      8  H3  UNL     1     126.977-110.951 100.433  1.00  0.00     0.168 HD
HETATM    9  N4  UNL     1     128.250-112.876 102.690  1.00  0.00    -0.347 N 
HETATM   10  C4  UNL     1     127.137-113.292 103.325  1.00  0.00     0.109 A 
ATOM     11  H4  UNL     1     129.156-113.214 103.014  1.00  0.00     0.167 HD
HETATM   12  C5  UNL     1     127.224-114.144 104.400  1.00  0.00     0.144 A 
HETATM   13  C11 UNL     1     125.878-112.856 102.914  1.00  0.00     0.127 A 
HETATM   14  N6  UNL     1     126.084-114.505 104.991  1.00  0.00    -0.175 N 
HETATM   15  C6  UNL     1     124.861-114.063 104.567  1.00  0.00     0.680 A 
ATOM     16  H6  UNL     1     126.126-115.136 105.792  1.00  0.00     0.186 HD
HETATM   17  N7  UNL     1     123.903-114.517 105.303  1.00  0.00    -0.234 N 
HETATM   18  N8  UNL     1     124.715-113.229 103.518  1.00  0.00    -0.168 N 
ATOM     19  H72 UNL     1     124.015-115.147 106.097  1.00  0.00     0.174 HD
ATOM     20  H71 UNL     1     122.991-114.188 104.987  1.00  0.00     0.174 HD
BRANCH  12  21
HETATM   21  N5  UNL     1     128.388-114.555 104.789  1.00  0.00    -0.383 N 
ATOM     22  H52 UNL     1     128.860-114.198 105.620  1.00  0.00     0.157 HD
ATOM     23  H51 UNL     1     128.871-115.271 104.246  1.00  0.00     0.157 HD
ENDBRANCH  12  21
BRANCH  18  24
HETATM   24  C7  UNL     1     123.400-112.824 103.106  1.00  0.00     0.162 C 
BRANCH  24  25
HETATM   25  C8  UNL     1     122.790-111.810 104.037  1.00  0.00     0.193 C 
BRANCH  25  26
HETATM   26  O1  UNL     1     122.090-112.423 105.106  1.00  0.00    -0.399 OA
ATOM     27  H1  UNL     1     122.332-113.335 105.213  1.00  0.00     0.209 HD
ENDBRANCH  25  26
ENDBRANCH  24  25
BRANCH  24  28
HETATM   28  C9  UNL     1     122.490-114.093 103.287  1.00  0.00     0.167 C 
BRANCH  28  29
HETATM   29  O2  UNL     1     122.828-114.983 102.258  1.00  0.00    -0.391 OA
ATOM     30  H2  UNL     1     122.011-115.287 101.880  1.00  0.00     0.210 HD
ENDBRANCH  28  29
BRANCH  28  31
HETATM   31  C10 UNL     1     121.018-113.754 102.870  1.00  0.00     0.197 C 
BRANCH  31  32
HETATM   32  O3  UNL     1     120.125-114.232 103.794  1.00  0.00    -0.398 OA
ATOM     33  H3  UNL     1     120.197-113.756 104.613  1.00  0.00     0.209 HD
ENDBRANCH  31  32
ENDBRANCH  28  31
ENDBRANCH  24  28
ENDBRANCH  18  24
ENDBRANCH   3   5
TORSDOF 9
ENDMDL
MODEL 3
REMARK VINA RESULT: -5.935321409      2.473      5.585
REMARK  9 active torsions:
REMARK  status: ('A' for Active; 'I' for Inactive)
REMARK    1  A    between atoms: N2_3  and  C2_5 
REMARK    2  A    between atoms: C5_12  and  N5_13 
REMARK    3  A    between atoms: N8_22  and  C7_23 
REMARK    4  A    between atoms: C7_23  and  C8_24 
REMARK    5  A    between atoms: C7_23  and  C9_27 
REMARK    6  A    between atoms: C8_24  and  O1_25 
REMARK    7  A    between atoms: C9_27  and  O2_28 
REMARK    8  A    between atoms: C9_27  and  C10_30 
REMARK    9  A    between atoms: C10_30  and  O3_31 
ROOT
HETATM    1  N1  UNL     1     124.692-110.802  98.478  1.00  0.00    -0.172 NA
HETATM    2  C1  UNL     1     125.074-111.136  99.525  1.00  0.00     0.183 C 
HETATM    3  N2  UNL     1     125.537-111.556 100.771  1.00  0.00    -0.277 N 
ATOM      4  H2  UNL     1     126.537-111.522 100.965  1.00  0.00     0.179 HD
ENDROOT
BRANCH   3   5
HETATM    5  C2  UNL     1     124.765-111.971 101.652  1.00  0.00     0.145 A 
HETATM    6  N3  UNL     1     123.446-111.640 101.508  1.00  0.00    -0.336 N 
HETATM    7  C3  UNL     1     122.552-112.071 102.392  1.00  0.00     0.182 A 
ATOM      8  H3  UNL     1     123.148-111.062 100.722  1.00  0.00     0.168 HD
HETATM    9  N4  UNL     1     122.964-112.829 103.418  1.00  0.00    -0.347 N 
HETATM   10  C4  UNL     1     124.256-113.172 103.583  1.00  0.00     0.109 A 
ATOM     11  H4  UNL     1     122.276-113.158 104.095  1.00  0.00     0.167 HD
HETATM   12  C5  UNL     1     124.637-113.965 104.639  1.00  0.00     0.144 A 
HETATM   13  C11 UNL     1     125.228-112.742 102.681  1.00  0.00     0.127 A 
HETATM   14  N6  UNL     1     125.929-114.279 104.736  1.00  0.00    -0.175 N 
HETATM   15  C6  UNL     1     126.864-113.843 103.837  1.00  0.00     0.680 A 
ATOM     16  H6  UNL     1     126.234-114.868 105.511  1.00  0.00     0.186 HD
HETATM   17  N7  UNL     1     128.042-114.292 104.111  1.00  0.00    -0.234 N 
HETATM   18  N8  UNL     1     126.549-113.062 102.785  1.00  0.00    -0.168 N 
ATOM     19  H72 UNL     1     128.280-114.883 104.907  1.00  0.00     0.174 HD
ATOM     20  H71 UNL     1     128.740-113.967 103.441  1.00  0.00     0.174 HD
BRANCH  12  21
HETATM   21  N5  UNL     1     123.742-114.368 105.482  1.00  0.00    -0.383 N 
ATOM     22  H52 UNL     1     122.890-113.847 105.688  1.00  0.00     0.157 HD
ATOM     23  H51 UNL     1     123.882-115.251 105.974  1.00  0.00     0.157 HD
ENDBRANCH  12  21
BRANCH  18  24
HETATM   24  C7  UNL     1     127.582-112.616 101.893  1.00  0.00     0.162 C 
BRANCH  24  25
HETATM   25  C8  UNL     1     128.475-113.738 101.435  1.00  0.00     0.193 C 
BRANCH  25  26
HETATM   26  O1  UNL     1     128.487-113.865 100.023  1.00  0.00    -0.399 OA
ATOM     27  H1  UNL     1     127.972-114.607  99.728  1.00  0.00     0.209 HD
ENDBRANCH  25  26
ENDBRANCH  24  25
BRANCH  24  28
HETATM   28  C9  UNL     1     128.532-111.713 102.762  1.00  0.00     0.167 C 
BRANCH  28  29
HETATM   29  O2  UNL     1     127.738-111.145 103.768  1.00  0.00    -0.391 OA
ATOM     30  H2  UNL     1     128.015-111.537 104.588  1.00  0.00     0.210 HD
ENDBRANCH  28  29
BRANCH  28  31
HETATM   31  C10 UNL     1     128.912-110.420 101.963  1.00  0.00     0.197 C 
BRANCH  31  32
HETATM   32  O3  UNL     1     127.793-109.807 101.462  1.00  0.00    -0.398 OA
ATOM     33  H3  UNL     1     127.680-110.009 100.541  1.00  0.00     0.209 HD
ENDBRANCH  31  32
ENDBRANCH  28  31
ENDBRANCH  24  28
ENDBRANCH  18  24
ENDBRANCH   3   5
TORSDOF 9
ENDMDL
MODEL 4
REMARK VINA RESULT: -5.926854667      2.759      4.999
REMARK  9 active torsions:
REMARK  status: ('A' for Active; 'I' for Inactive)
REMARK    1  A    between atoms: N2_3  and  C2_5 
REMARK    2  A    between atoms: C5_12  and  N5_13 
REMARK    3  A    between atoms: N8_22  and  C7_23 
REMARK    4  A    between atoms: C7_23  and  C8_24 
REMARK    5  A    between atoms: C7_23  and  C9_27 
REMARK    6  A    between atoms: C8_24  and  O1_25 
REMARK    7  A    between atoms: C9_27  and  O2_28 
REMARK    8  A    between atoms: C9_27  and  C10_30 
REMARK    9  A    between atoms: C10_30  and  O3_31 
ROOT
HETATM    1  N1  UNL     1     128.802-115.029 105.947  1.00  0.00    -0.172 NA
HETATM    2  C1  UNL     1     128.273-114.314 105.197  1.00  0.00     0.183 C 
HETATM    3  N2  UNL     1     127.638-113.440 104.316  1.00  0.00    -0.277 N 
ATOM      4  H2  UNL     1     128.195-112.744 103.821  1.00  0.00     0.179 HD
ENDROOT
BRANCH   3   5
HETATM    5  C2  UNL     1     126.412-113.486 104.116  1.00  0.00     0.145 A 
HETATM    6  N3  UNL     1     125.684-114.251 104.985  1.00  0.00    -0.336 N 
HETATM    7  C3  UNL     1     124.363-114.328 104.857  1.00  0.00     0.182 A 
ATOM      8  H3  UNL     1     126.155-114.762 105.732  1.00  0.00     0.168 HD
HETATM    9  N4  UNL     1     123.764-113.647 103.870  1.00  0.00    -0.347 N 
HETATM   10  C4  UNL     1     124.457-112.885 103.001  1.00  0.00     0.109 A 
ATOM     11  H4  UNL     1     122.751-113.708 103.773  1.00  0.00     0.167 HD
HETATM   12  C5  UNL     1     123.804-112.189 102.011  1.00  0.00     0.144 A 
HETATM   13  C11 UNL     1     125.843-112.776 103.097  1.00  0.00     0.127 A 
HETATM   14  N6  UNL     1     124.548-111.443 101.194  1.00  0.00    -0.175 N 
HETATM   15  C6  UNL     1     125.907-111.353 101.309  1.00  0.00     0.680 A 
ATOM     16  H6  UNL     1     124.083-110.917 100.453  1.00  0.00     0.186 HD
HETATM   17  N7  UNL     1     126.414-110.554 100.432  1.00  0.00    -0.234 N 
HETATM   18  N8  UNL     1     126.600-112.014 102.257  1.00  0.00    -0.168 N 
ATOM     19  H72 UNL     1     125.889-110.053  99.714  1.00  0.00     0.174 HD
ATOM     20  H71 UNL     1     127.428-110.486 100.517  1.00  0.00     0.174 HD
BRANCH  12  21
HETATM   21  N5  UNL     1     122.517-112.285 101.914  1.00  0.00    -0.383 N 
ATOM     22  H52 UNL     1     122.043-113.095 101.516  1.00  0.00     0.157 HD
ATOM     23  H51 UNL     1     121.934-111.517 102.248  1.00  0.00     0.157 HD
ENDBRANCH  12  21
BRANCH  18  24
HETATM   24  C7  UNL     1     128.031-111.899 102.307  1.00  0.00     0.162 C 
BRANCH  24  25
HETATM   25  C8  UNL     1     128.503-110.481 102.128  1.00  0.00     0.193 C 
BRANCH  25  26
HETATM   26  O1  UNL     1     128.786-109.855 103.367  1.00  0.00    -0.399 OA
ATOM     27  H1  UNL     1     128.067-109.311 103.664  1.00  0.00     0.209 HD
ENDBRANCH  25  26
ENDBRANCH  24  25
BRANCH  24  28
HETATM   28  C9  UNL     1     128.559-112.634 101.022  1.00  0.00     0.167 C 
BRANCH  28  29
HETATM   29  O2  UNL     1     129.060-113.874 101.444  1.00  0.00    -0.391 OA
ATOM     30  H2  UNL     1     129.895-113.995 101.007  1.00  0.00     0.210 HD
ENDBRANCH  28  29
BRANCH  28  31
HETATM   31  C10 UNL     1     129.890-111.964 100.537  1.00  0.00     0.197 C 
BRANCH  31  32
HETATM   32  O3  UNL     1     130.915-112.873 100.512  1.00  0.00    -0.398 OA
ATOM     33  H3  UNL     1     130.771-113.529  99.841  1.00  0.00     0.209 HD
ENDBRANCH  31  32
ENDBRANCH  28  31
ENDBRANCH  24  28
ENDBRANCH  18  24
ENDBRANCH   3   5
TORSDOF 9
ENDMDL
MODEL 5
REMARK VINA RESULT: -5.870802119      2.990      5.085
REMARK  9 active torsions:
REMARK  status: ('A' for Active; 'I' for Inactive)
REMARK    1  A    between atoms: N2_3  and  C2_5 
REMARK    2  A    between atoms: C5_12  and  N5_13 
REMARK    3  A    between atoms: N8_22  and  C7_23 
REMARK    4  A    between atoms: C7_23  and  C8_24 
REMARK    5  A    between atoms: C7_23  and  C9_27 
REMARK    6  A    between atoms: C8_24  and  O1_25 
REMARK    7  A    between atoms: C9_27  and  O2_28 
REMARK    8  A    between atoms: C9_27  and  C10_30 
REMARK    9  A    between atoms: C10_30  and  O3_31 
ROOT
HETATM    1  N1  UNL     1     129.843-114.525 100.426  1.00  0.00    -0.172 NA
HETATM    2  C1  UNL     1     129.190-113.730 100.969  1.00  0.00     0.183 C 
HETATM    3  N2  UNL     1     128.425-112.775 101.637  1.00  0.00    -0.277 N 
ATOM      4  H2  UNL     1     128.573-111.788 101.429  1.00  0.00     0.179 HD
ENDROOT
BRANCH   3   5
HETATM    5  C2  UNL     1     127.567-113.092 102.478  1.00  0.00     0.145 A 
HETATM    6  N3  UNL     1     128.000-113.849 103.532  1.00  0.00    -0.336 N 
HETATM    7  C3  UNL     1     127.150-114.205 104.489  1.00  0.00     0.182 A 
ATOM      8  H3  UNL     1     128.977-114.140 103.583  1.00  0.00     0.168 HD
HETATM    9  N4  UNL     1     125.871-113.811 104.403  1.00  0.00    -0.347 N 
HETATM   10  C4  UNL     1     125.418-113.065 103.377  1.00  0.00     0.109 A 
ATOM     11  H4  UNL     1     125.221-114.086 105.138  1.00  0.00     0.167 HD
HETATM   12  C5  UNL     1     124.102-112.667 103.333  1.00  0.00     0.144 A 
HETATM   13  C11 UNL     1     126.273-112.670 102.351  1.00  0.00     0.127 A 
HETATM   14  N6  UNL     1     123.723-111.918 102.298  1.00  0.00    -0.175 N 
HETATM   15  C6  UNL     1     124.582-111.544 101.302  1.00  0.00     0.680 A 
ATOM     16  H6  UNL     1     122.751-111.611 102.246  1.00  0.00     0.186 HD
HETATM   17  N7  UNL     1     124.005-110.800 100.421  1.00  0.00    -0.234 N 
HETATM   18  N8  UNL     1     125.881-111.906 101.292  1.00  0.00    -0.168 N 
ATOM     19  H72 UNL     1     123.023-110.526 100.429  1.00  0.00     0.174 HD
ATOM     20  H71 UNL     1     124.646-110.520  99.678  1.00  0.00     0.174 HD
BRANCH  12  21
HETATM   21  N5  UNL     1     123.300-113.030 104.281  1.00  0.00    -0.383 N 
ATOM     22  H52 UNL     1     123.429-113.879 104.832  1.00  0.00     0.157 HD
ATOM     23  H51 UNL     1     122.492-112.447 104.502  1.00  0.00     0.157 HD
ENDBRANCH  12  21
BRANCH  18  24
HETATM   24  C7  UNL     1     126.725-111.504 100.203  1.00  0.00     0.162 C 
BRANCH  24  25
HETATM   25  C8  UNL     1     126.696-110.016  99.967  1.00  0.00     0.193 C 
BRANCH  25  26
HETATM   26  O1  UNL     1     127.464-109.311 100.927  1.00  0.00    -0.399 OA
ATOM     27  H1  UNL     1     127.307-108.375 100.891  1.00  0.00     0.209 HD
ENDBRANCH  25  26
ENDBRANCH  24  25
BRANCH  24  28
HETATM   28  C9  UNL     1     126.061-112.099  98.909  1.00  0.00     0.167 C 
BRANCH  28  29
HETATM   29  O2  UNL     1     127.031-112.899  98.288  1.00  0.00    -0.391 OA
ATOM     30  H2  UNL     1     127.570-112.318  97.764  1.00  0.00     0.210 HD
ENDBRANCH  28  29
BRANCH  28  31
HETATM   31  C10 UNL     1     125.910-110.978  97.825  1.00  0.00     0.197 C 
BRANCH  31  32
HETATM   32  O3  UNL     1     124.615-110.895  97.383  1.00  0.00    -0.398 OA
ATOM     33  H3  UNL     1     124.433-111.570  96.739  1.00  0.00     0.209 HD
ENDBRANCH  31  32
ENDBRANCH  28  31
ENDBRANCH  24  28
ENDBRANCH  18  24
ENDBRANCH   3   5
TORSDOF 9
ENDMDL
