MODEL 1
REMARK VINA RESULT: -7.608489846      0.000      0.000
REMARK  8 active torsions:
REMARK  status: ('A' for Active; 'I' for Inactive)
REMARK    1  A    between atoms: N1_1  and  C1_4 
REMARK    2  A    between atoms: C3_8  and  O1_9 
REMARK    3  A    between atoms: C4_11  and  C5_12 
REMARK       I    between atoms: N3_13  and  C6_15 
REMARK    4  A    between atoms: C6_15  and  C7_17 
REMARK    5  A    between atoms: C7_17  and  N4_18 
REMARK    6  A    between atoms: C7_17  and  C8_22 
REMARK    7  A    between atoms: C8_22  and  N5_23 
REMARK    8  A    between atoms: N6_29  and  C10_30 
ROOT
HETATM    1  C1  UNL     1     126.112-110.264  98.827  1.00  0.00     0.678 A 
HETATM    2  N2  UNL     1     125.045-110.740  99.491  1.00  0.00    -0.185 N 
ATOM      3  H2  UNL     1     124.098-110.767  99.115  1.00  0.00     0.184 HD
HETATM    4  C2  UNL     1     125.385-111.173 100.706  1.00  0.00     0.128 A 
HETATM    5  C3  UNL     1     124.697-111.727 101.737  1.00  0.00     0.114 A 
HETATM    6  C4  UNL     1     125.368-112.075 102.898  1.00  0.00     0.084 A 
HETATM    7  C9  UNL     1     126.725-111.833 102.945  1.00  0.00     0.270 A 
HETATM    8  O3  UNL     1     127.365-112.143 104.002  1.00  0.00    -0.266 OA
HETATM    9  N6  UNL     1     127.427-111.286 101.939  1.00  0.00    -0.237 N 
HETATM   10  C11 UNL     1     126.743-110.960 100.822  1.00  0.00     0.163 A 
HETATM   11  N7  UNL     1     127.154-110.406  99.664  1.00  0.00    -0.174 N 
ATOM     12  H7  UNL     1     128.114-110.134  99.454  1.00  0.00     0.186 HD
ENDROOT
BRANCH   6  13
HETATM   13  C5  UNL     1     124.644-112.671 104.021  1.00  0.00     0.111 C 
HETATM   14  N3  UNL     1     124.170-113.861 103.871  1.00  0.00    -0.334 N 
HETATM   15  C6  UNL     1     123.473-114.417 104.974  1.00  0.00     0.253 C 
ATOM     16  H3  UNL     1     124.291-114.378 103.000  1.00  0.00     0.168 HD
HETATM   17  O2  UNL     1     124.062-115.259 105.693  1.00  0.00    -0.271 OA
BRANCH  15  18
HETATM   18  C7  UNL     1     122.083-113.978 105.224  1.00  0.00     0.300 C 
BRANCH  18  19
HETATM   19  N4  UNL     1     121.694-114.512 106.518  1.00  0.00    -0.065 N 
ATOM     20  H43 UNL     1     120.708-114.364 106.732  1.00  0.00     0.275 HD
ATOM     21  H42 UNL     1     121.681-115.532 106.544  1.00  0.00     0.275 HD
ATOM     22  H41 UNL     1     122.320-114.102 107.212  1.00  0.00     0.275 HD
ENDBRANCH  18  19
BRANCH  18  23
HETATM   23  C8  UNL     1     121.208-114.508 104.115  1.00  0.00     0.272 C 
BRANCH  23  24
HETATM   24  N5  UNL     1     120.960-113.438 103.186  1.00  0.00    -0.077 N 
ATOM     25  H53 UNL     1     120.721-113.776 102.253  1.00  0.00     0.274 HD
ATOM     26  H52 UNL     1     120.090-112.942 103.381  1.00  0.00     0.274 HD
ATOM     27  H51 UNL     1     121.772-112.820 103.184  1.00  0.00     0.274 HD
ENDBRANCH  23  24
ENDBRANCH  18  23
ENDBRANCH  15  18
ENDBRANCH   6  13
BRANCH   5  28
HETATM   28  O1  UNL     1     123.311-111.954 101.644  1.00  0.00    -0.357 OA
ATOM     29  H1  UNL     1     122.694-111.233 101.679  1.00  0.00     0.217 HD
ENDBRANCH   5  28
BRANCH   9  30
HETATM   30  C10 UNL     1     128.828-111.053 102.027  1.00  0.00     0.364 C 
HETATM   31  O4  UNL     1     129.657-111.770 101.419  1.00  0.00    -0.283 OA
ENDBRANCH   9  30
BRANCH   1  32
HETATM   32  N1  UNL     1     126.102-109.769  97.615  1.00  0.00    -0.234 N 
ATOM     33  H12 UNL     1     126.844-109.788  96.915  1.00  0.00     0.174 HD
ATOM     34  H11 UNL     1     125.325-109.273  97.178  1.00  0.00     0.174 HD
ENDBRANCH   1  32
TORSDOF 8
ENDMDL
MODEL 2
REMARK VINA RESULT: -7.544961774      1.444      2.917
REMARK  8 active torsions:
REMARK  status: ('A' for Active; 'I' for Inactive)
REMARK    1  A    between atoms: N1_1  and  C1_4 
REMARK    2  A    between atoms: C3_8  and  O1_9 
REMARK    3  A    between atoms: C4_11  and  C5_12 
REMARK       I    between atoms: N3_13  and  C6_15 
REMARK    4  A    between atoms: C6_15  and  C7_17 
REMARK    5  A    between atoms: C7_17  and  N4_18 
REMARK    6  A    between atoms: C7_17  and  C8_22 
REMARK    7  A    between atoms: C8_22  and  N5_23 
REMARK    8  A    between atoms: N6_29  and  C10_30 
ROOT
HETATM    1  C1  UNL     1     129.165-110.569 100.490  1.00  0.00     0.678 A 
HETATM    2  N2  UNL     1     129.058-111.122 101.710  1.00  0.00    -0.185 N 
ATOM      3  H2  UNL     1     129.844-111.288 102.338  1.00  0.00     0.184 HD
HETATM    4  C2  UNL     1     127.791-111.423 101.995  1.00  0.00     0.128 A 
HETATM    5  C3  UNL     1     127.172-111.981 103.067  1.00  0.00     0.114 A 
HETATM    6  C4  UNL     1     125.798-112.162 103.046  1.00  0.00     0.084 A 
HETATM    7  C9  UNL     1     125.121-111.759 101.914  1.00  0.00     0.270 A 
HETATM    8  O3  UNL     1     123.858-111.915 101.870  1.00  0.00    -0.266 OA
HETATM    9  N6  UNL     1     125.711-111.205 100.842  1.00  0.00    -0.237 N 
HETATM   10  C11 UNL     1     127.050-111.042 100.896  1.00  0.00     0.163 A 
HETATM   11  N7  UNL     1     127.915-110.528  99.999  1.00  0.00    -0.174 N 
ATOM     12  H7  UNL     1     127.658-110.162  99.082  1.00  0.00     0.186 HD
ENDROOT
BRANCH   6  13
HETATM   13  C5  UNL     1     125.114-112.763 104.191  1.00  0.00     0.111 C 
HETATM   14  N3  UNL     1     124.357-113.784 103.975  1.00  0.00    -0.334 N 
HETATM   15  C6  UNL     1     123.705-114.349 105.102  1.00  0.00     0.253 C 
ATOM     16  H3  UNL     1     124.233-114.168 103.038  1.00  0.00     0.168 HD
HETATM   17  O2  UNL     1     124.171-115.401 105.598  1.00  0.00    -0.271 OA
BRANCH  15  18
HETATM   18  C7  UNL     1     122.505-113.669 105.636  1.00  0.00     0.300 C 
BRANCH  18  19
HETATM   19  N4  UNL     1     122.470-113.928 107.065  1.00  0.00    -0.065 N 
ATOM     20  H43 UNL     1     123.318-114.376 107.411  1.00  0.00     0.275 HD
ATOM     21  H42 UNL     1     122.532-113.080 107.628  1.00  0.00     0.275 HD
ATOM     22  H41 UNL     1     121.625-114.471 107.250  1.00  0.00     0.275 HD
ENDBRANCH  18  19
BRANCH  18  23
HETATM   23  C8  UNL     1     121.290-114.225 104.937  1.00  0.00     0.272 C 
BRANCH  23  24
HETATM   24  N5  UNL     1     120.585-115.073 105.861  1.00  0.00    -0.077 N 
ATOM     25  H53 UNL     1     120.278-115.948 105.435  1.00  0.00     0.274 HD
ATOM     26  H52 UNL     1     121.198-115.473 106.572  1.00  0.00     0.274 HD
ATOM     27  H51 UNL     1     119.815-114.539 106.263  1.00  0.00     0.274 HD
ENDBRANCH  23  24
ENDBRANCH  18  23
ENDBRANCH  15  18
ENDBRANCH   6  13
BRANCH   5  28
HETATM   28  O1  UNL     1     127.905-112.378 104.201  1.00  0.00    -0.357 OA
ATOM     29  H1  UNL     1     127.531-112.314 105.072  1.00  0.00     0.217 HD
ENDBRANCH   5  28
BRANCH   9  30
HETATM   30  C10 UNL     1     124.976-110.801  99.693  1.00  0.00     0.364 C 
HETATM   31  O4  UNL     1     125.133-111.354  98.579  1.00  0.00    -0.283 OA
ENDBRANCH   9  30
BRANCH   1  32
HETATM   32  N1  UNL     1     130.276-110.167  99.925  1.00  0.00    -0.234 N 
ATOM     33  H12 UNL     1     131.069-110.727  99.614  1.00  0.00     0.174 HD
ATOM     34  H11 UNL     1     130.519-109.200  99.707  1.00  0.00     0.174 HD
ENDBRANCH   1  32
TORSDOF 8
ENDMDL
MODEL 3
REMARK VINA RESULT: -7.306112985      1.478      2.901
REMARK  8 active torsions:
REMARK  status: ('A' for Active; 'I' for Inactive)
REMARK    1  A    between atoms: N1_1  and  C1_4 
REMARK    2  A    between atoms: C3_8  and  O1_9 
REMARK    3  A    between atoms: C4_11  and  C5_12 
REMARK       I    between atoms: N3_13  and  C6_15 
REMARK    4  A    between atoms: C6_15  and  C7_17 
REMARK    5  A    between atoms: C7_17  and  N4_18 
REMARK    6  A    between atoms: C7_17  and  C8_22 
REMARK    7  A    between atoms: C8_22  and  N5_23 
REMARK    8  A    between atoms: N6_29  and  C10_30 
ROOT
HETATM    1  C1  UNL     1     129.057-111.369 101.104  1.00  0.00     0.678 A 
HETATM    2  N2  UNL     1     128.695-111.858 102.303  1.00  0.00    -0.185 N 
ATOM      3  H2  UNL     1     129.350-112.129 103.036  1.00  0.00     0.184 HD
HETATM    4  C2  UNL     1     127.369-111.942 102.409  1.00  0.00     0.128 A 
HETATM    5  C3  UNL     1     126.526-112.360 103.389  1.00  0.00     0.114 A 
HETATM    6  C4  UNL     1     125.158-112.319 103.177  1.00  0.00     0.084 A 
HETATM    7  C9  UNL     1     124.717-111.849 101.957  1.00  0.00     0.270 A 
HETATM    8  O3  UNL     1     123.463-111.802 101.737  1.00  0.00    -0.266 OA
HETATM    9  N6  UNL     1     125.531-111.431 100.973  1.00  0.00    -0.237 N 
HETATM   10  C11 UNL     1     126.858-111.483 101.213  1.00  0.00     0.163 A 
HETATM   11  N7  UNL     1     127.910-111.143 100.442  1.00  0.00    -0.174 N 
ATOM     12  H7  UNL     1     127.844-110.770  99.495  1.00  0.00     0.186 HD
ENDROOT
BRANCH   6  13
HETATM   13  C5  UNL     1     124.233-112.765 104.219  1.00  0.00     0.111 C 
HETATM   14  N3  UNL     1     123.941-114.019 104.271  1.00  0.00    -0.334 N 
HETATM   15  C6  UNL     1     123.043-114.427 105.291  1.00  0.00     0.253 C 
ATOM     16  H3  UNL     1     124.336-114.688 103.609  1.00  0.00     0.168 HD
HETATM   17  O2  UNL     1     123.510-114.983 106.313  1.00  0.00    -0.271 OA
BRANCH  15  18
HETATM   18  C7  UNL     1     121.597-114.176 105.101  1.00  0.00     0.300 C 
BRANCH  18  19
HETATM   19  N4  UNL     1     120.893-114.974 106.089  1.00  0.00    -0.065 N 
ATOM     20  H43 UNL     1     119.898-114.756 106.143  1.00  0.00     0.275 HD
ATOM     21  H42 UNL     1     120.797-115.953 105.819  1.00  0.00     0.275 HD
ATOM     22  H41 UNL     1     121.380-114.849 106.977  1.00  0.00     0.275 HD
ENDBRANCH  18  19
BRANCH  18  23
HETATM   23  C8  UNL     1     121.226-114.572 103.694  1.00  0.00     0.272 C 
BRANCH  23  24
HETATM   24  N5  UNL     1     120.908-113.378 102.957  1.00  0.00    -0.077 N 
ATOM     25  H53 UNL     1     119.935-113.352 102.653  1.00  0.00     0.274 HD
ATOM     26  H52 UNL     1     120.891-112.546 103.547  1.00  0.00     0.274 HD
ATOM     27  H51 UNL     1     121.565-113.296 102.181  1.00  0.00     0.274 HD
ENDBRANCH  23  24
ENDBRANCH  18  23
ENDBRANCH  15  18
ENDBRANCH   6  13
BRANCH   5  28
HETATM   28  O1  UNL     1     127.022-112.832 104.618  1.00  0.00    -0.357 OA
ATOM     29  H1  UNL     1     127.784-112.435 105.023  1.00  0.00     0.217 HD
ENDBRANCH   5  28
BRANCH   9  30
HETATM   30  C10 UNL     1     125.036-110.952  99.728  1.00  0.00     0.364 C 
HETATM   31  O4  UNL     1     125.439-109.876  99.226  1.00  0.00    -0.283 OA
ENDBRANCH   9  30
BRANCH   1  32
HETATM   32  N1  UNL     1     130.286-111.168 100.697  1.00  0.00    -0.234 N 
ATOM     33  H12 UNL     1     130.930-111.833 100.269  1.00  0.00     0.174 HD
ATOM     34  H11 UNL     1     130.797-110.287 100.753  1.00  0.00     0.174 HD
ENDBRANCH   1  32
TORSDOF 8
ENDMDL
MODEL 4
REMARK VINA RESULT: -7.235677524      2.024      3.296
REMARK  8 active torsions:
REMARK  status: ('A' for Active; 'I' for Inactive)
REMARK    1  A    between atoms: N1_1  and  C1_4 
REMARK    2  A    between atoms: C3_8  and  O1_9 
REMARK    3  A    between atoms: C4_11  and  C5_12 
REMARK       I    between atoms: N3_13  and  C6_15 
REMARK    4  A    between atoms: C6_15  and  C7_17 
REMARK    5  A    between atoms: C7_17  and  N4_18 
REMARK    6  A    between atoms: C7_17  and  C8_22 
REMARK    7  A    between atoms: C8_22  and  N5_23 
REMARK    8  A    between atoms: N6_29  and  C10_30 
ROOT
HETATM    1  C1  UNL     1     129.597-112.150 100.249  1.00  0.00     0.678 A 
HETATM    2  N2  UNL     1     128.897-112.827 101.175  1.00  0.00    -0.185 N 
ATOM      3  H2  UNL     1     129.299-113.509 101.817  1.00  0.00     0.184 HD
HETATM    4  C2  UNL     1     127.606-112.491 101.147  1.00  0.00     0.128 A 
HETATM    5  C3  UNL     1     126.515-112.877 101.856  1.00  0.00     0.114 A 
HETATM    6  C4  UNL     1     125.280-112.318 101.569  1.00  0.00     0.084 A 
HETATM    7  C9  UNL     1     125.225-111.383 100.556  1.00  0.00     0.270 A 
HETATM    8  O3  UNL     1     124.101-110.855 100.272  1.00  0.00    -0.266 OA
HETATM    9  N6  UNL     1     126.290-110.986  99.841  1.00  0.00    -0.237 N 
HETATM   10  C11 UNL     1     127.478-111.549 100.147  1.00  0.00     0.163 A 
HETATM   11  N7  UNL     1     128.706-111.365  99.621  1.00  0.00    -0.174 N 
ATOM     12  H7  UNL     1     128.925-110.724  98.858  1.00  0.00     0.186 HD
ENDROOT
BRANCH   6  13
HETATM   13  C5  UNL     1     124.092-112.722 102.321  1.00  0.00     0.111 C 
HETATM   14  N3  UNL     1     124.059-112.461 103.583  1.00  0.00    -0.334 N 
HETATM   15  C6  UNL     1     122.896-112.863 104.291  1.00  0.00     0.253 C 
ATOM     16  H3  UNL     1     124.833-111.989 104.052  1.00  0.00     0.168 HD
HETATM   17  O2  UNL     1     122.038-111.993 104.575  1.00  0.00    -0.271 OA
BRANCH  15  18
HETATM   18  C7  UNL     1     122.750-114.288 104.658  1.00  0.00     0.300 C 
BRANCH  18  19
HETATM   19  N4  UNL     1     121.479-114.739 104.120  1.00  0.00    -0.065 N 
ATOM     20  H43 UNL     1     120.900-115.220 104.809  1.00  0.00     0.275 HD
ATOM     21  H42 UNL     1     120.834-113.974 103.920  1.00  0.00     0.275 HD
ATOM     22  H41 UNL     1     121.687-115.312 103.301  1.00  0.00     0.275 HD
ENDBRANCH  18  19
BRANCH  18  23
HETATM   23  C8  UNL     1     122.791-114.399 106.162  1.00  0.00     0.272 C 
BRANCH  23  24
HETATM   24  N5  UNL     1     121.459-114.199 106.667  1.00  0.00    -0.077 N 
ATOM     25  H53 UNL     1     120.931-113.518 106.121  1.00  0.00     0.274 HD
ATOM     26  H52 UNL     1     120.854-115.005 106.506  1.00  0.00     0.274 HD
ATOM     27  H51 UNL     1     121.524-113.948 107.653  1.00  0.00     0.274 HD
ENDBRANCH  23  24
ENDBRANCH  18  23
ENDBRANCH  15  18
ENDBRANCH   6  13
BRANCH   5  28
HETATM   28  O1  UNL     1     126.620-113.836 102.881  1.00  0.00    -0.357 OA
ATOM     29  H1  UNL     1     126.050-113.803 103.640  1.00  0.00     0.217 HD
ENDBRANCH   5  28
BRANCH   9  30
HETATM   30  C10 UNL     1     126.192-110.017  98.804  1.00  0.00     0.364 C 
HETATM   31  O4  UNL     1     127.179-109.338  98.437  1.00  0.00    -0.283 OA
ENDBRANCH   9  30
BRANCH   1  32
HETATM   32  N1  UNL     1     130.884-112.259 100.030  1.00  0.00    -0.234 N 
ATOM     33  H12 UNL     1     131.590-111.523 100.016  1.00  0.00     0.174 HD
ATOM     34  H11 UNL     1     131.385-113.126  99.833  1.00  0.00     0.174 HD
ENDBRANCH   1  32
TORSDOF 8
ENDMDL
MODEL 5
REMARK VINA RESULT: -7.197216464      2.133      7.136
REMARK  8 active torsions:
REMARK  status: ('A' for Active; 'I' for Inactive)
REMARK    1  A    between atoms: N1_1  and  C1_4 
REMARK    2  A    between atoms: C3_8  and  O1_9 
REMARK    3  A    between atoms: C4_11  and  C5_12 
REMARK       I    between atoms: N3_13  and  C6_15 
REMARK    4  A    between atoms: C6_15  and  C7_17 
REMARK    5  A    between atoms: C7_17  and  N4_18 
REMARK    6  A    between atoms: C7_17  and  C8_22 
REMARK    7  A    between atoms: C8_22  and  N5_23 
REMARK    8  A    between atoms: N6_29  and  C10_30 
ROOT
HETATM    1  C1  UNL     1     119.039-114.887 104.259  1.00  0.00     0.678 A 
HETATM    2  N2  UNL     1     120.115-114.879 103.453  1.00  0.00    -0.185 N 
ATOM      3  H2  UNL     1     120.096-115.131 102.465  1.00  0.00     0.184 HD
HETATM    4  C2  UNL     1     121.210-114.500 104.112  1.00  0.00     0.128 A 
HETATM    5  C3  UNL     1     122.511-114.334 103.763  1.00  0.00     0.114 A 
HETATM    6  C4  UNL     1     123.427-113.915 104.715  1.00  0.00     0.084 A 
HETATM    7  C9  UNL     1     122.958-113.687 105.992  1.00  0.00     0.270 A 
HETATM    8  O3  UNL     1     123.779-113.303 106.886  1.00  0.00    -0.266 OA
HETATM    9  N6  UNL     1     121.676-113.845 106.361  1.00  0.00    -0.237 N 
HETATM   10  C11 UNL     1     120.810-114.253 105.409  1.00  0.00     0.163 A 
HETATM   11  N7  UNL     1     119.486-114.498 105.465  1.00  0.00    -0.174 N 
ATOM     12  H7  UNL     1     118.908-114.403 106.300  1.00  0.00     0.186 HD
ENDROOT
BRANCH   6  13
HETATM   13  C5  UNL     1     124.834-113.732 104.358  1.00  0.00     0.111 C 
HETATM   14  N3  UNL     1     125.156-112.675 103.694  1.00  0.00    -0.334 N 
HETATM   15  C6  UNL     1     126.527-112.520 103.361  1.00  0.00     0.253 C 
ATOM     16  H3  UNL     1     124.459-111.982 103.421  1.00  0.00     0.168 HD
HETATM   17  O2  UNL     1     127.222-111.726 104.038  1.00  0.00    -0.271 OA
BRANCH  15  18
HETATM   18  C7  UNL     1     127.071-113.303 102.231  1.00  0.00     0.300 C 
BRANCH  18  19
HETATM   19  N4  UNL     1     127.879-114.368 102.800  1.00  0.00    -0.065 N 
ATOM     20  H43 UNL     1     128.881-114.209 102.695  1.00  0.00     0.275 HD
ATOM     21  H42 UNL     1     127.857-114.386 103.820  1.00  0.00     0.275 HD
ATOM     22  H41 UNL     1     127.565-115.241 102.376  1.00  0.00     0.275 HD
ENDBRANCH  18  19
BRANCH  18  23
HETATM   23  C8  UNL     1     127.891-112.382 101.363  1.00  0.00     0.272 C 
BRANCH  23  24
HETATM   24  N5  UNL     1     127.101-111.217 101.067  1.00  0.00    -0.077 N 
ATOM     25  H53 UNL     1     126.221-111.198 101.584  1.00  0.00     0.274 HD
ATOM     26  H52 UNL     1     127.504-110.361 101.448  1.00  0.00     0.274 HD
ATOM     27  H51 UNL     1     126.964-111.171 100.057  1.00  0.00     0.274 HD
ENDBRANCH  23  24
ENDBRANCH  18  23
ENDBRANCH  15  18
ENDBRANCH   6  13
BRANCH   5  28
HETATM   28  O1  UNL     1     122.945-114.579 102.447  1.00  0.00    -0.357 OA
ATOM     29  H1  UNL     1     123.011-115.465 102.111  1.00  0.00     0.217 HD
ENDBRANCH   5  28
BRANCH   9  30
HETATM   30  C10 UNL     1     121.231-113.599 107.690  1.00  0.00     0.364 C 
HETATM   31  O4  UNL     1     120.133-113.043 107.928  1.00  0.00    -0.283 OA
ENDBRANCH   9  30
BRANCH   1  32
HETATM   32  N1  UNL     1     117.820-115.214 103.908  1.00  0.00    -0.234 N 
ATOM     33  H12 UNL     1     117.479-116.108 103.555  1.00  0.00     0.174 HD
ATOM     34  H11 UNL     1     117.006-114.600 103.935  1.00  0.00     0.174 HD
ENDBRANCH   1  32
TORSDOF 8
ENDMDL
