MODEL 1
REMARK VINA RESULT: -7.757086966      0.000      0.000
REMARK  8 active torsions:
REMARK  status: ('A' for Active; 'I' for Inactive)
REMARK    1  A    between atoms: N1_2  and  C2_3 
REMARK    2  A    between atoms: N1_2  and  C6_20 
REMARK    3  A    between atoms: C2_3  and  C3_4 
REMARK    4  A    between atoms: C3_4  and  N2_5 
REMARK    5  A    between atoms: N5_12  and  N6_13 
REMARK    6  A    between atoms: C5_16  and  N7_17 
REMARK    7  A    between atoms: C8_22  and  N8_23 
REMARK    8  A    between atoms: C10_29  and  N11_30 
ROOT
HETATM    1  N8  UNL     1     123.986-112.361 102.497  1.00  0.00    -0.279 N 
ATOM      2  H8  UNL     1     123.630-112.276 101.545  1.00  0.00     0.179 HD
HETATM    3  C9  UNL     1     123.129-112.326 103.627  1.00  0.00     0.183 C 
HETATM    4  N9  UNL     1     122.433-112.316 104.557  1.00  0.00    -0.172 NA
ENDROOT
BRANCH   1   5
HETATM    5  C8  UNL     1     125.233-112.506 102.747  1.00  0.00     0.133 A 
HETATM    6  C7  UNL     1     126.205-111.815 102.061  1.00  0.00     0.098 A 
HETATM    7  C6  UNL     1     127.555-111.954 102.332  1.00  0.00     0.122 A 
HETATM    8  N12 UNL     1     127.881-112.811 103.314  1.00  0.00    -0.177 N 
HETATM    9  C10 UNL     1     126.927-113.499 103.998  1.00  0.00     0.679 A 
ATOM     10  H12 UNL     1     128.863-112.948 103.553  1.00  0.00     0.185 HD
HETATM   11  N10 UNL     1     125.626-113.362 103.733  1.00  0.00    -0.176 N 
ATOM     12  H10 UNL     1     124.934-113.891 104.264  1.00  0.00     0.186 HD
BRANCH   7  13
HETATM   13  N1  UNL     1     128.529-111.216 101.587  1.00  0.00    -0.369 N 
HETATM   14  C1  UNL     1     129.387-111.926 100.630  1.00  0.00     0.151 C 
BRANCH  13  15
HETATM   15  C2  UNL     1     128.690-109.778 101.778  1.00  0.00     0.146 C 
BRANCH  15  16
HETATM   16  C3  UNL     1     130.095-109.469 101.366  1.00  0.00     0.188 C 
BRANCH  16  17
HETATM   17  N2  UNL     1     130.743-108.440 102.144  1.00  0.00    -0.106 N 
HETATM   18  N3  UNL     1     130.210-107.529 102.942  1.00  0.00    -0.114 N 
HETATM   19  C4  UNL     1     131.218-106.763 103.434  1.00  0.00     0.727 A 
ATOM     20  H3  UNL     1     129.218-107.420 103.150  1.00  0.00     0.206 HD
HETATM   21  N4  UNL     1     131.059-105.753 104.260  1.00  0.00    -0.231 N 
HETATM   22  N5  UNL     1     132.407-107.188 102.947  1.00  0.00     0.085 N 
ATOM     23  H42 UNL     1     130.163-105.432 104.627  1.00  0.00     0.174 HD
ATOM     24  H41 UNL     1     131.816-105.178 104.629  1.00  0.00     0.174 HD
HETATM   25  C5  UNL     1     132.086-108.230 102.149  1.00  0.00     0.729 A 
BRANCH  22  26
HETATM   26  N6  UNL     1     133.674-106.665 103.220  1.00  0.00    -0.309 N 
ATOM     27  H62 UNL     1     134.439-107.099 103.736  1.00  0.00     0.178 HD
ATOM     28  H61 UNL     1     134.040-105.753 102.949  1.00  0.00     0.178 HD
ENDBRANCH  22  26
BRANCH  25  29
HETATM   29  N7  UNL     1     132.942-108.937 101.494  1.00  0.00    -0.231 N 
ATOM     30  H72 UNL     1     132.696-109.664 100.823  1.00  0.00     0.174 HD
ATOM     31  H71 UNL     1     133.955-108.837 101.566  1.00  0.00     0.174 HD
ENDBRANCH  25  29
ENDBRANCH  16  17
ENDBRANCH  15  16
ENDBRANCH  13  15
ENDBRANCH   7  13
BRANCH   9  32
HETATM   32  N11 UNL     1     127.279-114.330 104.953  1.00  0.00    -0.234 N 
ATOM     33 2H11 UNL     1     127.843-115.150 104.728  1.00  0.00     0.174 HD
ATOM     34 1H11 UNL     1     126.973-114.125 105.904  1.00  0.00     0.174 HD
ENDBRANCH   9  32
ENDBRANCH   1   5
TORSDOF 8
ENDMDL
MODEL 2
REMARK VINA RESULT: -7.576366644      0.921      1.736
REMARK  8 active torsions:
REMARK  status: ('A' for Active; 'I' for Inactive)
REMARK    1  A    between atoms: N1_2  and  C2_3 
REMARK    2  A    between atoms: N1_2  and  C6_20 
REMARK    3  A    between atoms: C2_3  and  C3_4 
REMARK    4  A    between atoms: C3_4  and  N2_5 
REMARK    5  A    between atoms: N5_12  and  N6_13 
REMARK    6  A    between atoms: C5_16  and  N7_17 
REMARK    7  A    between atoms: C8_22  and  N8_23 
REMARK    8  A    between atoms: C10_29  and  N11_30 
ROOT
HETATM    1  N8  UNL     1     123.557-112.642 102.790  1.00  0.00    -0.279 N 
ATOM      2  H8  UNL     1     123.120-112.644 101.868  1.00  0.00     0.179 HD
HETATM    3  C9  UNL     1     122.793-112.645 103.985  1.00  0.00     0.183 C 
HETATM    4  N9  UNL     1     122.176-112.665 104.969  1.00  0.00    -0.172 NA
ENDROOT
BRANCH   1   5
HETATM    5  C8  UNL     1     124.828-112.637 102.939  1.00  0.00     0.133 A 
HETATM    6  C7  UNL     1     125.656-111.862 102.160  1.00  0.00     0.098 A 
HETATM    7  C6  UNL     1     127.031-111.839 102.323  1.00  0.00     0.122 A 
HETATM    8  N12 UNL     1     127.530-112.622 103.294  1.00  0.00    -0.177 N 
HETATM    9  C10 UNL     1     126.718-113.393 104.069  1.00  0.00     0.679 A 
ATOM     10  H12 UNL     1     128.537-112.640 103.454  1.00  0.00     0.185 HD
HETATM   11  N10 UNL     1     125.394-113.411 103.909  1.00  0.00    -0.176 N 
ATOM     12  H10 UNL     1     124.811-113.998 104.506  1.00  0.00     0.186 HD
BRANCH   7  13
HETATM   13  N1  UNL     1     127.851-111.020 101.485  1.00  0.00    -0.369 N 
HETATM   14  C1  UNL     1     127.219-110.209 100.436  1.00  0.00     0.151 C 
BRANCH  13  15
HETATM   15  C2  UNL     1     129.301-110.992 101.648  1.00  0.00     0.146 C 
BRANCH  15  16
HETATM   16  C3  UNL     1     129.778-109.824 100.842  1.00  0.00     0.188 C 
BRANCH  16  17
HETATM   17  N2  UNL     1     130.582-108.872 101.570  1.00  0.00    -0.106 N 
HETATM   18  N3  UNL     1     131.887-108.658 101.517  1.00  0.00    -0.114 N 
HETATM   19  C4  UNL     1     132.187-107.677 102.406  1.00  0.00     0.727 A 
ATOM     20  H3  UNL     1     132.550-109.146 100.914  1.00  0.00     0.206 HD
HETATM   21  N4  UNL     1     133.394-107.207 102.627  1.00  0.00    -0.231 N 
HETATM   22  N5  UNL     1     131.064-107.258 103.034  1.00  0.00     0.085 N 
ATOM     23  H42 UNL     1     134.241-107.524 102.154  1.00  0.00     0.174 HD
ATOM     24  H41 UNL     1     133.620-106.470 103.295  1.00  0.00     0.174 HD
HETATM   25  C5  UNL     1     130.081-108.014 102.498  1.00  0.00     0.729 A 
BRANCH  22  26
HETATM   26  N6  UNL     1     130.956-106.263 104.009  1.00  0.00    -0.309 N 
ATOM     27  H62 UNL     1     130.603-106.347 104.962  1.00  0.00     0.178 HD
ATOM     28  H61 UNL     1     131.212-105.279 103.923  1.00  0.00     0.178 HD
ENDBRANCH  22  26
BRANCH  25  29
HETATM   29  N7  UNL     1     128.835-107.921 102.815  1.00  0.00    -0.231 N 
ATOM     30  H72 UNL     1     128.368-108.520 103.497  1.00  0.00     0.174 HD
ATOM     31  H71 UNL     1     128.186-107.235 102.431  1.00  0.00     0.174 HD
ENDBRANCH  25  29
ENDBRANCH  16  17
ENDBRANCH  15  16
ENDBRANCH  13  15
ENDBRANCH   7  13
BRANCH   9  32
HETATM   32  N11 UNL     1     127.238-114.147 105.009  1.00  0.00    -0.234 N 
ATOM     33 2H11 UNL     1     127.168-113.860 105.986  1.00  0.00     0.174 HD
ATOM     34 1H11 UNL     1     127.703-115.010 104.730  1.00  0.00     0.174 HD
ENDBRANCH   9  32
ENDBRANCH   1   5
TORSDOF 8
ENDMDL
MODEL 3
REMARK VINA RESULT: -7.500774716      4.983      9.230
REMARK  8 active torsions:
REMARK  status: ('A' for Active; 'I' for Inactive)
REMARK    1  A    between atoms: N1_2  and  C2_3 
REMARK    2  A    between atoms: N1_2  and  C6_20 
REMARK    3  A    between atoms: C2_3  and  C3_4 
REMARK    4  A    between atoms: C3_4  and  N2_5 
REMARK    5  A    between atoms: N5_12  and  N6_13 
REMARK    6  A    between atoms: C5_16  and  N7_17 
REMARK    7  A    between atoms: C8_22  and  N8_23 
REMARK    8  A    between atoms: C10_29  and  N11_30 
ROOT
HETATM    1  N8  UNL     1     128.361-113.368  99.979  1.00  0.00    -0.279 N 
ATOM      2  H8  UNL     1     128.943-113.263  99.147  1.00  0.00     0.179 HD
HETATM    3  C9  UNL     1     128.715-114.238 101.041  1.00  0.00     0.183 C 
HETATM    4  N9  UNL     1     129.005-114.935 101.924  1.00  0.00    -0.172 NA
ENDROOT
BRANCH   1   5
HETATM    5  C8  UNL     1     127.266-112.721 100.127  1.00  0.00     0.133 A 
HETATM    6  C7  UNL     1     126.497-112.831 101.264  1.00  0.00     0.098 A 
HETATM    7  C6  UNL     1     125.319-112.126 101.441  1.00  0.00     0.122 A 
HETATM    8  N12 UNL     1     124.953-111.314 100.435  1.00  0.00    -0.177 N 
HETATM    9  C10 UNL     1     125.707-111.199  99.308  1.00  0.00     0.679 A 
ATOM     10  H12 UNL     1     124.093-110.772 100.518  1.00  0.00     0.185 HD
HETATM   11  N10 UNL     1     126.842-111.881  99.141  1.00  0.00    -0.176 N 
ATOM     12  H10 UNL     1     127.387-111.773  98.285  1.00  0.00     0.186 HD
BRANCH   7  13
HETATM   13  N1  UNL     1     124.551-112.277 102.638  1.00  0.00    -0.369 N 
HETATM   14  C1  UNL     1     125.242-112.296 103.934  1.00  0.00     0.151 C 
BRANCH  13  15
HETATM   15  C2  UNL     1     123.100-112.427 102.587  1.00  0.00     0.146 C 
BRANCH  15  16
HETATM   16  C3  UNL     1     122.833-113.875 102.858  1.00  0.00     0.188 C 
BRANCH  16  17
HETATM   17  N2  UNL     1     121.732-114.131 103.756  1.00  0.00    -0.106 N 
HETATM   18  N3  UNL     1     120.431-114.126 103.514  1.00  0.00    -0.114 N 
HETATM   19  C4  UNL     1     119.788-114.398 104.679  1.00  0.00     0.727 A 
ATOM     20  H3  UNL     1     119.990-113.949 102.612  1.00  0.00     0.206 HD
HETATM   21  N4  UNL     1     118.483-114.471 104.817  1.00  0.00    -0.231 N 
HETATM   22  N5  UNL     1     120.685-114.580 105.676  1.00  0.00     0.085 N 
ATOM     23  H42 UNL     1     117.807-114.334 104.066  1.00  0.00     0.174 HD
ATOM     24  H41 UNL     1     118.000-114.675 105.692  1.00  0.00     0.174 HD
HETATM   25  C5  UNL     1     121.886-114.409 105.077  1.00  0.00     0.729 A 
BRANCH  22  26
HETATM   26  N6  UNL     1     120.420-114.882 107.014  1.00  0.00    -0.309 N 
ATOM     27  H62 UNL     1     119.994-114.287 107.723  1.00  0.00     0.178 HD
ATOM     28  H61 UNL     1     120.618-115.754 107.504  1.00  0.00     0.178 HD
ENDBRANCH  22  26
BRANCH  25  29
HETATM   29  N7  UNL     1     123.021-114.511 105.680  1.00  0.00    -0.231 N 
ATOM     30  H72 UNL     1     123.639-115.319 105.610  1.00  0.00     0.174 HD
ATOM     31  H71 UNL     1     123.427-113.794 106.281  1.00  0.00     0.174 HD
ENDBRANCH  25  29
ENDBRANCH  16  17
ENDBRANCH  15  16
ENDBRANCH  13  15
ENDBRANCH   7  13
BRANCH   9  32
HETATM   32  N11 UNL     1     125.321-110.396  98.343  1.00  0.00    -0.234 N 
ATOM     33 2H11 UNL     1     125.475-110.663  97.370  1.00  0.00     0.174 HD
ATOM     34 1H11 UNL     1     124.872-109.518  98.600  1.00  0.00     0.174 HD
ENDBRANCH   9  32
ENDBRANCH   1   5
TORSDOF 8
ENDMDL
MODEL 4
REMARK VINA RESULT: -7.484819910      4.288      5.692
REMARK  8 active torsions:
REMARK  status: ('A' for Active; 'I' for Inactive)
REMARK    1  A    between atoms: N1_2  and  C2_3 
REMARK    2  A    between atoms: N1_2  and  C6_20 
REMARK    3  A    between atoms: C2_3  and  C3_4 
REMARK    4  A    between atoms: C3_4  and  N2_5 
REMARK    5  A    between atoms: N5_12  and  N6_13 
REMARK    6  A    between atoms: C5_16  and  N7_17 
REMARK    7  A    between atoms: C8_22  and  N8_23 
REMARK    8  A    between atoms: C10_29  and  N11_30 
ROOT
HETATM    1  N8  UNL     1     122.741-113.851 106.742  1.00  0.00    -0.279 N 
ATOM      2  H8  UNL     1     123.299-114.086 107.563  1.00  0.00     0.179 HD
HETATM    3  C9  UNL     1     121.323-113.860 106.767  1.00  0.00     0.183 C 
HETATM    4  N9  UNL     1     120.162-113.848 106.783  1.00  0.00    -0.172 NA
ENDROOT
BRANCH   1   5
HETATM    5  C8  UNL     1     123.277-113.530 105.625  1.00  0.00     0.133 A 
HETATM    6  C7  UNL     1     124.642-113.446 105.463  1.00  0.00     0.098 A 
HETATM    7  C6  UNL     1     125.232-113.112 104.256  1.00  0.00     0.122 A 
HETATM    8  N12 UNL     1     124.399-112.870 103.231  1.00  0.00    -0.177 N 
HETATM    9  C10 UNL     1     123.049-112.951 103.382  1.00  0.00     0.679 A 
ATOM     10  H12 UNL     1     124.786-112.621 102.320  1.00  0.00     0.185 HD
HETATM   11  N10 UNL     1     122.483-113.273 104.547  1.00  0.00    -0.176 N 
ATOM     12  H10 UNL     1     121.468-113.326 104.630  1.00  0.00     0.186 HD
BRANCH   7  13
HETATM   13  N1  UNL     1     126.656-113.033 104.138  1.00  0.00    -0.369 N 
HETATM   14  C1  UNL     1     127.475-114.173 104.568  1.00  0.00     0.151 C 
BRANCH  13  15
HETATM   15  C2  UNL     1     127.301-111.834 103.612  1.00  0.00     0.146 C 
BRANCH  15  16
HETATM   16  C3  UNL     1     128.021-112.270 102.374  1.00  0.00     0.188 C 
BRANCH  16  17
HETATM   17  N2  UNL     1     127.314-112.019 101.142  1.00  0.00    -0.106 N 
HETATM   18  N3  UNL     1     126.353-111.145 100.886  1.00  0.00    -0.114 N 
HETATM   19  C4  UNL     1     125.982-111.299  99.589  1.00  0.00     0.727 A 
ATOM     20  H3  UNL     1     125.961-110.475 101.547  1.00  0.00     0.206 HD
HETATM   21  N4  UNL     1     125.047-110.598  98.987  1.00  0.00    -0.231 N 
HETATM   22  N5  UNL     1     126.711-112.279  99.007  1.00  0.00     0.085 N 
ATOM     23  H42 UNL     1     124.497-109.859  99.425  1.00  0.00     0.174 HD
ATOM     24  H41 UNL     1     124.768-110.713  98.013  1.00  0.00     0.174 HD
HETATM   25  C5  UNL     1     127.531-112.711  99.992  1.00  0.00     0.729 A 
BRANCH  22  26
HETATM   26  N6  UNL     1     126.632-112.730  97.687  1.00  0.00    -0.309 N 
ATOM     27  H62 UNL     1     126.615-113.692  97.348  1.00  0.00     0.178 HD
ATOM     28  H61 UNL     1     126.581-112.164  96.841  1.00  0.00     0.178 HD
ENDBRANCH  22  26
BRANCH  25  29
HETATM   29  N7  UNL     1     128.410-113.644  99.851  1.00  0.00    -0.231 N 
ATOM     30  H72 UNL     1     128.752-114.232 100.610  1.00  0.00     0.174 HD
ATOM     31  H71 UNL     1     128.847-113.902  98.966  1.00  0.00     0.174 HD
ENDBRANCH  25  29
ENDBRANCH  16  17
ENDBRANCH  15  16
ENDBRANCH  13  15
ENDBRANCH   7  13
BRANCH   9  32
HETATM   32  N11 UNL     1     122.261-112.707 102.359  1.00  0.00    -0.234 N 
ATOM     33 2H11 UNL     1     121.250-112.697 102.489  1.00  0.00     0.174 HD
ATOM     34 1H11 UNL     1     122.693-112.534 101.452  1.00  0.00     0.174 HD
ENDBRANCH   9  32
ENDBRANCH   1   5
TORSDOF 8
ENDMDL
MODEL 5
REMARK VINA RESULT: -7.480499346      2.516      9.173
REMARK  8 active torsions:
REMARK  status: ('A' for Active; 'I' for Inactive)
REMARK    1  A    between atoms: N1_2  and  C2_3 
REMARK    2  A    between atoms: N1_2  and  C6_20 
REMARK    3  A    between atoms: C2_3  and  C3_4 
REMARK    4  A    between atoms: C3_4  and  N2_5 
REMARK    5  A    between atoms: N5_12  and  N6_13 
REMARK    6  A    between atoms: C5_16  and  N7_17 
REMARK    7  A    between atoms: C8_22  and  N8_23 
REMARK    8  A    between atoms: C10_29  and  N11_30 
ROOT
HETATM    1  N8  UNL     1     129.130-110.649 101.874  1.00  0.00    -0.279 N 
ATOM      2  H8  UNL     1     130.061-111.066 101.886  1.00  0.00     0.179 HD
HETATM    3  C9  UNL     1     128.910-109.288 102.207  1.00  0.00     0.183 C 
HETATM    4  N9  UNL     1     128.723-108.170 102.461  1.00  0.00    -0.172 NA
ENDROOT
BRANCH   1   5
HETATM    5  C8  UNL     1     128.088-111.321 101.557  1.00  0.00     0.133 A 
HETATM    6  C7  UNL     1     127.146-111.697 102.487  1.00  0.00     0.098 A 
HETATM    7  C6  UNL     1     126.009-112.413 102.153  1.00  0.00     0.122 A 
HETATM    8  N12 UNL     1     125.863-112.729 100.855  1.00  0.00    -0.177 N 
HETATM    9  C10 UNL     1     126.790-112.361  99.929  1.00  0.00     0.679 A 
ATOM     10  H12 UNL     1     125.041-113.255 100.558  1.00  0.00     0.185 HD
HETATM   11  N10 UNL     1     127.884-111.672 100.256  1.00  0.00    -0.176 N 
ATOM     12  H10 UNL     1     128.561-111.409  99.539  1.00  0.00     0.186 HD
BRANCH   7  13
HETATM   13  N1  UNL     1     125.060-112.785 103.157  1.00  0.00    -0.369 N 
HETATM   14  C1  UNL     1     125.532-113.083 104.515  1.00  0.00     0.151 C 
BRANCH  13  15
HETATM   15  C2  UNL     1     123.637-112.887 102.846  1.00  0.00     0.146 C 
BRANCH  15  16
HETATM   16  C3  UNL     1     122.919-112.529 104.109  1.00  0.00     0.188 C 
BRANCH  16  17
HETATM   17  N2  UNL     1     121.804-113.386 104.436  1.00  0.00    -0.106 N 
HETATM   18  N3  UNL     1     120.709-113.644 103.740  1.00  0.00    -0.114 N 
HETATM   19  C4  UNL     1     119.937-114.489 104.470  1.00  0.00     0.727 A 
ATOM     20  H3  UNL     1     120.484-113.272 102.817  1.00  0.00     0.206 HD
HETATM   21  N4  UNL     1     118.769-114.957 104.090  1.00  0.00    -0.231 N 
HETATM   22  N5  UNL     1     120.544-114.777 105.645  1.00  0.00     0.085 N 
ATOM     23  H42 UNL     1     118.312-114.741 103.205  1.00  0.00     0.174 HD
ATOM     24  H41 UNL     1     118.190-115.592 104.639  1.00  0.00     0.174 HD
HETATM   25  C5  UNL     1     121.702-114.080 105.600  1.00  0.00     0.729 A 
BRANCH  22  26
HETATM   26  N6  UNL     1     120.074-115.611 106.663  1.00  0.00    -0.309 N 
ATOM     27  H62 UNL     1     119.116-115.907 106.845  1.00  0.00     0.178 HD
ATOM     28  H61 UNL     1     120.620-116.059 107.398  1.00  0.00     0.178 HD
ENDBRANCH  22  26
BRANCH  25  29
HETATM   29  N7  UNL     1     122.592-114.087 106.533  1.00  0.00    -0.231 N 
ATOM     30  H72 UNL     1     122.654-114.795 107.263  1.00  0.00     0.174 HD
ATOM     31  H71 UNL     1     123.334-113.395 106.633  1.00  0.00     0.174 HD
ENDBRANCH  25  29
ENDBRANCH  16  17
ENDBRANCH  15  16
ENDBRANCH  13  15
ENDBRANCH   7  13
BRANCH   9  32
HETATM   32  N11 UNL     1     126.617-112.687  98.668  1.00  0.00    -0.234 N 
ATOM     33 2H11 UNL     1     125.938-112.177  98.102  1.00  0.00     0.174 HD
ATOM     34 1H11 UNL     1     127.176-113.451  98.289  1.00  0.00     0.174 HD
ENDBRANCH   9  32
ENDBRANCH   1   5
TORSDOF 8
ENDMDL
