MODEL 1
REMARK VINA RESULT: -7.818480347      0.000      0.000
REMARK  7 active torsions:
REMARK  status: ('A' for Active; 'I' for Inactive)
REMARK    1  A    between atoms: N1_1  and  C1_4 
REMARK    2  A    between atoms: C5_13  and  C6_14 
REMARK    3  A    between atoms: C6_14  and  N4_15 
REMARK    4  A    between atoms: C6_14  and  C7_19 
REMARK    5  A    between atoms: N6_23  and  C9_24 
REMARK    6  A    between atoms: C9_24  and  N7_25 
REMARK    7  A    between atoms: N7_25  and  N8_26 
ROOT
HETATM    1  C1  UNL     1     121.681-114.309 104.840  1.00  0.00     0.706 A 
HETATM    2  N2  UNL     1     121.295-113.751 103.688  1.00  0.00    -0.019 N 
ATOM      3  H2  UNL     1     120.341-113.756 103.328  1.00  0.00     0.203 HD
HETATM    4  C2  UNL     1     122.347-113.183 103.074  1.00  0.00     0.721 A 
HETATM    5  N3  UNL     1     122.751-112.492 101.980  1.00  0.00    -0.181 N 
ATOM      6  H3  UNL     1     122.148-112.197 101.213  1.00  0.00     0.184 HD
HETATM    7  C3  UNL     1     124.063-112.260 102.066  1.00  0.00     0.146 A 
HETATM    8  C4  UNL     1     124.964-111.609 101.227  1.00  0.00     0.213 A 
HETATM    9  O1  UNL     1     124.553-111.102 100.151  1.00  0.00    -0.285 OA
HETATM   10  C5  UNL     1     126.281-111.544 101.604  1.00  0.00     0.049 A 
HETATM   11  C8  UNL     1     126.622-112.125 102.789  1.00  0.00     0.108 A 
HETATM   12  N6  UNL     1     125.754-112.756 103.608  1.00  0.00    -0.323 N 
HETATM   13  C10 UNL     1     124.465-112.842 103.276  1.00  0.00     0.180 A 
HETATM   14  N9  UNL     1     123.407-113.409 103.890  1.00  0.00    -0.052 N 
HETATM   15  N10 UNL     1     123.001-114.086 104.950  1.00  0.00    -0.109 N 
ATOM     16  H10 UNL     1     123.592-114.389 105.724  1.00  0.00     0.207 HD
ENDROOT
BRANCH  10  17
HETATM   17  C6  UNL     1     127.238-110.851 100.707  1.00  0.00     0.310 C 
BRANCH  17  18
HETATM   18  N4  UNL     1     126.607-109.756  99.992  1.00  0.00    -0.062 N 
ATOM     19  H43 UNL     1     125.848-109.346 100.535  1.00  0.00     0.275 HD
ATOM     20  H42 UNL     1     127.222-108.943  99.939  1.00  0.00     0.275 HD
ATOM     21  H41 UNL     1     126.289-110.043  99.066  1.00  0.00     0.275 HD
ENDBRANCH  17  18
BRANCH  17  22
HETATM   22  C7  UNL     1     128.429-110.351 101.452  1.00  0.00     0.266 C 
HETATM   23  N5  UNL     1     128.447-109.037 101.993  1.00  0.00    -0.060 NA
HETATM   24  O2  UNL     1     129.423-111.095 101.606  1.00  0.00    -0.274 OA
ENDBRANCH  17  22
ENDBRANCH  10  17
BRANCH  12  25
HETATM   25  C9  UNL     1     126.221-113.312 104.851  1.00  0.00     0.264 C 
BRANCH  25  26
HETATM   26  N7  UNL     1     127.680-113.260 104.836  1.00  0.00    -0.128 NA
BRANCH  26  27
HETATM   27  N8  UNL     1     128.143-114.561 104.928  1.00  0.00    -0.347 N 
ATOM     28  H82 UNL     1     127.601-115.360 105.256  1.00  0.00     0.172 HD
ATOM     29  H81 UNL     1     129.111-114.564 104.610  1.00  0.00     0.172 HD
ENDBRANCH  26  27
ENDBRANCH  25  26
ENDBRANCH  12  25
BRANCH   1  30
HETATM   30  N1  UNL     1     120.928-114.951 105.703  1.00  0.00    -0.233 N 
ATOM     31  H12 UNL     1     121.080-115.007 106.710  1.00  0.00     0.174 HD
ATOM     32  H11 UNL     1     120.084-115.489 105.504  1.00  0.00     0.174 HD
ENDBRANCH   1  30
TORSDOF 7
ENDMDL
MODEL 2
REMARK VINA RESULT: -7.747765478      0.913      1.312
REMARK  7 active torsions:
REMARK  status: ('A' for Active; 'I' for Inactive)
REMARK    1  A    between atoms: N1_1  and  C1_4 
REMARK    2  A    between atoms: C5_13  and  C6_14 
REMARK    3  A    between atoms: C6_14  and  N4_15 
REMARK    4  A    between atoms: C6_14  and  C7_19 
REMARK    5  A    between atoms: N6_23  and  C9_24 
REMARK    6  A    between atoms: C9_24  and  N7_25 
REMARK    7  A    between atoms: N7_25  and  N8_26 
ROOT
HETATM    1  C1  UNL     1     121.701-114.354 105.017  1.00  0.00     0.706 A 
HETATM    2  N2  UNL     1     121.265-113.753 103.906  1.00  0.00    -0.019 N 
ATOM      3  H2  UNL     1     120.292-113.717 103.605  1.00  0.00     0.203 HD
HETATM    4  C2  UNL     1     122.298-113.203 103.242  1.00  0.00     0.721 A 
HETATM    5  N3  UNL     1     122.658-112.496 102.144  1.00  0.00    -0.181 N 
ATOM      6  H3  UNL     1     122.020-112.161 101.423  1.00  0.00     0.184 HD
HETATM    7  C3  UNL     1     123.979-112.309 102.154  1.00  0.00     0.146 A 
HETATM    8  C4  UNL     1     124.850-111.666 101.278  1.00  0.00     0.213 A 
HETATM    9  O1  UNL     1     124.392-111.117 100.243  1.00  0.00    -0.285 OA
HETATM   10  C5  UNL     1     126.190-111.654 101.575  1.00  0.00     0.049 A 
HETATM   11  C8  UNL     1     126.581-112.278 102.722  1.00  0.00     0.108 A 
HETATM   12  N6  UNL     1     125.743-112.902 103.577  1.00  0.00    -0.323 N 
HETATM   13  C10 UNL     1     124.435-112.937 103.323  1.00  0.00     0.180 A 
HETATM   14  N9  UNL     1     123.396-113.485 103.986  1.00  0.00    -0.052 N 
HETATM   15  N10 UNL     1     123.033-114.178 105.052  1.00  0.00    -0.109 N 
ATOM     16  H10 UNL     1     123.659-114.521 105.780  1.00  0.00     0.207 HD
ENDROOT
BRANCH  10  17
HETATM   17  C6  UNL     1     127.113-110.968 100.639  1.00  0.00     0.310 C 
BRANCH  17  18
HETATM   18  N4  UNL     1     127.999-110.051 101.332  1.00  0.00    -0.062 N 
ATOM     19  H43 UNL     1     128.054-110.269 102.327  1.00  0.00     0.275 HD
ATOM     20  H42 UNL     1     128.974-110.211 101.078  1.00  0.00     0.275 HD
ATOM     21  H41 UNL     1     127.730-109.078 101.180  1.00  0.00     0.275 HD
ENDBRANCH  17  18
BRANCH  17  22
HETATM   22  C7  UNL     1     127.914-111.942  99.843  1.00  0.00     0.266 C 
HETATM   23  N5  UNL     1     127.330-112.643  98.754  1.00  0.00    -0.060 NA
HETATM   24  O2  UNL     1     129.113-112.145 100.134  1.00  0.00    -0.274 OA
ENDBRANCH  17  22
ENDBRANCH  10  17
BRANCH  12  25
HETATM   25  C9  UNL     1     126.265-113.507 104.774  1.00  0.00     0.264 C 
BRANCH  25  26
HETATM   26  N7  UNL     1     127.714-113.325 104.764  1.00  0.00    -0.128 NA
BRANCH  26  27
HETATM   27  N8  UNL     1     128.287-114.539 105.098  1.00  0.00    -0.347 N 
ATOM     28  H82 UNL     1     129.212-114.857 104.808  1.00  0.00     0.172 HD
ATOM     29  H81 UNL     1     127.619-115.043 105.680  1.00  0.00     0.172 HD
ENDBRANCH  26  27
ENDBRANCH  25  26
ENDBRANCH  12  25
BRANCH   1  30
HETATM   30  N1  UNL     1     120.981-114.995 105.908  1.00  0.00    -0.233 N 
ATOM     31  H12 UNL     1     121.284-115.792 106.467  1.00  0.00     0.174 HD
ATOM     32  H11 UNL     1     120.017-114.799 106.178  1.00  0.00     0.174 HD
ENDBRANCH   1  30
TORSDOF 7
ENDMDL
MODEL 3
REMARK VINA RESULT: -7.718604499      1.909      3.638
REMARK  7 active torsions:
REMARK  status: ('A' for Active; 'I' for Inactive)
REMARK    1  A    between atoms: N1_1  and  C1_4 
REMARK    2  A    between atoms: C5_13  and  C6_14 
REMARK    3  A    between atoms: C6_14  and  N4_15 
REMARK    4  A    between atoms: C6_14  and  C7_19 
REMARK    5  A    between atoms: N6_23  and  C9_24 
REMARK    6  A    between atoms: C9_24  and  N7_25 
REMARK    7  A    between atoms: N7_25  and  N8_26 
ROOT
HETATM    1  C1  UNL     1     122.206-113.266 103.326  1.00  0.00     0.706 A 
HETATM    2  N2  UNL     1     123.094-113.452 104.307  1.00  0.00    -0.019 N 
ATOM      3  H2  UNL     1     122.893-113.903 105.199  1.00  0.00     0.203 HD
HETATM    4  C2  UNL     1     124.292-112.959 103.945  1.00  0.00     0.721 A 
HETATM    5  N3  UNL     1     125.576-112.769 104.336  1.00  0.00    -0.181 N 
ATOM      6  H3  UNL     1     125.967-113.054 105.233  1.00  0.00     0.184 HD
HETATM    7  C3  UNL     1     126.246-112.150 103.362  1.00  0.00     0.146 A 
HETATM    8  C4  UNL     1     127.565-111.721 103.247  1.00  0.00     0.213 A 
HETATM    9  O1  UNL     1     128.364-111.916 104.200  1.00  0.00    -0.285 OA
HETATM   10  C5  UNL     1     127.954-111.094 102.090  1.00  0.00     0.049 A 
HETATM   11  C8  UNL     1     127.010-110.932 101.121  1.00  0.00     0.108 A 
HETATM   12  N6  UNL     1     125.729-111.346 101.224  1.00  0.00    -0.323 N 
HETATM   13  C10 UNL     1     125.313-111.959 102.332  1.00  0.00     0.180 A 
HETATM   14  N9  UNL     1     124.114-112.457 102.698  1.00  0.00    -0.052 N 
HETATM   15  N10 UNL     1     122.858-112.644 102.330  1.00  0.00    -0.109 N 
ATOM     16  H10 UNL     1     122.452-112.363 101.438  1.00  0.00     0.207 HD
ENDROOT
BRANCH  10  17
HETATM   17  C6  UNL     1     129.360-110.638 101.973  1.00  0.00     0.310 C 
BRANCH  17  18
HETATM   18  N4  UNL     1     130.043-111.280 100.864  1.00  0.00    -0.062 N 
ATOM     19  H43 UNL     1     129.979-110.720 100.015  1.00  0.00     0.275 HD
ATOM     20  H42 UNL     1     131.055-111.265 100.991  1.00  0.00     0.275 HD
ATOM     21  H41 UNL     1     129.702-112.230 100.710  1.00  0.00     0.275 HD
ENDBRANCH  17  18
BRANCH  17  22
HETATM   22  C7  UNL     1     129.450-109.157 101.835  1.00  0.00     0.266 C 
HETATM   23  N5  UNL     1     128.573-108.306 102.560  1.00  0.00    -0.060 NA
HETATM   24  O2  UNL     1     130.306-108.654 101.073  1.00  0.00    -0.274 OA
ENDBRANCH  17  22
ENDBRANCH  10  17
BRANCH  12  25
HETATM   25  C9  UNL     1     124.823-111.146 100.123  1.00  0.00     0.264 C 
BRANCH  25  26
HETATM   26  N7  UNL     1     125.367-110.072  99.295  1.00  0.00    -0.128 NA
BRANCH  26  27
HETATM   27  N8  UNL     1     125.292-110.486  97.977  1.00  0.00    -0.347 N 
ATOM     28  H82 UNL     1     124.497-110.962  97.550  1.00  0.00     0.172 HD
ATOM     29  H81 UNL     1     126.169-110.229  97.525  1.00  0.00     0.172 HD
ENDBRANCH  26  27
ENDBRANCH  25  26
ENDBRANCH  12  25
BRANCH   1  30
HETATM   30  N1  UNL     1     120.941-113.617 103.323  1.00  0.00    -0.233 N 
ATOM     31  H12 UNL     1     120.566-114.519 103.616  1.00  0.00     0.174 HD
ATOM     32  H11 UNL     1     120.144-113.050 103.032  1.00  0.00     0.174 HD
ENDBRANCH   1  30
TORSDOF 7
ENDMDL
MODEL 4
REMARK VINA RESULT: -7.469863195      2.274      5.762
REMARK  7 active torsions:
REMARK  status: ('A' for Active; 'I' for Inactive)
REMARK    1  A    between atoms: N1_1  and  C1_4 
REMARK    2  A    between atoms: C5_13  and  C6_14 
REMARK    3  A    between atoms: C6_14  and  N4_15 
REMARK    4  A    between atoms: C6_14  and  C7_19 
REMARK    5  A    between atoms: N6_23  and  C9_24 
REMARK    6  A    between atoms: C9_24  and  N7_25 
REMARK    7  A    between atoms: N7_25  and  N8_26 
ROOT
HETATM    1  C1  UNL     1     128.433-110.602  99.647  1.00  0.00     0.706 A 
HETATM    2  N2  UNL     1     127.171-110.500  99.217  1.00  0.00    -0.019 N 
ATOM      3  H2  UNL     1     126.890-110.096  98.324  1.00  0.00     0.203 HD
HETATM    4  C2  UNL     1     126.327-111.009 100.132  1.00  0.00     0.721 A 
HETATM    5  N3  UNL     1     125.027-111.253 100.425  1.00  0.00    -0.181 N 
ATOM      6  H3  UNL     1     124.235-111.029  99.824  1.00  0.00     0.184 HD
HETATM    7  C3  UNL     1     124.948-111.832 101.625  1.00  0.00     0.146 A 
HETATM    8  C4  UNL     1     123.873-112.277 102.390  1.00  0.00     0.213 A 
HETATM    9  O1  UNL     1     122.703-112.157 101.943  1.00  0.00    -0.285 OA
HETATM   10  C5  UNL     1     124.127-112.836 103.617  1.00  0.00     0.049 A 
HETATM   11  C8  UNL     1     125.430-112.918 104.008  1.00  0.00     0.108 A 
HETATM   12  N6  UNL     1     126.478-112.490 103.271  1.00  0.00    -0.323 N 
HETATM   13  C10 UNL     1     126.271-111.941 102.074  1.00  0.00     0.180 A 
HETATM   14  N9  UNL     1     127.114-111.432 101.152  1.00  0.00    -0.052 N 
HETATM   15  N10 UNL     1     128.379-111.185 100.857  1.00  0.00    -0.109 N 
ATOM     16  H10 UNL     1     129.181-111.402 101.448  1.00  0.00     0.207 HD
ENDROOT
BRANCH  10  17
HETATM   17  C6  UNL     1     122.979-113.308 104.429  1.00  0.00     0.310 C 
BRANCH  17  18
HETATM   18  N4  UNL     1     122.255-114.376 103.764  1.00  0.00    -0.062 N 
ATOM     19  H43 UNL     1     121.409-114.626 104.277  1.00  0.00     0.275 HD
ATOM     20  H42 UNL     1     121.826-114.052 102.897  1.00  0.00     0.275 HD
ATOM     21  H41 UNL     1     122.847-115.192 103.604  1.00  0.00     0.275 HD
ENDBRANCH  17  18
BRANCH  17  22
HETATM   22  C7  UNL     1     123.410-113.754 105.785  1.00  0.00     0.266 C 
HETATM   23  N5  UNL     1     123.626-112.810 106.825  1.00  0.00    -0.060 NA
HETATM   24  O2  UNL     1     123.582-114.972 106.013  1.00  0.00    -0.274 OA
ENDBRANCH  17  22
ENDBRANCH  10  17
BRANCH  12  25
HETATM   25  C9  UNL     1     127.817-112.652 103.773  1.00  0.00     0.264 C 
BRANCH  25  26
HETATM   26  N7  UNL     1     128.064-114.085 103.914  1.00  0.00    -0.128 NA
BRANCH  26  27
HETATM   27  N8  UNL     1     128.174-114.614 102.641  1.00  0.00    -0.347 N 
ATOM     28  H82 UNL     1     128.733-115.428 102.384  1.00  0.00     0.172 HD
ATOM     29  H81 UNL     1     127.598-114.044 102.022  1.00  0.00     0.172 HD
ENDBRANCH  26  27
ENDBRANCH  25  26
ENDBRANCH  12  25
BRANCH   1  30
HETATM   30  N1  UNL     1     129.519-110.212  99.022  1.00  0.00    -0.233 N 
ATOM     31  H12 UNL     1     129.846-110.548  98.117  1.00  0.00     0.174 HD
ATOM     32  H11 UNL     1     130.199-109.521  99.340  1.00  0.00     0.174 HD
ENDBRANCH   1  30
TORSDOF 7
ENDMDL
MODEL 5
REMARK VINA RESULT: -7.344184668      1.850      2.247
REMARK  7 active torsions:
REMARK  status: ('A' for Active; 'I' for Inactive)
REMARK    1  A    between atoms: N1_1  and  C1_4 
REMARK    2  A    between atoms: C5_13  and  C6_14 
REMARK    3  A    between atoms: C6_14  and  N4_15 
REMARK    4  A    between atoms: C6_14  and  C7_19 
REMARK    5  A    between atoms: N6_23  and  C9_24 
REMARK    6  A    between atoms: C9_24  and  N7_25 
REMARK    7  A    between atoms: N7_25  and  N8_26 
ROOT
HETATM    1  C1  UNL     1     123.357-113.172 105.605  1.00  0.00     0.706 A 
HETATM    2  N2  UNL     1     122.623-112.817 104.546  1.00  0.00    -0.019 N 
ATOM      3  H2  UNL     1     121.604-112.806 104.519  1.00  0.00     0.203 HD
HETATM    4  C2  UNL     1     123.424-112.477 103.521  1.00  0.00     0.721 A 
HETATM    5  N3  UNL     1     123.458-112.052 102.235  1.00  0.00    -0.181 N 
ATOM      6  H3  UNL     1     122.641-111.860 101.656  1.00  0.00     0.184 HD
HETATM    7  C3  UNL     1     124.728-111.926 101.845  1.00  0.00     0.146 A 
HETATM    8  C4  UNL     1     125.313-111.536 100.643  1.00  0.00     0.213 A 
HETATM    9  O1  UNL     1     124.580-111.214  99.673  1.00  0.00    -0.285 OA
HETATM   10  C5  UNL     1     126.683-111.517 100.556  1.00  0.00     0.049 A 
HETATM   11  C8  UNL     1     127.384-111.884 101.666  1.00  0.00     0.108 A 
HETATM   12  N6  UNL     1     126.824-112.261 102.834  1.00  0.00    -0.323 N 
HETATM   13  C10 UNL     1     125.496-112.294 102.958  1.00  0.00     0.180 A 
HETATM   14  N9  UNL     1     124.689-112.633 103.984  1.00  0.00    -0.052 N 
HETATM   15  N10 UNL     1     124.644-113.051 105.237  1.00  0.00    -0.109 N 
ATOM     16  H10 UNL     1     125.452-113.249 105.828  1.00  0.00     0.207 HD
ENDROOT
BRANCH  10  17
HETATM   17  C6  UNL     1     127.302-111.101  99.275  1.00  0.00     0.310 C 
BRANCH  17  18
HETATM   18  N4  UNL     1     128.519-110.339  99.488  1.00  0.00    -0.062 N 
ATOM     19  H43 UNL     1     128.485-109.442  99.005  1.00  0.00     0.275 HD
ATOM     20  H42 UNL     1     128.584-110.002 100.448  1.00  0.00     0.275 HD
ATOM     21  H41 UNL     1     129.349-110.871  99.224  1.00  0.00     0.275 HD
ENDBRANCH  17  18
BRANCH  17  22
HETATM   22  C7  UNL     1     127.583-112.271  98.394  1.00  0.00     0.266 C 
HETATM   23  N5  UNL     1     128.815-112.972  98.490  1.00  0.00    -0.060 NA
HETATM   24  O2  UNL     1     126.726-112.642  97.561  1.00  0.00    -0.274 OA
ENDBRANCH  17  22
ENDBRANCH  10  17
BRANCH  12  25
HETATM   25  C9  UNL     1     127.664-112.604 103.952  1.00  0.00     0.264 C 
BRANCH  25  26
HETATM   26  N7  UNL     1     128.089-113.990 103.774  1.00  0.00    -0.128 NA
BRANCH  26  27
HETATM   27  N8  UNL     1     128.094-114.586 105.023  1.00  0.00    -0.347 N 
ATOM     28  H82 UNL     1     128.117-114.091 105.915  1.00  0.00     0.172 HD
ATOM     29  H81 UNL     1     128.071-115.595 104.881  1.00  0.00     0.172 HD
ENDBRANCH  26  27
ENDBRANCH  25  26
ENDBRANCH  12  25
BRANCH   1  30
HETATM   30  N1  UNL     1     122.920-113.563 106.779  1.00  0.00    -0.233 N 
ATOM     31  H12 UNL     1     121.972-113.450 107.136  1.00  0.00     0.174 HD
ATOM     32  H11 UNL     1     123.453-114.034 107.510  1.00  0.00     0.174 HD
ENDBRANCH   1  30
TORSDOF 7
ENDMDL
