MODEL 1
REMARK VINA RESULT: -6.204868434      0.000      0.000
REMARK  4 active torsions:
REMARK  status: ('A' for Active; 'I' for Inactive)
REMARK    1  A    between atoms: N2_5  and  C3_6 
REMARK    2  A    between atoms: C3_6  and  C4_7 
REMARK    3  A    between atoms: C4_7  and  C5_8 
REMARK       I    between atoms: C5_8  and  N3_10 
REMARK    4  A    between atoms: N3_10  and  C6_12 
ROOT
HETATM    1  C3  UNL     1      -5.554  -2.368  14.660  1.00  0.00     0.045 C 
HETATM    2  C9  UNL     1      -4.711  -3.371  14.828  1.00  0.00    -0.055 C 
HETATM    3  C10 UNL     1      -4.677  -4.479  13.794  1.00  0.00     0.036 C 
HETATM    4  C11 UNL     1      -3.515  -5.390  14.042  1.00  0.00     0.004 C 
HETATM    5  C12 UNL     1      -3.502  -5.972  15.439  1.00  0.00     0.001 C 
HETATM    6  C13 UNL     1      -3.846  -4.970  16.488  1.00  0.00     0.004 C 
HETATM    7  C14 UNL     1      -3.797  -3.540  15.965  1.00  0.00     0.036 C 
ENDROOT
BRANCH   1   8
HETATM    8  N2  UNL     1      -5.586  -1.331  15.621  1.00  0.00    -0.263 N 
HETATM    9  N1  UNL     1      -6.259  -1.391  16.793  1.00  0.00    -0.297 N 
HETATM   10  C2  UNL     1      -6.109  -0.277  17.488  1.00  0.00     0.046 A 
ATOM     11  H1  UNL     1      -6.810  -2.192  17.100  1.00  0.00     0.187 HD
HETATM   12  C1  UNL     1      -6.668   0.096  18.825  1.00  0.00     0.071 C 
HETATM   13  C17 UNL     1      -5.306   0.573  16.765  1.00  0.00     0.081 A 
HETATM   14  C15 UNL     1      -4.999  -0.134  15.592  1.00  0.00     0.054 A 
HETATM   15 CL1  UNL     1      -4.751   2.186  17.154  1.00  0.00    -0.080 Cl
HETATM   16  C16 UNL     1      -4.136   0.442  14.522  1.00  0.00     0.072 C 
ENDBRANCH   1   8
BRANCH   1  17
HETATM   17  C4  UNL     1      -6.475  -2.361  13.532  1.00  0.00     0.162 C 
BRANCH  17  18
HETATM   18  C5  UNL     1      -7.819  -2.905  13.749  1.00  0.00     0.223 C 
HETATM   19  O1  UNL     1      -8.407  -3.033  14.850  1.00  0.00    -0.273 OA
HETATM   20  N3  UNL     1      -8.552  -3.339  12.609  1.00  0.00    -0.353 N 
ATOM     21  H3  UNL     1      -8.112  -3.254  11.693  1.00  0.00     0.163 HD
BRANCH  20  22
HETATM   22  C6  UNL     1      -9.877  -3.890  12.676  1.00  0.00     0.135 C 
HETATM   23  C7  UNL     1     -10.640  -3.937  11.382  1.00  0.00     0.259 C 
HETATM   24  N4  UNL     1     -10.272  -5.336  11.258  1.00  0.00    -0.071 N 
HETATM   25  C8  UNL     1      -9.834  -5.402  12.622  1.00  0.00     0.259 C 
ATOM     26  H42 UNL     1     -10.969  -6.003  10.929  1.00  0.00     0.277 HD
ATOM     27  H41 UNL     1      -9.628  -5.614  10.517  1.00  0.00     0.277 HD
ENDBRANCH  20  22
ENDBRANCH  17  18
ENDBRANCH   1  17
TORSDOF 4
ENDMDL
MODEL 2
REMARK VINA RESULT: -6.173385156      2.195      3.240
REMARK  4 active torsions:
REMARK  status: ('A' for Active; 'I' for Inactive)
REMARK    1  A    between atoms: N2_5  and  C3_6 
REMARK    2  A    between atoms: C3_6  and  C4_7 
REMARK    3  A    between atoms: C4_7  and  C5_8 
REMARK       I    between atoms: C5_8  and  N3_10 
REMARK    4  A    between atoms: N3_10  and  C6_12 
ROOT
HETATM    1  C3  UNL     1      -5.554  -2.450  13.499  1.00  0.00     0.045 C 
HETATM    2  C9  UNL     1      -4.567  -3.277  13.795  1.00  0.00    -0.055 C 
HETATM    3  C10 UNL     1      -4.902  -4.636  14.376  1.00  0.00     0.036 C 
HETATM    4  C11 UNL     1      -3.678  -5.498  14.429  1.00  0.00     0.004 C 
HETATM    5  C12 UNL     1      -2.537  -4.864  15.194  1.00  0.00     0.001 C 
HETATM    6  C13 UNL     1      -2.364  -3.416  14.884  1.00  0.00     0.004 C 
HETATM    7  C14 UNL     1      -3.135  -2.991  13.641  1.00  0.00     0.036 C 
ENDROOT
BRANCH   1   8
HETATM    8  N2  UNL     1      -5.246  -1.182  12.953  1.00  0.00    -0.263 N 
HETATM    9  N1  UNL     1      -5.209  -0.905  11.630  1.00  0.00    -0.297 N 
HETATM   10  C2  UNL     1      -4.893   0.359  11.415  1.00  0.00     0.046 A 
ATOM     11  H1  UNL     1      -5.400  -1.585  10.893  1.00  0.00     0.187 HD
HETATM   12  C1  UNL     1      -4.736   1.097  10.122  1.00  0.00     0.071 C 
HETATM   13  C17 UNL     1      -4.709   0.967  12.634  1.00  0.00     0.081 A 
HETATM   14  C15 UNL     1      -4.942  -0.045  13.579  1.00  0.00     0.054 A 
HETATM   15 CL1  UNL     1      -4.279   2.623  13.004  1.00  0.00    -0.080 Cl
HETATM   16  C16 UNL     1      -4.844   0.202  15.045  1.00  0.00     0.072 C 
ENDBRANCH   1   8
BRANCH   1  17
HETATM   17  C4  UNL     1      -6.934  -2.819  13.783  1.00  0.00     0.162 C 
BRANCH  17  18
HETATM   18  C5  UNL     1      -7.777  -3.218  12.651  1.00  0.00     0.223 C 
HETATM   19  O1  UNL     1      -8.035  -2.534  11.631  1.00  0.00    -0.273 OA
HETATM   20  N3  UNL     1      -8.374  -4.509  12.690  1.00  0.00    -0.353 N 
ATOM     21  H3  UNL     1      -8.192  -5.100  13.501  1.00  0.00     0.163 HD
BRANCH  20  22
HETATM   22  C6  UNL     1      -9.220  -5.027  11.650  1.00  0.00     0.135 C 
HETATM   23  C7  UNL     1      -9.506  -6.502  11.705  1.00  0.00     0.259 C 
HETATM   24  N4  UNL     1     -10.782  -6.195  12.326  1.00  0.00    -0.071 N 
HETATM   25  C8  UNL     1     -10.680  -4.805  11.985  1.00  0.00     0.259 C 
ATOM     26  H42 UNL     1     -11.610  -6.715  12.038  1.00  0.00     0.277 HD
ATOM     27  H41 UNL     1     -10.933  -6.455  13.301  1.00  0.00     0.277 HD
ENDBRANCH  20  22
ENDBRANCH  17  18
ENDBRANCH   1  17
TORSDOF 4
ENDMDL
MODEL 3
REMARK VINA RESULT: -6.049945706      2.427      4.528
REMARK  4 active torsions:
REMARK  status: ('A' for Active; 'I' for Inactive)
REMARK    1  A    between atoms: N2_5  and  C3_6 
REMARK    2  A    between atoms: C3_6  and  C4_7 
REMARK    3  A    between atoms: C4_7  and  C5_8 
REMARK       I    between atoms: C5_8  and  N3_10 
REMARK    4  A    between atoms: N3_10  and  C6_12 
ROOT
HETATM    1  C3  UNL     1      -5.662  -2.958  15.727  1.00  0.00     0.045 C 
HETATM    2  C9  UNL     1      -5.323  -1.896  16.436  1.00  0.00    -0.055 C 
HETATM    3  C10 UNL     1      -6.419  -1.000  16.979  1.00  0.00     0.036 C 
HETATM    4  C11 UNL     1      -5.848   0.006  17.931  1.00  0.00     0.004 C 
HETATM    5  C12 UNL     1      -4.739   0.837  17.324  1.00  0.00     0.001 C 
HETATM    6  C13 UNL     1      -3.792   0.030  16.502  1.00  0.00     0.004 C 
HETATM    7  C14 UNL     1      -3.950  -1.467  16.734  1.00  0.00     0.036 C 
ENDROOT
BRANCH   1   8
HETATM    8  N2  UNL     1      -4.643  -3.799  15.222  1.00  0.00    -0.263 N 
HETATM    9  N1  UNL     1      -4.320  -5.007  15.737  1.00  0.00    -0.297 N 
HETATM   10  C2  UNL     1      -3.330  -5.565  15.061  1.00  0.00     0.046 A 
ATOM     11  H1  UNL     1      -4.780  -5.432  16.541  1.00  0.00     0.187 HD
HETATM   12  C1  UNL     1      -2.654  -6.883  15.274  1.00  0.00     0.071 C 
HETATM   13  C17 UNL     1      -2.965  -4.708  14.051  1.00  0.00     0.081 A 
HETATM   14  C15 UNL     1      -3.822  -3.604  14.190  1.00  0.00     0.054 A 
HETATM   15 CL1  UNL     1      -1.725  -4.884  12.829  1.00  0.00    -0.080 Cl
HETATM   16  C16 UNL     1      -3.756  -2.429  13.275  1.00  0.00     0.072 C 
ENDBRANCH   1   8
BRANCH   1  17
HETATM   17  C4  UNL     1      -7.061  -3.226  15.425  1.00  0.00     0.162 C 
BRANCH  17  18
HETATM   18  C5  UNL     1      -7.502  -3.048  14.038  1.00  0.00     0.223 C 
HETATM   19  O1  UNL     1      -7.178  -2.118  13.262  1.00  0.00    -0.273 OA
HETATM   20  N3  UNL     1      -8.391  -4.018  13.494  1.00  0.00    -0.353 N 
ATOM     21  H3  UNL     1      -8.682  -4.792  14.091  1.00  0.00     0.163 HD
BRANCH  20  22
HETATM   22  C6  UNL     1      -8.901  -3.967  12.152  1.00  0.00     0.135 C 
HETATM   23  C7  UNL     1      -9.384  -5.269  11.579  1.00  0.00     0.259 C 
HETATM   24  N4  UNL     1     -10.740  -4.869  11.904  1.00  0.00    -0.071 N 
HETATM   25  C8  UNL     1     -10.344  -3.511  12.142  1.00  0.00     0.259 C 
ATOM     26  H42 UNL     1     -11.486  -5.056  11.235  1.00  0.00     0.277 HD
ATOM     27  H41 UNL     1     -11.243  -5.373  12.635  1.00  0.00     0.277 HD
ENDBRANCH  20  22
ENDBRANCH  17  18
ENDBRANCH   1  17
TORSDOF 4
ENDMDL
MODEL 4
REMARK VINA RESULT: -5.952134428      2.578      4.847
REMARK  4 active torsions:
REMARK  status: ('A' for Active; 'I' for Inactive)
REMARK    1  A    between atoms: N2_5  and  C3_6 
REMARK    2  A    between atoms: C3_6  and  C4_7 
REMARK    3  A    between atoms: C4_7  and  C5_8 
REMARK       I    between atoms: C5_8  and  N3_10 
REMARK    4  A    between atoms: N3_10  and  C6_12 
ROOT
HETATM    1  C3  UNL     1      -5.413  -3.143  15.488  1.00  0.00     0.045 C 
HETATM    2  C9  UNL     1      -5.200  -2.054  16.205  1.00  0.00    -0.055 C 
HETATM    3  C10 UNL     1      -6.393  -1.275  16.724  1.00  0.00     0.036 C 
HETATM    4  C11 UNL     1      -5.948  -0.219  17.689  1.00  0.00     0.004 C 
HETATM    5  C12 UNL     1      -4.915   0.721  17.108  1.00  0.00     0.001 C 
HETATM    6  C13 UNL     1      -3.873   0.017  16.307  1.00  0.00     0.004 C 
HETATM    7  C14 UNL     1      -3.885  -1.489  16.535  1.00  0.00     0.036 C 
ENDROOT
BRANCH   1   8
HETATM    8  N2  UNL     1      -4.303  -3.875  15.006  1.00  0.00    -0.263 N 
HETATM    9  N1  UNL     1      -3.636  -3.592  13.863  1.00  0.00    -0.297 N 
HETATM   10  C2  UNL     1      -2.646  -4.444  13.666  1.00  0.00     0.046 A 
ATOM     11  H1  UNL     1      -3.868  -2.822  13.236  1.00  0.00     0.187 HD
HETATM   12  C1  UNL     1      -1.657  -4.513  12.544  1.00  0.00     0.071 C 
HETATM   13  C17 UNL     1      -2.636  -5.338  14.709  1.00  0.00     0.081 A 
HETATM   14  C15 UNL     1      -3.701  -4.941  15.533  1.00  0.00     0.054 A 
HETATM   15 CL1  UNL     1      -1.569  -6.692  15.011  1.00  0.00    -0.080 Cl
HETATM   16  C16 UNL     1      -4.039  -5.659  16.794  1.00  0.00     0.072 C 
ENDBRANCH   1   8
BRANCH   1  17
HETATM   17  C4  UNL     1      -6.771  -3.551  15.155  1.00  0.00     0.162 C 
BRANCH  17  18
HETATM   18  C5  UNL     1      -7.206  -3.387  13.764  1.00  0.00     0.223 C 
HETATM   19  O1  UNL     1      -6.676  -2.656  12.893  1.00  0.00    -0.273 OA
HETATM   20  N3  UNL     1      -8.346  -4.124  13.334  1.00  0.00    -0.353 N 
ATOM     21  H3  UNL     1      -8.809  -4.732  14.009  1.00  0.00     0.163 HD
BRANCH  20  22
HETATM   22  C6  UNL     1      -8.879  -4.060  12.001  1.00  0.00     0.135 C 
HETATM   23  C7  UNL     1      -9.513  -5.320  11.482  1.00  0.00     0.259 C 
HETATM   24  N4  UNL     1     -10.810  -4.764  11.822  1.00  0.00    -0.071 N 
HETATM   25  C8  UNL     1     -10.265  -3.450  12.006  1.00  0.00     0.259 C 
ATOM     26  H42 UNL     1     -11.588  -4.891  11.174  1.00  0.00     0.277 HD
ATOM     27  H41 UNL     1     -11.347  -5.188  12.579  1.00  0.00     0.277 HD
ENDBRANCH  20  22
ENDBRANCH  17  18
ENDBRANCH   1  17
TORSDOF 4
ENDMDL
MODEL 5
REMARK VINA RESULT: -5.925442165      3.770      5.709
REMARK  4 active torsions:
REMARK  status: ('A' for Active; 'I' for Inactive)
REMARK    1  A    between atoms: N2_5  and  C3_6 
REMARK    2  A    between atoms: C3_6  and  C4_7 
REMARK    3  A    between atoms: C4_7  and  C5_8 
REMARK       I    between atoms: C5_8  and  N3_10 
REMARK    4  A    between atoms: N3_10  and  C6_12 
ROOT
HETATM    1  C3  UNL     1      -5.683  -1.703  13.140  1.00  0.00     0.045 C 
HETATM    2  C9  UNL     1      -6.718  -2.510  12.993  1.00  0.00    -0.055 C 
HETATM    3  C10 UNL     1      -7.741  -2.198  11.919  1.00  0.00     0.036 C 
HETATM    4  C11 UNL     1      -8.701  -3.338  11.765  1.00  0.00     0.004 C 
HETATM    5  C12 UNL     1      -9.391  -3.714  13.058  1.00  0.00     0.001 C 
HETATM    6  C13 UNL     1      -8.466  -3.727  14.227  1.00  0.00     0.004 C 
HETATM    7  C14 UNL     1      -7.001  -3.697  13.810  1.00  0.00     0.036 C 
ENDROOT
BRANCH   1   8
HETATM    8  N2  UNL     1      -4.724  -1.992  14.138  1.00  0.00    -0.263 N 
HETATM    9  N1  UNL     1      -3.615  -2.741  13.943  1.00  0.00    -0.297 N 
HETATM   10  C2  UNL     1      -2.905  -2.842  15.053  1.00  0.00     0.046 A 
ATOM     11  H1  UNL     1      -3.360  -3.172  13.054  1.00  0.00     0.187 HD
HETATM   12  C1  UNL     1      -1.619  -3.567  15.300  1.00  0.00     0.071 C 
HETATM   13  C17 UNL     1      -3.551  -2.137  16.040  1.00  0.00     0.081 A 
HETATM   14  C15 UNL     1      -4.696  -1.616  15.417  1.00  0.00     0.054 A 
HETATM   15 CL1  UNL     1      -3.108  -1.898  17.715  1.00  0.00    -0.080 Cl
HETATM   16  C16 UNL     1      -5.684  -0.775  16.151  1.00  0.00     0.072 C 
ENDBRANCH   1   8
BRANCH   1  17
HETATM   17  C4  UNL     1      -5.562  -0.504  12.322  1.00  0.00     0.162 C 
BRANCH  17  18
HETATM   18  C5  UNL     1      -4.437  -0.433  11.384  1.00  0.00     0.223 C 
HETATM   19  O1  UNL     1      -3.291  -0.917  11.549  1.00  0.00    -0.273 OA
HETATM   20  N3  UNL     1      -4.641   0.250  10.151  1.00  0.00    -0.353 N 
ATOM     21  H3  UNL     1      -5.558   0.660   9.975  1.00  0.00     0.163 HD
BRANCH  20  22
HETATM   22  C6  UNL     1      -3.628   0.395   9.143  1.00  0.00     0.135 C 
HETATM   23  C7  UNL     1      -4.110   0.411   7.720  1.00  0.00     0.259 C 
HETATM   24  N4  UNL     1      -4.021   1.859   7.744  1.00  0.00    -0.071 N 
HETATM   25  C8  UNL     1      -3.257   1.850   8.958  1.00  0.00     0.259 C 
ATOM     26  H42 UNL     1      -3.648   2.346   6.929  1.00  0.00     0.277 HD
ATOM     27  H41 UNL     1      -4.880   2.409   7.704  1.00  0.00     0.277 HD
ENDBRANCH  20  22
ENDBRANCH  17  18
ENDBRANCH   1  17
TORSDOF 4
ENDMDL
