MODEL 1
REMARK VINA RESULT: -8.483712404      0.000      0.000
REMARK  4 active torsions:
REMARK  status: ('A' for Active; 'I' for Inactive)
REMARK    1  A    between atoms: C1_2  and  C2_3 
REMARK       I    between atoms: C1_2  and  N2_12 
REMARK    2  A    between atoms: C2_3  and  N1_4 
REMARK    3  A    between atoms: N1_4  and  C3_6 
REMARK    4  A    between atoms: N2_12  and  C9_14 
ROOT
HETATM    1  O1  UNL     1     -10.741  -2.842  12.689  1.00  0.00    -0.271 OA
HETATM    2  C1  UNL     1     -10.118  -3.862  12.322  1.00  0.00     0.239 C 
HETATM    3  N2  UNL     1      -8.726  -3.949  12.359  1.00  0.00    -0.324 N 
ATOM      4  H2  UNL     1      -8.330  -4.828  12.026  1.00  0.00     0.169 HD
ENDROOT
BRANCH   3   5
HETATM    5  C9  UNL     1      -7.786  -2.978  12.797  1.00  0.00     0.059 A 
HETATM    6  C10 UNL     1      -7.083  -2.132  11.979  1.00  0.00     0.071 A 
HETATM    7  C11 UNL     1      -6.180  -1.221  12.497  1.00  0.00     0.104 A 
HETATM    8  C12 UNL     1      -5.936  -1.111  13.849  1.00  0.00     0.103 A 
HETATM    9  O3  UNL     1      -5.552  -0.441  11.536  1.00  0.00    -0.348 OA
HETATM   10  C13 UNL     1      -6.625  -1.942  14.672  1.00  0.00     0.065 A 
HETATM   11  O2  UNL     1      -5.056  -0.244  14.517  1.00  0.00    -0.348 OA
HETATM   12  C14 UNL     1      -7.524  -2.851  14.171  1.00  0.00     0.063 A 
HETATM   13 CL1  UNL     1      -8.405  -3.919  15.277  1.00  0.00    -0.082 Cl
HETATM   14  C15 UNL     1      -4.023   0.464  13.850  1.00  0.00     0.178 C 
HETATM   15  C16 UNL     1      -4.491   1.393  12.796  1.00  0.00     0.053 C 
HETATM   16  C17 UNL     1      -5.067   0.850  11.564  1.00  0.00     0.178 C 
ENDBRANCH   3   5
BRANCH   2  17
HETATM   17  C2  UNL     1     -10.952  -4.983  11.837  1.00  0.00     0.218 C 
BRANCH  17  18
HETATM   18  N1  UNL     1     -10.769  -6.241  12.451  1.00  0.00    -0.409 N 
ATOM     19  H1  UNL     1     -11.025  -6.398  13.425  1.00  0.00     0.154 HD
BRANCH  18  20
HETATM   20  C3  UNL     1     -10.212  -7.281  11.654  1.00  0.00     0.077 C 
HETATM   21  C4  UNL     1     -10.072  -6.865  10.192  1.00  0.00     0.024 C 
HETATM   22  C5  UNL     1      -8.757  -7.245   9.598  1.00  0.00     0.002 C 
HETATM   23  C6  UNL     1      -8.274  -8.625   9.988  1.00  0.00     0.000 C 
HETATM   24  C7  UNL     1      -8.360  -8.833  11.488  1.00  0.00     0.002 C 
HETATM   25  C8  UNL     1      -8.788  -7.530  12.157  1.00  0.00     0.024 C 
ENDBRANCH  18  20
ENDBRANCH  17  18
ENDBRANCH   2  17
TORSDOF 4
ENDMDL
MODEL 2
REMARK VINA RESULT: -8.090094427      0.644      1.170
REMARK  4 active torsions:
REMARK  status: ('A' for Active; 'I' for Inactive)
REMARK    1  A    between atoms: C1_2  and  C2_3 
REMARK       I    between atoms: C1_2  and  N2_12 
REMARK    2  A    between atoms: C2_3  and  N1_4 
REMARK    3  A    between atoms: N1_4  and  C3_6 
REMARK    4  A    between atoms: N2_12  and  C9_14 
ROOT
HETATM    1  O1  UNL     1     -10.876  -2.769  12.638  1.00  0.00    -0.271 OA
HETATM    2  C1  UNL     1     -10.291  -3.683  12.021  1.00  0.00     0.239 C 
HETATM    3  N2  UNL     1      -8.900  -3.778  11.954  1.00  0.00    -0.324 N 
ATOM      4  H2  UNL     1      -8.537  -4.563  11.413  1.00  0.00     0.169 HD
ENDROOT
BRANCH   3   5
HETATM    5  C9  UNL     1      -7.922  -2.929  12.538  1.00  0.00     0.059 A 
HETATM    6  C10 UNL     1      -7.165  -2.010  11.858  1.00  0.00     0.071 A 
HETATM    7  C11 UNL     1      -6.229  -1.230  12.511  1.00  0.00     0.104 A 
HETATM    8  C12 UNL     1      -6.003  -1.328  13.868  1.00  0.00     0.103 A 
HETATM    9  O3  UNL     1      -5.547  -0.351  11.679  1.00  0.00    -0.348 OA
HETATM   10  C13 UNL     1      -6.746  -2.233  14.555  1.00  0.00     0.065 A 
HETATM   11  O2  UNL     1      -5.095  -0.611  14.663  1.00  0.00    -0.348 OA
HETATM   12  C14 UNL     1      -7.679  -3.014  13.918  1.00  0.00     0.063 A 
HETATM   13 CL1  UNL     1      -8.630  -4.184  14.849  1.00  0.00    -0.082 Cl
HETATM   14  C15 UNL     1      -4.018   0.133  14.117  1.00  0.00     0.178 C 
HETATM   15  C16 UNL     1      -4.422   1.226  13.203  1.00  0.00     0.053 C 
HETATM   16  C17 UNL     1      -5.001   0.896  11.899  1.00  0.00     0.178 C 
ENDBRANCH   3   5
BRANCH   2  17
HETATM   17  C2  UNL     1     -11.167  -4.669  11.351  1.00  0.00     0.218 C 
BRANCH  17  18
HETATM   18  N1  UNL     1     -11.111  -6.003  11.809  1.00  0.00    -0.409 N 
ATOM     19  H1  UNL     1     -11.960  -6.522  12.037  1.00  0.00     0.154 HD
BRANCH  18  20
HETATM   20  C3  UNL     1      -9.824  -6.595  11.941  1.00  0.00     0.077 C 
HETATM   21  C4  UNL     1      -9.835  -7.772  12.914  1.00  0.00     0.024 C 
HETATM   22  C5  UNL     1      -9.085  -8.958  12.406  1.00  0.00     0.002 C 
HETATM   23  C6  UNL     1      -7.779  -8.621  11.721  1.00  0.00     0.000 C 
HETATM   24  C7  UNL     1      -7.964  -7.521  10.695  1.00  0.00     0.002 C 
HETATM   25  C8  UNL     1      -9.448  -7.181  10.579  1.00  0.00     0.024 C 
ENDBRANCH  18  20
ENDBRANCH  17  18
ENDBRANCH   2  17
TORSDOF 4
ENDMDL
MODEL 3
REMARK VINA RESULT: -7.911554592      0.895      1.051
REMARK  4 active torsions:
REMARK  status: ('A' for Active; 'I' for Inactive)
REMARK    1  A    between atoms: C1_2  and  C2_3 
REMARK       I    between atoms: C1_2  and  N2_12 
REMARK    2  A    between atoms: C2_3  and  N1_4 
REMARK    3  A    between atoms: N1_4  and  C3_6 
REMARK    4  A    between atoms: N2_12  and  C9_14 
ROOT
HETATM    1  O1  UNL     1     -10.435  -2.556  12.217  1.00  0.00    -0.271 OA
HETATM    2  C1  UNL     1      -9.733  -3.450  11.697  1.00  0.00     0.239 C 
HETATM    3  N2  UNL     1      -8.357  -3.547  11.907  1.00  0.00    -0.324 N 
ATOM      4  H2  UNL     1      -7.890  -4.313  11.423  1.00  0.00     0.169 HD
ENDROOT
BRANCH   3   5
HETATM    5  C9  UNL     1      -7.520  -2.721  12.704  1.00  0.00     0.059 A 
HETATM    6  C10 UNL     1      -6.655  -1.773  12.223  1.00  0.00     0.071 A 
HETATM    7  C11 UNL     1      -5.871  -1.020  13.077  1.00  0.00     0.104 A 
HETATM    8  C12 UNL     1      -5.911  -1.175  14.446  1.00  0.00     0.103 A 
HETATM    9  O3  UNL     1      -5.050  -0.104  12.430  1.00  0.00    -0.348 OA
HETATM   10  C13 UNL     1      -6.762  -2.111  14.938  1.00  0.00     0.065 A 
HETATM   11  O2  UNL     1      -5.180  -0.492  15.432  1.00  0.00    -0.348 OA
HETATM   12  C14 UNL     1      -7.547  -2.865  14.100  1.00  0.00     0.063 A 
HETATM   13 CL1  UNL     1      -8.647  -4.077  14.781  1.00  0.00    -0.082 Cl
HETATM   14  C15 UNL     1      -4.026   0.278  15.136  1.00  0.00     0.178 C 
HETATM   15  C16 UNL     1      -4.257   1.409  14.208  1.00  0.00     0.053 C 
HETATM   16  C17 UNL     1      -4.570   1.133  12.803  1.00  0.00     0.178 C 
ENDBRANCH   3   5
BRANCH   2  17
HETATM   17  C2  UNL     1     -10.454  -4.409  10.832  1.00  0.00     0.218 C 
BRANCH  17  18
HETATM   18  N1  UNL     1     -11.077  -5.510  11.461  1.00  0.00    -0.409 N 
ATOM     19  H1  UNL     1     -11.968  -5.409  11.946  1.00  0.00     0.154 HD
BRANCH  18  20
HETATM   20  C3  UNL     1     -10.410  -6.765  11.390  1.00  0.00     0.077 C 
HETATM   21  C4  UNL     1      -9.219  -6.723  10.435  1.00  0.00     0.024 C 
HETATM   22  C5  UNL     1      -8.000  -7.382  10.989  1.00  0.00     0.002 C 
HETATM   23  C6  UNL     1      -8.273  -8.678  11.722  1.00  0.00     0.000 C 
HETATM   24  C7  UNL     1      -9.399  -8.516  12.724  1.00  0.00     0.002 C 
HETATM   25  C8  UNL     1      -9.826  -7.052  12.775  1.00  0.00     0.024 C 
ENDBRANCH  18  20
ENDBRANCH  17  18
ENDBRANCH   2  17
TORSDOF 4
ENDMDL
MODEL 4
REMARK VINA RESULT: -7.536530092      1.177      1.417
REMARK  4 active torsions:
REMARK  status: ('A' for Active; 'I' for Inactive)
REMARK    1  A    between atoms: C1_2  and  C2_3 
REMARK       I    between atoms: C1_2  and  N2_12 
REMARK    2  A    between atoms: C2_3  and  N1_4 
REMARK    3  A    between atoms: N1_4  and  C3_6 
REMARK    4  A    between atoms: N2_12  and  C9_14 
ROOT
HETATM    1  O1  UNL     1      -9.376  -2.750  11.336  1.00  0.00    -0.271 OA
HETATM    2  C1  UNL     1      -9.239  -3.497  12.327  1.00  0.00     0.239 C 
HETATM    3  N2  UNL     1      -8.199  -3.350  13.246  1.00  0.00    -0.324 N 
ATOM      4  H2  UNL     1      -8.185  -4.025  14.009  1.00  0.00     0.169 HD
ENDROOT
BRANCH   3   5
HETATM    5  C9  UNL     1      -7.156  -2.384  13.259  1.00  0.00     0.059 A 
HETATM    6  C10 UNL     1      -6.539  -1.871  12.148  1.00  0.00     0.071 A 
HETATM    7  C11 UNL     1      -5.524  -0.938  12.259  1.00  0.00     0.104 A 
HETATM    8  C12 UNL     1      -5.078  -0.474  13.478  1.00  0.00     0.103 A 
HETATM    9  O3  UNL     1      -5.005  -0.520  11.041  1.00  0.00    -0.348 OA
HETATM   10  C13 UNL     1      -5.680  -0.973  14.588  1.00  0.00     0.065 A 
HETATM   11  O2  UNL     1      -4.067   0.462  13.748  1.00  0.00    -0.348 OA
HETATM   12  C14 UNL     1      -6.689  -1.900  14.491  1.00  0.00     0.063 A 
HETATM   13 CL1  UNL     1      -7.450  -2.528  15.963  1.00  0.00    -0.082 Cl
HETATM   14  C15 UNL     1      -3.109   0.857  12.779  1.00  0.00     0.178 C 
HETATM   15  C16 UNL     1      -3.679   1.489  11.567  1.00  0.00     0.053 C 
HETATM   16  C17 UNL     1      -4.457   0.676  10.630  1.00  0.00     0.178 C 
ENDBRANCH   3   5
BRANCH   2  17
HETATM   17  C2  UNL     1     -10.252  -4.565  12.471  1.00  0.00     0.218 C 
BRANCH  17  18
HETATM   18  N1  UNL     1      -9.784  -5.877  12.701  1.00  0.00    -0.409 N 
ATOM     19  H1  UNL     1      -9.770  -6.278  13.639  1.00  0.00     0.154 HD
BRANCH  18  20
HETATM   20  C3  UNL     1      -9.334  -6.617  11.572  1.00  0.00     0.077 C 
HETATM   21  C4  UNL     1      -7.839  -6.920  11.650  1.00  0.00     0.024 C 
HETATM   22  C5  UNL     1      -7.508  -8.329  11.288  1.00  0.00     0.002 C 
HETATM   23  C6  UNL     1      -8.275  -8.863  10.098  1.00  0.00     0.000 C 
HETATM   24  C7  UNL     1      -9.761  -8.592  10.237  1.00  0.00     0.002 C 
HETATM   25  C8  UNL     1     -10.038  -7.975  11.605  1.00  0.00     0.024 C 
ENDBRANCH  18  20
ENDBRANCH  17  18
ENDBRANCH   2  17
TORSDOF 4
ENDMDL
MODEL 5
REMARK VINA RESULT: -7.514705815      1.171      1.312
REMARK  4 active torsions:
REMARK  status: ('A' for Active; 'I' for Inactive)
REMARK    1  A    between atoms: C1_2  and  C2_3 
REMARK       I    between atoms: C1_2  and  N2_12 
REMARK    2  A    between atoms: C2_3  and  N1_4 
REMARK    3  A    between atoms: N1_4  and  C3_6 
REMARK    4  A    between atoms: N2_12  and  C9_14 
ROOT
HETATM    1  O1  UNL     1      -9.771  -3.324  13.496  1.00  0.00    -0.271 OA
HETATM    2  C1  UNL     1      -8.954  -4.242  13.271  1.00  0.00     0.239 C 
HETATM    3  N2  UNL     1      -7.577  -4.029  13.213  1.00  0.00    -0.324 N 
ATOM      4  H2  UNL     1      -7.011  -4.853  13.013  1.00  0.00     0.169 HD
ENDROOT
BRANCH   3   5
HETATM    5  C9  UNL     1      -6.857  -2.817  13.394  1.00  0.00     0.059 A 
HETATM    6  C10 UNL     1      -6.474  -1.966  12.389  1.00  0.00     0.071 A 
HETATM    7  C11 UNL     1      -5.767  -0.810  12.661  1.00  0.00     0.104 A 
HETATM    8  C12 UNL     1      -5.407  -0.448  13.942  1.00  0.00     0.103 A 
HETATM    9  O3  UNL     1      -5.457  -0.060  11.534  1.00  0.00    -0.348 OA
HETATM   10  C13 UNL     1      -5.779  -1.281  14.948  1.00  0.00     0.065 A 
HETATM   11  O2  UNL     1      -4.694   0.683  14.370  1.00  0.00    -0.348 OA
HETATM   12  C14 UNL     1      -6.482  -2.432  14.691  1.00  0.00     0.063 A 
HETATM   13 CL1  UNL     1      -6.950  -3.494  16.031  1.00  0.00    -0.082 Cl
HETATM   14  C15 UNL     1      -3.945   1.499  13.483  1.00  0.00     0.178 C 
HETATM   15  C16 UNL     1      -4.738   2.132  12.405  1.00  0.00     0.053 C 
HETATM   16  C17 UNL     1      -5.299   1.296  11.340  1.00  0.00     0.178 C 
ENDBRANCH   3   5
BRANCH   2  17
HETATM   17  C2  UNL     1      -9.540  -5.584  13.061  1.00  0.00     0.218 C 
BRANCH  17  18
HETATM   18  N1  UNL     1     -10.764  -5.656  12.363  1.00  0.00    -0.409 N 
ATOM     19  H1  UNL     1     -11.601  -5.188  12.709  1.00  0.00     0.154 HD
BRANCH  18  20
HETATM   20  C3  UNL     1     -10.783  -6.409  11.155  1.00  0.00     0.077 C 
HETATM   21  C4  UNL     1     -10.600  -5.519   9.927  1.00  0.00     0.024 C 
HETATM   22  C5  UNL     1      -9.635  -6.079   8.937  1.00  0.00     0.002 C 
HETATM   23  C6  UNL     1      -9.767  -7.570   8.714  1.00  0.00     0.000 C 
HETATM   24  C7  UNL     1      -9.807  -8.321  10.031  1.00  0.00     0.002 C 
HETATM   25  C8  UNL     1      -9.570  -7.343  11.179  1.00  0.00     0.024 C 
ENDBRANCH  18  20
ENDBRANCH  17  18
ENDBRANCH   2  17
TORSDOF 4
ENDMDL
