MODEL 1
REMARK VINA RESULT: -7.292024130      0.000      0.000
REMARK  5 active torsions:
REMARK  status: ('A' for Active; 'I' for Inactive)
REMARK    1  A    between atoms: C2_2  and  S1_4 
REMARK    2  A    between atoms: S1_4  and  N1_7 
REMARK    3  A    between atoms: N1_7  and  N2_9 
REMARK    4  A    between atoms: N2_9  and  C3_11 
REMARK    5  A    between atoms: C4_14  and  C5_15 
ROOT
HETATM    1  C3  UNL     1      -9.695  -4.329  12.408  1.00  0.00     0.164 A 
HETATM    2  N3  UNL     1      -8.705  -4.441  13.295  1.00  0.00    -0.338 N 
ATOM      3  H3  UNL     1      -8.705  -5.201  13.976  1.00  0.00     0.168 HD
HETATM    4  C4  UNL     1      -7.741  -3.567  13.281  1.00  0.00     0.022 A 
HETATM    5  C11 UNL     1      -7.804  -2.571  12.336  1.00  0.00     0.078 A 
HETATM    6  S2  UNL     1      -9.255  -2.944  11.518  1.00  0.00    -0.062 SA
ENDROOT
BRANCH   1   7
HETATM    7  N2  UNL     1     -10.744  -5.118  12.279  1.00  0.00    -0.270 N 
ATOM      8  H2  UNL     1     -11.561  -5.035  12.884  1.00  0.00     0.190 HD
BRANCH   7   9
HETATM    9  N1  UNL     1     -10.666  -6.074  11.264  1.00  0.00    -0.224 N 
ATOM     10  H1  UNL     1     -11.103  -5.909  10.357  1.00  0.00     0.200 HD
BRANCH   9  11
HETATM   11  S1  UNL     1      -9.806  -7.554  11.581  1.00  0.00     0.261 S 
HETATM   12  O1  UNL     1     -10.479  -8.345  12.655  1.00  0.00    -0.203 OA
HETATM   13  O2  UNL     1      -8.416  -7.196  11.996  1.00  0.00    -0.203 OA
BRANCH  11  14
HETATM   14  C2  UNL     1      -9.805  -8.468  10.041  1.00  0.00     0.222 C 
HETATM   15  C1  UNL     1      -8.442  -9.095   9.876  1.00  0.00     0.045 C 
HETATM   16 CL1  UNL     1     -10.199  -7.416   8.672  1.00  0.00    -0.107 Cl
ENDBRANCH  11  14
ENDBRANCH   9  11
ENDBRANCH   7   9
ENDBRANCH   1   7
BRANCH   4  17
HETATM   17  C5  UNL     1      -6.553  -3.579  14.234  1.00  0.00     0.036 C 
HETATM   18  C6  UNL     1      -5.586  -2.481  13.829  1.00  0.00     0.011 C 
HETATM   19  C7  UNL     1      -4.976  -1.786  15.010  1.00  0.00     0.001 C 
HETATM   20  C8  UNL     1      -6.057  -1.178  15.871  1.00  0.00     0.000 C 
HETATM   21  C9  UNL     1      -7.096  -2.167  16.267  1.00  0.00     0.001 C 
HETATM   22  C10 UNL     1      -6.987  -3.515  15.656  1.00  0.00     0.011 C 
ENDBRANCH   4  17
TORSDOF 5
ENDMDL
MODEL 2
REMARK VINA RESULT: -7.084526497      0.903      1.489
REMARK  5 active torsions:
REMARK  status: ('A' for Active; 'I' for Inactive)
REMARK    1  A    between atoms: C2_2  and  S1_4 
REMARK    2  A    between atoms: S1_4  and  N1_7 
REMARK    3  A    between atoms: N1_7  and  N2_9 
REMARK    4  A    between atoms: N2_9  and  C3_11 
REMARK    5  A    between atoms: C4_14  and  C5_15 
ROOT
HETATM    1  C3  UNL     1      -9.654  -4.656  12.720  1.00  0.00     0.164 A 
HETATM    2  N3  UNL     1      -8.753  -4.052  13.498  1.00  0.00    -0.338 N 
ATOM      3  H3  UNL     1      -8.603  -4.368  14.456  1.00  0.00     0.168 HD
HETATM    4  C4  UNL     1      -8.071  -3.054  13.017  1.00  0.00     0.022 A 
HETATM    5  C11 UNL     1      -8.324  -2.681  11.719  1.00  0.00     0.078 A 
HETATM    6  S2  UNL     1      -9.537  -3.790  11.257  1.00  0.00    -0.062 SA
ENDROOT
BRANCH   1   7
HETATM    7  N2  UNL     1     -10.428  -5.675  13.040  1.00  0.00    -0.270 N 
ATOM      8  H2  UNL     1     -10.795  -5.801  13.983  1.00  0.00     0.190 HD
BRANCH   7   9
HETATM    9  N1  UNL     1     -10.715  -6.570  12.006  1.00  0.00    -0.224 N 
ATOM     10  H1  UNL     1     -11.518  -6.421  11.394  1.00  0.00     0.200 HD
BRANCH   9  11
HETATM   11  S1  UNL     1      -9.670  -7.945  11.785  1.00  0.00     0.261 S 
HETATM   12  O1  UNL     1     -10.108  -9.093  12.635  1.00  0.00    -0.203 OA
HETATM   13  O2  UNL     1      -8.282  -7.529  12.153  1.00  0.00    -0.203 OA
BRANCH  11  14
HETATM   14  C2  UNL     1      -9.777  -8.377  10.051  1.00  0.00     0.222 C 
HETATM   15  C1  UNL     1      -8.478  -9.037   9.657  1.00  0.00     0.045 C 
HETATM   16 CL1  UNL     1     -10.100  -6.949   9.054  1.00  0.00    -0.107 Cl
ENDBRANCH  11  14
ENDBRANCH   9  11
ENDBRANCH   7   9
ENDBRANCH   1   7
BRANCH   4  17
HETATM   17  C5  UNL     1      -7.015  -2.279  13.794  1.00  0.00     0.036 C 
HETATM   18  C6  UNL     1      -7.296  -2.418  15.279  1.00  0.00     0.011 C 
HETATM   19  C7  UNL     1      -6.043  -2.563  16.091  1.00  0.00     0.001 C 
HETATM   20  C8  UNL     1      -5.265  -3.773  15.635  1.00  0.00     0.000 C 
HETATM   21  C9  UNL     1      -4.996  -3.763  14.172  1.00  0.00     0.001 C 
HETATM   22  C10 UNL     1      -5.637  -2.673  13.394  1.00  0.00     0.011 C 
ENDBRANCH   4  17
TORSDOF 5
ENDMDL
MODEL 3
REMARK VINA RESULT: -7.082822984      2.541      3.089
REMARK  5 active torsions:
REMARK  status: ('A' for Active; 'I' for Inactive)
REMARK    1  A    between atoms: C2_2  and  S1_4 
REMARK    2  A    between atoms: S1_4  and  N1_7 
REMARK    3  A    between atoms: N1_7  and  N2_9 
REMARK    4  A    between atoms: N2_9  and  C3_11 
REMARK    5  A    between atoms: C4_14  and  C5_15 
ROOT
HETATM    1  C3  UNL     1      -7.827  -2.609  12.191  1.00  0.00     0.164 A 
HETATM    2  N3  UNL     1      -7.557  -2.952  13.452  1.00  0.00    -0.338 N 
ATOM      3  H3  UNL     1      -8.192  -3.559  13.970  1.00  0.00     0.168 HD
HETATM    4  C4  UNL     1      -6.472  -2.500  14.011  1.00  0.00     0.022 A 
HETATM    5  C11 UNL     1      -5.661  -1.688  13.255  1.00  0.00     0.078 A 
HETATM    6  S2  UNL     1      -6.507  -1.615  11.774  1.00  0.00    -0.062 SA
ENDROOT
BRANCH   1   7
HETATM    7  N2  UNL     1      -8.872  -2.970  11.473  1.00  0.00    -0.270 N 
ATOM      8  H2  UNL     1      -8.805  -3.151  10.472  1.00  0.00     0.190 HD
BRANCH   7   9
HETATM    9  N1  UNL     1     -10.077  -3.091  12.170  1.00  0.00    -0.224 N 
ATOM     10  H1  UNL     1     -10.243  -2.555  13.022  1.00  0.00     0.200 HD
BRANCH   9  11
HETATM   11  S1  UNL     1     -11.289  -4.177  11.551  1.00  0.00     0.261 S 
HETATM   12  O1  UNL     1     -12.662  -3.635  11.781  1.00  0.00    -0.203 OA
HETATM   13  O2  UNL     1     -11.126  -5.489  12.248  1.00  0.00    -0.203 OA
BRANCH  11  14
HETATM   14  C2  UNL     1     -10.966  -4.333   9.797  1.00  0.00     0.222 C 
HETATM   15  C1  UNL     1     -12.296  -4.397   9.085  1.00  0.00     0.045 C 
HETATM   16 CL1  UNL     1      -9.984  -5.767   9.451  1.00  0.00    -0.107 Cl
ENDBRANCH  11  14
ENDBRANCH   9  11
ENDBRANCH   7   9
ENDBRANCH   1   7
BRANCH   4  17
HETATM   17  C5  UNL     1      -6.044  -2.814  15.439  1.00  0.00     0.036 C 
HETATM   18  C6  UNL     1      -4.531  -2.928  15.485  1.00  0.00     0.011 C 
HETATM   19  C7  UNL     1      -3.946  -2.333  16.731  1.00  0.00     0.001 C 
HETATM   20  C8  UNL     1      -4.320  -0.873  16.835  1.00  0.00     0.000 C 
HETATM   21  C9  UNL     1      -5.787  -0.650  16.732  1.00  0.00     0.001 C 
HETATM   22  C10 UNL     1      -6.612  -1.842  16.411  1.00  0.00     0.011 C 
ENDBRANCH   4  17
TORSDOF 5
ENDMDL
MODEL 4
REMARK VINA RESULT: -7.067387188      2.888      3.754
REMARK  5 active torsions:
REMARK  status: ('A' for Active; 'I' for Inactive)
REMARK    1  A    between atoms: C2_2  and  S1_4 
REMARK    2  A    between atoms: S1_4  and  N1_7 
REMARK    3  A    between atoms: N1_7  and  N2_9 
REMARK    4  A    between atoms: N2_9  and  C3_11 
REMARK    5  A    between atoms: C4_14  and  C5_15 
ROOT
HETATM    1  C3  UNL     1      -8.267  -3.168  13.825  1.00  0.00     0.164 A 
HETATM    2  N3  UNL     1      -7.298  -2.714  13.028  1.00  0.00    -0.338 N 
ATOM      3  H3  UNL     1      -7.375  -2.809  12.015  1.00  0.00     0.168 HD
HETATM    4  C4  UNL     1      -6.255  -2.148  13.561  1.00  0.00     0.022 A 
HETATM    5  C11 UNL     1      -6.218  -2.051  14.931  1.00  0.00     0.078 A 
HETATM    6  S2  UNL     1      -7.691  -2.785  15.382  1.00  0.00    -0.062 SA
ENDROOT
BRANCH   1   7
HETATM    7  N2  UNL     1      -9.385  -3.764  13.460  1.00  0.00    -0.270 N 
ATOM      8  H2  UNL     1      -9.799  -4.521  14.005  1.00  0.00     0.190 HD
BRANCH   7   9
HETATM    9  N1  UNL     1      -9.969  -3.295  12.281  1.00  0.00    -0.224 N 
ATOM     10  H1  UNL     1      -9.630  -2.443  11.834  1.00  0.00     0.200 HD
BRANCH   9  11
HETATM   11  S1  UNL     1     -11.288  -4.199  11.591  1.00  0.00     0.261 S 
HETATM   12  O1  UNL     1     -12.595  -3.527  11.858  1.00  0.00    -0.203 OA
HETATM   13  O2  UNL     1     -11.274  -5.564  12.198  1.00  0.00    -0.203 OA
BRANCH  11  14
HETATM   14  C2  UNL     1     -10.972  -4.272   9.830  1.00  0.00     0.222 C 
HETATM   15  C1  UNL     1     -12.298  -4.439   9.128  1.00  0.00     0.045 C 
HETATM   16 CL1  UNL     1      -9.864  -5.595   9.432  1.00  0.00    -0.107 Cl
ENDBRANCH  11  14
ENDBRANCH   9  11
ENDBRANCH   7   9
ENDBRANCH   1   7
BRANCH   4  17
HETATM   17  C5  UNL     1      -5.081  -1.585  12.769  1.00  0.00     0.036 C 
HETATM   18  C6  UNL     1      -5.600  -1.006  11.465  1.00  0.00     0.011 C 
HETATM   19  C7  UNL     1      -4.899   0.262  11.078  1.00  0.00     0.001 C 
HETATM   20  C8  UNL     1      -5.065   1.299  12.163  1.00  0.00     0.000 C 
HETATM   21  C9  UNL     1      -4.644   0.801  13.500  1.00  0.00     0.001 C 
HETATM   22  C10 UNL     1      -4.275  -0.635  13.580  1.00  0.00     0.011 C 
ENDBRANCH   4  17
TORSDOF 5
ENDMDL
MODEL 5
REMARK VINA RESULT: -7.050668239      2.479      3.437
REMARK  5 active torsions:
REMARK  status: ('A' for Active; 'I' for Inactive)
REMARK    1  A    between atoms: C2_2  and  S1_4 
REMARK    2  A    between atoms: S1_4  and  N1_7 
REMARK    3  A    between atoms: N1_7  and  N2_9 
REMARK    4  A    between atoms: N2_9  and  C3_11 
REMARK    5  A    between atoms: C4_14  and  C5_15 
ROOT
HETATM    1  C3  UNL     1      -7.948  -2.987  13.086  1.00  0.00     0.164 A 
HETATM    2  N3  UNL     1      -6.973  -2.127  13.387  1.00  0.00    -0.338 N 
ATOM      3  H3  UNL     1      -6.463  -1.644  12.647  1.00  0.00     0.168 HD
HETATM    4  C4  UNL     1      -6.681  -1.914  14.637  1.00  0.00     0.022 A 
HETATM    5  C11 UNL     1      -7.408  -2.597  15.582  1.00  0.00     0.078 A 
HETATM    6  S2  UNL     1      -8.476  -3.515  14.618  1.00  0.00    -0.062 SA
ENDROOT
BRANCH   1   7
HETATM    7  N2  UNL     1      -8.373  -3.322  11.884  1.00  0.00    -0.270 N 
ATOM      8  H2  UNL     1      -7.790  -3.841  11.228  1.00  0.00     0.190 HD
BRANCH   7   9
HETATM    9  N1  UNL     1      -9.673  -2.921  11.564  1.00  0.00    -0.224 N 
ATOM     10  H1  UNL     1      -9.898  -1.934  11.437  1.00  0.00     0.200 HD
BRANCH   9  11
HETATM   11  S1  UNL     1     -10.899  -4.145  11.387  1.00  0.00     0.261 S 
HETATM   12  O1  UNL     1     -12.221  -3.654  11.880  1.00  0.00    -0.203 OA
HETATM   13  O2  UNL     1     -10.467  -5.342  12.171  1.00  0.00    -0.203 OA
BRANCH  11  14
HETATM   14  C2  UNL     1     -10.983  -4.514   9.637  1.00  0.00     0.222 C 
HETATM   15  C1  UNL     1     -12.439  -4.539   9.239  1.00  0.00     0.045 C 
HETATM   16 CL1  UNL     1     -10.190  -6.054   9.268  1.00  0.00    -0.107 Cl
ENDBRANCH  11  14
ENDBRANCH   9  11
ENDBRANCH   7   9
ENDBRANCH   1   7
BRANCH   4  17
HETATM   17  C5  UNL     1      -5.596  -0.959  15.117  1.00  0.00     0.036 C 
HETATM   18  C6  UNL     1      -5.681  -0.837  16.628  1.00  0.00     0.011 C 
HETATM   19  C7  UNL     1      -4.331  -0.770  17.278  1.00  0.00     0.001 C 
HETATM   20  C8  UNL     1      -3.530  -2.004  16.941  1.00  0.00     0.000 C 
HETATM   21  C9  UNL     1      -3.445  -2.250  15.476  1.00  0.00     0.001 C 
HETATM   22  C10 UNL     1      -4.253  -1.354  14.612  1.00  0.00     0.011 C 
ENDBRANCH   4  17
TORSDOF 5
ENDMDL
