MODEL 1
REMARK VINA RESULT: -7.587638065      0.000      0.000
REMARK  5 active torsions:
REMARK  status: ('A' for Active; 'I' for Inactive)
REMARK    1  A    between atoms: O1_1  and  C1_3 
REMARK    2  A    between atoms: C1_3  and  O2_4 
REMARK    3  A    between atoms: O2_4  and  C2_5 
REMARK    4  A    between atoms: N1_9  and  C6_10 
REMARK    5  A    between atoms: C9_15  and  C10_16 
ROOT
HETATM    1  C6  UNL     1      -7.406  -2.580  12.927  1.00  0.00     0.054 A 
HETATM    2  C7  UNL     1      -6.578  -1.959  12.016  1.00  0.00     0.063 A 
HETATM    3  C8  UNL     1      -5.567  -1.088  12.430  1.00  0.00     0.062 A 
HETATM    4  N2  UNL     1      -4.642  -0.366  11.770  1.00  0.00    -0.344 N 
ATOM      5  H2  UNL     1      -4.524  -0.341  10.758  1.00  0.00     0.167 HD
HETATM    6  C9  UNL     1      -3.896   0.319  12.658  1.00  0.00     0.086 A 
HETATM    7  N3  UNL     1      -4.372   0.014  13.876  1.00  0.00    -0.344 N 
ATOM      8  H3  UNL     1      -4.004   0.384  14.753  1.00  0.00     0.167 HD
HETATM    9  C13 UNL     1      -5.406  -0.854  13.779  1.00  0.00     0.062 A 
HETATM   10  C14 UNL     1      -6.224  -1.465  14.718  1.00  0.00     0.058 A 
HETATM   11  C15 UNL     1      -7.227  -2.333  14.267  1.00  0.00     0.062 A 
HETATM   12 CL1  UNL     1      -8.280  -3.122  15.416  1.00  0.00    -0.082 Cl
ENDROOT
BRANCH   1  13
HETATM   13  N1  UNL     1      -8.436  -3.470  12.528  1.00  0.00    -0.379 N 
HETATM   14  C5  UNL     1      -8.364  -4.855  12.900  1.00  0.00     0.123 C 
HETATM   15  C4  UNL     1      -8.553  -5.681  11.650  1.00  0.00     0.022 C 
HETATM   16  C3  UNL     1      -9.856  -5.429  10.969  1.00  0.00     0.034 C 
HETATM   17  C2  UNL     1     -10.922  -4.890  11.888  1.00  0.00     0.125 C 
HETATM   18  C17 UNL     1     -10.827  -3.399  12.092  1.00  0.00     0.051 C 
HETATM   19  C16 UNL     1      -9.477  -2.828  11.754  1.00  0.00     0.125 C 
BRANCH  17  20
HETATM   20  O2  UNL     1     -12.150  -5.160  11.287  1.00  0.00    -0.362 OA
BRANCH  20  21
HETATM   21  C1  UNL     1     -12.331  -4.428  10.120  1.00  0.00     0.335 C 
BRANCH  21  22
HETATM   22  O1  UNL     1     -13.489  -4.806   9.442  1.00  0.00    -0.377 OA
ATOM     23  H1  UNL     1     -13.293  -5.248   8.624  1.00  0.00     0.212 HD
ENDBRANCH  21  22
ENDBRANCH  20  21
ENDBRANCH  17  20
ENDBRANCH   1  13
BRANCH   6  24
HETATM   24  C10 UNL     1      -2.761   1.240  12.343  1.00  0.00     0.053 A 
HETATM   25  C11 UNL     1      -2.615   1.801  10.980  1.00  0.00     0.013 A 
HETATM   26  C12 UNL     1      -3.126   2.696  12.059  1.00  0.00     0.013 A 
ENDBRANCH   6  24
TORSDOF 5
ENDMDL
MODEL 2
REMARK VINA RESULT: -7.121507226      1.353      2.126
REMARK  5 active torsions:
REMARK  status: ('A' for Active; 'I' for Inactive)
REMARK    1  A    between atoms: O1_1  and  C1_3 
REMARK    2  A    between atoms: C1_3  and  O2_4 
REMARK    3  A    between atoms: O2_4  and  C2_5 
REMARK    4  A    between atoms: N1_9  and  C6_10 
REMARK    5  A    between atoms: C9_15  and  C10_16 
ROOT
HETATM    1  C6  UNL     1      -7.590  -2.764  12.730  1.00  0.00     0.054 A 
HETATM    2  C7  UNL     1      -6.778  -1.970  11.946  1.00  0.00     0.063 A 
HETATM    3  C8  UNL     1      -5.842  -1.104  12.516  1.00  0.00     0.062 A 
HETATM    4  N2  UNL     1      -4.948  -0.240  12.000  1.00  0.00    -0.344 N 
ATOM      5  H2  UNL     1      -4.801  -0.066  11.006  1.00  0.00     0.167 HD
HETATM    6  C9  UNL     1      -4.277   0.359  13.002  1.00  0.00     0.086 A 
HETATM    7  N3  UNL     1      -4.768  -0.143  14.147  1.00  0.00    -0.344 N 
ATOM      8  H3  UNL     1      -4.454   0.122  15.080  1.00  0.00     0.167 HD
HETATM    9  C13 UNL     1      -5.738  -1.052  13.890  1.00  0.00     0.062 A 
HETATM   10  C14 UNL     1      -6.541  -1.840  14.702  1.00  0.00     0.058 A 
HETATM   11  C15 UNL     1      -7.469  -2.697  14.097  1.00  0.00     0.062 A 
HETATM   12 CL1  UNL     1      -8.500  -3.704  15.083  1.00  0.00    -0.082 Cl
ENDROOT
BRANCH   1  13
HETATM   13  N1  UNL     1      -8.545  -3.651  12.171  1.00  0.00    -0.379 N 
HETATM   14  C5  UNL     1      -9.671  -3.122  11.452  1.00  0.00     0.123 C 
HETATM   15  C4  UNL     1     -10.921  -3.748  12.025  1.00  0.00     0.022 C 
HETATM   16  C3  UNL     1     -10.935  -5.236  11.922  1.00  0.00     0.034 C 
HETATM   17  C2  UNL     1     -10.056  -5.772  10.820  1.00  0.00     0.125 C 
HETATM   18  C17 UNL     1      -8.609  -5.890  11.225  1.00  0.00     0.051 C 
HETATM   19  C16 UNL     1      -8.243  -5.045  12.415  1.00  0.00     0.125 C 
BRANCH  17  20
HETATM   20  O2  UNL     1     -10.520  -7.052  10.519  1.00  0.00    -0.362 OA
BRANCH  20  21
HETATM   21  C1  UNL     1      -9.498  -7.887  10.083  1.00  0.00     0.335 C 
BRANCH  21  22
HETATM   22  O1  UNL     1      -9.884  -9.226  10.083  1.00  0.00    -0.377 OA
ATOM     23  H1  UNL     1      -9.152  -9.806   9.908  1.00  0.00     0.212 HD
ENDBRANCH  21  22
ENDBRANCH  20  21
ENDBRANCH  17  20
ENDBRANCH   1  13
BRANCH   6  24
HETATM   24  C10 UNL     1      -3.198   1.385  12.863  1.00  0.00     0.053 A 
HETATM   25  C11 UNL     1      -3.095   2.192  11.626  1.00  0.00     0.013 A 
HETATM   26  C12 UNL     1      -3.646   2.845  12.848  1.00  0.00     0.013 A 
ENDBRANCH   6  24
TORSDOF 5
ENDMDL
MODEL 3
REMARK VINA RESULT: -6.897534035      2.353      3.491
REMARK  5 active torsions:
REMARK  status: ('A' for Active; 'I' for Inactive)
REMARK    1  A    between atoms: O1_1  and  C1_3 
REMARK    2  A    between atoms: C1_3  and  O2_4 
REMARK    3  A    between atoms: O2_4  and  C2_5 
REMARK    4  A    between atoms: N1_9  and  C6_10 
REMARK    5  A    between atoms: C9_15  and  C10_16 
ROOT
HETATM    1  C6  UNL     1      -7.793  -2.816  13.699  1.00  0.00     0.054 A 
HETATM    2  C7  UNL     1      -7.774  -2.722  15.075  1.00  0.00     0.063 A 
HETATM    3  C8  UNL     1      -6.860  -1.895  15.732  1.00  0.00     0.062 A 
HETATM    4  N2  UNL     1      -6.629  -1.622  17.031  1.00  0.00    -0.344 N 
ATOM      5  H2  UNL     1      -7.141  -2.020  17.818  1.00  0.00     0.167 HD
HETATM    6  C9  UNL     1      -5.615  -0.742  17.127  1.00  0.00     0.086 A 
HETATM    7  N3  UNL     1      -5.219  -0.474  15.872  1.00  0.00    -0.344 N 
ATOM      8  H3  UNL     1      -4.462   0.164  15.625  1.00  0.00     0.167 HD
HETATM    9  C13 UNL     1      -5.964  -1.167  14.980  1.00  0.00     0.062 A 
HETATM   10  C14 UNL     1      -5.960  -1.243  13.594  1.00  0.00     0.058 A 
HETATM   11  C15 UNL     1      -6.891  -2.081  12.968  1.00  0.00     0.062 A 
HETATM   12 CL1  UNL     1      -6.918  -2.207  11.226  1.00  0.00    -0.082 Cl
ENDROOT
BRANCH   1  13
HETATM   13  N1  UNL     1      -8.714  -3.648  13.011  1.00  0.00    -0.379 N 
HETATM   14  C5  UNL     1      -8.641  -5.074  13.170  1.00  0.00     0.123 C 
HETATM   15  C4  UNL     1      -8.606  -5.692  11.793  1.00  0.00     0.022 C 
HETATM   16  C3  UNL     1      -9.802  -5.356  10.966  1.00  0.00     0.034 C 
HETATM   17  C2  UNL     1     -11.015  -4.990  11.783  1.00  0.00     0.125 C 
HETATM   18  C17 UNL     1     -11.013  -3.550  12.228  1.00  0.00     0.051 C 
HETATM   19  C16 UNL     1      -9.653  -2.908  12.196  1.00  0.00     0.125 C 
BRANCH  17  20
HETATM   20  O2  UNL     1     -12.127  -5.181  10.965  1.00  0.00    -0.362 OA
BRANCH  20  21
HETATM   21  C1  UNL     1     -12.058  -4.419   9.805  1.00  0.00     0.335 C 
BRANCH  21  22
HETATM   22  O1  UNL     1     -13.132  -4.669   8.952  1.00  0.00    -0.377 OA
ATOM     23  H1  UNL     1     -12.849  -5.033   8.122  1.00  0.00     0.212 HD
ENDBRANCH  21  22
ENDBRANCH  20  21
ENDBRANCH  17  20
ENDBRANCH   1  13
BRANCH   6  24
HETATM   24  C10 UNL     1      -5.043  -0.177  18.388  1.00  0.00     0.053 A 
HETATM   25  C11 UNL     1      -4.668   1.253  18.460  1.00  0.00     0.013 A 
HETATM   26  C12 UNL     1      -5.920   0.818  19.145  1.00  0.00     0.013 A 
ENDBRANCH   6  24
TORSDOF 5
ENDMDL
MODEL 4
REMARK VINA RESULT: -6.853370125      3.173      3.839
REMARK  5 active torsions:
REMARK  status: ('A' for Active; 'I' for Inactive)
REMARK    1  A    between atoms: O1_1  and  C1_3 
REMARK    2  A    between atoms: C1_3  and  O2_4 
REMARK    3  A    between atoms: O2_4  and  C2_5 
REMARK    4  A    between atoms: N1_9  and  C6_10 
REMARK    5  A    between atoms: C9_15  and  C10_16 
ROOT
HETATM    1  C6  UNL     1      -7.026  -3.183  14.243  1.00  0.00     0.054 A 
HETATM    2  C7  UNL     1      -7.214  -2.123  15.105  1.00  0.00     0.063 A 
HETATM    3  C8  UNL     1      -6.196  -1.694  15.960  1.00  0.00     0.062 A 
HETATM    4  N2  UNL     1      -6.113  -0.713  16.879  1.00  0.00    -0.344 N 
ATOM      5  H2  UNL     1      -6.861  -0.061  17.115  1.00  0.00     0.167 HD
HETATM    6  C9  UNL     1      -4.887  -0.726  17.435  1.00  0.00     0.086 A 
HETATM    7  N3  UNL     1      -4.212  -1.730  16.852  1.00  0.00    -0.344 N 
ATOM      8  H3  UNL     1      -3.249  -1.987  17.071  1.00  0.00     0.167 HD
HETATM    9  C13 UNL     1      -4.987  -2.354  15.934  1.00  0.00     0.062 A 
HETATM   10  C14 UNL     1      -4.770  -3.424  15.078  1.00  0.00     0.058 A 
HETATM   11  C15 UNL     1      -5.812  -3.826  14.233  1.00  0.00     0.062 A 
HETATM   12 CL1  UNL     1      -5.580  -5.170  13.140  1.00  0.00    -0.082 Cl
ENDROOT
BRANCH   1  13
HETATM   13  N1  UNL     1      -8.045  -3.632  13.365  1.00  0.00    -0.379 N 
HETATM   14  C5  UNL     1      -8.928  -4.687  13.780  1.00  0.00     0.123 C 
HETATM   15  C4  UNL     1      -8.933  -5.740  12.698  1.00  0.00     0.022 C 
HETATM   16  C3  UNL     1      -9.385  -5.222  11.374  1.00  0.00     0.034 C 
HETATM   17  C2  UNL     1     -10.257  -3.996  11.472  1.00  0.00     0.125 C 
HETATM   18  C17 UNL     1      -9.467  -2.720  11.617  1.00  0.00     0.051 C 
HETATM   19  C16 UNL     1      -8.058  -2.932  12.099  1.00  0.00     0.125 C 
BRANCH  17  20
HETATM   20  O2  UNL     1     -10.980  -3.917  10.283  1.00  0.00    -0.362 OA
BRANCH  20  21
HETATM   21  C1  UNL     1     -12.299  -4.325  10.447  1.00  0.00     0.335 C 
BRANCH  21  22
HETATM   22  O1  UNL     1     -12.881  -3.762  11.582  1.00  0.00    -0.377 OA
ATOM     23  H1  UNL     1     -12.529  -4.133  12.382  1.00  0.00     0.212 HD
ENDBRANCH  21  22
ENDBRANCH  20  21
ENDBRANCH  17  20
ENDBRANCH   1  13
BRANCH   6  24
HETATM   24  C10 UNL     1      -4.382   0.197  18.497  1.00  0.00     0.053 A 
HETATM   25  C11 UNL     1      -5.327   0.830  19.444  1.00  0.00     0.013 A 
HETATM   26  C12 UNL     1      -4.488  -0.300  19.937  1.00  0.00     0.013 A 
ENDBRANCH   6  24
TORSDOF 5
ENDMDL
MODEL 5
REMARK VINA RESULT: -6.633908439      2.568      4.077
REMARK  5 active torsions:
REMARK  status: ('A' for Active; 'I' for Inactive)
REMARK    1  A    between atoms: O1_1  and  C1_3 
REMARK    2  A    between atoms: C1_3  and  O2_4 
REMARK    3  A    between atoms: O2_4  and  C2_5 
REMARK    4  A    between atoms: N1_9  and  C6_10 
REMARK    5  A    between atoms: C9_15  and  C10_16 
ROOT
HETATM    1  C6  UNL     1      -7.764  -2.820  13.401  1.00  0.00     0.054 A 
HETATM    2  C7  UNL     1      -7.831  -2.787  14.778  1.00  0.00     0.063 A 
HETATM    3  C8  UNL     1      -6.966  -1.986  15.527  1.00  0.00     0.062 A 
HETATM    4  N2  UNL     1      -6.818  -1.770  16.848  1.00  0.00    -0.344 N 
ATOM      5  H2  UNL     1      -7.373  -2.206  17.584  1.00  0.00     0.167 HD
HETATM    6  C9  UNL     1      -5.820  -0.888  17.046  1.00  0.00     0.086 A 
HETATM    7  N3  UNL     1      -5.350  -0.561  15.831  1.00  0.00    -0.344 N 
ATOM      8  H3  UNL     1      -4.586   0.093  15.660  1.00  0.00     0.167 HD
HETATM    9  C13 UNL     1      -6.033  -1.218  14.864  1.00  0.00     0.062 A 
HETATM   10  C14 UNL     1      -5.943  -1.231  13.480  1.00  0.00     0.058 A 
HETATM   11  C15 UNL     1      -6.826  -2.047  12.760  1.00  0.00     0.062 A 
HETATM   12 CL1  UNL     1      -6.745  -2.094  11.016  1.00  0.00    -0.082 Cl
ENDROOT
BRANCH   1  13
HETATM   13  N1  UNL     1      -8.634  -3.626  12.621  1.00  0.00    -0.379 N 
HETATM   14  C5  UNL     1      -9.542  -3.004  11.698  1.00  0.00     0.123 C 
HETATM   15  C4  UNL     1     -10.924  -3.549  11.970  1.00  0.00     0.022 C 
HETATM   16  C3  UNL     1     -11.014  -5.030  11.817  1.00  0.00     0.034 C 
HETATM   17  C2  UNL     1      -9.956  -5.607  10.909  1.00  0.00     0.125 C 
HETATM   18  C17 UNL     1      -8.640  -5.835  11.608  1.00  0.00     0.051 C 
HETATM   19  C16 UNL     1      -8.483  -5.042  12.877  1.00  0.00     0.125 C 
BRANCH  17  20
HETATM   20  O2  UNL     1     -10.428  -6.844  10.473  1.00  0.00    -0.362 OA
BRANCH  20  21
HETATM   21  C1  UNL     1      -9.434  -7.815  10.490  1.00  0.00     0.335 C 
BRANCH  21  22
HETATM   22  O1  UNL     1      -9.921  -9.064  10.108  1.00  0.00    -0.377 OA
ATOM     23  H1  UNL     1      -9.346  -9.769  10.384  1.00  0.00     0.212 HD
ENDBRANCH  21  22
ENDBRANCH  20  21
ENDBRANCH  17  20
ENDBRANCH   1  13
BRANCH   6  24
HETATM   24  C10 UNL     1      -5.332  -0.377  18.364  1.00  0.00     0.053 A 
HETATM   25  C11 UNL     1      -4.945   1.044  18.514  1.00  0.00     0.013 A 
HETATM   26  C12 UNL     1      -6.247   0.604  19.093  1.00  0.00     0.013 A 
ENDBRANCH   6  24
TORSDOF 5
ENDMDL
