MODEL 1
REMARK VINA RESULT: -7.333389451      0.000      0.000
REMARK  10 active torsions:
REMARK  status: ('A' for Active; 'I' for Inactive)
REMARK    1  A    between atoms: C1_4  and  C2_6 
REMARK    2  A    between atoms: C2_6  and  S1_7 
REMARK    3  A    between atoms: S1_7  and  C3_8 
REMARK    4  A    between atoms: N6_13  and  C4_14 
REMARK    5  A    between atoms: C7_17  and  N7_18 
REMARK    6  A    between atoms: C10_26  and  N10_27 
REMARK    7  A    between atoms: C11_32  and  C12_33 
REMARK    8  A    between atoms: C11_32  and  C13_36 
REMARK    9  A    between atoms: C12_33  and  O1_34 
REMARK       I    between atoms: C13_36  and  N12_38 
REMARK   10  A    between atoms: N12_38  and  N13_40 
ROOT
HETATM    1  C4  UNL     1     -47.336  78.888 151.537  1.00  0.00     0.130 A 
HETATM    2  C5  UNL     1     -48.000  79.590 150.555  1.00  0.00     0.068 A 
HETATM    3  C6  UNL     1     -47.344  80.442 149.676  1.00  0.00     0.043 A 
HETATM    4  C7  UNL     1     -48.030  81.130 148.705  1.00  0.00     0.132 A 
HETATM    5  N8  UNL     1     -47.334  81.947 147.875  1.00  0.00    -0.230 N 
HETATM    6  C8  UNL     1     -46.012  82.069 148.012  1.00  0.00     0.124 A 
HETATM    7  N9  UNL     1     -45.323  81.386 148.976  1.00  0.00    -0.340 N 
ATOM      8  H9  UNL     1     -44.313  81.498 149.058  1.00  0.00     0.167 HD
HETATM    9  C9  UNL     1     -45.978  80.571 149.812  1.00  0.00     0.092 A 
HETATM   10  C10 UNL     1     -45.306  79.856 150.811  1.00  0.00     0.128 A 
HETATM   11  N11 UNL     1     -46.003  79.049 151.628  1.00  0.00    -0.326 N 
ATOM     12  H11 UNL     1     -45.499  78.536 152.350  1.00  0.00     0.169 HD
HETATM   13  C11 UNL     1     -45.559  83.034 146.970  1.00  0.00     0.138 C 
HETATM   14  C14 UNL     1     -46.628  82.906 145.921  1.00  0.00     0.165 C 
HETATM   15  N14 UNL     1     -47.802  82.751 146.794  1.00  0.00    -0.129 NA
ENDROOT
BRANCH   1  16
HETATM   16  N6  UNL     1     -48.065  78.031 152.407  1.00  0.00    -0.203 N 
HETATM   17  C3  UNL     1     -48.089  78.144 153.747  1.00  0.00     0.179 A 
HETATM   18  N3  UNL     1     -48.891  77.152 154.231  1.00  0.00    -0.264 N 
HETATM   19  N4  UNL     1     -49.340  76.456 153.198  1.00  0.00    -0.006 NA
ATOM     20  H3  UNL     1     -49.106  76.978 155.212  1.00  0.00     0.186 HD
HETATM   21  N5  UNL     1     -48.838  76.993 152.096  1.00  0.00     0.002 NA
BRANCH  17  22
HETATM   22  S1  UNL     1     -47.208  79.391 154.676  1.00  0.00    -0.084 SA
BRANCH  22  23
HETATM   23  C2  UNL     1     -48.297  80.795 155.051  1.00  0.00     0.155 C 
BRANCH  23  24
HETATM   24  C1  UNL     1     -48.956  81.346 153.870  1.00  0.00     0.096 C 
HETATM   25  N1  UNL     1     -50.184  81.070 153.634  1.00  0.00    -0.390 N 
ATOM     26  H12 UNL     1     -50.644  81.455 152.809  1.00  0.00     0.157 HD
ATOM     27  H11 UNL     1     -50.696  80.465 154.276  1.00  0.00     0.157 HD
HETATM   28  N2  UNL     1     -48.248  82.182 152.981  1.00  0.00    -0.087 NA
ENDBRANCH  23  24
ENDBRANCH  22  23
ENDBRANCH  17  22
ENDBRANCH   1  16
BRANCH  10  29
HETATM   29  N10 UNL     1     -44.032  79.981 150.932  1.00  0.00    -0.384 N 
ATOM     30 2H10 UNL     1     -43.594  80.902 150.948  1.00  0.00     0.157 HD
ATOM     31 1H10 UNL     1     -43.450  79.147 151.013  1.00  0.00     0.157 HD
ENDBRANCH  10  29
BRANCH   4  32
HETATM   32  N7  UNL     1     -49.307  81.003 148.584  1.00  0.00    -0.383 N 
ATOM     33  H72 UNL     1     -49.915  81.055 149.401  1.00  0.00     0.157 HD
ATOM     34  H71 UNL     1     -49.732  80.849 147.669  1.00  0.00     0.157 HD
ENDBRANCH   4  32
BRANCH  13  35
HETATM   35  C12 UNL     1     -45.599  84.439 147.488  1.00  0.00     0.193 C 
BRANCH  35  36
HETATM   36  O1  UNL     1     -45.920  85.355 146.498  1.00  0.00    -0.399 OA
ATOM     37  H1  UNL     1     -46.521  86.023 146.807  1.00  0.00     0.209 HD
ENDBRANCH  35  36
ENDBRANCH  13  35
BRANCH  13  38
HETATM   38  C13 UNL     1     -44.209  82.720 146.465  1.00  0.00     0.255 C 
HETATM   39  O2  UNL     1     -43.965  81.537 146.075  1.00  0.00    -0.270 OA
HETATM   40  N12 UNL     1     -43.165  83.661 146.388  1.00  0.00    -0.276 N 
ATOM     41  H12 UNL     1     -43.326  84.621 146.692  1.00  0.00     0.189 HD
BRANCH  40  42
HETATM   42  N13 UNL     1     -41.924  83.295 145.904  1.00  0.00    -0.343 N 
ATOM     43 2H13 UNL     1     -41.873  82.599 145.160  1.00  0.00     0.176 HD
ATOM     44 1H13 UNL     1     -41.075  83.713 146.284  1.00  0.00     0.176 HD
ENDBRANCH  40  42
ENDBRANCH  13  38
TORSDOF 10
ENDMDL
MODEL 2
REMARK VINA RESULT: -7.096577886      1.396      1.787
REMARK  10 active torsions:
REMARK  status: ('A' for Active; 'I' for Inactive)
REMARK    1  A    between atoms: C1_4  and  C2_6 
REMARK    2  A    between atoms: C2_6  and  S1_7 
REMARK    3  A    between atoms: S1_7  and  C3_8 
REMARK    4  A    between atoms: N6_13  and  C4_14 
REMARK    5  A    between atoms: C7_17  and  N7_18 
REMARK    6  A    between atoms: C10_26  and  N10_27 
REMARK    7  A    between atoms: C11_32  and  C12_33 
REMARK    8  A    between atoms: C11_32  and  C13_36 
REMARK    9  A    between atoms: C12_33  and  O1_34 
REMARK       I    between atoms: C13_36  and  N12_38 
REMARK   10  A    between atoms: N12_38  and  N13_40 
ROOT
HETATM    1  C4  UNL     1     -47.330  78.891 151.511  1.00  0.00     0.130 A 
HETATM    2  C5  UNL     1     -47.993  79.599 150.533  1.00  0.00     0.068 A 
HETATM    3  C6  UNL     1     -47.334  80.451 149.656  1.00  0.00     0.043 A 
HETATM    4  C7  UNL     1     -48.020  81.146 148.689  1.00  0.00     0.132 A 
HETATM    5  N8  UNL     1     -47.322  81.963 147.861  1.00  0.00    -0.230 N 
HETATM    6  C8  UNL     1     -45.999  82.080 147.996  1.00  0.00     0.124 A 
HETATM    7  N9  UNL     1     -45.311  81.391 148.957  1.00  0.00    -0.340 N 
ATOM      8  H9  UNL     1     -44.301  81.500 149.039  1.00  0.00     0.167 HD
HETATM    9  C9  UNL     1     -45.968  80.575 149.791  1.00  0.00     0.092 A 
HETATM   10  C10 UNL     1     -45.297  79.854 150.786  1.00  0.00     0.128 A 
HETATM   11  N11 UNL     1     -45.996  79.047 151.601  1.00  0.00    -0.326 N 
ATOM     12  H11 UNL     1     -45.493  78.529 152.321  1.00  0.00     0.169 HD
HETATM   13  C11 UNL     1     -45.544  83.047 146.958  1.00  0.00     0.138 C 
HETATM   14  C14 UNL     1     -46.614  82.926 145.909  1.00  0.00     0.165 C 
HETATM   15  N14 UNL     1     -47.789  82.773 146.784  1.00  0.00    -0.129 NA
ENDROOT
BRANCH   1  16
HETATM   16  N6  UNL     1     -48.061  78.033 152.380  1.00  0.00    -0.203 N 
HETATM   17  C3  UNL     1     -48.161  78.198 153.710  1.00  0.00     0.179 A 
HETATM   18  N3  UNL     1     -48.937  77.186 154.195  1.00  0.00    -0.264 N 
HETATM   19  N4  UNL     1     -49.296  76.427 153.171  1.00  0.00    -0.006 NA
ATOM     20  H3  UNL     1     -49.195  77.041 155.170  1.00  0.00     0.186 HD
HETATM   21  N5  UNL     1     -48.763  76.944 152.074  1.00  0.00     0.002 NA
BRANCH  17  22
HETATM   22  S1  UNL     1     -47.394  79.525 154.629  1.00  0.00    -0.084 SA
BRANCH  22  23
HETATM   23  C2  UNL     1     -45.989  78.903 155.597  1.00  0.00     0.155 C 
BRANCH  23  24
HETATM   24  C1  UNL     1     -44.776  79.701 155.433  1.00  0.00     0.096 C 
HETATM   25  N1  UNL     1     -44.143  80.123 156.463  1.00  0.00    -0.390 N 
ATOM     26  H12 UNL     1     -43.296  80.680 156.349  1.00  0.00     0.157 HD
ATOM     27  H11 UNL     1     -44.491  79.897 157.395  1.00  0.00     0.157 HD
HETATM   28  N2  UNL     1     -44.295  80.015 154.145  1.00  0.00    -0.087 NA
ENDBRANCH  23  24
ENDBRANCH  22  23
ENDBRANCH  17  22
ENDBRANCH   1  16
BRANCH  10  29
HETATM   29  N10 UNL     1     -44.023  79.974 150.906  1.00  0.00    -0.384 N 
ATOM     30 2H10 UNL     1     -43.571  80.885 150.824  1.00  0.00     0.157 HD
ATOM     31 1H10 UNL     1     -43.454  79.146 151.087  1.00  0.00     0.157 HD
ENDBRANCH  10  29
BRANCH   4  32
HETATM   32  N7  UNL     1     -49.297  81.024 148.569  1.00  0.00    -0.383 N 
ATOM     33  H72 UNL     1     -49.887  81.842 148.426  1.00  0.00     0.157 HD
ATOM     34  H71 UNL     1     -49.740  80.106 148.615  1.00  0.00     0.157 HD
ENDBRANCH   4  32
BRANCH  13  35
HETATM   35  C12 UNL     1     -45.578  84.450 147.481  1.00  0.00     0.193 C 
BRANCH  35  36
HETATM   36  O1  UNL     1     -45.922  85.369 146.500  1.00  0.00    -0.399 OA
ATOM     37  H1  UNL     1     -46.425  84.974 145.797  1.00  0.00     0.209 HD
ENDBRANCH  35  36
ENDBRANCH  13  35
BRANCH  13  38
HETATM   38  C13 UNL     1     -44.196  82.731 146.450  1.00  0.00     0.255 C 
HETATM   39  O2  UNL     1     -43.954  81.546 146.063  1.00  0.00    -0.270 OA
HETATM   40  N12 UNL     1     -43.151  83.671 146.367  1.00  0.00    -0.276 N 
ATOM     41  H12 UNL     1     -43.311  84.632 146.669  1.00  0.00     0.189 HD
BRANCH  40  42
HETATM   42  N13 UNL     1     -41.912  83.302 145.881  1.00  0.00    -0.343 N 
ATOM     43 2H13 UNL     1     -41.861  82.576 145.166  1.00  0.00     0.176 HD
ATOM     44 1H13 UNL     1     -41.064  83.747 146.232  1.00  0.00     0.176 HD
ENDBRANCH  40  42
ENDBRANCH  13  38
TORSDOF 10
ENDMDL
MODEL 3
REMARK VINA RESULT: -6.714590340      2.547      4.398
REMARK  10 active torsions:
REMARK  status: ('A' for Active; 'I' for Inactive)
REMARK    1  A    between atoms: C1_4  and  C2_6 
REMARK    2  A    between atoms: C2_6  and  S1_7 
REMARK    3  A    between atoms: S1_7  and  C3_8 
REMARK    4  A    between atoms: N6_13  and  C4_14 
REMARK    5  A    between atoms: C7_17  and  N7_18 
REMARK    6  A    between atoms: C10_26  and  N10_27 
REMARK    7  A    between atoms: C11_32  and  C12_33 
REMARK    8  A    between atoms: C11_32  and  C13_36 
REMARK    9  A    between atoms: C12_33  and  O1_34 
REMARK       I    between atoms: C13_36  and  N12_38 
REMARK   10  A    between atoms: N12_38  and  N13_40 
ROOT
HETATM    1  C4  UNL     1     -47.028  79.533 153.236  1.00  0.00     0.130 A 
HETATM    2  C5  UNL     1     -45.753  80.050 153.288  1.00  0.00     0.068 A 
HETATM    3  C6  UNL     1     -44.974  80.227 152.151  1.00  0.00     0.043 A 
HETATM    4  C7  UNL     1     -43.705  80.745 152.231  1.00  0.00     0.132 A 
HETATM    5  N8  UNL     1     -42.993  80.895 151.086  1.00  0.00    -0.230 N 
HETATM    6  C8  UNL     1     -43.528  80.542 149.915  1.00  0.00     0.124 A 
HETATM    7  N9  UNL     1     -44.792  80.025 149.829  1.00  0.00    -0.340 N 
ATOM      8  H9  UNL     1     -45.176  79.763 148.922  1.00  0.00     0.167 HD
HETATM    9  C9  UNL     1     -45.523  79.864 150.939  1.00  0.00     0.092 A 
HETATM   10  C10 UNL     1     -46.820  79.338 150.890  1.00  0.00     0.128 A 
HETATM   11  N11 UNL     1     -47.517  79.194 152.029  1.00  0.00    -0.326 N 
ATOM     12  H11 UNL     1     -48.460  78.810 151.976  1.00  0.00     0.169 HD
HETATM   13  C11 UNL     1     -42.501  80.818 148.872  1.00  0.00     0.138 C 
HETATM   14  C14 UNL     1     -41.671  81.897 149.509  1.00  0.00     0.165 C 
HETATM   15  N14 UNL     1     -41.677  81.413 150.899  1.00  0.00    -0.129 NA
ENDROOT
BRANCH   1  16
HETATM   16  N6  UNL     1     -47.776  79.376 154.436  1.00  0.00    -0.203 N 
HETATM   17  C3  UNL     1     -47.737  78.286 155.223  1.00  0.00     0.179 A 
HETATM   18  N3  UNL     1     -48.580  78.505 156.273  1.00  0.00    -0.264 N 
HETATM   19  N4  UNL     1     -49.117  79.706 156.117  1.00  0.00    -0.006 NA
ATOM     20  H3  UNL     1     -48.765  77.860 157.040  1.00  0.00     0.186 HD
HETATM   21  N5  UNL     1     -48.625  80.229 155.003  1.00  0.00     0.002 NA
BRANCH  17  22
HETATM   22  S1  UNL     1     -46.739  76.839 154.904  1.00  0.00    -0.084 SA
BRANCH  22  23
HETATM   23  C2  UNL     1     -47.590  75.716 153.758  1.00  0.00     0.155 C 
BRANCH  23  24
HETATM   24  C1  UNL     1     -49.032  75.940 153.695  1.00  0.00     0.096 C 
HETATM   25  N1  UNL     1     -49.817  75.284 154.466  1.00  0.00    -0.390 N 
ATOM     26  H12 UNL     1     -50.824  75.441 154.422  1.00  0.00     0.157 HD
ATOM     27  H11 UNL     1     -49.427  74.608 155.122  1.00  0.00     0.157 HD
HETATM   28  N2  UNL     1     -49.571  76.876 152.787  1.00  0.00    -0.087 NA
ENDBRANCH  23  24
ENDBRANCH  22  23
ENDBRANCH  17  22
ENDBRANCH   1  16
BRANCH  10  29
HETATM   29  N10 UNL     1     -47.324  79.002 149.756  1.00  0.00    -0.384 N 
ATOM     30 2H10 UNL     1     -46.929  78.236 149.211  1.00  0.00     0.157 HD
ATOM     31 1H10 UNL     1     -48.133  79.510 149.395  1.00  0.00     0.157 HD
ENDBRANCH  10  29
BRANCH   4  32
HETATM   32  N7  UNL     1     -43.200  81.083 153.367  1.00  0.00    -0.383 N 
ATOM     33  H72 UNL     1     -43.373  82.008 153.760  1.00  0.00     0.157 HD
ATOM     34  H71 UNL     1     -42.619  80.431 153.895  1.00  0.00     0.157 HD
ENDBRANCH   4  32
BRANCH  13  35
HETATM   35  C12 UNL     1     -41.614  79.628 148.664  1.00  0.00     0.193 C 
BRANCH  35  36
HETATM   36  O1  UNL     1     -42.325  78.507 148.260  1.00  0.00    -0.399 OA
ATOM     37  H1  UNL     1     -41.761  77.756 148.115  1.00  0.00     0.209 HD
ENDBRANCH  35  36
ENDBRANCH  13  35
BRANCH  13  38
HETATM   38  C13 UNL     1     -43.102  81.228 147.588  1.00  0.00     0.255 C 
HETATM   39  O2  UNL     1     -42.808  80.572 146.542  1.00  0.00    -0.270 OA
HETATM   40  N12 UNL     1     -43.990  82.312 147.452  1.00  0.00    -0.276 N 
ATOM     41  H12 UNL     1     -44.248  82.860 148.272  1.00  0.00     0.189 HD
BRANCH  40  42
HETATM   42  N13 UNL     1     -44.514  82.639 146.216  1.00  0.00    -0.343 N 
ATOM     43 2H13 UNL     1     -44.161  83.468 145.737  1.00  0.00     0.176 HD
ATOM     44 1H13 UNL     1     -45.239  82.062 145.791  1.00  0.00     0.176 HD
ENDBRANCH  40  42
ENDBRANCH  13  38
TORSDOF 10
ENDMDL
MODEL 4
REMARK VINA RESULT: -6.714102744      1.515      3.058
REMARK  10 active torsions:
REMARK  status: ('A' for Active; 'I' for Inactive)
REMARK    1  A    between atoms: C1_4  and  C2_6 
REMARK    2  A    between atoms: C2_6  and  S1_7 
REMARK    3  A    between atoms: S1_7  and  C3_8 
REMARK    4  A    between atoms: N6_13  and  C4_14 
REMARK    5  A    between atoms: C7_17  and  N7_18 
REMARK    6  A    between atoms: C10_26  and  N10_27 
REMARK    7  A    between atoms: C11_32  and  C12_33 
REMARK    8  A    between atoms: C11_32  and  C13_36 
REMARK    9  A    between atoms: C12_33  and  O1_34 
REMARK       I    between atoms: C13_36  and  N12_38 
REMARK   10  A    between atoms: N12_38  and  N13_40 
ROOT
HETATM    1  C4  UNL     1     -47.289  79.559 151.109  1.00  0.00     0.130 A 
HETATM    2  C5  UNL     1     -45.922  79.547 150.938  1.00  0.00     0.068 A 
HETATM    3  C6  UNL     1     -45.289  80.294 149.952  1.00  0.00     0.043 A 
HETATM    4  C7  UNL     1     -43.923  80.265 149.803  1.00  0.00     0.132 A 
HETATM    5  N8  UNL     1     -43.363  81.016 148.823  1.00  0.00    -0.230 N 
HETATM    6  C8  UNL     1     -44.133  81.763 148.029  1.00  0.00     0.124 A 
HETATM    7  N9  UNL     1     -45.493  81.797 148.173  1.00  0.00    -0.340 N 
ATOM      8  H9  UNL     1     -46.058  82.376 147.552  1.00  0.00     0.167 HD
HETATM    9  C9  UNL     1     -46.080  81.068 149.130  1.00  0.00     0.092 A 
HETATM   10  C10 UNL     1     -47.469  81.078 149.307  1.00  0.00     0.128 A 
HETATM   11  N11 UNL     1     -48.016  80.331 150.280  1.00  0.00    -0.326 N 
ATOM     12  H11 UNL     1     -49.029  80.349 150.396  1.00  0.00     0.169 HD
HETATM   13  C11 UNL     1     -43.225  82.446 147.066  1.00  0.00     0.138 C 
HETATM   14  C14 UNL     1     -41.923  82.484 147.817  1.00  0.00     0.165 C 
HETATM   15  N14 UNL     1     -41.988  81.168 148.473  1.00  0.00    -0.129 NA
ENDROOT
BRANCH   1  16
HETATM   16  N6  UNL     1     -47.878  78.772 152.137  1.00  0.00    -0.203 N 
HETATM   17  C3  UNL     1     -47.821  79.061 153.449  1.00  0.00     0.179 A 
HETATM   18  N3  UNL     1     -48.497  78.083 154.117  1.00  0.00    -0.264 N 
HETATM   19  N4  UNL     1     -48.951  77.221 153.221  1.00  0.00    -0.006 NA
ATOM     20  H3  UNL     1     -48.629  78.026 155.127  1.00  0.00     0.186 HD
HETATM   21  N5  UNL     1     -48.574  77.643 152.023  1.00  0.00     0.002 NA
BRANCH  17  22
HETATM   22  S1  UNL     1     -46.994  80.488 154.138  1.00  0.00    -0.084 SA
BRANCH  22  23
HETATM   23  C2  UNL     1     -48.194  81.791 154.536  1.00  0.00     0.155 C 
BRANCH  23  24
HETATM   24  C1  UNL     1     -49.294  81.875 153.578  1.00  0.00     0.096 C 
HETATM   25  N1  UNL     1     -50.437  81.374 153.870  1.00  0.00    -0.390 N 
ATOM     26  H12 UNL     1     -51.205  81.433 153.201  1.00  0.00     0.157 HD
ATOM     27  H11 UNL     1     -50.571  80.920 154.773  1.00  0.00     0.157 HD
HETATM   28  N2  UNL     1     -49.108  82.503 152.329  1.00  0.00    -0.087 NA
ENDBRANCH  23  24
ENDBRANCH  22  23
ENDBRANCH  17  22
ENDBRANCH   1  16
BRANCH  10  29
HETATM   29  N10 UNL     1     -48.201  81.802 148.537  1.00  0.00    -0.384 N 
ATOM     30 2H10 UNL     1     -48.308  81.575 147.548  1.00  0.00     0.157 HD
ATOM     31 1H10 UNL     1     -48.683  82.616 148.920  1.00  0.00     0.157 HD
ENDBRANCH  10  29
BRANCH   4  32
HETATM   32  N7  UNL     1     -43.191  79.540 150.576  1.00  0.00    -0.383 N 
ATOM     33  H72 UNL     1     -42.520  79.971 151.212  1.00  0.00     0.157 HD
ATOM     34  H71 UNL     1     -43.269  78.523 150.567  1.00  0.00     0.157 HD
ENDBRANCH   4  32
BRANCH  13  35
HETATM   35  C12 UNL     1     -43.017  81.611 145.840  1.00  0.00     0.193 C 
BRANCH  35  36
HETATM   36  O1  UNL     1     -41.690  81.243 145.673  1.00  0.00    -0.399 OA
ATOM     37  H1  UNL     1     -41.389  80.660 146.360  1.00  0.00     0.209 HD
ENDBRANCH  35  36
ENDBRANCH  13  35
BRANCH  13  38
HETATM   38  C13 UNL     1     -43.715  83.785 146.687  1.00  0.00     0.255 C 
HETATM   39  O2  UNL     1     -44.909  83.900 146.271  1.00  0.00    -0.270 OA
HETATM   40  N12 UNL     1     -42.934  84.953 146.759  1.00  0.00    -0.276 N 
ATOM     41  H12 UNL     1     -41.971  84.898 147.089  1.00  0.00     0.189 HD
BRANCH  40  42
HETATM   42  N13 UNL     1     -43.461  86.175 146.385  1.00  0.00    -0.343 N 
ATOM     43 2H13 UNL     1     -44.248  86.552 146.913  1.00  0.00     0.176 HD
ATOM     44 1H13 UNL     1     -43.070  86.689 145.596  1.00  0.00     0.176 HD
ENDBRANCH  40  42
ENDBRANCH  13  38
TORSDOF 10
ENDMDL
MODEL 5
REMARK VINA RESULT: -6.693558862      1.928      4.068
REMARK  10 active torsions:
REMARK  status: ('A' for Active; 'I' for Inactive)
REMARK    1  A    between atoms: C1_4  and  C2_6 
REMARK    2  A    between atoms: C2_6  and  S1_7 
REMARK    3  A    between atoms: S1_7  and  C3_8 
REMARK    4  A    between atoms: N6_13  and  C4_14 
REMARK    5  A    between atoms: C7_17  and  N7_18 
REMARK    6  A    between atoms: C10_26  and  N10_27 
REMARK    7  A    between atoms: C11_32  and  C12_33 
REMARK    8  A    between atoms: C11_32  and  C13_36 
REMARK    9  A    between atoms: C12_33  and  O1_34 
REMARK       I    between atoms: C13_36  and  N12_38 
REMARK   10  A    between atoms: N12_38  and  N13_40 
ROOT
HETATM    1  C4  UNL     1     -47.482  81.447 151.565  1.00  0.00     0.130 A 
HETATM    2  C5  UNL     1     -46.121  81.282 151.428  1.00  0.00     0.068 A 
HETATM    3  C6  UNL     1     -45.440  81.649 150.274  1.00  0.00     0.043 A 
HETATM    4  C7  UNL     1     -44.082  81.474 150.163  1.00  0.00     0.132 A 
HETATM    5  N8  UNL     1     -43.472  81.852 149.012  1.00  0.00    -0.230 N 
HETATM    6  C8  UNL     1     -44.189  82.381 148.018  1.00  0.00     0.124 A 
HETATM    7  N9  UNL     1     -45.541  82.558 148.122  1.00  0.00    -0.340 N 
ATOM      8  H9  UNL     1     -46.065  82.963 147.347  1.00  0.00     0.167 HD
HETATM    9  C9  UNL     1     -46.176  82.196 149.245  1.00  0.00     0.092 A 
HETATM   10  C10 UNL     1     -47.559  82.362 149.387  1.00  0.00     0.128 A 
HETATM   11  N11 UNL     1     -48.154  81.985 150.531  1.00  0.00    -0.326 N 
ATOM     12  H11 UNL     1     -49.162  82.113 150.619  1.00  0.00     0.169 HD
HETATM   13  C11 UNL     1     -43.237  82.673 146.910  1.00  0.00     0.138 C 
HETATM   14  C14 UNL     1     -41.932  82.838 147.636  1.00  0.00     0.165 C 
HETATM   15  N14 UNL     1     -42.092  81.788 148.655  1.00  0.00    -0.129 NA
ENDROOT
BRANCH   1  16
HETATM   16  N6  UNL     1     -48.123  81.051 152.772  1.00  0.00    -0.203 N 
HETATM   17  C3  UNL     1     -48.320  79.776 153.149  1.00  0.00     0.179 A 
HETATM   18  N3  UNL     1     -48.959  79.796 154.354  1.00  0.00    -0.264 N 
HETATM   19  N4  UNL     1     -49.143  81.063 154.693  1.00  0.00    -0.006 NA
ATOM     20  H3  UNL     1     -49.244  78.981 154.897  1.00  0.00     0.186 HD
HETATM   21  N5  UNL     1     -48.634  81.819 153.731  1.00  0.00     0.002 NA
BRANCH  17  22
HETATM   22  S1  UNL     1     -47.812  78.347 152.203  1.00  0.00    -0.084 SA
BRANCH  22  23
HETATM   23  C2  UNL     1     -47.628  76.899 153.283  1.00  0.00     0.155 C 
BRANCH  23  24
HETATM   24  C1  UNL     1     -48.561  75.821 152.966  1.00  0.00     0.096 C 
HETATM   25  N1  UNL     1     -49.436  75.456 153.829  1.00  0.00    -0.390 N 
ATOM     26  H12 UNL     1     -50.087  74.703 153.607  1.00  0.00     0.157 HD
ATOM     27  H11 UNL     1     -49.475  75.925 154.734  1.00  0.00     0.157 HD
HETATM   28  N2  UNL     1     -48.507  75.172 151.715  1.00  0.00    -0.087 NA
ENDBRANCH  23  24
ENDBRANCH  22  23
ENDBRANCH  17  22
ENDBRANCH   1  16
BRANCH  10  29
HETATM   29  N10 UNL     1     -48.238  82.873 148.423  1.00  0.00    -0.384 N 
ATOM     30 2H10 UNL     1     -49.228  82.655 148.304  1.00  0.00     0.157 HD
ATOM     31 1H10 UNL     1     -47.782  83.508 147.767  1.00  0.00     0.157 HD
ENDBRANCH  10  29
BRANCH   4  32
HETATM   32  N7  UNL     1     -43.401  80.963 151.130  1.00  0.00    -0.383 N 
ATOM     33  H72 UNL     1     -43.844  80.752 152.024  1.00  0.00     0.157 HD
ATOM     34  H71 UNL     1     -42.407  80.760 151.020  1.00  0.00     0.157 HD
ENDBRANCH   4  32
BRANCH  13  35
HETATM   35  C12 UNL     1     -43.102  81.495 145.994  1.00  0.00     0.193 C 
BRANCH  35  36
HETATM   36  O1  UNL     1     -41.777  81.196 145.714  1.00  0.00    -0.399 OA
ATOM     37  H1  UNL     1     -41.674  80.328 145.343  1.00  0.00     0.209 HD
ENDBRANCH  35  36
ENDBRANCH  13  35
BRANCH  13  38
HETATM   38  C13 UNL     1     -43.627  83.869 146.137  1.00  0.00     0.255 C 
HETATM   39  O2  UNL     1     -44.843  84.003 145.796  1.00  0.00    -0.270 OA
HETATM   40  N12 UNL     1     -42.726  84.879 145.753  1.00  0.00    -0.276 N 
ATOM     41  H12 UNL     1     -41.742  84.805 146.011  1.00  0.00     0.189 HD
BRANCH  40  42
HETATM   42  N13 UNL     1     -43.164  85.972 145.029  1.00  0.00    -0.343 N 
ATOM     43 2H13 UNL     1     -43.260  86.869 145.504  1.00  0.00     0.176 HD
ATOM     44 1H13 UNL     1     -43.386  85.882 144.038  1.00  0.00     0.176 HD
ENDBRANCH  40  42
ENDBRANCH  13  38
TORSDOF 10
ENDMDL
