MODEL 1
REMARK VINA RESULT: -7.842415842      0.000      0.000
REMARK  12 active torsions:
REMARK  status: ('A' for Active; 'I' for Inactive)
REMARK    1  A    between atoms: N1_1  and  C1_4 
REMARK    2  A    between atoms: C3_8  and  C4_9 
REMARK    3  A    between atoms: C4_9  and  O1_10 
REMARK    4  A    between atoms: C4_9  and  N3_12 
REMARK    5  A    between atoms: N3_12  and  C5_14 
REMARK    6  A    between atoms: C7_16  and  N4_17 
REMARK    7  A    between atoms: C9_22  and  N5_23 
REMARK    8  A    between atoms: N5_23  and  C10_25 
REMARK    9  A    between atoms: C10_25  and  C11_26 
REMARK   10  A    between atoms: C11_26  and  N6_27 
REMARK   11  A    between atoms: C13_29  and  O2_30 
REMARK   12  A    between atoms: C16_40  and  N10_41 
REMARK       I    between atoms: N10_41  and  C17_43 
REMARK       I    between atoms: C17_43  and  N11_44 
REMARK       I    between atoms: C17_43  and  N12_48 
ROOT
HETATM    1  C4  UNL     1     -43.832  80.290 150.022  1.00  0.00     0.151 C 
ENDROOT
BRANCH   1   2
HETATM    2  C3  UNL     1     -44.753  80.345 150.972  1.00  0.00     0.061 A 
HETATM    3  C2  UNL     1     -46.098  80.423 150.665  1.00  0.00     0.159 A 
HETATM    4  N2  UNL     1     -46.712  80.454 149.459  1.00  0.00    -0.173 N 
HETATM    5  N13 UNL     1     -47.037  80.482 151.623  1.00  0.00    -0.208 N 
HETATM    6  C1  UNL     1     -48.043  80.532 149.680  1.00  0.00     0.692 A 
ATOM      7  H2  UNL     1     -46.253  80.423 148.548  1.00  0.00     0.186 HD
HETATM    8  N14 UNL     1     -48.225  80.549 151.000  1.00  0.00    -0.122 N 
ATOM      9  H14 UNL     1     -49.130  80.604 151.466  1.00  0.00     0.206 HD
HETATM   10  C16 UNL     1     -46.700  80.467 152.924  1.00  0.00     0.128 A 
HETATM   11  C15 UNL     1     -45.384  80.391 153.283  1.00  0.00     0.051 A 
HETATM   12  C14 UNL     1     -44.416  80.330 152.308  1.00  0.00     0.023 A 
BRANCH   6  13
HETATM   13  N1  UNL     1     -48.954  80.581 148.750  1.00  0.00    -0.233 N 
ATOM     14  H12 UNL     1     -49.776  79.984 148.648  1.00  0.00     0.174 HD
ATOM     15  H11 UNL     1     -48.964  81.244 147.974  1.00  0.00     0.174 HD
ENDBRANCH   6  13
BRANCH  10  16
HETATM   16  N10 UNL     1     -47.653  80.529 153.793  1.00  0.00    -0.326 N 
HETATM   17  C17 UNL     1     -47.894  79.556 154.807  1.00  0.00     0.481 C 
HETATM   18  N11 UNL     1     -48.700  80.130 155.887  1.00  0.00    -0.033 N 
HETATM   19  N12 UNL     1     -48.428  78.317 154.347  1.00  0.00    -0.033 N 
ATOM     20 3H11 UNL     1     -48.277  80.976 156.267  1.00  0.00     0.278 HD
ATOM     21 2H11 UNL     1     -49.568  80.537 155.538  1.00  0.00     0.278 HD
ATOM     22 1H11 UNL     1     -48.873  79.433 156.611  1.00  0.00     0.278 HD
ATOM     23 3H12 UNL     1     -49.278  78.481 153.808  1.00  0.00     0.278 HD
ATOM     24 2H12 UNL     1     -47.828  77.925 153.620  1.00  0.00     0.278 HD
ATOM     25 1H12 UNL     1     -48.600  77.621 155.071  1.00  0.00     0.278 HD
ATOM     26  H10 UNL     1     -48.279  81.333 153.751  1.00  0.00     0.165 HD
ENDBRANCH  10  16
ENDBRANCH   1   2
BRANCH   1  27
HETATM   27  O1  UNL     1     -43.967  79.305 149.054  1.00  0.00    -0.346 OA
ATOM     28  H1  UNL     1     -44.107  79.586 148.158  1.00  0.00     0.219 HD
ENDBRANCH   1  27
BRANCH   1  29
HETATM   29  N3  UNL     1     -42.740  81.167 149.946  1.00  0.00    -0.349 N 
ATOM     30  H3  UNL     1     -41.914  80.949 150.503  1.00  0.00     0.163 HD
BRANCH  29  31
HETATM   31  C5  UNL     1     -42.708  82.364 149.126  1.00  0.00     0.186 C 
HETATM   32  C6  UNL     1     -41.438  82.468 148.343  1.00  0.00     0.080 C 
HETATM   33  C7  UNL     1     -41.536  81.435 147.212  1.00  0.00     0.194 C 
HETATM   34  C8  UNL     1     -42.493  82.093 146.203  1.00  0.00     0.108 C 
HETATM   35  C9  UNL     1     -43.773  82.281 146.936  1.00  0.00     0.076 C 
HETATM   36  N9  UNL     1     -43.825  82.396 148.214  1.00  0.00    -0.359 N 
ATOM     37  H9  UNL     1     -44.750  82.523 148.625  1.00  0.00     0.162 HD
BRANCH  33  38
HETATM   38  N4  UNL     1     -40.259  81.176 146.615  1.00  0.00    -0.074 N 
ATOM     39  H43 UNL     1     -39.752  80.452 147.122  1.00  0.00     0.274 HD
ATOM     40  H42 UNL     1     -40.358  80.702 145.716  1.00  0.00     0.274 HD
ATOM     41  H41 UNL     1     -39.702  82.026 146.526  1.00  0.00     0.274 HD
ENDBRANCH  33  38
BRANCH  35  42
HETATM   42  N5  UNL     1     -44.984  82.325 146.141  1.00  0.00    -0.378 N 
ATOM     43  H5  UNL     1     -44.933  82.056 145.159  1.00  0.00     0.160 HD
BRANCH  42  44
HETATM   44  C10 UNL     1     -46.258  82.734 146.679  1.00  0.00     0.143 C 
BRANCH  44  45
HETATM   45  C11 UNL     1     -46.996  83.711 145.789  1.00  0.00     0.169 C 
BRANCH  45  46
HETATM   46  N6  UNL     1     -48.158  83.122 145.166  1.00  0.00    -0.283 N 
HETATM   47  C12 UNL     1     -48.988  82.156 145.603  1.00  0.00     0.168 A 
HETATM   48  C13 UNL     1     -49.966  81.935 144.636  1.00  0.00     0.173 A 
HETATM   49  N7  UNL     1     -49.673  82.795 143.642  1.00  0.00    -0.264 N 
HETATM   50  N8  UNL     1     -48.607  83.483 143.972  1.00  0.00    -0.239 N 
ATOM     51  H7  UNL     1     -50.197  82.896 142.772  1.00  0.00     0.190 HD
ATOM     52  H8  UNL     1     -48.180  84.201 143.386  1.00  0.00     0.208 HD
BRANCH  48  53
HETATM   53  O2  UNL     1     -51.024  81.010 144.702  1.00  0.00    -0.344 OA
ATOM     54  H2  UNL     1     -51.780  81.050 145.276  1.00  0.00     0.219 HD
ENDBRANCH  48  53
ENDBRANCH  45  46
ENDBRANCH  44  45
ENDBRANCH  42  44
ENDBRANCH  35  42
ENDBRANCH  29  31
ENDBRANCH   1  29
TORSDOF 12
ENDMDL
MODEL 2
REMARK VINA RESULT: -7.635017714      2.400      8.105
REMARK  12 active torsions:
REMARK  status: ('A' for Active; 'I' for Inactive)
REMARK    1  A    between atoms: N1_1  and  C1_4 
REMARK    2  A    between atoms: C3_8  and  C4_9 
REMARK    3  A    between atoms: C4_9  and  O1_10 
REMARK    4  A    between atoms: C4_9  and  N3_12 
REMARK    5  A    between atoms: N3_12  and  C5_14 
REMARK    6  A    between atoms: C7_16  and  N4_17 
REMARK    7  A    between atoms: C9_22  and  N5_23 
REMARK    8  A    between atoms: N5_23  and  C10_25 
REMARK    9  A    between atoms: C10_25  and  C11_26 
REMARK   10  A    between atoms: C11_26  and  N6_27 
REMARK   11  A    between atoms: C13_29  and  O2_30 
REMARK   12  A    between atoms: C16_40  and  N10_41 
REMARK       I    between atoms: N10_41  and  C17_43 
REMARK       I    between atoms: C17_43  and  N11_44 
REMARK       I    between atoms: C17_43  and  N12_48 
ROOT
HETATM    1  C4  UNL     1     -45.891  82.379 147.357  1.00  0.00     0.151 C 
ENDROOT
BRANCH   1   2
HETATM    2  C3  UNL     1     -46.052  83.367 146.490  1.00  0.00     0.061 A 
HETATM    3  C2  UNL     1     -47.095  83.365 145.583  1.00  0.00     0.159 A 
HETATM    4  N2  UNL     1     -48.082  82.457 145.399  1.00  0.00    -0.173 N 
HETATM    5  N13 UNL     1     -47.262  84.362 144.700  1.00  0.00    -0.208 N 
HETATM    6  C1  UNL     1     -48.864  82.903 144.390  1.00  0.00     0.692 A 
ATOM      7  H2  UNL     1     -48.212  81.594 145.926  1.00  0.00     0.186 HD
HETATM    8  N14 UNL     1     -48.353  84.061 143.976  1.00  0.00    -0.122 N 
ATOM      9  H14 UNL     1     -48.732  84.633 143.222  1.00  0.00     0.206 HD
HETATM   10  C16 UNL     1     -46.415  85.406 144.665  1.00  0.00     0.128 A 
HETATM   11  C15 UNL     1     -45.367  85.457 145.539  1.00  0.00     0.051 A 
HETATM   12  C14 UNL     1     -45.188  84.440 146.447  1.00  0.00     0.023 A 
BRANCH   6  13
HETATM   13  N1  UNL     1     -49.917  82.287 143.933  1.00  0.00    -0.233 N 
ATOM     14  H12 UNL     1     -50.034  81.287 143.769  1.00  0.00     0.174 HD
ATOM     15  H11 UNL     1     -50.792  82.741 143.668  1.00  0.00     0.174 HD
ENDBRANCH   6  13
BRANCH  10  16
HETATM   16  N10 UNL     1     -46.633  86.328 143.788  1.00  0.00    -0.326 N 
HETATM   17  C17 UNL     1     -45.943  86.448 142.546  1.00  0.00     0.481 C 
HETATM   18  N11 UNL     1     -46.719  87.260 141.606  1.00  0.00    -0.033 N 
HETATM   19  N12 UNL     1     -44.592  86.890 142.640  1.00  0.00    -0.033 N 
ATOM     20 3H11 UNL     1     -47.664  86.898 141.482  1.00  0.00     0.278 HD
ATOM     21 2H11 UNL     1     -46.956  88.172 141.998  1.00  0.00     0.278 HD
ATOM     22 1H11 UNL     1     -46.225  87.346 140.718  1.00  0.00     0.278 HD
ATOM     23 3H12 UNL     1     -44.546  87.770 143.153  1.00  0.00     0.278 HD
ATOM     24 2H12 UNL     1     -44.069  86.286 143.274  1.00  0.00     0.278 HD
ATOM     25 1H12 UNL     1     -44.098  86.976 141.752  1.00  0.00     0.278 HD
ATOM     26  H10 UNL     1     -47.350  87.021 144.000  1.00  0.00     0.165 HD
ENDBRANCH  10  16
ENDBRANCH   1   2
BRANCH   1  27
HETATM   27  O1  UNL     1     -44.828  81.512 147.153  1.00  0.00    -0.346 OA
ATOM     28  H1  UNL     1     -44.629  81.263 146.259  1.00  0.00     0.219 HD
ENDBRANCH   1  27
BRANCH   1  29
HETATM   29  N3  UNL     1     -46.734  82.168 148.459  1.00  0.00    -0.349 N 
ATOM     30  H3  UNL     1     -47.703  81.910 148.276  1.00  0.00     0.163 HD
BRANCH  29  31
HETATM   31  C5  UNL     1     -46.315  82.293 149.843  1.00  0.00     0.186 C 
HETATM   32  C6  UNL     1     -47.352  81.772 150.786  1.00  0.00     0.080 C 
HETATM   33  C7  UNL     1     -47.305  80.241 150.686  1.00  0.00     0.194 C 
HETATM   34  C8  UNL     1     -46.045  79.865 151.484  1.00  0.00     0.108 C 
HETATM   35  C9  UNL     1     -44.917  80.532 150.782  1.00  0.00     0.076 C 
HETATM   36  N9  UNL     1     -45.076  81.593 150.075  1.00  0.00    -0.359 N 
ATOM     37  H9  UNL     1     -44.242  81.979 149.633  1.00  0.00     0.162 HD
BRANCH  33  38
HETATM   38  N4  UNL     1     -48.473  79.633 151.252  1.00  0.00    -0.074 N 
ATOM     39  H43 UNL     1     -48.585  79.887 152.233  1.00  0.00     0.274 HD
ATOM     40  H42 UNL     1     -49.327  80.050 150.880  1.00  0.00     0.274 HD
ATOM     41  H41 UNL     1     -48.471  78.620 151.129  1.00  0.00     0.274 HD
ENDBRANCH  33  38
BRANCH  35  42
HETATM   42  N5  UNL     1     -43.607  79.929 150.923  1.00  0.00    -0.378 N 
ATOM     43  H5  UNL     1     -43.248  79.756 151.861  1.00  0.00     0.160 HD
BRANCH  42  44
HETATM   44  C10 UNL     1     -42.789  79.564 149.793  1.00  0.00     0.143 C 
BRANCH  44  45
HETATM   45  C11 UNL     1     -41.623  80.503 149.572  1.00  0.00     0.169 C 
BRANCH  45  46
HETATM   46  N6  UNL     1     -41.673  81.154 148.284  1.00  0.00    -0.283 N 
HETATM   47  C12 UNL     1     -41.640  82.462 147.966  1.00  0.00     0.168 A 
HETATM   48  C13 UNL     1     -41.716  82.587 146.580  1.00  0.00     0.173 A 
HETATM   49  N7  UNL     1     -41.793  81.324 146.121  1.00  0.00    -0.264 N 
HETATM   50  N8  UNL     1     -41.767  80.496 147.137  1.00  0.00    -0.239 N 
ATOM     51  H7  UNL     1     -41.860  81.053 145.139  1.00  0.00     0.190 HD
ATOM     52  H8  UNL     1     -41.813  79.480 147.056  1.00  0.00     0.208 HD
BRANCH  48  53
HETATM   53  O2  UNL     1     -41.711  83.783 145.840  1.00  0.00    -0.344 OA
ATOM     54  H2  UNL     1     -42.005  83.900 144.944  1.00  0.00     0.219 HD
ENDBRANCH  48  53
ENDBRANCH  45  46
ENDBRANCH  44  45
ENDBRANCH  42  44
ENDBRANCH  35  42
ENDBRANCH  29  31
ENDBRANCH   1  29
TORSDOF 12
ENDMDL
MODEL 3
REMARK VINA RESULT: -7.589347694      1.669      2.257
REMARK  12 active torsions:
REMARK  status: ('A' for Active; 'I' for Inactive)
REMARK    1  A    between atoms: N1_1  and  C1_4 
REMARK    2  A    between atoms: C3_8  and  C4_9 
REMARK    3  A    between atoms: C4_9  and  O1_10 
REMARK    4  A    between atoms: C4_9  and  N3_12 
REMARK    5  A    between atoms: N3_12  and  C5_14 
REMARK    6  A    between atoms: C7_16  and  N4_17 
REMARK    7  A    between atoms: C9_22  and  N5_23 
REMARK    8  A    between atoms: N5_23  and  C10_25 
REMARK    9  A    between atoms: C10_25  and  C11_26 
REMARK   10  A    between atoms: C11_26  and  N6_27 
REMARK   11  A    between atoms: C13_29  and  O2_30 
REMARK   12  A    between atoms: C16_40  and  N10_41 
REMARK       I    between atoms: N10_41  and  C17_43 
REMARK       I    between atoms: C17_43  and  N11_44 
REMARK       I    between atoms: C17_43  and  N12_48 
ROOT
HETATM    1  C4  UNL     1     -45.645  80.349 150.637  1.00  0.00     0.151 C 
ENDROOT
BRANCH   1   2
HETATM    2  C3  UNL     1     -46.680  80.580 151.431  1.00  0.00     0.061 A 
HETATM    3  C2  UNL     1     -47.451  79.546 151.926  1.00  0.00     0.159 A 
HETATM    4  N2  UNL     1     -47.336  78.210 151.737  1.00  0.00    -0.173 N 
HETATM    5  N13 UNL     1     -48.502  79.773 152.730  1.00  0.00    -0.208 N 
HETATM    6  C1  UNL     1     -48.328  77.612 152.432  1.00  0.00     0.692 A 
ATOM      7  H2  UNL     1     -46.628  77.741 151.171  1.00  0.00     0.186 HD
HETATM    8  N14 UNL     1     -49.028  78.575 153.030  1.00  0.00    -0.122 N 
ATOM      9  H14 UNL     1     -49.842  78.424 153.626  1.00  0.00     0.206 HD
HETATM   10  C16 UNL     1     -48.844  81.024 153.084  1.00  0.00     0.128 A 
HETATM   11  C15 UNL     1     -48.115  82.083 152.623  1.00  0.00     0.051 A 
HETATM   12  C14 UNL     1     -47.037  81.859 151.799  1.00  0.00     0.023 A 
BRANCH   6  13
HETATM   13  N1  UNL     1     -48.533  76.326 152.487  1.00  0.00    -0.233 N 
ATOM     14  H12 UNL     1     -48.546  75.663 151.712  1.00  0.00     0.174 HD
ATOM     15  H11 UNL     1     -48.714  75.798 153.341  1.00  0.00     0.174 HD
ENDBRANCH   6  13
BRANCH  10  16
HETATM   16  N10 UNL     1     -49.868  81.172 153.857  1.00  0.00    -0.326 N 
HETATM   17  C17 UNL     1     -49.802  81.546 155.231  1.00  0.00     0.481 C 
HETATM   18  N11 UNL     1     -51.089  82.083 155.678  1.00  0.00    -0.033 N 
HETATM   19  N12 UNL     1     -49.311  80.541 156.114  1.00  0.00    -0.033 N 
ATOM     20 3H11 UNL     1     -51.403  82.855 155.089  1.00  0.00     0.278 HD
ATOM     21 2H11 UNL     1     -51.855  81.433 155.499  1.00  0.00     0.278 HD
ATOM     22 1H11 UNL     1     -51.042  82.351 156.661  1.00  0.00     0.278 HD
ATOM     23 3H12 UNL     1     -49.858  79.686 156.009  1.00  0.00     0.278 HD
ATOM     24 2H12 UNL     1     -48.400  80.211 155.797  1.00  0.00     0.278 HD
ATOM     25 1H12 UNL     1     -49.264  80.808 157.097  1.00  0.00     0.278 HD
ATOM     26  H10 UNL     1     -50.791  81.008 153.455  1.00  0.00     0.165 HD
ENDBRANCH  10  16
ENDBRANCH   1   2
BRANCH   1  27
HETATM   27  O1  UNL     1     -45.872  79.603 149.489  1.00  0.00    -0.346 OA
ATOM     28  H1  UNL     1     -46.656  79.793 148.988  1.00  0.00     0.219 HD
ENDBRANCH   1  27
BRANCH   1  29
HETATM   29  N3  UNL     1     -44.347  80.815 150.895  1.00  0.00    -0.349 N 
ATOM     30  H3  UNL     1     -43.838  80.400 151.675  1.00  0.00     0.163 HD
BRANCH  29  31
HETATM   31  C5  UNL     1     -43.682  81.849 150.123  1.00  0.00     0.186 C 
HETATM   32  C6  UNL     1     -42.306  81.434 149.710  1.00  0.00     0.080 C 
HETATM   33  C7  UNL     1     -42.478  80.404 148.585  1.00  0.00     0.194 C 
HETATM   34  C8  UNL     1     -42.847  81.262 147.363  1.00  0.00     0.108 C 
HETATM   35  C9  UNL     1     -44.114  81.948 147.727  1.00  0.00     0.076 C 
HETATM   36  N9  UNL     1     -44.443  82.187 148.945  1.00  0.00    -0.359 N 
ATOM     37  H9  UNL     1     -45.332  82.664 149.096  1.00  0.00     0.162 HD
BRANCH  33  38
HETATM   38  N4  UNL     1     -41.273  79.665 148.350  1.00  0.00    -0.074 N 
ATOM     39  H43 UNL     1     -40.855  79.348 149.224  1.00  0.00     0.274 HD
ATOM     40  H42 UNL     1     -41.471  78.756 147.930  1.00  0.00     0.274 HD
ATOM     41  H41 UNL     1     -40.606  80.195 147.790  1.00  0.00     0.274 HD
ENDBRANCH  33  38
BRANCH  35  42
HETATM   42  N5  UNL     1     -44.985  82.340 146.638  1.00  0.00    -0.378 N 
ATOM     43  H5  UNL     1     -44.644  82.243 145.681  1.00  0.00     0.160 HD
BRANCH  42  44
HETATM   44  C10 UNL     1     -46.312  82.863 146.847  1.00  0.00     0.143 C 
BRANCH  44  45
HETATM   45  C11 UNL     1     -46.844  83.635 145.658  1.00  0.00     0.169 C 
BRANCH  45  46
HETATM   46  N6  UNL     1     -48.046  83.050 145.111  1.00  0.00    -0.283 N 
HETATM   47  C12 UNL     1     -48.895  82.147 145.637  1.00  0.00     0.168 A 
HETATM   48  C13 UNL     1     -49.910  81.898 144.715  1.00  0.00     0.173 A 
HETATM   49  N7  UNL     1     -49.619  82.679 143.658  1.00  0.00    -0.264 N 
HETATM   50  N8  UNL     1     -48.519  83.347 143.909  1.00  0.00    -0.239 N 
ATOM     51  H7  UNL     1     -50.166  82.740 142.799  1.00  0.00     0.190 HD
ATOM     52  H8  UNL     1     -48.085  84.008 143.264  1.00  0.00     0.208 HD
BRANCH  48  53
HETATM   53  O2  UNL     1     -50.997  81.021 144.875  1.00  0.00    -0.344 OA
ATOM     54  H2  UNL     1     -51.733  81.126 145.468  1.00  0.00     0.219 HD
ENDBRANCH  48  53
ENDBRANCH  45  46
ENDBRANCH  44  45
ENDBRANCH  42  44
ENDBRANCH  35  42
ENDBRANCH  29  31
ENDBRANCH   1  29
TORSDOF 12
ENDMDL
MODEL 4
REMARK VINA RESULT: -7.578253940      2.243      7.998
REMARK  12 active torsions:
REMARK  status: ('A' for Active; 'I' for Inactive)
REMARK    1  A    between atoms: N1_1  and  C1_4 
REMARK    2  A    between atoms: C3_8  and  C4_9 
REMARK    3  A    between atoms: C4_9  and  O1_10 
REMARK    4  A    between atoms: C4_9  and  N3_12 
REMARK    5  A    between atoms: N3_12  and  C5_14 
REMARK    6  A    between atoms: C7_16  and  N4_17 
REMARK    7  A    between atoms: C9_22  and  N5_23 
REMARK    8  A    between atoms: N5_23  and  C10_25 
REMARK    9  A    between atoms: C10_25  and  C11_26 
REMARK   10  A    between atoms: C11_26  and  N6_27 
REMARK   11  A    between atoms: C13_29  and  O2_30 
REMARK   12  A    between atoms: C16_40  and  N10_41 
REMARK       I    between atoms: N10_41  and  C17_43 
REMARK       I    between atoms: C17_43  and  N11_44 
REMARK       I    between atoms: C17_43  and  N12_48 
ROOT
HETATM    1  C4  UNL     1     -47.969  82.012 148.264  1.00  0.00     0.151 C 
ENDROOT
BRANCH   1   2
HETATM    2  C3  UNL     1     -47.665  82.770 147.220  1.00  0.00     0.061 A 
HETATM    3  C2  UNL     1     -48.357  82.663 146.029  1.00  0.00     0.159 A 
HETATM    4  N2  UNL     1     -49.389  81.853 145.695  1.00  0.00    -0.173 N 
HETATM    5  N13 UNL     1     -48.053  83.426 144.967  1.00  0.00    -0.208 N 
HETATM    6  C1  UNL     1     -49.721  82.122 144.413  1.00  0.00     0.692 A 
ATOM      7  H2  UNL     1     -49.834  81.164 146.301  1.00  0.00     0.186 HD
HETATM    8  N14 UNL     1     -48.901  83.080 143.984  1.00  0.00    -0.122 N 
ATOM      9  H14 UNL     1     -48.914  83.489 143.051  1.00  0.00     0.206 HD
HETATM   10  C16 UNL     1     -47.058  84.328 145.025  1.00  0.00     0.128 A 
HETATM   11  C15 UNL     1     -46.342  84.475 146.179  1.00  0.00     0.051 A 
HETATM   12  C14 UNL     1     -46.647  83.697 147.272  1.00  0.00     0.023 A 
BRANCH   6  13
HETATM   13  N1  UNL     1     -50.676  81.535 143.749  1.00  0.00    -0.233 N 
ATOM     14  H12 UNL     1     -51.680  81.692 143.828  1.00  0.00     0.174 HD
ATOM     15  H11 UNL     1     -50.537  80.815 143.039  1.00  0.00     0.174 HD
ENDBRANCH   6  13
BRANCH  10  16
HETATM   16  N10 UNL     1     -46.817  85.027 143.967  1.00  0.00    -0.326 N 
HETATM   17  C17 UNL     1     -46.030  86.215 143.939  1.00  0.00     0.481 C 
HETATM   18  N11 UNL     1     -45.558  86.486 142.579  1.00  0.00    -0.033 N 
HETATM   19  N12 UNL     1     -46.636  87.362 144.528  1.00  0.00    -0.033 N 
ATOM     20 3H11 UNL     1     -45.057  85.689 142.186  1.00  0.00     0.278 HD
ATOM     21 2H11 UNL     1     -46.328  86.525 141.911  1.00  0.00     0.278 HD
ATOM     22 1H11 UNL     1     -44.995  87.336 142.559  1.00  0.00     0.278 HD
ATOM     23 3H12 UNL     1     -47.546  87.535 144.102  1.00  0.00     0.278 HD
ATOM     24 2H12 UNL     1     -46.923  87.155 145.485  1.00  0.00     0.278 HD
ATOM     25 1H12 UNL     1     -46.073  88.212 144.508  1.00  0.00     0.278 HD
ATOM     26  H10 UNL     1     -47.220  84.706 143.087  1.00  0.00     0.165 HD
ENDBRANCH  10  16
ENDBRANCH   1   2
BRANCH   1  27
HETATM   27  O1  UNL     1     -48.126  80.651 148.044  1.00  0.00    -0.346 OA
ATOM     28  H1  UNL     1     -48.625  80.384 147.281  1.00  0.00     0.219 HD
ENDBRANCH   1  27
BRANCH   1  29
HETATM   29  N3  UNL     1     -48.136  82.511 149.564  1.00  0.00    -0.349 N 
ATOM     30  H3  UNL     1     -48.969  83.066 149.758  1.00  0.00     0.163 HD
BRANCH  29  31
HETATM   31  C5  UNL     1     -47.202  82.287 150.652  1.00  0.00     0.186 C 
HETATM   32  C6  UNL     1     -47.876  81.704 151.853  1.00  0.00     0.080 C 
HETATM   33  C7  UNL     1     -48.172  80.236 151.518  1.00  0.00     0.194 C 
HETATM   34  C8  UNL     1     -46.802  79.550 151.657  1.00  0.00     0.108 C 
HETATM   35  C9  UNL     1     -45.924  80.213 150.657  1.00  0.00     0.076 C 
HETATM   36  N9  UNL     1     -46.132  81.411 150.244  1.00  0.00    -0.359 N 
ATOM     37  H9  UNL     1     -45.474  81.780 149.557  1.00  0.00     0.162 HD
BRANCH  33  38
HETATM   38  N4  UNL     1     -49.126  79.664 152.423  1.00  0.00    -0.074 N 
ATOM     39  H43 UNL     1     -49.815  79.099 151.927  1.00  0.00     0.274 HD
ATOM     40  H42 UNL     1     -48.703  78.934 152.997  1.00  0.00     0.274 HD
ATOM     41  H41 UNL     1     -49.576  80.376 152.999  1.00  0.00     0.274 HD
ENDBRANCH  33  38
BRANCH  35  42
HETATM   42  N5  UNL     1     -44.806  79.441 150.152  1.00  0.00    -0.378 N 
ATOM     43  H5  UNL     1     -44.969  78.477 149.864  1.00  0.00     0.160 HD
BRANCH  42  44
HETATM   44  C10 UNL     1     -43.473  79.979 150.038  1.00  0.00     0.143 C 
BRANCH  44  45
HETATM   45  C11 UNL     1     -42.675  79.364 148.908  1.00  0.00     0.169 C 
BRANCH  45  46
HETATM   46  N6  UNL     1     -42.019  80.357 148.090  1.00  0.00    -0.283 N 
HETATM   47  C12 UNL     1     -42.511  81.456 147.488  1.00  0.00     0.168 A 
HETATM   48  C13 UNL     1     -41.475  82.095 146.809  1.00  0.00     0.173 A 
HETATM   49  N7  UNL     1     -40.388  81.335 147.038  1.00  0.00    -0.264 N 
HETATM   50  N8  UNL     1     -40.727  80.318 147.792  1.00  0.00    -0.239 N 
ATOM     51  H7  UNL     1     -39.450  81.521 146.683  1.00  0.00     0.190 HD
ATOM     52  H8  UNL     1     -40.083  79.593 148.108  1.00  0.00     0.208 HD
BRANCH  48  53
HETATM   53  O2  UNL     1     -41.566  83.278 146.054  1.00  0.00    -0.344 OA
ATOM     54  H2  UNL     1     -41.080  83.490 145.266  1.00  0.00     0.219 HD
ENDBRANCH  48  53
ENDBRANCH  45  46
ENDBRANCH  44  45
ENDBRANCH  42  44
ENDBRANCH  35  42
ENDBRANCH  29  31
ENDBRANCH   1  29
TORSDOF 12
ENDMDL
MODEL 5
REMARK VINA RESULT: -7.513477523      2.506      8.438
REMARK  12 active torsions:
REMARK  status: ('A' for Active; 'I' for Inactive)
REMARK    1  A    between atoms: N1_1  and  C1_4 
REMARK    2  A    between atoms: C3_8  and  C4_9 
REMARK    3  A    between atoms: C4_9  and  O1_10 
REMARK    4  A    between atoms: C4_9  and  N3_12 
REMARK    5  A    between atoms: N3_12  and  C5_14 
REMARK    6  A    between atoms: C7_16  and  N4_17 
REMARK    7  A    between atoms: C9_22  and  N5_23 
REMARK    8  A    between atoms: N5_23  and  C10_25 
REMARK    9  A    between atoms: C10_25  and  C11_26 
REMARK   10  A    between atoms: C11_26  and  N6_27 
REMARK   11  A    between atoms: C13_29  and  O2_30 
REMARK   12  A    between atoms: C16_40  and  N10_41 
REMARK       I    between atoms: N10_41  and  C17_43 
REMARK       I    between atoms: C17_43  and  N11_44 
REMARK       I    between atoms: C17_43  and  N12_48 
ROOT
HETATM    1  C4  UNL     1     -47.349  82.218 147.967  1.00  0.00     0.151 C 
ENDROOT
BRANCH   1   2
HETATM    2  C3  UNL     1     -47.248  82.996 146.900  1.00  0.00     0.061 A 
HETATM    3  C2  UNL     1     -48.096  82.846 145.819  1.00  0.00     0.159 A 
HETATM    4  N2  UNL     1     -49.110  81.970 145.627  1.00  0.00    -0.173 N 
HETATM    5  N13 UNL     1     -47.998  83.630 144.734  1.00  0.00    -0.208 N 
HETATM    6  C1  UNL     1     -49.640  82.219 144.409  1.00  0.00     0.692 A 
ATOM      7  H2  UNL     1     -49.418  81.251 146.283  1.00  0.00     0.186 HD
HETATM    8  N14 UNL     1     -48.954  83.230 143.878  1.00  0.00    -0.122 N 
ATOM      9  H14 UNL     1     -49.128  83.640 142.961  1.00  0.00     0.206 HD
HETATM   10  C16 UNL     1     -47.067  84.596 144.659  1.00  0.00     0.128 A 
HETATM   11  C15 UNL     1     -46.204  84.787 145.701  1.00  0.00     0.051 A 
HETATM   12  C14 UNL     1     -46.297  83.989 146.816  1.00  0.00     0.023 A 
BRANCH   6  13
HETATM   13  N1  UNL     1     -50.639  81.571 143.881  1.00  0.00    -0.233 N 
ATOM     14  H12 UNL     1     -51.006  80.659 144.155  1.00  0.00     0.174 HD
ATOM     15  H11 UNL     1     -51.204  81.901 143.098  1.00  0.00     0.174 HD
ENDBRANCH   6  13
BRANCH  10  16
HETATM   16  N10 UNL     1     -47.026  85.311 143.585  1.00  0.00    -0.326 N 
HETATM   17  C17 UNL     1     -46.194  86.454 143.400  1.00  0.00     0.481 C 
HETATM   18  N11 UNL     1     -46.023  86.738 141.973  1.00  0.00    -0.033 N 
HETATM   19  N12 UNL     1     -46.582  87.615 144.130  1.00  0.00    -0.033 N 
ATOM     20 3H11 UNL     1     -45.673  85.926 141.465  1.00  0.00     0.278 HD
ATOM     21 2H11 UNL     1     -46.919  86.841 141.497  1.00  0.00     0.278 HD
ATOM     22 1H11 UNL     1     -45.428  87.556 141.841  1.00  0.00     0.278 HD
ATOM     23 3H12 UNL     1     -47.552  87.851 143.922  1.00  0.00     0.278 HD
ATOM     24 2H12 UNL     1     -46.660  87.395 145.123  1.00  0.00     0.278 HD
ATOM     25 1H12 UNL     1     -45.987  88.432 143.997  1.00  0.00     0.278 HD
ATOM     26  H10 UNL     1     -47.635  85.039 142.813  1.00  0.00     0.165 HD
ENDBRANCH  10  16
ENDBRANCH   1   2
BRANCH   1  27
HETATM   27  O1  UNL     1     -48.621  81.963 148.458  1.00  0.00    -0.346 OA
ATOM     28  H1  UNL     1     -48.739  81.187 148.992  1.00  0.00     0.219 HD
ENDBRANCH   1  27
BRANCH   1  29
HETATM   29  N3  UNL     1     -46.246  81.644 148.618  1.00  0.00    -0.349 N 
ATOM     30  H3  UNL     1     -45.331  82.070 148.471  1.00  0.00     0.163 HD
BRANCH  29  31
HETATM   31  C5  UNL     1     -46.323  80.484 149.487  1.00  0.00     0.186 C 
HETATM   32  C6  UNL     1     -44.965  79.996 149.882  1.00  0.00     0.080 C 
HETATM   33  C7  UNL     1     -44.422  80.998 150.910  1.00  0.00     0.194 C 
HETATM   34  C8  UNL     1     -45.187  80.646 152.197  1.00  0.00     0.108 C 
HETATM   35  C9  UNL     1     -46.623  80.858 151.876  1.00  0.00     0.076 C 
HETATM   36  N9  UNL     1     -47.080  80.778 150.678  1.00  0.00    -0.359 N 
ATOM     37  H9  UNL     1     -48.081  80.938 150.557  1.00  0.00     0.162 HD
BRANCH  33  38
HETATM   38  N4  UNL     1     -43.008  80.857 151.097  1.00  0.00    -0.074 N 
ATOM     39  H43 UNL     1     -42.739  79.876 151.163  1.00  0.00     0.274 HD
ATOM     40  H42 UNL     1     -42.494  81.107 150.252  1.00  0.00     0.274 HD
ATOM     41  H41 UNL     1     -42.677  81.387 151.903  1.00  0.00     0.274 HD
ENDBRANCH  33  38
BRANCH  35  42
HETATM   42  N5  UNL     1     -47.505  81.170 152.983  1.00  0.00    -0.378 N 
ATOM     43  H5  UNL     1     -47.438  82.091 153.415  1.00  0.00     0.160 HD
BRANCH  42  44
HETATM   44  C10 UNL     1     -48.472  80.233 153.499  1.00  0.00     0.143 C 
BRANCH  44  45
HETATM   45  C11 UNL     1     -47.846  79.105 154.292  1.00  0.00     0.169 C 
BRANCH  45  46
HETATM   46  N6  UNL     1     -48.212  77.803 153.785  1.00  0.00    -0.283 N 
HETATM   47  C12 UNL     1     -47.958  77.227 152.595  1.00  0.00     0.168 A 
HETATM   48  C13 UNL     1     -48.524  75.953 152.586  1.00  0.00     0.173 A 
HETATM   49  N7  UNL     1     -49.104  75.821 153.794  1.00  0.00    -0.264 N 
HETATM   50  N8  UNL     1     -48.910  76.919 154.484  1.00  0.00    -0.239 N 
ATOM     51  H7  UNL     1     -49.612  74.999 154.120  1.00  0.00     0.190 HD
ATOM     52  H8  UNL     1     -49.252  77.072 155.433  1.00  0.00     0.208 HD
BRANCH  48  53
HETATM   53  O2  UNL     1     -48.486  75.022 151.533  1.00  0.00    -0.344 OA
ATOM     54  H2  UNL     1     -49.127  74.920 150.839  1.00  0.00     0.219 HD
ENDBRANCH  48  53
ENDBRANCH  45  46
ENDBRANCH  44  45
ENDBRANCH  42  44
ENDBRANCH  35  42
ENDBRANCH  29  31
ENDBRANCH   1  29
TORSDOF 12
ENDMDL
