MODEL 1
REMARK VINA RESULT: -7.804577662      0.000      0.000
REMARK  16 active torsions:
REMARK  status: ('A' for Active; 'I' for Inactive)
REMARK    1  A    between atoms: C5_8  and  O2_9 
REMARK    2  A    between atoms: C6_11  and  O3_12 
REMARK    3  A    between atoms: C9_17  and  N3_18 
REMARK    4  A    between atoms: C10_20  and  O4_21 
REMARK    5  A    between atoms: C10_20  and  N4_23 
REMARK    6  A    between atoms: N4_23  and  C11_25 
REMARK    7  A    between atoms: C11_25  and  O5_26 
REMARK    8  A    between atoms: C11_25  and  C12_28 
REMARK    9  A    between atoms: C12_28  and  O6_29 
REMARK   10  A    between atoms: C12_28  and  C13_31 
REMARK   11  A    between atoms: C13_31  and  C14_33 
REMARK   12  A    between atoms: C14_33  and  O8_34 
REMARK   13  A    between atoms: C14_33  and  C15_36 
REMARK   14  A    between atoms: C15_36  and  O9_37 
REMARK   15  A    between atoms: C15_36  and  C16_39 
REMARK   16  A    between atoms: C16_39  and  O10_40 
ROOT
HETATM    1  N3  UNL     1     -47.373  81.321 149.043  1.00  0.00    -0.307 N 
ATOM      2  H3  UNL     1     -48.339  81.611 149.188  1.00  0.00     0.171 HD
HETATM    3  C10 UNL     1     -47.146  80.262 149.837  1.00  0.00     0.220 C 
ENDROOT
BRANCH   3   4
HETATM    4  O4  UNL     1     -47.314  79.023 149.475  1.00  0.00    -0.332 OA
ATOM      5  H4  UNL     1     -46.765  78.302 149.760  1.00  0.00     0.220 HD
ENDBRANCH   3   4
BRANCH   3   6
HETATM    6  N4  UNL     1     -46.690  80.338 151.213  1.00  0.00    -0.327 N 
ATOM      7  H4  UNL     1     -45.774  79.962 151.460  1.00  0.00     0.165 HD
BRANCH   6   8
HETATM    8  C11 UNL     1     -47.507  80.933 152.230  1.00  0.00     0.257 C 
BRANCH   8   9
HETATM    9  O5  UNL     1     -48.702  81.423 151.678  1.00  0.00    -0.374 OA
ATOM     10  H5  UNL     1     -49.248  80.707 151.375  1.00  0.00     0.212 HD
ENDBRANCH   8   9
BRANCH   8  11
HETATM   11  C12 UNL     1     -47.800  79.984 153.377  1.00  0.00     0.238 C 
BRANCH  11  12
HETATM   12  O6  UNL     1     -48.969  80.296 154.021  1.00  0.00    -0.384 OA
ATOM     13  H6  UNL     1     -49.717  79.841 153.650  1.00  0.00     0.210 HD
ENDBRANCH  11  12
BRANCH  11  14
HETATM   14  C13 UNL     1     -47.668  78.589 152.927  1.00  0.00     0.190 C 
HETATM   15  O7  UNL     1     -46.526  78.104 153.000  1.00  0.00    -0.292 OA
BRANCH  14  16
HETATM   16  C14 UNL     1     -48.802  77.820 152.427  1.00  0.00     0.221 C 
BRANCH  16  17
HETATM   17  O8  UNL     1     -49.889  78.626 152.200  1.00  0.00    -0.385 OA
ATOM     18  H8  UNL     1     -50.679  78.112 152.075  1.00  0.00     0.210 HD
ENDBRANCH  16  17
BRANCH  16  19
HETATM   19  C15 UNL     1     -49.203  76.679 153.350  1.00  0.00     0.177 C 
BRANCH  19  20
HETATM   20  O9  UNL     1     -48.788  77.052 154.644  1.00  0.00    -0.390 OA
ATOM     21  H9  UNL     1     -49.106  76.376 155.231  1.00  0.00     0.210 HD
ENDBRANCH  19  20
BRANCH  19  22
HETATM   22  C16 UNL     1     -48.494  75.404 153.008  1.00  0.00     0.198 C 
BRANCH  22  23
HETATM   23  O10 UNL     1     -48.470  75.144 151.645  1.00  0.00    -0.398 OA
ATOM     24  H10 UNL     1     -47.621  75.302 151.250  1.00  0.00     0.209 HD
ENDBRANCH  22  23
ENDBRANCH  19  22
ENDBRANCH  16  19
ENDBRANCH  14  16
ENDBRANCH  11  14
ENDBRANCH   8  11
ENDBRANCH   6   8
ENDBRANCH   3   6
BRANCH   1  25
HETATM   25  C9  UNL     1     -46.881  82.081 148.211  1.00  0.00     0.127 A 
HETATM   26  N1  UNL     1     -45.713  82.735 148.427  1.00  0.00    -0.298 N 
HETATM   27  C1  UNL     1     -44.993  82.527 149.695  1.00  0.00     0.161 C 
HETATM   28  C2  UNL     1     -45.099  83.583 147.599  1.00  0.00     0.292 A 
HETATM   29  O1  UNL     1     -43.993  84.137 147.927  1.00  0.00    -0.259 OA
HETATM   30  S1  UNL     1     -45.847  83.888 146.103  1.00  0.00    -0.028 SA
HETATM   31  C3  UNL     1     -47.308  83.003 145.956  1.00  0.00     0.028 A 
HETATM   32  C4  UNL     1     -48.090  83.107 144.795  1.00  0.00     0.059 A 
HETATM   33  C8  UNL     1     -47.634  82.219 147.024  1.00  0.00     0.053 A 
HETATM   34  C5  UNL     1     -49.256  82.393 144.691  1.00  0.00     0.102 A 
HETATM   35  C6  UNL     1     -49.592  81.606 145.750  1.00  0.00     0.124 A 
HETATM   36  C7  UNL     1     -48.824  81.492 146.913  1.00  0.00     0.097 A 
HETATM   37  N2  UNL     1     -49.273  80.643 147.950  1.00  0.00    -0.098 NA
BRANCH  34  38
HETATM   38  O2  UNL     1     -50.052  82.465 143.573  1.00  0.00    -0.358 OA
ATOM     39  H2  UNL     1     -50.453  81.692 143.194  1.00  0.00     0.217 HD
ENDBRANCH  34  38
BRANCH  35  40
HETATM   40  O3  UNL     1     -50.760  80.858 145.707  1.00  0.00    -0.356 OA
ATOM     41  H3  UNL     1     -50.713  79.909 145.730  1.00  0.00     0.218 HD
ENDBRANCH  35  40
ENDBRANCH   1  25
TORSDOF 16
ENDMDL
MODEL 2
REMARK VINA RESULT: -7.703979719      3.245      6.210
REMARK  16 active torsions:
REMARK  status: ('A' for Active; 'I' for Inactive)
REMARK    1  A    between atoms: C5_8  and  O2_9 
REMARK    2  A    between atoms: C6_11  and  O3_12 
REMARK    3  A    between atoms: C9_17  and  N3_18 
REMARK    4  A    between atoms: C10_20  and  O4_21 
REMARK    5  A    between atoms: C10_20  and  N4_23 
REMARK    6  A    between atoms: N4_23  and  C11_25 
REMARK    7  A    between atoms: C11_25  and  O5_26 
REMARK    8  A    between atoms: C11_25  and  C12_28 
REMARK    9  A    between atoms: C12_28  and  O6_29 
REMARK   10  A    between atoms: C12_28  and  C13_31 
REMARK   11  A    between atoms: C13_31  and  C14_33 
REMARK   12  A    between atoms: C14_33  and  O8_34 
REMARK   13  A    between atoms: C14_33  and  C15_36 
REMARK   14  A    between atoms: C15_36  and  O9_37 
REMARK   15  A    between atoms: C15_36  and  C16_39 
REMARK   16  A    between atoms: C16_39  and  O10_40 
ROOT
HETATM    1  N3  UNL     1     -46.238  83.679 147.409  1.00  0.00    -0.307 N 
ATOM      2  H3  UNL     1     -46.529  83.815 146.442  1.00  0.00     0.171 HD
HETATM    3  C10 UNL     1     -45.219  84.522 147.646  1.00  0.00     0.220 C 
ENDROOT
BRANCH   3   4
HETATM    4  O4  UNL     1     -45.358  85.728 148.115  1.00  0.00    -0.332 OA
ATOM      5  H4  UNL     1     -44.635  86.301 148.341  1.00  0.00     0.220 HD
ENDBRANCH   3   4
BRANCH   3   6
HETATM    6  N4  UNL     1     -43.819  84.220 147.410  1.00  0.00    -0.327 N 
ATOM      7  H4  UNL     1     -43.171  84.195 148.196  1.00  0.00     0.165 HD
BRANCH   6   8
HETATM    8  C11 UNL     1     -43.334  83.956 146.086  1.00  0.00     0.257 C 
BRANCH   8   9
HETATM    9  O5  UNL     1     -42.739  85.106 145.541  1.00  0.00    -0.374 OA
ATOM     10  H5  UNL     1     -41.794  85.009 145.510  1.00  0.00     0.212 HD
ENDBRANCH   8   9
BRANCH   8  11
HETATM   11  C12 UNL     1     -42.373  82.784 146.036  1.00  0.00     0.238 C 
BRANCH  11  12
HETATM   12  O6  UNL     1     -41.114  83.129 146.453  1.00  0.00    -0.384 OA
ATOM     13  H6  UNL     1     -40.666  82.406 146.878  1.00  0.00     0.210 HD
ENDBRANCH  11  12
BRANCH  11  14
HETATM   14  C13 UNL     1     -42.969  81.611 146.696  1.00  0.00     0.190 C 
HETATM   15  O7  UNL     1     -44.179  81.425 146.479  1.00  0.00    -0.292 OA
BRANCH  14  16
HETATM   16  C14 UNL     1     -42.193  80.720 147.551  1.00  0.00     0.221 C 
BRANCH  16  17
HETATM   17  O8  UNL     1     -42.387  79.406 147.209  1.00  0.00    -0.385 OA
ATOM     18  H8  UNL     1     -41.723  78.847 147.596  1.00  0.00     0.210 HD
ENDBRANCH  16  17
BRANCH  16  19
HETATM   19  C15 UNL     1     -42.490  80.906 149.032  1.00  0.00     0.177 C 
BRANCH  19  20
HETATM   20  O9  UNL     1     -41.242  80.957 149.682  1.00  0.00    -0.390 OA
ATOM     21  H9  UNL     1     -40.992  80.056 149.850  1.00  0.00     0.210 HD
ENDBRANCH  19  20
BRANCH  19  22
HETATM   22  C16 UNL     1     -43.240  79.742 149.605  1.00  0.00     0.198 C 
BRANCH  22  23
HETATM   23  O10 UNL     1     -44.531  79.629 149.107  1.00  0.00    -0.398 OA
ATOM     24  H10 UNL     1     -45.191  79.592 149.789  1.00  0.00     0.209 HD
ENDBRANCH  22  23
ENDBRANCH  19  22
ENDBRANCH  16  19
ENDBRANCH  14  16
ENDBRANCH  11  14
ENDBRANCH   8  11
ENDBRANCH   6   8
ENDBRANCH   3   6
BRANCH   1  25
HETATM   25  C9  UNL     1     -46.960  82.809 147.893  1.00  0.00     0.127 A 
HETATM   26  N1  UNL     1     -46.773  82.324 149.144  1.00  0.00    -0.298 N 
HETATM   27  C1  UNL     1     -45.675  82.859 149.968  1.00  0.00     0.161 C 
HETATM   28  C2  UNL     1     -47.490  81.381 149.759  1.00  0.00     0.292 A 
HETATM   29  O1  UNL     1     -47.206  81.011 150.951  1.00  0.00    -0.259 OA
HETATM   30  S1  UNL     1     -48.785  80.701 148.893  1.00  0.00    -0.028 SA
HETATM   31  C3  UNL     1     -48.913  81.399 147.332  1.00  0.00     0.028 A 
HETATM   32  C4  UNL     1     -49.919  80.983 146.446  1.00  0.00     0.059 A 
HETATM   33  C8  UNL     1     -47.988  82.358 147.036  1.00  0.00     0.053 A 
HETATM   34  C5  UNL     1     -50.010  81.550 145.201  1.00  0.00     0.102 A 
HETATM   35  C6  UNL     1     -49.092  82.509 144.893  1.00  0.00     0.124 A 
HETATM   36  C7  UNL     1     -48.085  82.934 145.764  1.00  0.00     0.097 A 
HETATM   37  N2  UNL     1     -47.187  83.938 145.336  1.00  0.00    -0.098 NA
BRANCH  34  38
HETATM   38  O2  UNL     1     -50.978  81.173 144.302  1.00  0.00    -0.358 OA
ATOM     39  H2  UNL     1     -51.753  81.702 144.150  1.00  0.00     0.217 HD
ENDBRANCH  34  38
BRANCH  35  40
HETATM   40  O3  UNL     1     -49.130  83.121 143.649  1.00  0.00    -0.356 OA
ATOM     41  H3  UNL     1     -48.493  83.794 143.436  1.00  0.00     0.218 HD
ENDBRANCH  35  40
ENDBRANCH   1  25
TORSDOF 16
ENDMDL
MODEL 3
REMARK VINA RESULT: -7.652022883      3.491      6.028
REMARK  16 active torsions:
REMARK  status: ('A' for Active; 'I' for Inactive)
REMARK    1  A    between atoms: C5_8  and  O2_9 
REMARK    2  A    between atoms: C6_11  and  O3_12 
REMARK    3  A    between atoms: C9_17  and  N3_18 
REMARK    4  A    between atoms: C10_20  and  O4_21 
REMARK    5  A    between atoms: C10_20  and  N4_23 
REMARK    6  A    between atoms: N4_23  and  C11_25 
REMARK    7  A    between atoms: C11_25  and  O5_26 
REMARK    8  A    between atoms: C11_25  and  C12_28 
REMARK    9  A    between atoms: C12_28  and  O6_29 
REMARK   10  A    between atoms: C12_28  and  C13_31 
REMARK   11  A    between atoms: C13_31  and  C14_33 
REMARK   12  A    between atoms: C14_33  and  O8_34 
REMARK   13  A    between atoms: C14_33  and  C15_36 
REMARK   14  A    between atoms: C15_36  and  O9_37 
REMARK   15  A    between atoms: C15_36  and  C16_39 
REMARK   16  A    between atoms: C16_39  and  O10_40 
ROOT
HETATM    1  N3  UNL     1     -46.070  83.882 146.950  1.00  0.00    -0.307 N 
ATOM      2  H3  UNL     1     -46.693  84.335 146.282  1.00  0.00     0.171 HD
HETATM    3  C10 UNL     1     -44.856  84.440 146.811  1.00  0.00     0.220 C 
ENDROOT
BRANCH   3   4
HETATM    4  O4  UNL     1     -44.438  85.468 147.492  1.00  0.00    -0.332 OA
ATOM      5  H4  UNL     1     -43.751  86.058 147.204  1.00  0.00     0.220 HD
ENDBRANCH   3   4
BRANCH   3   6
HETATM    6  N4  UNL     1     -43.835  83.989 145.883  1.00  0.00    -0.327 N 
ATOM      7  H4  UNL     1     -43.940  84.181 144.888  1.00  0.00     0.165 HD
BRANCH   6   8
HETATM    8  C11 UNL     1     -42.679  83.276 146.346  1.00  0.00     0.257 C 
BRANCH   8   9
HETATM    9  O5  UNL     1     -42.090  83.946 147.432  1.00  0.00    -0.374 OA
ATOM     10  H5  UNL     1     -41.551  83.349 147.938  1.00  0.00     0.212 HD
ENDBRANCH   8   9
BRANCH   8  11
HETATM   11  C12 UNL     1     -42.985  81.837 146.711  1.00  0.00     0.238 C 
BRANCH  11  12
HETATM   12  O6  UNL     1     -43.647  81.177 145.708  1.00  0.00    -0.384 OA
ATOM     13  H6  UNL     1     -44.294  80.569 146.045  1.00  0.00     0.210 HD
ENDBRANCH  11  12
BRANCH  11  14
HETATM   14  C13 UNL     1     -41.773  81.176 147.224  1.00  0.00     0.190 C 
HETATM   15  O7  UNL     1     -40.702  81.535 146.707  1.00  0.00    -0.292 OA
BRANCH  14  16
HETATM   16  C14 UNL     1     -41.823  80.162 148.271  1.00  0.00     0.221 C 
BRANCH  16  17
HETATM   17  O8  UNL     1     -42.418  79.010 147.823  1.00  0.00    -0.385 OA
ATOM     18  H8  UNL     1     -43.143  78.756 148.382  1.00  0.00     0.210 HD
ENDBRANCH  16  17
BRANCH  16  19
HETATM   19  C15 UNL     1     -42.532  80.640 149.530  1.00  0.00     0.177 C 
BRANCH  19  20
HETATM   20  O9  UNL     1     -41.526  80.863 150.490  1.00  0.00    -0.390 OA
ATOM     21  H9  UNL     1     -41.500  80.085 151.035  1.00  0.00     0.210 HD
ENDBRANCH  19  20
BRANCH  19  22
HETATM   22  C16 UNL     1     -43.451  79.596 150.088  1.00  0.00     0.198 C 
BRANCH  22  23
HETATM   23  O10 UNL     1     -44.661  79.518 149.411  1.00  0.00    -0.398 OA
ATOM     24  H10 UNL     1     -44.648  78.891 148.697  1.00  0.00     0.209 HD
ENDBRANCH  22  23
ENDBRANCH  19  22
ENDBRANCH  16  19
ENDBRANCH  14  16
ENDBRANCH  11  14
ENDBRANCH   8  11
ENDBRANCH   6   8
ENDBRANCH   3   6
BRANCH   1  25
HETATM   25  C9  UNL     1     -46.730  83.044 147.560  1.00  0.00     0.127 A 
HETATM   26  N1  UNL     1     -46.412  82.643 148.815  1.00  0.00    -0.298 N 
HETATM   27  C1  UNL     1     -45.241  83.234 149.486  1.00  0.00     0.161 C 
HETATM   28  C2  UNL     1     -47.053  81.740 149.560  1.00  0.00     0.292 A 
HETATM   29  O1  UNL     1     -46.646  81.450 150.738  1.00  0.00    -0.259 OA
HETATM   30  S1  UNL     1     -48.424  81.001 148.877  1.00  0.00    -0.028 SA
HETATM   31  C3  UNL     1     -48.717  81.594 147.296  1.00  0.00     0.028 A 
HETATM   32  C4  UNL     1     -49.804  81.118 146.546  1.00  0.00     0.059 A 
HETATM   33  C8  UNL     1     -47.836  82.534 146.845  1.00  0.00     0.053 A 
HETATM   34  C5  UNL     1     -50.026  81.602 145.283  1.00  0.00     0.102 A 
HETATM   35  C6  UNL     1     -49.154  82.540 144.820  1.00  0.00     0.124 A 
HETATM   36  C7  UNL     1     -48.067  83.024 145.554  1.00  0.00     0.097 A 
HETATM   37  N2  UNL     1     -47.227  84.001 144.972  1.00  0.00    -0.098 NA
BRANCH  34  38
HETATM   38  O2  UNL     1     -51.077  81.163 144.514  1.00  0.00    -0.358 OA
ATOM     39  H2  UNL     1     -50.941  80.650 143.726  1.00  0.00     0.217 HD
ENDBRANCH  34  38
BRANCH  35  40
HETATM   40  O3  UNL     1     -49.324  83.069 143.549  1.00  0.00    -0.356 OA
ATOM     41  H3  UNL     1     -49.655  83.955 143.448  1.00  0.00     0.218 HD
ENDBRANCH  35  40
ENDBRANCH   1  25
TORSDOF 16
ENDMDL
MODEL 4
REMARK VINA RESULT: -7.531067599      1.642      3.665
REMARK  16 active torsions:
REMARK  status: ('A' for Active; 'I' for Inactive)
REMARK    1  A    between atoms: C5_8  and  O2_9 
REMARK    2  A    between atoms: C6_11  and  O3_12 
REMARK    3  A    between atoms: C9_17  and  N3_18 
REMARK    4  A    between atoms: C10_20  and  O4_21 
REMARK    5  A    between atoms: C10_20  and  N4_23 
REMARK    6  A    between atoms: N4_23  and  C11_25 
REMARK    7  A    between atoms: C11_25  and  O5_26 
REMARK    8  A    between atoms: C11_25  and  C12_28 
REMARK    9  A    between atoms: C12_28  and  O6_29 
REMARK   10  A    between atoms: C12_28  and  C13_31 
REMARK   11  A    between atoms: C13_31  and  C14_33 
REMARK   12  A    between atoms: C14_33  and  O8_34 
REMARK   13  A    between atoms: C14_33  and  C15_36 
REMARK   14  A    between atoms: C15_36  and  O9_37 
REMARK   15  A    between atoms: C15_36  and  C16_39 
REMARK   16  A    between atoms: C16_39  and  O10_40 
ROOT
HETATM    1  N3  UNL     1     -47.921  82.057 148.242  1.00  0.00    -0.307 N 
ATOM      2  H3  UNL     1     -46.905  82.140 148.252  1.00  0.00     0.171 HD
HETATM    3  C10 UNL     1     -48.314  81.767 149.493  1.00  0.00     0.220 C 
ENDROOT
BRANCH   3   4
HETATM    4  O4  UNL     1     -48.642  82.657 150.384  1.00  0.00    -0.332 OA
ATOM      5  H4  UNL     1     -48.926  83.541 150.181  1.00  0.00     0.220 HD
ENDBRANCH   3   4
BRANCH   3   6
HETATM    6  N4  UNL     1     -48.427  80.427 150.040  1.00  0.00    -0.327 N 
ATOM      7  H4  UNL     1     -49.273  79.885 149.870  1.00  0.00     0.165 HD
BRANCH   6   8
HETATM    8  C11 UNL     1     -47.365  79.854 150.814  1.00  0.00     0.257 C 
BRANCH   8   9
HETATM    9  O5  UNL     1     -46.169  80.563 150.612  1.00  0.00    -0.374 OA
ATOM     10  H5  UNL     1     -45.418  79.995 150.742  1.00  0.00     0.212 HD
ENDBRANCH   8   9
BRANCH   8  11
HETATM   11  C12 UNL     1     -47.693  79.776 152.293  1.00  0.00     0.238 C 
BRANCH  11  12
HETATM   12  O6  UNL     1     -48.821  80.487 152.611  1.00  0.00    -0.384 OA
ATOM     13  H6  UNL     1     -48.837  81.341 152.196  1.00  0.00     0.210 HD
ENDBRANCH  11  12
BRANCH  11  14
HETATM   14  C13 UNL     1     -47.667  78.376 152.745  1.00  0.00     0.190 C 
HETATM   15  O7  UNL     1     -46.791  78.093 153.579  1.00  0.00    -0.292 OA
BRANCH  14  16
HETATM   16  C14 UNL     1     -48.609  77.379 152.247  1.00  0.00     0.221 C 
BRANCH  16  17
HETATM   17  O8  UNL     1     -49.903  77.726 152.541  1.00  0.00    -0.385 OA
ATOM     18  H8  UNL     1     -50.129  77.494 153.434  1.00  0.00     0.210 HD
ENDBRANCH  16  17
BRANCH  16  19
HETATM   19  C15 UNL     1     -48.330  75.979 152.773  1.00  0.00     0.177 C 
BRANCH  19  20
HETATM   20  O9  UNL     1     -48.512  75.104 151.685  1.00  0.00    -0.390 OA
ATOM     21  H9  UNL     1     -48.247  74.244 151.987  1.00  0.00     0.210 HD
ENDBRANCH  19  20
BRANCH  19  22
HETATM   22  C16 UNL     1     -49.306  75.573 153.835  1.00  0.00     0.198 C 
BRANCH  22  23
HETATM   23  O10 UNL     1     -49.214  76.348 154.983  1.00  0.00    -0.398 OA
ATOM     24  H10 UNL     1     -48.915  77.233 154.812  1.00  0.00     0.209 HD
ENDBRANCH  22  23
ENDBRANCH  19  22
ENDBRANCH  16  19
ENDBRANCH  14  16
ENDBRANCH  11  14
ENDBRANCH   8  11
ENDBRANCH   6   8
ENDBRANCH   3   6
BRANCH   1  25
HETATM   25  C9  UNL     1     -48.296  82.262 147.089  1.00  0.00     0.127 A 
HETATM   26  N1  UNL     1     -49.354  81.614 146.544  1.00  0.00    -0.298 N 
HETATM   27  C1  UNL     1     -50.095  80.634 147.356  1.00  0.00     0.161 C 
HETATM   28  C2  UNL     1     -49.836  81.755 145.308  1.00  0.00     0.292 A 
HETATM   29  O1  UNL     1     -50.848  81.077 144.916  1.00  0.00    -0.259 OA
HETATM   30  S1  UNL     1     -49.052  82.867 144.289  1.00  0.00    -0.028 SA
HETATM   31  C3  UNL     1     -47.738  83.617 145.096  1.00  0.00     0.028 A 
HETATM   32  C4  UNL     1     -46.950  84.573 144.438  1.00  0.00     0.059 A 
HETATM   33  C8  UNL     1     -47.531  83.218 146.385  1.00  0.00     0.053 A 
HETATM   34  C5  UNL     1     -45.902  85.164 145.095  1.00  0.00     0.102 A 
HETATM   35  C6  UNL     1     -45.685  84.776 146.383  1.00  0.00     0.124 A 
HETATM   36  C7  UNL     1     -46.460  83.824 147.052  1.00  0.00     0.097 A 
HETATM   37  N2  UNL     1     -46.142  83.500 148.390  1.00  0.00    -0.098 NA
BRANCH  34  38
HETATM   38  O2  UNL     1     -45.104  86.105 144.489  1.00  0.00    -0.358 OA
ATOM     39  H2  UNL     1     -44.222  85.902 144.200  1.00  0.00     0.217 HD
ENDBRANCH  34  38
BRANCH  35  40
HETATM   40  O3  UNL     1     -44.640  85.337 147.103  1.00  0.00    -0.356 OA
ATOM     41  H3  UNL     1     -44.509  85.090 148.012  1.00  0.00     0.218 HD
ENDBRANCH  35  40
ENDBRANCH   1  25
TORSDOF 16
ENDMDL
MODEL 5
REMARK VINA RESULT: -7.496264531      1.024      1.533
REMARK  16 active torsions:
REMARK  status: ('A' for Active; 'I' for Inactive)
REMARK    1  A    between atoms: C5_8  and  O2_9 
REMARK    2  A    between atoms: C6_11  and  O3_12 
REMARK    3  A    between atoms: C9_17  and  N3_18 
REMARK    4  A    between atoms: C10_20  and  O4_21 
REMARK    5  A    between atoms: C10_20  and  N4_23 
REMARK    6  A    between atoms: N4_23  and  C11_25 
REMARK    7  A    between atoms: C11_25  and  O5_26 
REMARK    8  A    between atoms: C11_25  and  C12_28 
REMARK    9  A    between atoms: C12_28  and  O6_29 
REMARK   10  A    between atoms: C12_28  and  C13_31 
REMARK   11  A    between atoms: C13_31  and  C14_33 
REMARK   12  A    between atoms: C14_33  and  O8_34 
REMARK   13  A    between atoms: C14_33  and  C15_36 
REMARK   14  A    between atoms: C15_36  and  O9_37 
REMARK   15  A    between atoms: C15_36  and  C16_39 
REMARK   16  A    between atoms: C16_39  and  O10_40 
ROOT
HETATM    1  N3  UNL     1     -47.506  81.399 148.964  1.00  0.00    -0.307 N 
ATOM      2  H3  UNL     1     -48.497  81.625 149.042  1.00  0.00     0.171 HD
HETATM    3  C10 UNL     1     -47.252  80.400 149.824  1.00  0.00     0.220 C 
ENDROOT
BRANCH   3   4
HETATM    4  O4  UNL     1     -47.313  79.135 149.520  1.00  0.00    -0.332 OA
ATOM      5  H4  UNL     1     -47.121  78.429 150.125  1.00  0.00     0.220 HD
ENDBRANCH   3   4
BRANCH   3   6
HETATM    6  N4  UNL     1     -46.879  80.576 151.216  1.00  0.00    -0.327 N 
ATOM      7  H4  UNL     1     -46.052  81.126 151.449  1.00  0.00     0.165 HD
BRANCH   6   8
HETATM    8  C11 UNL     1     -47.655  79.987 152.268  1.00  0.00     0.257 C 
BRANCH   8   9
HETATM    9  O5  UNL     1     -48.893  79.539 151.776  1.00  0.00    -0.374 OA
ATOM     10  H5  UNL     1     -49.219  78.818 152.302  1.00  0.00     0.212 HD
ENDBRANCH   8   9
BRANCH   8  11
HETATM   11  C12 UNL     1     -46.926  78.863 152.978  1.00  0.00     0.238 C 
BRANCH  11  12
HETATM   12  O6  UNL     1     -45.693  79.252 153.434  1.00  0.00    -0.384 OA
ATOM     13  H6  UNL     1     -45.058  78.546 153.398  1.00  0.00     0.210 HD
ENDBRANCH  11  12
BRANCH  11  14
HETATM   14  C13 UNL     1     -47.810  78.234 153.973  1.00  0.00     0.190 C 
HETATM   15  O7  UNL     1     -48.589  79.000 154.565  1.00  0.00    -0.292 OA
BRANCH  14  16
HETATM   16  C14 UNL     1     -47.776  76.803 154.250  1.00  0.00     0.221 C 
BRANCH  16  17
HETATM   17  O8  UNL     1     -46.514  76.292 154.084  1.00  0.00    -0.385 OA
ATOM     18  H8  UNL     1     -46.323  75.626 154.734  1.00  0.00     0.210 HD
ENDBRANCH  16  17
BRANCH  16  19
HETATM   19  C15 UNL     1     -48.759  76.007 153.402  1.00  0.00     0.177 C 
BRANCH  19  20
HETATM   20  O9  UNL     1     -49.700  76.934 152.915  1.00  0.00    -0.390 OA
ATOM     21  H9  UNL     1     -50.554  76.610 153.177  1.00  0.00     0.210 HD
ENDBRANCH  19  20
BRANCH  19  22
HETATM   22  C16 UNL     1     -49.511  74.997 154.214  1.00  0.00     0.198 C 
BRANCH  22  23
HETATM   23  O10 UNL     1     -48.681  74.105 154.878  1.00  0.00    -0.398 OA
ATOM     24  H10 UNL     1     -48.875  73.197 154.679  1.00  0.00     0.209 HD
ENDBRANCH  22  23
ENDBRANCH  19  22
ENDBRANCH  16  19
ENDBRANCH  14  16
ENDBRANCH  11  14
ENDBRANCH   8  11
ENDBRANCH   6   8
ENDBRANCH   3   6
BRANCH   1  25
HETATM   25  C9  UNL     1     -47.023  82.150 148.119  1.00  0.00     0.127 A 
HETATM   26  N1  UNL     1     -45.869  82.830 148.328  1.00  0.00    -0.298 N 
HETATM   27  C1  UNL     1     -45.154  82.662 149.605  1.00  0.00     0.161 C 
HETATM   28  C2  UNL     1     -45.265  83.671 147.487  1.00  0.00     0.292 A 
HETATM   29  O1  UNL     1     -44.171  84.252 147.810  1.00  0.00    -0.259 OA
HETATM   30  S1  UNL     1     -46.009  83.932 145.980  1.00  0.00    -0.028 SA
HETATM   31  C3  UNL     1     -47.452  83.017 145.842  1.00  0.00     0.028 A 
HETATM   32  C4  UNL     1     -48.228  83.082 144.675  1.00  0.00     0.059 A 
HETATM   33  C8  UNL     1     -47.770  82.249 146.925  1.00  0.00     0.053 A 
HETATM   34  C5  UNL     1     -49.380  82.345 144.579  1.00  0.00     0.102 A 
HETATM   35  C6  UNL     1     -49.709  81.574 145.652  1.00  0.00     0.124 A 
HETATM   36  C7  UNL     1     -48.947  81.499 146.822  1.00  0.00     0.097 A 
HETATM   37  N2  UNL     1     -49.387  80.662 147.873  1.00  0.00    -0.098 NA
BRANCH  34  38
HETATM   38  O2  UNL     1     -50.169  82.379 143.454  1.00  0.00    -0.358 OA
ATOM     39  H2  UNL     1     -50.368  81.594 142.958  1.00  0.00     0.217 HD
ENDBRANCH  34  38
BRANCH  35  40
HETATM   40  O3  UNL     1     -50.863  80.804 145.617  1.00  0.00    -0.356 OA
ATOM     41  H3  UNL     1     -51.101  80.278 146.372  1.00  0.00     0.218 HD
ENDBRANCH  35  40
ENDBRANCH   1  25
TORSDOF 16
ENDMDL
