MODEL 1
REMARK VINA RESULT: -6.277869247      0.000      0.000
REMARK  14 active torsions:
REMARK  status: ('A' for Active; 'I' for Inactive)
REMARK    1  A    between atoms: N1_1  and  C1_5 
REMARK    2  A    between atoms: C1_5  and  C2_6 
REMARK    3  A    between atoms: C3_8  and  O2_9 
REMARK    4  A    between atoms: O2_9  and  C4_10 
REMARK    5  A    between atoms: C5_12  and  O4_13 
REMARK    6  A    between atoms: O4_13  and  C6_14 
REMARK    7  A    between atoms: C7_15  and  N2_16 
REMARK    8  A    between atoms: C9_21  and  N3_22 
REMARK    9  A    between atoms: C10_28  and  C11_29 
REMARK   10  A    between atoms: C11_29  and  O6_30 
REMARK   11  A    between atoms: C12_32  and  N5_33 
REMARK   12  A    between atoms: C14_38  and  N6_39 
REMARK   13  A    between atoms: C16_44  and  N7_45 
REMARK   14  A    between atoms: C17_49  and  O7_50 
ROOT
HETATM    1  C4  UNL     1     -47.565  81.316 149.228  1.00  0.00     0.296 C 
HETATM    2  O3  UNL     1     -46.526  81.038 148.350  1.00  0.00    -0.327 OA
HETATM    3  C5  UNL     1     -45.873  82.185 147.915  1.00  0.00     0.294 C 
HETATM    4  C12 UNL     1     -46.763  83.052 147.054  1.00  0.00     0.240 C 
HETATM    5  C13 UNL     1     -48.165  83.054 147.626  1.00  0.00     0.075 C 
HETATM    6  C14 UNL     1     -48.036  82.756 149.104  1.00  0.00     0.240 C 
ENDROOT
BRANCH   3   7
HETATM    7  O4  UNL     1     -44.797  81.796 147.158  1.00  0.00    -0.349 OA
BRANCH   7   8
HETATM    8  C6  UNL     1     -43.629  82.481 147.447  1.00  0.00     0.188 C 
HETATM    9  C7  UNL     1     -43.652  82.805 148.913  1.00  0.00     0.218 C 
HETATM   10  C8  UNL     1     -42.915  81.855 149.792  1.00  0.00     0.088 C 
HETATM   11  C9  UNL     1     -43.258  80.410 149.576  1.00  0.00     0.304 C 
HETATM   12  N4  UNL     1     -42.517  79.809 148.492  1.00  0.00    -0.067 NA
HETATM   13  O5  UNL     1     -42.920  80.255 147.283  1.00  0.00    -0.274 OA
HETATM   14  C10 UNL     1     -42.467  81.565 147.143  1.00  0.00     0.202 C 
BRANCH   9  15
HETATM   15  N2  UNL     1     -43.090  84.134 149.125  1.00  0.00    -0.072 N 
ATOM     16  H23 UNL     1     -42.515  84.439 148.339  1.00  0.00     0.274 HD
ATOM     17  H22 UNL     1     -43.799  84.866 149.078  1.00  0.00     0.274 HD
ATOM     18  H21 UNL     1     -42.578  84.149 150.007  1.00  0.00     0.274 HD
ENDBRANCH   9  15
BRANCH  11  19
HETATM   19  N3  UNL     1     -42.874  79.691 150.795  1.00  0.00    -0.059 N 
ATOM     20  H33 UNL     1     -43.663  79.506 151.415  1.00  0.00     0.276 HD
ATOM     21  H32 UNL     1     -42.614  78.720 150.621  1.00  0.00     0.276 HD
ATOM     22  H31 UNL     1     -42.132  80.231 151.240  1.00  0.00     0.276 HD
ENDBRANCH  11  19
BRANCH  14  23
HETATM   23  C11 UNL     1     -41.910  81.814 145.739  1.00  0.00     0.200 C 
BRANCH  23  24
HETATM   24  O6  UNL     1     -40.762  80.994 145.643  1.00  0.00    -0.398 OA
ATOM     25  H6  UNL     1     -41.039  80.139 145.952  1.00  0.00     0.209 HD
ENDBRANCH  23  24
ENDBRANCH  14  23
ENDBRANCH   7   8
ENDBRANCH   3   7
BRANCH   4  26
HETATM   26  N5  UNL     1     -46.867  82.557 145.692  1.00  0.00    -0.070 N 
ATOM     27  H53 UNL     1     -45.961  82.573 145.225  1.00  0.00     0.274 HD
ATOM     28  H52 UNL     1     -47.039  81.552 145.679  1.00  0.00     0.274 HD
ATOM     29  H51 UNL     1     -47.570  83.058 145.150  1.00  0.00     0.274 HD
ENDBRANCH   4  26
BRANCH   1  30
HETATM   30  O2  UNL     1     -47.221  81.071 150.555  1.00  0.00    -0.329 OA
BRANCH  30  31
HETATM   31  C3  UNL     1     -48.110  80.200 151.151  1.00  0.00     0.265 C 
HETATM   32  O1  UNL     1     -48.869  80.778 152.148  1.00  0.00    -0.352 OA
HETATM   33  C2  UNL     1     -48.281  80.845 153.376  1.00  0.00     0.180 C 
HETATM   34  C17 UNL     1     -47.785  79.528 153.905  1.00  0.00     0.179 C 
HETATM   35  C16 UNL     1     -47.985  78.438 152.847  1.00  0.00     0.219 C 
HETATM   36  C15 UNL     1     -47.371  78.966 151.579  1.00  0.00     0.096 C 
BRANCH  33  37
HETATM   37  C1  UNL     1     -49.300  81.417 154.352  1.00  0.00     0.264 C 
BRANCH  37  38
HETATM   38  N1  UNL     1     -50.656  81.190 153.889  1.00  0.00    -0.077 N 
ATOM     39  H13 UNL     1     -51.009  80.283 154.195  1.00  0.00     0.274 HD
ATOM     40  H12 UNL     1     -51.323  81.788 154.376  1.00  0.00     0.274 HD
ATOM     41  H11 UNL     1     -50.724  81.297 152.878  1.00  0.00     0.274 HD
ENDBRANCH  37  38
ENDBRANCH  33  37
BRANCH  34  42
HETATM   42  O7  UNL     1     -48.448  79.112 155.045  1.00  0.00    -0.391 OA
ATOM     43  H7  UNL     1     -47.900  79.117 155.822  1.00  0.00     0.210 HD
ENDBRANCH  34  42
BRANCH  35  44
HETATM   44  N7  UNL     1     -49.368  78.144 152.621  1.00  0.00    -0.072 N 
ATOM     45  H73 UNL     1     -49.974  78.589 153.309  1.00  0.00     0.274 HD
ATOM     46  H72 UNL     1     -49.729  78.609 151.787  1.00  0.00     0.274 HD
ATOM     47  H71 UNL     1     -49.499  77.133 152.587  1.00  0.00     0.274 HD
ENDBRANCH  35  44
ENDBRANCH  30  31
ENDBRANCH   1  30
BRANCH   6  48
HETATM   48  N6  UNL     1     -49.391  82.862 149.667  1.00  0.00    -0.070 N 
ATOM     49  H63 UNL     1     -50.052  83.283 149.014  1.00  0.00     0.274 HD
ATOM     50  H62 UNL     1     -49.845  81.954 149.763  1.00  0.00     0.274 HD
ATOM     51  H61 UNL     1     -49.341  83.368 150.551  1.00  0.00     0.274 HD
ENDBRANCH   6  48
TORSDOF 14
ENDMDL
MODEL 2
REMARK VINA RESULT: -6.210758255      3.876      7.795
REMARK  14 active torsions:
REMARK  status: ('A' for Active; 'I' for Inactive)
REMARK    1  A    between atoms: N1_1  and  C1_5 
REMARK    2  A    between atoms: C1_5  and  C2_6 
REMARK    3  A    between atoms: C3_8  and  O2_9 
REMARK    4  A    between atoms: O2_9  and  C4_10 
REMARK    5  A    between atoms: C5_12  and  O4_13 
REMARK    6  A    between atoms: O4_13  and  C6_14 
REMARK    7  A    between atoms: C7_15  and  N2_16 
REMARK    8  A    between atoms: C9_21  and  N3_22 
REMARK    9  A    between atoms: C10_28  and  C11_29 
REMARK   10  A    between atoms: C11_29  and  O6_30 
REMARK   11  A    between atoms: C12_32  and  N5_33 
REMARK   12  A    between atoms: C14_38  and  N6_39 
REMARK   13  A    between atoms: C16_44  and  N7_45 
REMARK   14  A    between atoms: C17_49  and  O7_50 
ROOT
HETATM    1  C4  UNL     1     -46.189  83.859 146.597  1.00  0.00     0.296 C 
HETATM    2  O3  UNL     1     -45.189  83.669 147.541  1.00  0.00    -0.327 OA
HETATM    3  C5  UNL     1     -44.892  82.326 147.743  1.00  0.00     0.294 C 
HETATM    4  C12 UNL     1     -46.044  81.581 148.380  1.00  0.00     0.240 C 
HETATM    5  C13 UNL     1     -47.347  82.070 147.783  1.00  0.00     0.075 C 
HETATM    6  C14 UNL     1     -47.026  82.604 146.404  1.00  0.00     0.240 C 
ENDROOT
BRANCH   3   7
HETATM    7  O4  UNL     1     -43.817  82.255 148.592  1.00  0.00    -0.349 OA
BRANCH   7   8
HETATM    8  C6  UNL     1     -42.812  81.409 148.158  1.00  0.00     0.188 C 
HETATM    9  C7  UNL     1     -41.960  82.187 147.195  1.00  0.00     0.218 C 
HETATM   10  C8  UNL     1     -40.733  82.798 147.775  1.00  0.00     0.088 C 
HETATM   11  C9  UNL     1     -40.964  83.599 149.024  1.00  0.00     0.304 C 
HETATM   12  N4  UNL     1     -40.990  82.788 150.219  1.00  0.00    -0.067 NA
HETATM   13  O5  UNL     1     -42.104  82.028 150.301  1.00  0.00    -0.274 OA
HETATM   14  C10 UNL     1     -41.991  81.008 149.360  1.00  0.00     0.202 C 
BRANCH   9  15
HETATM   15  N2  UNL     1     -41.547  81.315 146.100  1.00  0.00    -0.072 N 
ATOM     16  H23 UNL     1     -41.263  80.392 146.428  1.00  0.00     0.274 HD
ATOM     17  H22 UNL     1     -42.333  81.027 145.518  1.00  0.00     0.274 HD
ATOM     18  H21 UNL     1     -40.815  81.775 145.559  1.00  0.00     0.274 HD
ENDBRANCH   9  15
BRANCH  11  19
HETATM   19  N3  UNL     1     -39.828  84.515 149.164  1.00  0.00    -0.059 N 
ATOM     20  H33 UNL     1     -39.639  84.773 150.133  1.00  0.00     0.276 HD
ATOM     21  H32 UNL     1     -38.930  84.072 148.970  1.00  0.00     0.276 HD
ATOM     22  H31 UNL     1     -40.016  85.319 148.565  1.00  0.00     0.276 HD
ENDBRANCH  11  19
BRANCH  14  23
HETATM   23  C11 UNL     1     -42.456  79.667 149.934  1.00  0.00     0.200 C 
BRANCH  23  24
HETATM   24  O6  UNL     1     -43.537  79.267 149.115  1.00  0.00    -0.398 OA
ATOM     25  H6  UNL     1     -44.098  78.747 149.677  1.00  0.00     0.209 HD
ENDBRANCH  23  24
ENDBRANCH  14  23
ENDBRANCH   7   8
ENDBRANCH   3   7
BRANCH   4  26
HETATM   26  N5  UNL     1     -46.126  81.811 149.812  1.00  0.00    -0.070 N 
ATOM     27  H53 UNL     1     -46.723  81.118 150.262  1.00  0.00     0.274 HD
ATOM     28  H52 UNL     1     -45.244  81.589 150.271  1.00  0.00     0.274 HD
ATOM     29  H51 UNL     1     -46.429  82.759 150.035  1.00  0.00     0.274 HD
ENDBRANCH   4  26
BRANCH   1  30
HETATM   30  O2  UNL     1     -45.686  84.255 145.360  1.00  0.00    -0.329 OA
BRANCH  30  31
HETATM   31  C3  UNL     1     -45.330  85.588 145.368  1.00  0.00     0.265 C 
HETATM   32  O1  UNL     1     -45.998  86.346 144.429  1.00  0.00    -0.352 OA
HETATM   33  C2  UNL     1     -45.474  86.327 143.171  1.00  0.00     0.180 C 
HETATM   34  C17 UNL     1     -44.020  86.705 143.092  1.00  0.00     0.179 C 
HETATM   35  C16 UNL     1     -43.466  86.921 144.504  1.00  0.00     0.219 C 
HETATM   36  C15 UNL     1     -43.834  85.693 145.292  1.00  0.00     0.096 C 
BRANCH  33  37
HETATM   37  C1  UNL     1     -46.282  87.290 142.312  1.00  0.00     0.264 C 
BRANCH  37  38
HETATM   38  N1  UNL     1     -46.415  86.798 140.954  1.00  0.00    -0.077 N 
ATOM     39  H13 UNL     1     -47.311  86.332 140.810  1.00  0.00     0.274 HD
ATOM     40  H12 UNL     1     -46.527  87.561 140.288  1.00  0.00     0.274 HD
ATOM     41  H11 UNL     1     -45.634  86.192 140.703  1.00  0.00     0.274 HD
ENDBRANCH  37  38
ENDBRANCH  33  37
BRANCH  34  42
HETATM   42  O7  UNL     1     -43.797  87.873 142.386  1.00  0.00    -0.391 OA
ATOM     43  H7  UNL     1     -42.998  87.853 141.871  1.00  0.00     0.210 HD
ENDBRANCH  34  42
BRANCH  35  44
HETATM   44  N7  UNL     1     -44.021  88.079 145.137  1.00  0.00    -0.072 N 
ATOM     45  H73 UNL     1     -45.039  88.038 145.192  1.00  0.00     0.274 HD
ATOM     46  H72 UNL     1     -43.822  88.103 146.137  1.00  0.00     0.274 HD
ATOM     47  H71 UNL     1     -43.694  88.918 144.657  1.00  0.00     0.274 HD
ENDBRANCH  35  44
ENDBRANCH  30  31
ENDBRANCH   1  30
BRANCH   6  48
HETATM   48  N6  UNL     1     -48.311  82.980 145.796  1.00  0.00    -0.070 N 
ATOM     49  H63 UNL     1     -48.919  82.175 145.642  1.00  0.00     0.274 HD
ATOM     50  H62 UNL     1     -48.913  83.491 146.443  1.00  0.00     0.274 HD
ATOM     51  H61 UNL     1     -48.129  83.501 144.939  1.00  0.00     0.274 HD
ENDBRANCH   6  48
TORSDOF 14
ENDMDL
MODEL 3
REMARK VINA RESULT: -6.190270081      1.727      7.076
REMARK  14 active torsions:
REMARK  status: ('A' for Active; 'I' for Inactive)
REMARK    1  A    between atoms: N1_1  and  C1_5 
REMARK    2  A    between atoms: C1_5  and  C2_6 
REMARK    3  A    between atoms: C3_8  and  O2_9 
REMARK    4  A    between atoms: O2_9  and  C4_10 
REMARK    5  A    between atoms: C5_12  and  O4_13 
REMARK    6  A    between atoms: O4_13  and  C6_14 
REMARK    7  A    between atoms: C7_15  and  N2_16 
REMARK    8  A    between atoms: C9_21  and  N3_22 
REMARK    9  A    between atoms: C10_28  and  C11_29 
REMARK   10  A    between atoms: C11_29  and  O6_30 
REMARK   11  A    between atoms: C12_32  and  N5_33 
REMARK   12  A    between atoms: C14_38  and  N6_39 
REMARK   13  A    between atoms: C16_44  and  N7_45 
REMARK   14  A    between atoms: C17_49  and  O7_50 
ROOT
HETATM    1  C4  UNL     1     -46.377  82.222 148.574  1.00  0.00     0.296 C 
HETATM    2  O3  UNL     1     -46.806  82.241 149.894  1.00  0.00    -0.327 OA
HETATM    3  C5  UNL     1     -48.064  81.673 150.057  1.00  0.00     0.294 C 
HETATM    4  C12 UNL     1     -49.145  82.487 149.383  1.00  0.00     0.240 C 
HETATM    5  C13 UNL     1     -48.627  83.009 148.059  1.00  0.00     0.075 C 
HETATM    6  C14 UNL     1     -47.540  82.059 147.608  1.00  0.00     0.240 C 
ENDROOT
BRANCH   3   7
HETATM    7  O4  UNL     1     -48.337  81.631 151.400  1.00  0.00    -0.349 OA
BRANCH   7   8
HETATM    8  C6  UNL     1     -47.561  80.727 152.104  1.00  0.00     0.188 C 
HETATM    9  C7  UNL     1     -46.677  81.519 153.025  1.00  0.00     0.218 C 
HETATM   10  C8  UNL     1     -47.173  81.666 154.421  1.00  0.00     0.088 C 
HETATM   11  C9  UNL     1     -48.593  82.140 154.532  1.00  0.00     0.304 C 
HETATM   12  N4  UNL     1     -49.556  81.071 154.421  1.00  0.00    -0.067 NA
HETATM   13  O5  UNL     1     -49.644  80.585 153.163  1.00  0.00    -0.274 OA
HETATM   14  C10 UNL     1     -48.488  79.850 152.913  1.00  0.00     0.202 C 
BRANCH   9  15
HETATM   15  N2  UNL     1     -45.358  80.898 153.085  1.00  0.00    -0.072 N 
ATOM     16  H23 UNL     1     -44.832  81.190 153.908  1.00  0.00     0.274 HD
ATOM     17  H22 UNL     1     -45.411  79.900 153.293  1.00  0.00     0.274 HD
ATOM     18  H21 UNL     1     -44.855  81.086 152.218  1.00  0.00     0.274 HD
ENDBRANCH   9  15
BRANCH  11  19
HETATM   19  N3  UNL     1     -48.752  82.709 155.874  1.00  0.00    -0.059 N 
ATOM     20  H33 UNL     1     -49.636  82.454 156.314  1.00  0.00     0.276 HD
ATOM     21  H32 UNL     1     -48.135  82.284 156.565  1.00  0.00     0.276 HD
ATOM     22  H31 UNL     1     -48.624  83.718 155.789  1.00  0.00     0.276 HD
ENDBRANCH  11  19
BRANCH  14  23
HETATM   23  C11 UNL     1     -48.806  78.545 152.179  1.00  0.00     0.200 C 
BRANCH  23  24
HETATM   24  O6  UNL     1     -50.217  78.461 152.163  1.00  0.00    -0.398 OA
ATOM     25  H6  UNL     1     -50.433  77.773 152.782  1.00  0.00     0.209 HD
ENDBRANCH  23  24
ENDBRANCH  14  23
ENDBRANCH   7   8
ENDBRANCH   3   7
BRANCH   4  26
HETATM   26  N5  UNL     1     -49.533  83.647 150.168  1.00  0.00    -0.070 N 
ATOM     27  H53 UNL     1     -49.773  83.381 151.123  1.00  0.00     0.274 HD
ATOM     28  H52 UNL     1     -48.730  84.244 150.362  1.00  0.00     0.274 HD
ATOM     29  H51 UNL     1     -50.289  84.175 149.731  1.00  0.00     0.274 HD
ENDBRANCH   4  26
BRANCH   1  30
HETATM   30  O2  UNL     1     -45.449  81.212 148.330  1.00  0.00    -0.329 OA
BRANCH  30  31
HETATM   31  C3  UNL     1     -44.334  81.353 149.131  1.00  0.00     0.265 C 
HETATM   32  O1  UNL     1     -43.266  81.950 148.494  1.00  0.00    -0.352 OA
HETATM   33  C2  UNL     1     -42.486  81.122 147.743  1.00  0.00     0.180 C 
HETATM   34  C17 UNL     1     -41.950  79.927 148.481  1.00  0.00     0.179 C 
HETATM   35  C16 UNL     1     -42.521  79.899 149.903  1.00  0.00     0.219 C 
HETATM   36  C15 UNL     1     -44.013  80.027 149.758  1.00  0.00     0.096 C 
BRANCH  33  37
HETATM   37  C1  UNL     1     -41.318  81.937 147.207  1.00  0.00     0.264 C 
BRANCH  37  38
HETATM   38  N1  UNL     1     -40.675  81.265 146.094  1.00  0.00    -0.077 N 
ATOM     39  H13 UNL     1     -40.122  81.913 145.533  1.00  0.00     0.274 HD
ATOM     40  H12 UNL     1     -39.923  80.653 146.410  1.00  0.00     0.274 HD
ATOM     41  H11 UNL     1     -41.354  80.761 145.525  1.00  0.00     0.274 HD
ENDBRANCH  37  38
ENDBRANCH  33  37
BRANCH  34  42
HETATM   42  O7  UNL     1     -40.571  79.931 148.599  1.00  0.00    -0.391 OA
ATOM     43  H7  UNL     1     -40.235  80.702 149.040  1.00  0.00     0.210 HD
ENDBRANCH  34  42
BRANCH  35  44
HETATM   44  N7  UNL     1     -42.026  80.972 150.711  1.00  0.00    -0.072 N 
ATOM     45  H73 UNL     1     -41.712  80.652 151.627  1.00  0.00     0.274 HD
ATOM     46  H72 UNL     1     -41.135  81.333 150.369  1.00  0.00     0.274 HD
ATOM     47  H71 UNL     1     -42.736  81.701 150.780  1.00  0.00     0.274 HD
ENDBRANCH  35  44
ENDBRANCH  30  31
ENDBRANCH   1  30
BRANCH   6  48
HETATM   48  N6  UNL     1     -47.117  82.516 146.276  1.00  0.00    -0.070 N 
ATOM     49  H63 UNL     1     -46.678  83.437 146.301  1.00  0.00     0.274 HD
ATOM     50  H62 UNL     1     -46.321  81.989 145.917  1.00  0.00     0.274 HD
ATOM     51  H61 UNL     1     -47.920  82.485 145.647  1.00  0.00     0.274 HD
ENDBRANCH   6  48
TORSDOF 14
ENDMDL
MODEL 4
REMARK VINA RESULT: -6.186031891      4.122      8.147
REMARK  14 active torsions:
REMARK  status: ('A' for Active; 'I' for Inactive)
REMARK    1  A    between atoms: N1_1  and  C1_5 
REMARK    2  A    between atoms: C1_5  and  C2_6 
REMARK    3  A    between atoms: C3_8  and  O2_9 
REMARK    4  A    between atoms: O2_9  and  C4_10 
REMARK    5  A    between atoms: C5_12  and  O4_13 
REMARK    6  A    between atoms: O4_13  and  C6_14 
REMARK    7  A    between atoms: C7_15  and  N2_16 
REMARK    8  A    between atoms: C9_21  and  N3_22 
REMARK    9  A    between atoms: C10_28  and  C11_29 
REMARK   10  A    between atoms: C11_29  and  O6_30 
REMARK   11  A    between atoms: C12_32  and  N5_33 
REMARK   12  A    between atoms: C14_38  and  N6_39 
REMARK   13  A    between atoms: C16_44  and  N7_45 
REMARK   14  A    between atoms: C17_49  and  O7_50 
ROOT
HETATM    1  C4  UNL     1     -47.333  84.299 145.029  1.00  0.00     0.296 C 
HETATM    2  O3  UNL     1     -46.542  84.141 146.159  1.00  0.00    -0.327 OA
HETATM    3  C5  UNL     1     -46.308  82.806 146.466  1.00  0.00     0.294 C 
HETATM    4  C12 UNL     1     -47.571  82.091 146.888  1.00  0.00     0.240 C 
HETATM    5  C13 UNL     1     -48.724  82.562 146.027  1.00  0.00     0.075 C 
HETATM    6  C14 UNL     1     -48.129  83.041 144.720  1.00  0.00     0.240 C 
ENDROOT
BRANCH   3   7
HETATM    7  O4  UNL     1     -45.424  82.763 147.514  1.00  0.00    -0.349 OA
BRANCH   7   8
HETATM    8  C6  UNL     1     -44.162  83.243 147.207  1.00  0.00     0.188 C 
HETATM    9  C7  UNL     1     -43.778  84.213 148.288  1.00  0.00     0.218 C 
HETATM   10  C8  UNL     1     -42.932  83.655 149.378  1.00  0.00     0.088 C 
HETATM   11  C9  UNL     1     -43.452  82.384 149.984  1.00  0.00     0.304 C 
HETATM   12  N4  UNL     1     -43.074  81.206 149.240  1.00  0.00    -0.067 NA
HETATM   13  O5  UNL     1     -43.731  81.108 148.064  1.00  0.00    -0.274 OA
HETATM   14  C10 UNL     1     -43.208  82.072 147.206  1.00  0.00     0.202 C 
BRANCH   9  15
HETATM   15  N2  UNL     1     -43.059  85.337 147.697  1.00  0.00    -0.072 N 
ATOM     16  H23 UNL     1     -42.081  85.114 147.513  1.00  0.00     0.274 HD
ATOM     17  H22 UNL     1     -43.350  85.520 146.737  1.00  0.00     0.274 HD
ATOM     18  H21 UNL     1     -43.162  86.157 148.295  1.00  0.00     0.274 HD
ENDBRANCH   9  15
BRANCH  11  19
HETATM   19  N3  UNL     1     -42.838  82.257 151.309  1.00  0.00    -0.059 N 
ATOM     20  H33 UNL     1     -41.935  81.782 151.288  1.00  0.00     0.276 HD
ATOM     21  H32 UNL     1     -42.508  83.146 151.685  1.00  0.00     0.276 HD
ATOM     22  H31 UNL     1     -43.519  81.795 151.912  1.00  0.00     0.276 HD
ENDBRANCH  11  19
BRANCH  14  23
HETATM   23  C11 UNL     1     -43.009  81.513 145.794  1.00  0.00     0.200 C 
BRANCH  23  24
HETATM   24  O6  UNL     1     -41.649  81.133 145.733  1.00  0.00    -0.398 OA
ATOM     25  H6  UNL     1     -41.649  80.266 145.344  1.00  0.00     0.209 HD
ENDBRANCH  23  24
ENDBRANCH  14  23
ENDBRANCH   7   8
ENDBRANCH   3   7
BRANCH   4  26
HETATM   26  N5  UNL     1     -47.934  82.377 148.265  1.00  0.00    -0.070 N 
ATOM     27  H53 UNL     1     -47.889  81.535 148.839  1.00  0.00     0.274 HD
ATOM     28  H52 UNL     1     -47.212  82.928 148.729  1.00  0.00     0.274 HD
ATOM     29  H51 UNL     1     -48.846  82.827 148.341  1.00  0.00     0.274 HD
ENDBRANCH   4  26
BRANCH   1  30
HETATM   30  O2  UNL     1     -46.589  84.645 143.903  1.00  0.00    -0.329 OA
BRANCH  30  31
HETATM   31  C3  UNL     1     -46.239  85.979 143.925  1.00  0.00     0.265 C 
HETATM   32  O1  UNL     1     -46.553  86.654 142.763  1.00  0.00    -0.352 OA
HETATM   33  C2  UNL     1     -45.646  86.546 141.752  1.00  0.00     0.180 C 
HETATM   34  C17 UNL     1     -44.243  86.936 142.124  1.00  0.00     0.179 C 
HETATM   35  C16 UNL     1     -44.178  87.267 143.619  1.00  0.00     0.219 C 
HETATM   36  C15 UNL     1     -44.800  86.099 144.335  1.00  0.00     0.096 C 
BRANCH  33  37
HETATM   37  C1  UNL     1     -46.117  87.429 140.604  1.00  0.00     0.264 C 
BRANCH  37  38
HETATM   38  N1  UNL     1     -46.712  86.639 139.543  1.00  0.00    -0.077 N 
ATOM     39  H13 UNL     1     -46.078  86.539 138.750  1.00  0.00     0.274 HD
ATOM     40  H12 UNL     1     -46.789  85.657 139.806  1.00  0.00     0.274 HD
ATOM     41  H11 UNL     1     -47.612  87.023 139.257  1.00  0.00     0.274 HD
ENDBRANCH  37  38
ENDBRANCH  33  37
BRANCH  34  42
HETATM   42  O7  UNL     1     -43.786  88.050 141.443  1.00  0.00    -0.391 OA
ATOM     43  H7  UNL     1     -44.080  88.869 141.824  1.00  0.00     0.210 HD
ENDBRANCH  34  42
BRANCH  35  44
HETATM   44  N7  UNL     1     -44.896  88.462 143.944  1.00  0.00    -0.072 N 
ATOM     45  H73 UNL     1     -45.670  88.635 143.302  1.00  0.00     0.274 HD
ATOM     46  H72 UNL     1     -45.439  88.364 144.803  1.00  0.00     0.274 HD
ATOM     47  H71 UNL     1     -44.247  89.248 143.986  1.00  0.00     0.274 HD
ENDBRANCH  35  44
ENDBRANCH  30  31
ENDBRANCH   1  30
BRANCH   6  48
HETATM   48  N6  UNL     1     -49.263  83.399 143.855  1.00  0.00    -0.070 N 
ATOM     49  H63 UNL     1     -50.164  83.230 144.304  1.00  0.00     0.274 HD
ATOM     50  H62 UNL     1     -49.355  84.407 143.729  1.00  0.00     0.274 HD
ATOM     51  H61 UNL     1     -49.170  82.902 142.969  1.00  0.00     0.274 HD
ENDBRANCH   6  48
TORSDOF 14
ENDMDL
MODEL 5
REMARK VINA RESULT: -6.165593311      2.543      7.303
REMARK  14 active torsions:
REMARK  status: ('A' for Active; 'I' for Inactive)
REMARK    1  A    between atoms: N1_1  and  C1_5 
REMARK    2  A    between atoms: C1_5  and  C2_6 
REMARK    3  A    between atoms: C3_8  and  O2_9 
REMARK    4  A    between atoms: O2_9  and  C4_10 
REMARK    5  A    between atoms: C5_12  and  O4_13 
REMARK    6  A    between atoms: O4_13  and  C6_14 
REMARK    7  A    between atoms: C7_15  and  N2_16 
REMARK    8  A    between atoms: C9_21  and  N3_22 
REMARK    9  A    between atoms: C10_28  and  C11_29 
REMARK   10  A    between atoms: C11_29  and  O6_30 
REMARK   11  A    between atoms: C12_32  and  N5_33 
REMARK   12  A    between atoms: C14_38  and  N6_39 
REMARK   13  A    between atoms: C16_44  and  N7_45 
REMARK   14  A    between atoms: C17_49  and  O7_50 
ROOT
HETATM    1  C4  UNL     1     -44.487  79.771 149.932  1.00  0.00     0.296 C 
HETATM    2  O3  UNL     1     -45.676  79.995 149.251  1.00  0.00    -0.327 OA
HETATM    3  C5  UNL     1     -46.182  81.272 149.462  1.00  0.00     0.294 C 
HETATM    4  C12 UNL     1     -46.618  81.480 150.895  1.00  0.00     0.240 C 
HETATM    5  C13 UNL     1     -45.628  80.808 151.822  1.00  0.00     0.075 C 
HETATM    6  C14 UNL     1     -44.308  80.746 151.085  1.00  0.00     0.240 C 
ENDROOT
BRANCH   3   7
HETATM    7  O4  UNL     1     -47.279  81.430 148.655  1.00  0.00    -0.349 OA
BRANCH   7   8
HETATM    8  C6  UNL     1     -47.429  82.711 148.153  1.00  0.00     0.188 C 
HETATM    9  C7  UNL     1     -47.238  82.632 146.665  1.00  0.00     0.218 C 
HETATM   10  C8  UNL     1     -48.488  82.533 145.862  1.00  0.00     0.088 C 
HETATM   11  C9  UNL     1     -49.441  81.467 146.319  1.00  0.00     0.304 C 
HETATM   12  N4  UNL     1     -50.299  81.899 147.397  1.00  0.00    -0.067 NA
HETATM   13  O5  UNL     1     -49.632  82.034 148.563  1.00  0.00    -0.274 OA
HETATM   14  C10 UNL     1     -48.834  83.170 148.465  1.00  0.00     0.202 C 
BRANCH   9  15
HETATM   15  N2  UNL     1     -46.507  83.809 146.207  1.00  0.00    -0.072 N 
ATOM     16  H23 UNL     1     -45.498  83.696 146.300  1.00  0.00     0.274 HD
ATOM     17  H22 UNL     1     -46.548  83.918 145.194  1.00  0.00     0.274 HD
ATOM     18  H21 UNL     1     -46.851  84.633 146.698  1.00  0.00     0.274 HD
ENDBRANCH   9  15
BRANCH  11  19
HETATM   19  N3  UNL     1     -50.317  81.159 145.184  1.00  0.00    -0.059 N 
ATOM     20  H33 UNL     1     -50.299  81.876 144.459  1.00  0.00     0.276 HD
ATOM     21  H32 UNL     1     -49.975  80.387 144.613  1.00  0.00     0.276 HD
ATOM     22  H31 UNL     1     -51.250  80.995 145.562  1.00  0.00     0.276 HD
ENDBRANCH  11  19
BRANCH  14  23
HETATM   23  C11 UNL     1     -48.879  83.996 149.754  1.00  0.00     0.200 C 
BRANCH  23  24
HETATM   24  O6  UNL     1     -49.732  83.279 150.625  1.00  0.00    -0.398 OA
ATOM     25  H6  UNL     1     -50.535  83.784 150.659  1.00  0.00     0.209 HD
ENDBRANCH  23  24
ENDBRANCH  14  23
ENDBRANCH   7   8
ENDBRANCH   3   7
BRANCH   4  26
HETATM   26  N5  UNL     1     -47.916  80.887 151.168  1.00  0.00    -0.070 N 
ATOM     27  H53 UNL     1     -48.294  81.223 152.053  1.00  0.00     0.274 HD
ATOM     28  H52 UNL     1     -48.628  81.254 150.537  1.00  0.00     0.274 HD
ATOM     29  H51 UNL     1     -47.890  79.868 151.141  1.00  0.00     0.274 HD
ENDBRANCH   4  26
BRANCH   1  30
HETATM   30  O2  UNL     1     -43.373  79.853 149.100  1.00  0.00    -0.329 OA
BRANCH  30  31
HETATM   31  C3  UNL     1     -42.744  81.075 149.225  1.00  0.00     0.265 C 
HETATM   32  O1  UNL     1     -43.100  81.985 148.251  1.00  0.00    -0.352 OA
HETATM   33  C2  UNL     1     -42.425  81.883 147.071  1.00  0.00     0.180 C 
HETATM   34  C17 UNL     1     -40.928  81.934 147.199  1.00  0.00     0.179 C 
HETATM   35  C16 UNL     1     -40.538  81.987 148.680  1.00  0.00     0.219 C 
HETATM   36  C15 UNL     1     -41.265  80.851 149.347  1.00  0.00     0.096 C 
BRANCH  33  37
HETATM   37  C1  UNL     1     -42.883  83.021 146.170  1.00  0.00     0.264 C 
BRANCH  37  38
HETATM   38  N1  UNL     1     -42.932  84.277 146.893  1.00  0.00    -0.077 N 
ATOM     39  H13 UNL     1     -43.039  84.128 147.897  1.00  0.00     0.274 HD
ATOM     40  H12 UNL     1     -42.024  84.741 146.901  1.00  0.00     0.274 HD
ATOM     41  H11 UNL     1     -43.662  84.887 146.525  1.00  0.00     0.274 HD
ENDBRANCH  37  38
ENDBRANCH  33  37
BRANCH  34  42
HETATM   42  O7  UNL     1     -40.365  83.042 146.592  1.00  0.00    -0.391 OA
ATOM     43  H7  UNL     1     -40.579  83.113 145.669  1.00  0.00     0.210 HD
ENDBRANCH  34  42
BRANCH  35  44
HETATM   44  N7  UNL     1     -40.913  83.223 149.299  1.00  0.00    -0.072 N 
ATOM     45  H73 UNL     1     -40.284  83.480 150.059  1.00  0.00     0.274 HD
ATOM     46  H72 UNL     1     -40.745  84.025 148.692  1.00  0.00     0.274 HD
ATOM     47  H71 UNL     1     -41.885  83.168 149.605  1.00  0.00     0.274 HD
ENDBRANCH  35  44
ENDBRANCH  30  31
ENDBRANCH   1  30
BRANCH   6  48
HETATM   48  N6  UNL     1     -43.331  80.187 152.031  1.00  0.00    -0.070 N 
ATOM     49  H63 UNL     1     -43.765  79.578 152.725  1.00  0.00     0.274 HD
ATOM     50  H62 UNL     1     -42.720  79.495 151.597  1.00  0.00     0.274 HD
ATOM     51  H61 UNL     1     -42.810  80.954 152.457  1.00  0.00     0.274 HD
ENDBRANCH   6  48
TORSDOF 14
ENDMDL
