MODEL 1
REMARK VINA RESULT: -6.254903568      0.000      0.000
REMARK  12 active torsions:
REMARK  status: ('A' for Active; 'I' for Inactive)
REMARK    1  A    between atoms: C3_8  and  C4_9 
REMARK    2  A    between atoms: C4_9  and  O1_10 
REMARK    3  A    between atoms: C4_9  and  C5_12 
REMARK    4  A    between atoms: C5_12  and  C6_13 
REMARK    5  A    between atoms: C5_12  and  N4_18 
REMARK    6  A    between atoms: C6_13  and  O2_14 
REMARK    7  A    between atoms: C6_13  and  O3_16 
REMARK    8  A    between atoms: C8_20  and  O4_21 
REMARK    9  A    between atoms: C9_23  and  N5_24 
REMARK   10  A    between atoms: C10_27  and  C11_28 
REMARK   11  A    between atoms: C12_35  and  C13_36 
REMARK   12  A    between atoms: C13_36  and  N10_38 
REMARK       I    between atoms: N10_38  and  C14_40 
ROOT
HETATM    1  N4  UNL     1     -44.009  83.468 147.498  1.00  0.00    -0.347 N 
HETATM    2  C7  UNL     1     -43.647  84.499 146.615  1.00  0.00     0.124 A 
HETATM    3  C8  UNL     1     -44.739  85.139 146.832  1.00  0.00     0.102 A 
HETATM    4  C9  UNL     1     -45.224  84.127 147.765  1.00  0.00     0.269 A 
ENDROOT
BRANCH   4   5
HETATM    5  N5  UNL     1     -46.453  83.546 147.255  1.00  0.00    -0.241 N 
HETATM    6  N6  UNL     1     -46.844  83.368 146.014  1.00  0.00    -0.276 N 
HETATM    7  C10 UNL     1     -48.063  82.814 145.942  1.00  0.00     0.163 A 
ATOM      8  H6  UNL     1     -46.286  83.621 145.199  1.00  0.00     0.189 HD
HETATM    9  N9  UNL     1     -48.462  82.634 147.226  1.00  0.00    -0.321 N 
HETATM   10  C12 UNL     1     -47.473  83.083 148.018  1.00  0.00     0.165 A 
ATOM     11  H9  UNL     1     -49.349  82.232 147.533  1.00  0.00     0.169 HD
BRANCH   7  12
HETATM   12  C11 UNL     1     -48.764  82.496 144.724  1.00  0.00     0.155 C 
HETATM   13  N7  UNL     1     -48.258  82.881 143.602  1.00  0.00    -0.385 N 
ATOM     14  H72 UNL     1     -47.379  83.398 143.591  1.00  0.00     0.157 HD
ATOM     15  H71 UNL     1     -48.754  82.656 142.741  1.00  0.00     0.157 HD
HETATM   16  N8  UNL     1     -49.977  81.782 144.740  1.00  0.00    -0.079 NA
ENDBRANCH   7  12
BRANCH  10  17
HETATM   17  C13 UNL     1     -47.488  83.076 149.462  1.00  0.00     0.149 C 
HETATM   18  S1  UNL     1     -48.241  84.266 150.261  1.00  0.00    -0.056 SA
BRANCH  17  19
HETATM   19  N10 UNL     1     -46.857  82.048 150.189  1.00  0.00    -0.319 N 
HETATM   20  C14 UNL     1     -47.530  80.840 150.529  1.00  0.00     0.187 C 
HETATM   21  N11 UNL     1     -48.526  80.810 151.350  1.00  0.00    -0.373 N 
HETATM   22  N12 UNL     1     -47.118  79.611 149.965  1.00  0.00    -0.064 NA
ATOM     23 2H11 UNL     1     -48.823  81.697 151.757  1.00  0.00     0.158 HD
ATOM     24 1H11 UNL     1     -49.008  79.945 151.593  1.00  0.00     0.158 HD
ATOM     25  H10 UNL     1     -45.887  82.173 150.482  1.00  0.00     0.169 HD
ENDBRANCH  17  19
ENDBRANCH  10  17
ENDBRANCH   4   5
BRANCH   1  26
HETATM   26  C5  UNL     1     -43.212  82.285 147.872  1.00  0.00     0.177 C 
BRANCH  26  27
HETATM   27  C4  UNL     1     -43.844  81.509 148.971  1.00  0.00     0.214 C 
BRANCH  27  28
HETATM   28  C3  UNL     1     -42.903  80.924 149.952  1.00  0.00     0.130 A 
HETATM   29  N1  UNL     1     -42.624  81.578 151.119  1.00  0.00    -0.281 N 
HETATM   30  C1  UNL     1     -43.168  82.851 151.577  1.00  0.00     0.179 C 
HETATM   31  N2  UNL     1     -41.758  80.841 151.768  1.00  0.00    -0.293 N 
HETATM   32  C2  UNL     1     -41.466  79.736 151.070  1.00  0.00     0.199 A 
ATOM     33  H2  UNL     1     -41.360  81.075 152.678  1.00  0.00     0.188 HD
HETATM   34  N3  UNL     1     -42.187  79.809 149.949  1.00  0.00    -0.338 N 
ATOM     35  H3  UNL     1     -42.187  79.113 149.203  1.00  0.00     0.168 HD
ENDBRANCH  27  28
BRANCH  27  36
HETATM   36  O1  UNL     1     -44.780  80.622 148.474  1.00  0.00    -0.386 OA
ATOM     37  H1  UNL     1     -44.516  80.173 147.680  1.00  0.00     0.210 HD
ENDBRANCH  27  36
ENDBRANCH  26  27
BRANCH  26  38
HETATM   38  C6  UNL     1     -42.983  81.510 146.596  1.00  0.00     0.279 C 
BRANCH  38  39
HETATM   39  O2  UNL     1     -42.516  80.225 146.790  1.00  0.00    -0.369 OA
ATOM     40  H2  UNL     1     -41.832  79.963 146.185  1.00  0.00     0.212 HD
ENDBRANCH  38  39
BRANCH  38  41
HETATM   41  O3  UNL     1     -44.136  81.386 145.814  1.00  0.00    -0.369 OA
ATOM     42  H3  UNL     1     -44.390  80.482 145.665  1.00  0.00     0.212 HD
ENDBRANCH  38  41
ENDBRANCH  26  38
ENDBRANCH   1  26
BRANCH   3  43
HETATM   43  O4  UNL     1     -45.264  86.346 146.353  1.00  0.00    -0.360 OA
ATOM     44  H4  UNL     1     -45.558  87.146 146.774  1.00  0.00     0.217 HD
ENDBRANCH   3  43
TORSDOF 12
ENDMDL
MODEL 2
REMARK VINA RESULT: -6.080566296      2.263      4.012
REMARK  12 active torsions:
REMARK  status: ('A' for Active; 'I' for Inactive)
REMARK    1  A    between atoms: C3_8  and  C4_9 
REMARK    2  A    between atoms: C4_9  and  O1_10 
REMARK    3  A    between atoms: C4_9  and  C5_12 
REMARK    4  A    between atoms: C5_12  and  C6_13 
REMARK    5  A    between atoms: C5_12  and  N4_18 
REMARK    6  A    between atoms: C6_13  and  O2_14 
REMARK    7  A    between atoms: C6_13  and  O3_16 
REMARK    8  A    between atoms: C8_20  and  O4_21 
REMARK    9  A    between atoms: C9_23  and  N5_24 
REMARK   10  A    between atoms: C10_27  and  C11_28 
REMARK   11  A    between atoms: C12_35  and  C13_36 
REMARK   12  A    between atoms: C13_36  and  N10_38 
REMARK       I    between atoms: N10_38  and  C14_40 
ROOT
HETATM    1  N4  UNL     1     -42.375  82.808 148.277  1.00  0.00    -0.347 N 
HETATM    2  C7  UNL     1     -41.631  83.614 149.155  1.00  0.00     0.124 A 
HETATM    3  C8  UNL     1     -42.591  84.457 149.279  1.00  0.00     0.102 A 
HETATM    4  C9  UNL     1     -43.456  83.705 148.373  1.00  0.00     0.269 A 
ENDROOT
BRANCH   4   5
HETATM    5  N5  UNL     1     -43.778  84.526 147.220  1.00  0.00    -0.241 N 
HETATM    6  N6  UNL     1     -43.069  85.459 146.629  1.00  0.00    -0.276 N 
HETATM    7  C10 UNL     1     -43.720  86.013 145.597  1.00  0.00     0.163 A 
ATOM      8  H6  UNL     1     -42.130  85.731 146.922  1.00  0.00     0.189 HD
HETATM    9  N9  UNL     1     -44.920  85.384 145.537  1.00  0.00    -0.321 N 
HETATM   10  C12 UNL     1     -44.945  84.478 146.531  1.00  0.00     0.165 A 
ATOM     11  H9  UNL     1     -45.665  85.564 144.864  1.00  0.00     0.169 HD
BRANCH   7  12
HETATM   12  C11 UNL     1     -43.206  87.062 144.753  1.00  0.00     0.155 C 
HETATM   13  N7  UNL     1     -43.329  86.942 143.475  1.00  0.00    -0.385 N 
ATOM     14  H72 UNL     1     -43.784  86.117 143.082  1.00  0.00     0.157 HD
ATOM     15  H71 UNL     1     -42.966  87.684 142.878  1.00  0.00     0.157 HD
HETATM   16  N8  UNL     1     -42.579  88.199 145.295  1.00  0.00    -0.079 NA
ENDBRANCH   7  12
BRANCH  10  17
HETATM   17  C13 UNL     1     -46.044  83.588 146.826  1.00  0.00     0.149 C 
HETATM   18  S1  UNL     1     -46.834  83.730 148.232  1.00  0.00    -0.056 SA
BRANCH  17  19
HETATM   19  N10 UNL     1     -46.441  82.598 145.907  1.00  0.00    -0.319 N 
HETATM   20  C14 UNL     1     -47.773  82.518 145.411  1.00  0.00     0.187 C 
HETATM   21  N11 UNL     1     -48.776  82.220 146.166  1.00  0.00    -0.373 N 
HETATM   22  N12 UNL     1     -48.042  82.768 144.045  1.00  0.00    -0.064 NA
ATOM     23 2H11 UNL     1     -48.583  82.040 147.152  1.00  0.00     0.158 HD
ATOM     24 1H11 UNL     1     -49.731  82.163 145.811  1.00  0.00     0.158 HD
ATOM     25  H10 UNL     1     -45.753  81.916 145.587  1.00  0.00     0.169 HD
ENDBRANCH  17  19
ENDBRANCH  10  17
ENDBRANCH   4   5
BRANCH   1  26
HETATM   26  C5  UNL     1     -41.968  81.527 147.672  1.00  0.00     0.177 C 
BRANCH  26  27
HETATM   27  C4  UNL     1     -42.667  80.369 148.288  1.00  0.00     0.214 C 
BRANCH  27  28
HETATM   28  C3  UNL     1     -42.396  80.161 149.728  1.00  0.00     0.130 A 
HETATM   29  N1  UNL     1     -43.355  80.439 150.660  1.00  0.00    -0.281 N 
HETATM   30  C1  UNL     1     -44.707  80.932 150.426  1.00  0.00     0.179 C 
HETATM   31  N2  UNL     1     -42.830  80.179 151.832  1.00  0.00    -0.293 N 
HETATM   32  C2  UNL     1     -41.571  79.743 151.695  1.00  0.00     0.199 A 
ATOM     33  H2  UNL     1     -43.311  80.294 152.723  1.00  0.00     0.188 HD
HETATM   34  N3  UNL     1     -41.324  79.740 150.383  1.00  0.00    -0.338 N 
ATOM     35  H3  UNL     1     -40.444  79.457 149.951  1.00  0.00     0.168 HD
ENDBRANCH  27  28
BRANCH  27  36
HETATM   36  O1  UNL     1     -42.529  79.236 147.508  1.00  0.00    -0.386 OA
ATOM     37  H1  UNL     1     -42.296  79.406 146.603  1.00  0.00     0.210 HD
ENDBRANCH  27  36
ENDBRANCH  26  27
BRANCH  26  38
HETATM   38  C6  UNL     1     -42.177  81.678 146.184  1.00  0.00     0.279 C 
BRANCH  38  39
HETATM   39  O2  UNL     1     -41.233  81.032 145.411  1.00  0.00    -0.369 OA
ATOM     40  H2  UNL     1     -41.456  80.976 144.488  1.00  0.00     0.212 HD
ENDBRANCH  38  39
BRANCH  38  41
HETATM   41  O3  UNL     1     -43.419  81.199 145.753  1.00  0.00    -0.369 OA
ATOM     42  H3  UNL     1     -44.145  81.525 146.273  1.00  0.00     0.212 HD
ENDBRANCH  38  41
ENDBRANCH  26  38
ENDBRANCH   1  26
BRANCH   3  43
HETATM   43  O4  UNL     1     -42.748  85.644 150.004  1.00  0.00    -0.360 OA
ATOM     44  H4  UNL     1     -43.459  86.269 150.095  1.00  0.00     0.217 HD
ENDBRANCH   3  43
TORSDOF 12
ENDMDL
MODEL 3
REMARK VINA RESULT: -6.044653365      1.837      2.250
REMARK  12 active torsions:
REMARK  status: ('A' for Active; 'I' for Inactive)
REMARK    1  A    between atoms: C3_8  and  C4_9 
REMARK    2  A    between atoms: C4_9  and  O1_10 
REMARK    3  A    between atoms: C4_9  and  C5_12 
REMARK    4  A    between atoms: C5_12  and  C6_13 
REMARK    5  A    between atoms: C5_12  and  N4_18 
REMARK    6  A    between atoms: C6_13  and  O2_14 
REMARK    7  A    between atoms: C6_13  and  O3_16 
REMARK    8  A    between atoms: C8_20  and  O4_21 
REMARK    9  A    between atoms: C9_23  and  N5_24 
REMARK   10  A    between atoms: C10_27  and  C11_28 
REMARK   11  A    between atoms: C12_35  and  C13_36 
REMARK   12  A    between atoms: C13_36  and  N10_38 
REMARK       I    between atoms: N10_38  and  C14_40 
ROOT
HETATM    1  N4  UNL     1     -43.617  82.726 148.208  1.00  0.00    -0.347 N 
HETATM    2  C7  UNL     1     -43.342  84.047 148.602  1.00  0.00     0.124 A 
HETATM    3  C8  UNL     1     -44.537  84.221 149.038  1.00  0.00     0.102 A 
HETATM    4  C9  UNL     1     -44.941  82.869 148.665  1.00  0.00     0.269 A 
ENDROOT
BRANCH   4   5
HETATM    5  N5  UNL     1     -46.008  82.935 147.684  1.00  0.00    -0.241 N 
HETATM    6  N6  UNL     1     -46.010  83.459 146.480  1.00  0.00    -0.276 N 
HETATM    7  C10 UNL     1     -47.202  83.343 145.879  1.00  0.00     0.163 A 
ATOM      8  H6  UNL     1     -45.197  83.903 146.052  1.00  0.00     0.189 HD
HETATM    9  N9  UNL     1     -48.002  82.703 146.767  1.00  0.00    -0.321 N 
HETATM   10  C12 UNL     1     -47.264  82.458 147.864  1.00  0.00     0.165 A 
ATOM     11  H9  UNL     1     -48.982  82.454 146.629  1.00  0.00     0.169 HD
BRANCH   7  12
HETATM   12  C11 UNL     1     -47.519  83.819 144.556  1.00  0.00     0.155 C 
HETATM   13  N7  UNL     1     -48.224  83.067 143.782  1.00  0.00    -0.385 N 
ATOM     14  H72 UNL     1     -48.546  82.156 144.111  1.00  0.00     0.157 HD
ATOM     15  H71 UNL     1     -48.448  83.404 142.846  1.00  0.00     0.157 HD
HETATM   16  N8  UNL     1     -47.075  85.075 144.102  1.00  0.00    -0.079 NA
ENDBRANCH   7  12
BRANCH  10  17
HETATM   17  C13 UNL     1     -47.732  81.791 149.057  1.00  0.00     0.149 C 
HETATM   18  S1  UNL     1     -48.392  80.317 148.944  1.00  0.00    -0.056 SA
BRANCH  17  19
HETATM   19  N10 UNL     1     -47.622  82.403 150.320  1.00  0.00    -0.319 N 
HETATM   20  C14 UNL     1     -48.406  83.536 150.682  1.00  0.00     0.187 C 
HETATM   21  N11 UNL     1     -48.265  84.685 150.113  1.00  0.00    -0.373 N 
HETATM   22  N12 UNL     1     -49.383  83.432 151.699  1.00  0.00    -0.064 NA
ATOM     23 2H11 UNL     1     -47.560  84.761 149.379  1.00  0.00     0.158 HD
ATOM     24 1H11 UNL     1     -48.826  85.497 150.372  1.00  0.00     0.158 HD
ATOM     25  H10 UNL     1     -46.960  82.023 150.998  1.00  0.00     0.169 HD
ENDBRANCH  17  19
ENDBRANCH  10  17
ENDBRANCH   4   5
BRANCH   1  26
HETATM   26  C5  UNL     1     -42.681  81.752 147.617  1.00  0.00     0.177 C 
BRANCH  26  27
HETATM   27  C4  UNL     1     -42.911  80.375 148.126  1.00  0.00     0.214 C 
BRANCH  27  28
HETATM   28  C3  UNL     1     -42.465  80.132 149.516  1.00  0.00     0.130 A 
HETATM   29  N1  UNL     1     -43.379  79.917 150.509  1.00  0.00    -0.281 N 
HETATM   30  C1  UNL     1     -44.831  79.874 150.387  1.00  0.00     0.179 C 
HETATM   31  N2  UNL     1     -42.700  79.754 151.618  1.00  0.00    -0.293 N 
HETATM   32  C2  UNL     1     -41.386  79.853 151.382  1.00  0.00     0.199 A 
ATOM     33  H2  UNL     1     -43.115  79.577 152.532  1.00  0.00     0.188 HD
HETATM   34  N3  UNL     1     -41.264  80.087 150.073  1.00  0.00    -0.338 N 
ATOM     35  H3  UNL     1     -40.381  80.213 149.578  1.00  0.00     0.168 HD
ENDBRANCH  27  28
BRANCH  27  36
HETATM   36  O1  UNL     1     -42.480  79.432 147.212  1.00  0.00    -0.386 OA
ATOM     37  H1  UNL     1     -43.126  79.192 146.558  1.00  0.00     0.210 HD
ENDBRANCH  27  36
ENDBRANCH  26  27
BRANCH  26  38
HETATM   38  C6  UNL     1     -42.802  81.906 146.120  1.00  0.00     0.279 C 
BRANCH  38  39
HETATM   39  O2  UNL     1     -41.699  81.466 145.415  1.00  0.00    -0.369 OA
ATOM     40  H2  UNL     1     -41.813  80.618 145.001  1.00  0.00     0.212 HD
ENDBRANCH  38  39
BRANCH  38  41
HETATM   41  O3  UNL     1     -43.898  81.221 145.584  1.00  0.00    -0.369 OA
ATOM     42  H3  UNL     1     -44.340  81.705 144.896  1.00  0.00     0.212 HD
ENDBRANCH  38  41
ENDBRANCH  26  38
ENDBRANCH   1  26
BRANCH   3  43
HETATM   43  O4  UNL     1     -45.198  85.299 149.639  1.00  0.00    -0.360 OA
ATOM     44  H4  UNL     1     -45.998  85.377 150.147  1.00  0.00     0.217 HD
ENDBRANCH   3  43
TORSDOF 12
ENDMDL
MODEL 4
REMARK VINA RESULT: -5.987000494      1.724      2.057
REMARK  12 active torsions:
REMARK  status: ('A' for Active; 'I' for Inactive)
REMARK    1  A    between atoms: C3_8  and  C4_9 
REMARK    2  A    between atoms: C4_9  and  O1_10 
REMARK    3  A    between atoms: C4_9  and  C5_12 
REMARK    4  A    between atoms: C5_12  and  C6_13 
REMARK    5  A    between atoms: C5_12  and  N4_18 
REMARK    6  A    between atoms: C6_13  and  O2_14 
REMARK    7  A    between atoms: C6_13  and  O3_16 
REMARK    8  A    between atoms: C8_20  and  O4_21 
REMARK    9  A    between atoms: C9_23  and  N5_24 
REMARK   10  A    between atoms: C10_27  and  C11_28 
REMARK   11  A    between atoms: C12_35  and  C13_36 
REMARK   12  A    between atoms: C13_36  and  N10_38 
REMARK       I    between atoms: N10_38  and  C14_40 
ROOT
HETATM    1  N4  UNL     1     -43.598  84.275 146.737  1.00  0.00    -0.347 N 
HETATM    2  C7  UNL     1     -43.570  85.392 145.886  1.00  0.00     0.124 A 
HETATM    3  C8  UNL     1     -44.687  85.832 146.339  1.00  0.00     0.102 A 
HETATM    4  C9  UNL     1     -44.829  84.711 147.263  1.00  0.00     0.269 A 
ENDROOT
BRANCH   4   5
HETATM    5  N5  UNL     1     -46.028  83.961 146.934  1.00  0.00    -0.241 N 
HETATM    6  N6  UNL     1     -46.574  83.725 145.764  1.00  0.00    -0.276 N 
HETATM    7  C10 UNL     1     -47.699  83.004 145.867  1.00  0.00     0.163 A 
ATOM      8  H6  UNL     1     -46.187  84.052 144.879  1.00  0.00     0.189 HD
HETATM    9  N9  UNL     1     -47.869  82.773 147.192  1.00  0.00    -0.321 N 
HETATM   10  C12 UNL     1     -46.844  83.360 147.834  1.00  0.00     0.165 A 
ATOM     11  H9  UNL     1     -48.633  82.251 147.622  1.00  0.00     0.169 HD
BRANCH   7  12
HETATM   12  C11 UNL     1     -48.526  82.585 144.762  1.00  0.00     0.155 C 
HETATM   13  N7  UNL     1     -48.186  82.936 143.570  1.00  0.00    -0.385 N 
ATOM     14  H72 UNL     1     -47.346  83.497 143.423  1.00  0.00     0.157 HD
ATOM     15  H71 UNL     1     -48.771  82.640 142.789  1.00  0.00     0.157 HD
HETATM   16  N8  UNL     1     -49.684  81.811 144.965  1.00  0.00    -0.079 NA
ENDBRANCH   7  12
BRANCH  10  17
HETATM   17  C13 UNL     1     -46.638  83.357 149.263  1.00  0.00     0.149 C 
HETATM   18  S1  UNL     1     -47.484  84.374 150.197  1.00  0.00    -0.056 SA
BRANCH  17  19
HETATM   19  N10 UNL     1     -45.712  82.480 149.861  1.00  0.00    -0.319 N 
HETATM   20  C14 UNL     1     -45.835  81.065 149.757  1.00  0.00     0.187 C 
HETATM   21  N11 UNL     1     -46.805  80.413 150.303  1.00  0.00    -0.373 N 
HETATM   22  N12 UNL     1     -44.876  80.317 149.035  1.00  0.00    -0.064 NA
ATOM     23 2H11 UNL     1     -47.497  80.953 150.824  1.00  0.00     0.158 HD
ATOM     24 1H11 UNL     1     -46.893  79.399 150.229  1.00  0.00     0.158 HD
ATOM     25  H10 UNL     1     -44.928  82.871 150.384  1.00  0.00     0.169 HD
ENDBRANCH  17  19
ENDBRANCH  10  17
ENDBRANCH   4   5
BRANCH   1  26
HETATM   26  C5  UNL     1     -42.574  83.224 146.873  1.00  0.00     0.177 C 
BRANCH  26  27
HETATM   27  C4  UNL     1     -42.384  82.806 148.286  1.00  0.00     0.214 C 
BRANCH  27  28
HETATM   28  C3  UNL     1     -41.432  83.628 149.065  1.00  0.00     0.130 A 
HETATM   29  N1  UNL     1     -41.630  83.839 150.401  1.00  0.00    -0.281 N 
HETATM   30  C1  UNL     1     -42.712  83.323 151.232  1.00  0.00     0.179 C 
HETATM   31  N2  UNL     1     -40.652  84.607 150.812  1.00  0.00    -0.293 N 
HETATM   32  C2  UNL     1     -39.829  84.900 149.798  1.00  0.00     0.199 A 
ATOM     33  H2  UNL     1     -40.535  84.936 151.770  1.00  0.00     0.188 HD
HETATM   34  N3  UNL     1     -40.332  84.283 148.726  1.00  0.00    -0.338 N 
ATOM     35  H3  UNL     1     -39.931  84.312 147.789  1.00  0.00     0.168 HD
ENDBRANCH  27  28
BRANCH  27  36
HETATM   36  O1  UNL     1     -42.172  81.443 148.374  1.00  0.00    -0.386 OA
ATOM     37  H1  UNL     1     -42.219  81.092 149.256  1.00  0.00     0.210 HD
ENDBRANCH  27  36
ENDBRANCH  26  27
BRANCH  26  38
HETATM   38  C6  UNL     1     -42.979  82.115 145.931  1.00  0.00     0.279 C 
BRANCH  38  39
HETATM   39  O2  UNL     1     -41.986  81.186 145.689  1.00  0.00    -0.369 OA
ATOM     40  H2  UNL     1     -41.522  81.315 144.870  1.00  0.00     0.212 HD
ENDBRANCH  38  39
BRANCH  38  41
HETATM   41  O3  UNL     1     -44.085  81.387 146.383  1.00  0.00    -0.369 OA
ATOM     42  H3  UNL     1     -44.788  81.343 145.745  1.00  0.00     0.212 HD
ENDBRANCH  38  41
ENDBRANCH  26  38
ENDBRANCH   1  26
BRANCH   3  43
HETATM   43  O4  UNL     1     -45.471  86.958 146.055  1.00  0.00    -0.360 OA
ATOM     44  H4  UNL     1     -45.758  87.704 146.569  1.00  0.00     0.217 HD
ENDBRANCH   3  43
TORSDOF 12
ENDMDL
MODEL 5
REMARK VINA RESULT: -5.963782709      2.011      2.898
REMARK  12 active torsions:
REMARK  status: ('A' for Active; 'I' for Inactive)
REMARK    1  A    between atoms: C3_8  and  C4_9 
REMARK    2  A    between atoms: C4_9  and  O1_10 
REMARK    3  A    between atoms: C4_9  and  C5_12 
REMARK    4  A    between atoms: C5_12  and  C6_13 
REMARK    5  A    between atoms: C5_12  and  N4_18 
REMARK    6  A    between atoms: C6_13  and  O2_14 
REMARK    7  A    between atoms: C6_13  and  O3_16 
REMARK    8  A    between atoms: C8_20  and  O4_21 
REMARK    9  A    between atoms: C9_23  and  N5_24 
REMARK   10  A    between atoms: C10_27  and  C11_28 
REMARK   11  A    between atoms: C12_35  and  C13_36 
REMARK   12  A    between atoms: C13_36  and  N10_38 
REMARK       I    between atoms: N10_38  and  C14_40 
ROOT
HETATM    1  N4  UNL     1     -43.505  82.725 148.184  1.00  0.00    -0.347 N 
HETATM    2  C7  UNL     1     -43.165  83.757 149.075  1.00  0.00     0.124 A 
HETATM    3  C8  UNL     1     -44.379  84.168 149.143  1.00  0.00     0.102 A 
HETATM    4  C9  UNL     1     -44.849  83.141 148.219  1.00  0.00     0.269 A 
ENDROOT
BRANCH   4   5
HETATM    5  N5  UNL     1     -45.409  83.772 147.038  1.00  0.00    -0.241 N 
HETATM    6  N6  UNL     1     -44.835  84.551 146.151  1.00  0.00    -0.276 N 
HETATM    7  C10 UNL     1     -45.692  84.958 145.204  1.00  0.00     0.163 A 
ATOM      8  H6  UNL     1     -43.850  84.815 146.178  1.00  0.00     0.189 HD
HETATM    9  N9  UNL     1     -46.886  84.397 145.521  1.00  0.00    -0.321 N 
HETATM   10  C12 UNL     1     -46.702  83.674 146.640  1.00  0.00     0.165 A 
ATOM     11  H9  UNL     1     -47.760  84.503 145.005  1.00  0.00     0.169 HD
BRANCH   7  12
HETATM   12  C11 UNL     1     -45.364  85.820 144.096  1.00  0.00     0.155 C 
HETATM   13  N7  UNL     1     -46.229  85.965 143.150  1.00  0.00    -0.385 N 
ATOM     14  H72 UNL     1     -47.123  85.475 143.198  1.00  0.00     0.157 HD
ATOM     15  H71 UNL     1     -45.996  86.574 142.367  1.00  0.00     0.157 HD
HETATM   16  N8  UNL     1     -44.131  86.495 144.031  1.00  0.00    -0.079 NA
ENDBRANCH   7  12
BRANCH  10  17
HETATM   17  C13 UNL     1     -47.721  82.910 147.321  1.00  0.00     0.149 C 
HETATM   18  S1  UNL     1     -48.240  83.387 148.778  1.00  0.00    -0.056 SA
BRANCH  17  19
HETATM   19  N10 UNL     1     -48.273  81.754 146.735  1.00  0.00    -0.319 N 
HETATM   20  C14 UNL     1     -49.456  81.144 147.239  1.00  0.00     0.187 C 
HETATM   21  N11 UNL     1     -49.504  80.579 148.398  1.00  0.00    -0.373 N 
HETATM   22  N12 UNL     1     -50.641  81.137 146.466  1.00  0.00    -0.064 NA
ATOM     23 2H11 UNL     1     -48.649  80.583 148.956  1.00  0.00     0.158 HD
ATOM     24 1H11 UNL     1     -50.352  80.141 148.760  1.00  0.00     0.158 HD
ATOM     25  H10 UNL     1     -47.811  81.342 145.924  1.00  0.00     0.169 HD
ENDBRANCH  17  19
ENDBRANCH  10  17
ENDBRANCH   4   5
BRANCH   1  26
HETATM   26  C5  UNL     1     -42.612  81.696 147.620  1.00  0.00     0.177 C 
BRANCH  26  27
HETATM   27  C4  UNL     1     -42.919  80.340 148.147  1.00  0.00     0.214 C 
BRANCH  27  28
HETATM   28  C3  UNL     1     -42.531  80.107 149.556  1.00  0.00     0.130 A 
HETATM   29  N1  UNL     1     -43.481  80.062 150.537  1.00  0.00    -0.281 N 
HETATM   30  C1  UNL     1     -44.924  80.205 150.385  1.00  0.00     0.179 C 
HETATM   31  N2  UNL     1     -42.849  79.864 151.667  1.00  0.00    -0.293 N 
HETATM   32  C2  UNL     1     -41.529  79.778 151.456  1.00  0.00     0.199 A 
ATOM     33  H2  UNL     1     -43.298  79.787 152.579  1.00  0.00     0.188 HD
HETATM   34  N3  UNL     1     -41.356  79.932 150.142  1.00  0.00    -0.338 N 
ATOM     35  H3  UNL     1     -40.456  79.917 149.662  1.00  0.00     0.168 HD
ENDBRANCH  27  28
BRANCH  27  36
HETATM   36  O1  UNL     1     -42.497  79.361 147.266  1.00  0.00    -0.386 OA
ATOM     37  H1  UNL     1     -42.826  79.459 146.380  1.00  0.00     0.210 HD
ENDBRANCH  27  36
ENDBRANCH  26  27
BRANCH  26  38
HETATM   38  C6  UNL     1     -42.706  81.831 146.120  1.00  0.00     0.279 C 
BRANCH  38  39
HETATM   39  O2  UNL     1     -41.596  81.372 145.439  1.00  0.00    -0.369 OA
ATOM     40  H2  UNL     1     -41.118  82.047 144.970  1.00  0.00     0.212 HD
ENDBRANCH  38  39
BRANCH  38  41
HETATM   41  O3  UNL     1     -43.800  81.151 145.574  1.00  0.00    -0.369 OA
ATOM     42  H3  UNL     1     -44.608  81.648 145.619  1.00  0.00     0.212 HD
ENDBRANCH  38  41
ENDBRANCH  26  38
ENDBRANCH   1  26
BRANCH   3  43
HETATM   43  O4  UNL     1     -45.010  85.208 149.838  1.00  0.00    -0.360 OA
ATOM     44  H4  UNL     1     -45.736  85.787 149.635  1.00  0.00     0.217 HD
ENDBRANCH   3  43
TORSDOF 12
ENDMDL
