MODEL 1
REMARK VINA RESULT: -7.043581689      0.000      0.000
REMARK  11 active torsions:
REMARK  status: ('A' for Active; 'I' for Inactive)
REMARK    1  A    between atoms: O1_2  and  N1_3 
REMARK       I    between atoms: N1_3  and  C2_5 
REMARK    2  A    between atoms: C2_5  and  C3_7 
REMARK    3  A    between atoms: C4_8  and  C5_9 
REMARK    4  A    between atoms: C5_9  and  O3_10 
REMARK    5  A    between atoms: C5_9  and  O4_12 
REMARK    6  A    between atoms: N2_14  and  C6_15 
REMARK    7  A    between atoms: C7_20  and  N5_21 
REMARK    8  A    between atoms: N7_31  and  C11_32 
REMARK    9  A    between atoms: C11_32  and  C12_33 
REMARK   10  A    between atoms: C12_33  and  O7_34 
REMARK   11  A    between atoms: C12_33  and  O8_36 
ROOT
HETATM    1  C3  UNL     1     -47.291  81.523 149.733  1.00  0.00     0.091 A 
HETATM    2  C4  UNL     1     -47.746  82.350 148.703  1.00  0.00     0.091 A 
HETATM    3  N2  UNL     1     -46.721  82.688 147.911  1.00  0.00    -0.283 N 
HETATM    4  C9  UNL     1     -45.583  82.133 148.345  1.00  0.00     0.138 A 
HETATM    5  C10 UNL     1     -44.276  82.179 147.906  1.00  0.00     0.279 A 
HETATM    6  O6  UNL     1     -44.036  82.856 146.872  1.00  0.00    -0.265 OA
HETATM    7  N7  UNL     1     -43.306  81.524 148.563  1.00  0.00    -0.284 N 
HETATM    8  C13 UNL     1     -43.617  80.822 149.657  1.00  0.00     0.181 A 
HETATM    9  S1  UNL     1     -42.450  80.008 150.503  1.00  0.00    -0.040 SA
HETATM   10  N8  UNL     1     -44.897  80.774 150.090  1.00  0.00    -0.330 N 
ATOM     11  H8  UNL     1     -45.100  80.230 150.928  1.00  0.00     0.168 HD
HETATM   12  C14 UNL     1     -45.917  81.403 149.481  1.00  0.00     0.085 A 
ENDROOT
BRANCH   3  13
HETATM   13  C6  UNL     1     -46.763  83.517 146.749  1.00  0.00     0.198 A 
HETATM   14  N3  UNL     1     -46.148  84.712 146.700  1.00  0.00    -0.266 N 
HETATM   15  N4  UNL     1     -46.181  85.465 145.619  1.00  0.00    -0.131 N 
ATOM     16  H3  UNL     1     -45.642  85.044 147.521  1.00  0.00     0.189 HD
HETATM   17  C7  UNL     1     -46.853  85.010 144.551  1.00  0.00     0.693 A 
ATOM     18  H4  UNL     1     -45.709  86.368 145.596  1.00  0.00     0.205 HD
HETATM   19  N6  UNL     1     -47.501  83.831 144.501  1.00  0.00    -0.152 N 
HETATM   20  C8  UNL     1     -47.442  83.085 145.636  1.00  0.00     0.305 A 
ATOM     21  H6  UNL     1     -48.002  83.519 143.669  1.00  0.00     0.188 HD
HETATM   22  O5  UNL     1     -48.026  81.983 145.650  1.00  0.00    -0.263 OA
BRANCH  17  23
HETATM   23  N5  UNL     1     -46.864  85.787 143.498  1.00  0.00    -0.233 N 
ATOM     24  H52 UNL     1     -47.271  86.719 143.574  1.00  0.00     0.174 HD
ATOM     25  H51 UNL     1     -46.455  85.402 142.647  1.00  0.00     0.174 HD
ENDBRANCH  17  23
ENDBRANCH   3  13
BRANCH   2  26
HETATM   26  C5  UNL     1     -49.136  82.796 148.472  1.00  0.00     0.306 C 
BRANCH  26  27
HETATM   27  O3  UNL     1     -49.967  81.768 148.077  1.00  0.00    -0.366 OA
ATOM     28  H3  UNL     1     -50.653  81.586 148.709  1.00  0.00     0.213 HD
ENDBRANCH  26  27
BRANCH  26  29
HETATM   29  O4  UNL     1     -49.695  83.373 149.626  1.00  0.00    -0.366 OA
ATOM     30  H4  UNL     1     -50.298  84.075 149.410  1.00  0.00     0.213 HD
ENDBRANCH  26  29
ENDBRANCH   2  26
BRANCH   1  31
HETATM   31  C2  UNL     1     -48.058  80.993 150.828  1.00  0.00     0.279 C 
HETATM   32  N1  UNL     1     -48.489  79.671 150.927  1.00  0.00    -0.231 N 
ATOM     33  H1  UNL     1     -48.257  79.023 150.174  1.00  0.00     0.197 HD
HETATM   34  O2  UNL     1     -48.380  81.773 151.782  1.00  0.00    -0.265 OA
BRANCH  32  35
HETATM   35  O1  UNL     1     -49.209  79.206 151.993  1.00  0.00    -0.282 OA
HETATM   36  C1  UNL     1     -48.790  77.993 152.470  1.00  0.00     0.237 C 
ENDBRANCH  32  35
ENDBRANCH   1  31
BRANCH   7  37
HETATM   37  C11 UNL     1     -41.961  81.611 148.059  1.00  0.00     0.195 C 
BRANCH  37  38
HETATM   38  C12 UNL     1     -41.650  80.609 146.979  1.00  0.00     0.272 C 
BRANCH  38  39
HETATM   39  O7  UNL     1     -41.684  81.247 145.733  1.00  0.00    -0.370 OA
ATOM     40  H7  UNL     1     -42.082  80.667 145.094  1.00  0.00     0.212 HD
ENDBRANCH  38  39
BRANCH  38  41
HETATM   41  O8  UNL     1     -42.526  79.543 146.948  1.00  0.00    -0.370 OA
ATOM     42  H8  UNL     1     -43.426  79.797 146.786  1.00  0.00     0.212 HD
ENDBRANCH  38  41
ENDBRANCH  37  38
ENDBRANCH   7  37
TORSDOF 11
ENDMDL
MODEL 2
REMARK VINA RESULT: -6.939838952      3.051      6.011
REMARK  11 active torsions:
REMARK  status: ('A' for Active; 'I' for Inactive)
REMARK    1  A    between atoms: O1_2  and  N1_3 
REMARK       I    between atoms: N1_3  and  C2_5 
REMARK    2  A    between atoms: C2_5  and  C3_7 
REMARK    3  A    between atoms: C4_8  and  C5_9 
REMARK    4  A    between atoms: C5_9  and  O3_10 
REMARK    5  A    between atoms: C5_9  and  O4_12 
REMARK    6  A    between atoms: N2_14  and  C6_15 
REMARK    7  A    between atoms: C7_20  and  N5_21 
REMARK    8  A    between atoms: N7_31  and  C11_32 
REMARK    9  A    between atoms: C11_32  and  C12_33 
REMARK   10  A    between atoms: C12_33  and  O7_34 
REMARK   11  A    between atoms: C12_33  and  O8_36 
ROOT
HETATM    1  C3  UNL     1     -44.258  85.316 145.640  1.00  0.00     0.091 A 
HETATM    2  C4  UNL     1     -45.610  84.962 145.647  1.00  0.00     0.091 A 
HETATM    3  N2  UNL     1     -45.780  83.850 146.372  1.00  0.00    -0.283 N 
HETATM    4  C9  UNL     1     -44.613  83.420 146.865  1.00  0.00     0.138 A 
HETATM    5  C10 UNL     1     -44.249  82.340 147.642  1.00  0.00     0.279 A 
HETATM    6  O6  UNL     1     -45.164  81.560 148.015  1.00  0.00    -0.265 OA
HETATM    7  N7  UNL     1     -42.966  82.137 147.980  1.00  0.00    -0.284 N 
HETATM    8  C13 UNL     1     -42.035  82.996 147.555  1.00  0.00     0.181 A 
HETATM    9  S1  UNL     1     -40.439  82.777 147.941  1.00  0.00    -0.040 SA
HETATM   10  N8  UNL     1     -42.387  84.056 146.794  1.00  0.00    -0.330 N 
ATOM     11  H8  UNL     1     -41.651  84.691 146.486  1.00  0.00     0.168 HD
HETATM   12  C14 UNL     1     -43.650  84.321 146.419  1.00  0.00     0.085 A 
ENDROOT
BRANCH   3  13
HETATM   13  C6  UNL     1     -47.007  83.164 146.627  1.00  0.00     0.198 A 
HETATM   14  N3  UNL     1     -47.586  83.161 147.842  1.00  0.00    -0.266 N 
HETATM   15  N4  UNL     1     -48.724  82.537 148.066  1.00  0.00    -0.131 N 
ATOM     16  H3  UNL     1     -47.130  83.655 148.610  1.00  0.00     0.189 HD
HETATM   17  C7  UNL     1     -49.305  81.892 147.043  1.00  0.00     0.693 A 
ATOM     18  H4  UNL     1     -49.151  82.544 148.992  1.00  0.00     0.205 HD
HETATM   19  N6  UNL     1     -48.806  81.836 145.793  1.00  0.00    -0.152 N 
HETATM   20  C8  UNL     1     -47.631  82.493 145.604  1.00  0.00     0.305 A 
ATOM     21  H6  UNL     1     -49.278  81.335 145.040  1.00  0.00     0.188 HD
HETATM   22  O5  UNL     1     -47.120  82.475 144.467  1.00  0.00    -0.263 OA
BRANCH  17  23
HETATM   23  N5  UNL     1     -50.433  81.284 147.306  1.00  0.00    -0.233 N 
ATOM     24  H52 UNL     1     -51.312  81.764 147.113  1.00  0.00     0.174 HD
ATOM     25  H51 UNL     1     -50.361  80.344 147.695  1.00  0.00     0.174 HD
ENDBRANCH  17  23
ENDBRANCH   3  13
BRANCH   2  26
HETATM   26  C5  UNL     1     -46.718  85.683 144.987  1.00  0.00     0.306 C 
BRANCH  26  27
HETATM   27  O3  UNL     1     -46.620  87.052 145.121  1.00  0.00    -0.366 OA
ATOM     28  H3  UNL     1     -47.425  87.503 144.894  1.00  0.00     0.213 HD
ENDBRANCH  26  27
BRANCH  26  29
HETATM   29  O4  UNL     1     -46.779  85.396 143.612  1.00  0.00    -0.366 OA
ATOM     30  H4  UNL     1     -47.590  85.703 143.224  1.00  0.00     0.213 HD
ENDBRANCH  26  29
ENDBRANCH   2  26
BRANCH   1  31
HETATM   31  C2  UNL     1     -43.647  86.406 144.930  1.00  0.00     0.279 C 
HETATM   32  N1  UNL     1     -42.868  87.399 145.521  1.00  0.00    -0.231 N 
ATOM     33  H1  UNL     1     -42.717  87.368 146.529  1.00  0.00     0.197 HD
HETATM   34  O2  UNL     1     -43.823  86.490 143.671  1.00  0.00    -0.265 OA
BRANCH  32  35
HETATM   35  O1  UNL     1     -42.296  88.414 144.804  1.00  0.00    -0.282 OA
HETATM   36  C1  UNL     1     -42.882  89.637 144.994  1.00  0.00     0.237 C 
ENDBRANCH  32  35
ENDBRANCH   1  31
BRANCH   7  37
HETATM   37  C11 UNL     1     -42.647  80.992 148.790  1.00  0.00     0.195 C 
BRANCH  37  38
HETATM   38  C12 UNL     1     -42.292  79.763 147.995  1.00  0.00     0.272 C 
BRANCH  38  39
HETATM   39  O7  UNL     1     -42.660  79.955 146.658  1.00  0.00    -0.370 OA
ATOM     40  H7  UNL     1     -43.593  79.802 146.565  1.00  0.00     0.212 HD
ENDBRANCH  38  39
BRANCH  38  41
HETATM   41  O8  UNL     1     -42.902  78.614 148.456  1.00  0.00    -0.370 OA
ATOM     42  H8  UNL     1     -42.295  77.989 148.834  1.00  0.00     0.212 HD
ENDBRANCH  38  41
ENDBRANCH  37  38
ENDBRANCH   7  37
TORSDOF 11
ENDMDL
MODEL 3
REMARK VINA RESULT: -6.788969114      0.784      1.192
REMARK  11 active torsions:
REMARK  status: ('A' for Active; 'I' for Inactive)
REMARK    1  A    between atoms: O1_2  and  N1_3 
REMARK       I    between atoms: N1_3  and  C2_5 
REMARK    2  A    between atoms: C2_5  and  C3_7 
REMARK    3  A    between atoms: C4_8  and  C5_9 
REMARK    4  A    between atoms: C5_9  and  O3_10 
REMARK    5  A    between atoms: C5_9  and  O4_12 
REMARK    6  A    between atoms: N2_14  and  C6_15 
REMARK    7  A    between atoms: C7_20  and  N5_21 
REMARK    8  A    between atoms: N7_31  and  C11_32 
REMARK    9  A    between atoms: C11_32  and  C12_33 
REMARK   10  A    between atoms: C12_33  and  O7_34 
REMARK   11  A    between atoms: C12_33  and  O8_36 
ROOT
HETATM    1  C3  UNL     1     -47.129  81.239 149.895  1.00  0.00     0.091 A 
HETATM    2  C4  UNL     1     -47.644  81.982 148.830  1.00  0.00     0.091 A 
HETATM    3  N2  UNL     1     -46.652  82.329 148.002  1.00  0.00    -0.283 N 
HETATM    4  C9  UNL     1     -45.479  81.861 148.443  1.00  0.00     0.138 A 
HETATM    5  C10 UNL     1     -44.183  81.951 147.978  1.00  0.00     0.279 A 
HETATM    6  O6  UNL     1     -43.996  82.581 146.904  1.00  0.00    -0.265 OA
HETATM    7  N7  UNL     1     -43.169  81.386 148.652  1.00  0.00    -0.284 N 
HETATM    8  C13 UNL     1     -43.425  80.731 149.788  1.00  0.00     0.181 A 
HETATM    9  S1  UNL     1     -42.201  80.028 150.655  1.00  0.00    -0.040 SA
HETATM   10  N8  UNL     1     -44.692  80.640 150.247  1.00  0.00    -0.330 N 
ATOM     11  H8  UNL     1     -44.853  80.133 151.118  1.00  0.00     0.168 HD
HETATM   12  C14 UNL     1     -45.755  81.178 149.624  1.00  0.00     0.085 A 
ENDROOT
BRANCH   3  13
HETATM   13  C6  UNL     1     -46.758  83.088 146.797  1.00  0.00     0.198 A 
HETATM   14  N3  UNL     1     -47.154  82.537 145.636  1.00  0.00    -0.266 N 
HETATM   15  N4  UNL     1     -47.261  83.247 144.532  1.00  0.00    -0.131 N 
ATOM     16  H3  UNL     1     -47.378  81.542 145.610  1.00  0.00     0.189 HD
HETATM   17  C7  UNL     1     -46.961  84.553 144.587  1.00  0.00     0.693 A 
ATOM     18  H4  UNL     1     -47.565  82.815 143.659  1.00  0.00     0.205 HD
HETATM   19  N6  UNL     1     -46.555  85.197 145.698  1.00  0.00    -0.152 N 
HETATM   20  C8  UNL     1     -46.458  84.429 146.815  1.00  0.00     0.305 A 
ATOM     21  H6  UNL     1     -46.335  86.193 145.701  1.00  0.00     0.188 HD
HETATM   22  O5  UNL     1     -46.085  84.970 147.875  1.00  0.00    -0.263 OA
BRANCH  17  23
HETATM   23  N5  UNL     1     -47.079  85.224 143.470  1.00  0.00    -0.233 N 
ATOM     24  H52 UNL     1     -47.328  84.726 142.616  1.00  0.00     0.174 HD
ATOM     25  H51 UNL     1     -46.910  86.229 143.525  1.00  0.00     0.174 HD
ENDBRANCH  17  23
ENDBRANCH   3  13
BRANCH   2  26
HETATM   26  C5  UNL     1     -49.060  82.340 148.601  1.00  0.00     0.306 C 
BRANCH  26  27
HETATM   27  O3  UNL     1     -49.858  81.239 148.368  1.00  0.00    -0.366 OA
ATOM     28  H3  UNL     1     -50.435  81.355 147.622  1.00  0.00     0.213 HD
ENDBRANCH  26  27
BRANCH  26  29
HETATM   29  O4  UNL     1     -49.604  83.033 149.697  1.00  0.00    -0.366 OA
ATOM     30  H4  UNL     1     -49.146  83.849 149.859  1.00  0.00     0.213 HD
ENDBRANCH  26  29
ENDBRANCH   2  26
BRANCH   1  31
HETATM   31  C2  UNL     1     -47.849  80.731 151.032  1.00  0.00     0.279 C 
HETATM   32  N1  UNL     1     -48.752  79.670 150.988  1.00  0.00    -0.231 N 
ATOM     33  H1  UNL     1     -48.931  79.217 150.092  1.00  0.00     0.197 HD
HETATM   34  O2  UNL     1     -47.664  81.279 152.167  1.00  0.00    -0.265 OA
BRANCH  32  35
HETATM   35  O1  UNL     1     -49.408  79.212 152.098  1.00  0.00    -0.282 OA
HETATM   36  C1  UNL     1     -48.976  77.992 152.543  1.00  0.00     0.237 C 
ENDBRANCH  32  35
ENDBRANCH   1  31
BRANCH   7  37
HETATM   37  C11 UNL     1     -41.839  81.515 148.118  1.00  0.00     0.195 C 
BRANCH  37  38
HETATM   38  C12 UNL     1     -41.515  80.516 147.040  1.00  0.00     0.272 C 
BRANCH  38  39
HETATM   39  O7  UNL     1     -41.448  81.172 145.805  1.00  0.00    -0.370 OA
ATOM     40  H7  UNL     1     -42.144  80.856 145.243  1.00  0.00     0.212 HD
ENDBRANCH  38  39
BRANCH  38  41
HETATM   41  O8  UNL     1     -42.439  79.494 146.941  1.00  0.00    -0.370 OA
ATOM     42  H8  UNL     1     -43.324  79.763 147.155  1.00  0.00     0.212 HD
ENDBRANCH  38  41
ENDBRANCH  37  38
ENDBRANCH   7  37
TORSDOF 11
ENDMDL
MODEL 4
REMARK VINA RESULT: -6.641698267      1.875      5.695
REMARK  11 active torsions:
REMARK  status: ('A' for Active; 'I' for Inactive)
REMARK    1  A    between atoms: O1_2  and  N1_3 
REMARK       I    between atoms: N1_3  and  C2_5 
REMARK    2  A    between atoms: C2_5  and  C3_7 
REMARK    3  A    between atoms: C4_8  and  C5_9 
REMARK    4  A    between atoms: C5_9  and  O3_10 
REMARK    5  A    between atoms: C5_9  and  O4_12 
REMARK    6  A    between atoms: N2_14  and  C6_15 
REMARK    7  A    between atoms: C7_20  and  N5_21 
REMARK    8  A    between atoms: N7_31  and  C11_32 
REMARK    9  A    between atoms: C11_32  and  C12_33 
REMARK   10  A    between atoms: C12_33  and  O7_34 
REMARK   11  A    between atoms: C12_33  and  O8_36 
ROOT
HETATM    1  C3  UNL     1     -46.846  82.580 146.954  1.00  0.00     0.091 A 
HETATM    2  C4  UNL     1     -47.620  81.953 147.934  1.00  0.00     0.091 A 
HETATM    3  N2  UNL     1     -46.821  81.409 148.859  1.00  0.00    -0.283 N 
HETATM    4  C9  UNL     1     -45.534  81.630 148.566  1.00  0.00     0.138 A 
HETATM    5  C10 UNL     1     -44.346  81.276 149.171  1.00  0.00     0.279 A 
HETATM    6  O6  UNL     1     -44.416  80.617 150.242  1.00  0.00    -0.265 OA
HETATM    7  N7  UNL     1     -43.168  81.625 148.631  1.00  0.00    -0.284 N 
HETATM    8  C13 UNL     1     -43.153  82.322 147.492  1.00  0.00     0.181 A 
HETATM    9  S1  UNL     1     -41.721  82.764 146.787  1.00  0.00    -0.040 SA
HETATM   10  N8  UNL     1     -44.314  82.671 146.896  1.00  0.00    -0.330 N 
ATOM     11  H8  UNL     1     -44.267  83.203 146.027  1.00  0.00     0.168 HD
HETATM   12  C14 UNL     1     -45.528  82.359 147.380  1.00  0.00     0.085 A 
ENDROOT
BRANCH   3  13
HETATM   13  C6  UNL     1     -47.217  80.682 150.024  1.00  0.00     0.198 A 
HETATM   14  N3  UNL     1     -47.231  79.338 150.058  1.00  0.00    -0.266 N 
HETATM   15  N4  UNL     1     -47.584  78.675 151.140  1.00  0.00    -0.131 N 
ATOM     16  H3  UNL     1     -46.960  78.817 149.224  1.00  0.00     0.189 HD
HETATM   17  C7  UNL     1     -47.938  79.379 152.227  1.00  0.00     0.693 A 
ATOM     18  H4  UNL     1     -47.589  77.655 151.152  1.00  0.00     0.205 HD
HETATM   19  N6  UNL     1     -47.958  80.724 152.292  1.00  0.00    -0.152 N 
HETATM   20  C8  UNL     1     -47.586  81.369 151.155  1.00  0.00     0.305 A 
ATOM     21  H6  UNL     1     -48.233  81.225 153.137  1.00  0.00     0.188 HD
HETATM   22  O5  UNL     1     -47.586  82.616 151.155  1.00  0.00    -0.263 OA
BRANCH  17  23
HETATM   23  N5  UNL     1     -48.284  78.686 153.281  1.00  0.00    -0.233 N 
ATOM     24  H52 UNL     1     -48.759  79.157 154.050  1.00  0.00     0.174 HD
ATOM     25  H51 UNL     1     -48.053  77.693 153.266  1.00  0.00     0.174 HD
ENDBRANCH  17  23
ENDBRANCH   3  13
BRANCH   2  26
HETATM   26  C5  UNL     1     -49.096  81.891 147.993  1.00  0.00     0.306 C 
BRANCH  26  27
HETATM   27  O3  UNL     1     -49.564  80.638 148.332  1.00  0.00    -0.366 OA
ATOM     28  H3  UNL     1     -50.403  80.667 148.778  1.00  0.00     0.213 HD
ENDBRANCH  26  27
BRANCH  26  29
HETATM   29  O4  UNL     1     -49.618  82.805 148.924  1.00  0.00    -0.366 OA
ATOM     30  H4  UNL     1     -49.551  83.701 148.613  1.00  0.00     0.213 HD
ENDBRANCH  26  29
ENDBRANCH   2  26
BRANCH   1  31
HETATM   31  C2  UNL     1     -47.312  83.228 145.759  1.00  0.00     0.279 C 
HETATM   32  N1  UNL     1     -46.945  84.511 145.358  1.00  0.00    -0.231 N 
ATOM     33  H1  UNL     1     -46.307  85.044 145.949  1.00  0.00     0.197 HD
HETATM   34  O2  UNL     1     -48.122  82.601 145.000  1.00  0.00    -0.265 OA
BRANCH  32  35
HETATM   35  O1  UNL     1     -47.405  85.086 144.205  1.00  0.00    -0.282 OA
HETATM   36  C1  UNL     1     -46.515  85.936 143.606  1.00  0.00     0.237 C 
ENDBRANCH  32  35
ENDBRANCH   1  31
BRANCH   7  37
HETATM   37  C11 UNL     1     -41.963  81.225 149.307  1.00  0.00     0.195 C 
BRANCH  37  38
HETATM   38  C12 UNL     1     -41.583  79.786 149.076  1.00  0.00     0.272 C 
BRANCH  38  39
HETATM   39  O7  UNL     1     -42.348  79.269 148.024  1.00  0.00    -0.370 OA
ATOM     40  H7  UNL     1     -43.071  79.858 147.842  1.00  0.00     0.212 HD
ENDBRANCH  38  39
BRANCH  38  41
HETATM   41  O8  UNL     1     -41.766  78.984 150.185  1.00  0.00    -0.370 OA
ATOM     42  H8  UNL     1     -42.058  78.106 149.972  1.00  0.00     0.212 HD
ENDBRANCH  38  41
ENDBRANCH  37  38
ENDBRANCH   7  37
TORSDOF 11
ENDMDL
MODEL 5
REMARK VINA RESULT: -6.627452379      2.561      7.147
REMARK  11 active torsions:
REMARK  status: ('A' for Active; 'I' for Inactive)
REMARK    1  A    between atoms: O1_2  and  N1_3 
REMARK       I    between atoms: N1_3  and  C2_5 
REMARK    2  A    between atoms: C2_5  and  C3_7 
REMARK    3  A    between atoms: C4_8  and  C5_9 
REMARK    4  A    between atoms: C5_9  and  O3_10 
REMARK    5  A    between atoms: C5_9  and  O4_12 
REMARK    6  A    between atoms: N2_14  and  C6_15 
REMARK    7  A    between atoms: C7_20  and  N5_21 
REMARK    8  A    between atoms: N7_31  and  C11_32 
REMARK    9  A    between atoms: C11_32  and  C12_33 
REMARK   10  A    between atoms: C12_33  and  O7_34 
REMARK   11  A    between atoms: C12_33  and  O8_36 
ROOT
HETATM    1  C3  UNL     1     -44.317  82.037 147.810  1.00  0.00     0.091 A 
HETATM    2  C4  UNL     1     -44.618  81.378 149.004  1.00  0.00     0.091 A 
HETATM    3  N2  UNL     1     -45.941  81.202 149.100  1.00  0.00    -0.283 N 
HETATM    4  C9  UNL     1     -46.566  81.706 148.030  1.00  0.00     0.138 A 
HETATM    5  C10 UNL     1     -47.891  81.795 147.657  1.00  0.00     0.279 A 
HETATM    6  O6  UNL     1     -48.747  81.300 148.437  1.00  0.00    -0.265 OA
HETATM    7  N7  UNL     1     -48.244  82.387 146.505  1.00  0.00    -0.284 N 
HETATM    8  C13 UNL     1     -47.294  82.897 145.716  1.00  0.00     0.181 A 
HETATM    9  S1  UNL     1     -47.687  83.646 144.292  1.00  0.00    -0.040 SA
HETATM   10  N8  UNL     1     -45.995  82.813 146.077  1.00  0.00    -0.330 N 
ATOM     11  H8  UNL     1     -45.295  83.213 145.452  1.00  0.00     0.168 HD
HETATM   12  C14 UNL     1     -45.570  82.232 147.213  1.00  0.00     0.085 A 
ENDROOT
BRANCH   3  13
HETATM   13  C6  UNL     1     -46.654  80.571 150.164  1.00  0.00     0.198 A 
HETATM   14  N3  UNL     1     -46.938  79.256 150.155  1.00  0.00    -0.266 N 
HETATM   15  N4  UNL     1     -47.585  78.679 151.147  1.00  0.00    -0.131 N 
ATOM     16  H3  UNL     1     -46.645  78.690 149.358  1.00  0.00     0.189 HD
HETATM   17  C7  UNL     1     -47.963  79.440 152.184  1.00  0.00     0.693 A 
ATOM     18  H4  UNL     1     -47.792  77.680 151.126  1.00  0.00     0.205 HD
HETATM   19  N6  UNL     1     -47.728  80.762 152.287  1.00  0.00    -0.152 N 
HETATM   20  C8  UNL     1     -47.058  81.319 151.243  1.00  0.00     0.305 A 
ATOM     21  H6  UNL     1     -48.032  81.309 153.093  1.00  0.00     0.188 HD
HETATM   22  O5  UNL     1     -46.812  82.540 151.282  1.00  0.00    -0.263 OA
BRANCH  17  23
HETATM   23  N5  UNL     1     -48.604  78.832 153.149  1.00  0.00    -0.233 N 
ATOM     24  H52 UNL     1     -49.539  78.465 152.968  1.00  0.00     0.174 HD
ATOM     25  H51 UNL     1     -48.117  78.759 154.041  1.00  0.00     0.174 HD
ENDBRANCH  17  23
ENDBRANCH   3  13
BRANCH   2  26
HETATM   26  C5  UNL     1     -43.657  80.912 150.026  1.00  0.00     0.306 C 
BRANCH  26  27
HETATM   27  O3  UNL     1     -42.915  79.827 149.606  1.00  0.00    -0.366 OA
ATOM     28  H3  UNL     1     -42.046  80.069 149.309  1.00  0.00     0.213 HD
ENDBRANCH  26  27
BRANCH  26  29
HETATM   29  O4  UNL     1     -42.755  81.926 150.392  1.00  0.00    -0.366 OA
ATOM     30  H4  UNL     1     -42.110  82.084 149.712  1.00  0.00     0.213 HD
ENDBRANCH  26  29
ENDBRANCH   2  26
BRANCH   1  31
HETATM   31  C2  UNL     1     -43.022  82.469 147.356  1.00  0.00     0.279 C 
HETATM   32  N1  UNL     1     -41.875  81.678 147.363  1.00  0.00    -0.231 N 
ATOM     33  H1  UNL     1     -41.940  80.725 147.719  1.00  0.00     0.197 HD
HETATM   34  O2  UNL     1     -42.895  83.659 146.916  1.00  0.00    -0.265 OA
BRANCH  32  35
HETATM   35  O1  UNL     1     -40.665  82.128 146.911  1.00  0.00    -0.282 OA
HETATM   36  C1  UNL     1     -39.828  82.579 147.897  1.00  0.00     0.237 C 
ENDBRANCH  32  35
ENDBRANCH   1  31
BRANCH   7  37
HETATM   37  C11 UNL     1     -49.642  82.451 146.171  1.00  0.00     0.195 C 
BRANCH  37  38
HETATM   38  C12 UNL     1     -50.242  81.120 145.804  1.00  0.00     0.272 C 
BRANCH  38  39
HETATM   39  O7  UNL     1     -50.981  81.255 144.623  1.00  0.00    -0.370 OA
ATOM     40  H7  UNL     1     -51.799  80.779 144.708  1.00  0.00     0.212 HD
ENDBRANCH  38  39
BRANCH  38  41
HETATM   41  O8  UNL     1     -51.069  80.601 146.780  1.00  0.00    -0.370 OA
ATOM     42  H8  UNL     1     -51.826  80.146 146.432  1.00  0.00     0.212 HD
ENDBRANCH  38  41
ENDBRANCH  37  38
ENDBRANCH   7  37
TORSDOF 11
ENDMDL
