MODEL 1
REMARK VINA RESULT: -7.143403464      0.000      0.000
REMARK  20 active torsions:
REMARK  status: ('A' for Active; 'I' for Inactive)
REMARK    1  A    between atoms: N1_1  and  N2_4 
REMARK    2  A    between atoms: N2_4  and  C1_5 
REMARK    3  A    between atoms: C2_6  and  O1_7 
REMARK    4  A    between atoms: O1_7  and  C3_8 
REMARK    5  A    between atoms: C5_10  and  O2_11 
REMARK    6  A    between atoms: C6_13  and  S1_14 
REMARK    7  A    between atoms: S1_14  and  S2_15 
REMARK    8  A    between atoms: S2_15  and  C7_16 
REMARK    9  A    between atoms: C8_18  and  O4_19 
REMARK   10  A    between atoms: O4_19  and  C9_20 
REMARK   11  A    between atoms: C10_21  and  N3_22 
REMARK   12  A    between atoms: C12_27  and  N4_28 
REMARK   13  A    between atoms: C13_32  and  O5_33 
REMARK   14  A    between atoms: C14_35  and  O6_36 
REMARK   15  A    between atoms: C15_38  and  N5_39 
REMARK   16  A    between atoms: C17_44  and  N6_45 
REMARK   17  A    between atoms: C18_51  and  C19_52 
REMARK   18  A    between atoms: C19_52  and  O9_53 
REMARK   19  A    between atoms: C20_55  and  O10_56 
REMARK   20  A    between atoms: C21_58  and  O11_59 
ROOT
HETATM    1  C7  UNL     1     -47.121 -31.531 143.506  1.00  0.00     0.227 C 
HETATM    2  O3  UNL     1     -47.119 -32.204 142.279  1.00  0.00    -0.341 OA
HETATM    3  C8  UNL     1     -45.964 -31.919 141.555  1.00  0.00     0.292 C 
HETATM    4  C15 UNL     1     -46.092 -30.481 141.109  1.00  0.00     0.240 C 
HETATM    5  C16 UNL     1     -46.077 -29.594 142.322  1.00  0.00     0.074 C 
HETATM    6  C17 UNL     1     -47.030 -30.070 143.400  1.00  0.00     0.225 C 
ENDROOT
BRANCH   1   7
HETATM    7  S2  UNL     1     -48.340 -32.243 144.568  1.00  0.00    -0.060 SA
BRANCH   7   8
HETATM    8  S1  UNL     1     -48.657 -34.284 144.474  1.00  0.00    -0.060 SA
BRANCH   8   9
HETATM    9  C6  UNL     1     -47.545 -35.325 145.422  1.00  0.00     0.225 C 
HETATM   10  C5  UNL     1     -46.237 -34.702 145.749  1.00  0.00     0.162 C 
HETATM   11  C4  UNL     1     -45.941 -35.112 147.155  1.00  0.00     0.096 C 
HETATM   12  C3  UNL     1     -47.310 -35.434 147.679  1.00  0.00     0.267 C 
HETATM   13  O7  UNL     1     -48.104 -35.709 146.621  1.00  0.00    -0.342 OA
BRANCH  10  14
HETATM   14  O2  UNL     1     -45.234 -35.151 144.869  1.00  0.00    -0.392 OA
ATOM     15  H2  UNL     1     -45.216 -34.627 144.076  1.00  0.00     0.210 HD
ENDBRANCH  10  14
BRANCH  12  16
HETATM   16  O1  UNL     1     -47.151 -36.497 148.568  1.00  0.00    -0.330 OA
BRANCH  16  17
HETATM   17  C2  UNL     1     -48.167 -36.643 149.475  1.00  0.00     0.287 C 
HETATM   18  C1  UNL     1     -48.662 -38.090 149.356  1.00  0.00     0.185 C 
HETATM   19  C21 UNL     1     -47.443 -38.982 149.304  1.00  0.00     0.175 C 
HETATM   20  C20 UNL     1     -46.505 -38.713 150.456  1.00  0.00     0.179 C 
HETATM   21  C18 UNL     1     -46.385 -37.223 150.734  1.00  0.00     0.179 C 
HETATM   22  O8  UNL     1     -47.598 -36.570 150.764  1.00  0.00    -0.349 OA
BRANCH  18  23
HETATM   23  N2  UNL     1     -49.440 -38.410 150.509  1.00  0.00    -0.136 NA
BRANCH  23  24
HETATM   24  N1  UNL     1     -50.420 -39.351 150.299  1.00  0.00    -0.348 N 
ATOM     25  H12 UNL     1     -51.122 -39.240 149.567  1.00  0.00     0.172 HD
ATOM     26  H11 UNL     1     -50.385 -40.153 150.927  1.00  0.00     0.172 HD
ENDBRANCH  23  24
ENDBRANCH  18  23
BRANCH  19  27
HETATM   27  O11 UNL     1     -47.815 -40.311 149.336  1.00  0.00    -0.391 OA
ATOM     28  H11 UNL     1     -47.450 -40.776 148.592  1.00  0.00     0.210 HD
ENDBRANCH  19  27
BRANCH  20  29
HETATM   29  O10 UNL     1     -45.225 -39.151 150.079  1.00  0.00    -0.390 OA
ATOM     30  H10 UNL     1     -44.629 -38.854 150.756  1.00  0.00     0.210 HD
ENDBRANCH  20  29
BRANCH  21  31
HETATM   31  C19 UNL     1     -45.707 -37.082 152.087  1.00  0.00     0.198 C 
BRANCH  31  32
HETATM   32  O9  UNL     1     -45.774 -38.275 152.805  1.00  0.00    -0.398 OA
ATOM     33  H9  UNL     1     -45.067 -38.331 153.437  1.00  0.00     0.209 HD
ENDBRANCH  31  32
ENDBRANCH  21  31
ENDBRANCH  16  17
ENDBRANCH  12  16
ENDBRANCH   8   9
ENDBRANCH   7   8
ENDBRANCH   1   7
BRANCH   6  34
HETATM   34  N6  UNL     1     -46.620 -29.490 144.663  1.00  0.00    -0.072 N 
ATOM     35  H63 UNL     1     -46.690 -28.472 144.652  1.00  0.00     0.274 HD
ATOM     36  H62 UNL     1     -47.295 -29.683 145.404  1.00  0.00     0.274 HD
ATOM     37  H61 UNL     1     -45.682 -29.801 144.916  1.00  0.00     0.274 HD
ENDBRANCH   6  34
BRANCH   3  38
HETATM   38  O4  UNL     1     -44.802 -31.995 142.318  1.00  0.00    -0.349 OA
BRANCH  38  39
HETATM   39  C9  UNL     1     -43.658 -31.964 141.543  1.00  0.00     0.186 C 
HETATM   40  C10 UNL     1     -42.636 -31.096 142.203  1.00  0.00     0.217 C 
HETATM   41  C11 UNL     1     -42.106 -31.600 143.502  1.00  0.00     0.071 C 
HETATM   42  C12 UNL     1     -41.785 -33.069 143.496  1.00  0.00     0.216 C 
HETATM   43  C13 UNL     1     -42.915 -33.863 142.875  1.00  0.00     0.179 C 
HETATM   44  C14 UNL     1     -43.111 -33.371 141.459  1.00  0.00     0.180 C 
BRANCH  40  45
HETATM   45  N3  UNL     1     -41.520 -30.836 141.310  1.00  0.00    -0.072 N 
ATOM     46  H33 UNL     1     -41.793 -30.923 140.331  1.00  0.00     0.274 HD
ATOM     47  H32 UNL     1     -41.258 -29.851 141.311  1.00  0.00     0.274 HD
ATOM     48  H31 UNL     1     -40.726 -31.436 141.534  1.00  0.00     0.274 HD
ENDBRANCH  40  45
BRANCH  42  49
HETATM   49  N4  UNL     1     -40.517 -33.363 142.863  1.00  0.00    -0.072 N 
ATOM     50  H43 UNL     1     -40.621 -33.431 141.851  1.00  0.00     0.274 HD
ATOM     51  H42 UNL     1     -39.890 -32.559 142.911  1.00  0.00     0.274 HD
ATOM     52  H41 UNL     1     -40.070 -34.198 143.243  1.00  0.00     0.274 HD
ENDBRANCH  42  49
BRANCH  43  53
HETATM   53  O5  UNL     1     -42.606 -35.222 142.910  1.00  0.00    -0.391 OA
ATOM     54  H5  UNL     1     -41.888 -35.401 142.316  1.00  0.00     0.210 HD
ENDBRANCH  43  53
BRANCH  44  55
HETATM   55  O6  UNL     1     -41.919 -33.420 140.739  1.00  0.00    -0.390 OA
ATOM     56  H6  UNL     1     -41.876 -34.188 140.180  1.00  0.00     0.210 HD
ENDBRANCH  44  55
ENDBRANCH  38  39
ENDBRANCH   3  38
BRANCH   4  57
HETATM   57  N5  UNL     1     -47.295 -30.246 140.342  1.00  0.00    -0.070 N 
ATOM     58  H53 UNL     1     -47.074 -29.932 139.397  1.00  0.00     0.274 HD
ATOM     59  H52 UNL     1     -47.764 -31.124 140.117  1.00  0.00     0.274 HD
ATOM     60  H51 UNL     1     -47.931 -29.598 140.806  1.00  0.00     0.274 HD
ENDBRANCH   4  57
TORSDOF 20
ENDMDL
MODEL 2
REMARK VINA RESULT: -6.832231508      3.049      4.310
REMARK  20 active torsions:
REMARK  status: ('A' for Active; 'I' for Inactive)
REMARK    1  A    between atoms: N1_1  and  N2_4 
REMARK    2  A    between atoms: N2_4  and  C1_5 
REMARK    3  A    between atoms: C2_6  and  O1_7 
REMARK    4  A    between atoms: O1_7  and  C3_8 
REMARK    5  A    between atoms: C5_10  and  O2_11 
REMARK    6  A    between atoms: C6_13  and  S1_14 
REMARK    7  A    between atoms: S1_14  and  S2_15 
REMARK    8  A    between atoms: S2_15  and  C7_16 
REMARK    9  A    between atoms: C8_18  and  O4_19 
REMARK   10  A    between atoms: O4_19  and  C9_20 
REMARK   11  A    between atoms: C10_21  and  N3_22 
REMARK   12  A    between atoms: C12_27  and  N4_28 
REMARK   13  A    between atoms: C13_32  and  O5_33 
REMARK   14  A    between atoms: C14_35  and  O6_36 
REMARK   15  A    between atoms: C15_38  and  N5_39 
REMARK   16  A    between atoms: C17_44  and  N6_45 
REMARK   17  A    between atoms: C18_51  and  C19_52 
REMARK   18  A    between atoms: C19_52  and  O9_53 
REMARK   19  A    between atoms: C20_55  and  O10_56 
REMARK   20  A    between atoms: C21_58  and  O11_59 
ROOT
HETATM    1  C7  UNL     1     -45.825 -30.766 141.576  1.00  0.00     0.227 C 
HETATM    2  O3  UNL     1     -44.966 -30.184 140.638  1.00  0.00    -0.341 OA
HETATM    3  C8  UNL     1     -43.836 -29.654 141.257  1.00  0.00     0.292 C 
HETATM    4  C15 UNL     1     -44.306 -28.442 142.027  1.00  0.00     0.240 C 
HETATM    5  C16 UNL     1     -45.233 -28.893 143.121  1.00  0.00     0.074 C 
HETATM    6  C17 UNL     1     -46.296 -29.850 142.623  1.00  0.00     0.225 C 
ENDROOT
BRANCH   1   7
HETATM    7  S2  UNL     1     -46.993 -31.799 140.746  1.00  0.00    -0.060 SA
BRANCH   7   8
HETATM    8  S1  UNL     1     -49.000 -31.563 141.181  1.00  0.00    -0.060 SA
BRANCH   8   9
HETATM    9  C6  UNL     1     -49.657 -32.525 142.544  1.00  0.00     0.225 C 
HETATM   10  C5  UNL     1     -50.272 -33.819 142.153  1.00  0.00     0.162 C 
HETATM   11  C4  UNL     1     -49.845 -34.796 143.201  1.00  0.00     0.096 C 
HETATM   12  C3  UNL     1     -48.612 -34.141 143.751  1.00  0.00     0.267 C 
HETATM   13  O7  UNL     1     -48.685 -32.820 143.474  1.00  0.00    -0.342 OA
BRANCH  10  14
HETATM   14  O2  UNL     1     -51.674 -33.714 142.100  1.00  0.00    -0.392 OA
ATOM     15  H2  UNL     1     -51.942 -32.826 141.893  1.00  0.00     0.210 HD
ENDBRANCH  10  14
BRANCH  12  16
HETATM   16  O1  UNL     1     -48.581 -34.441 145.113  1.00  0.00    -0.330 OA
BRANCH  16  17
HETATM   17  C2  UNL     1     -47.344 -34.768 145.601  1.00  0.00     0.287 C 
HETATM   18  C1  UNL     1     -46.971 -33.686 146.623  1.00  0.00     0.185 C 
HETATM   19  C21 UNL     1     -48.185 -33.448 147.491  1.00  0.00     0.175 C 
HETATM   20  C20 UNL     1     -48.713 -34.734 148.078  1.00  0.00     0.179 C 
HETATM   21  C18 UNL     1     -48.678 -35.861 147.057  1.00  0.00     0.179 C 
HETATM   22  O8  UNL     1     -47.488 -35.943 146.369  1.00  0.00    -0.349 OA
BRANCH  18  23
HETATM   23  N2  UNL     1     -45.892 -34.161 147.428  1.00  0.00    -0.136 NA
BRANCH  23  24
HETATM   24  N1  UNL     1     -44.932 -34.868 146.744  1.00  0.00    -0.348 N 
ATOM     25  H12 UNL     1     -44.110 -34.412 146.348  1.00  0.00     0.172 HD
ATOM     26  H11 UNL     1     -45.110 -35.869 146.671  1.00  0.00     0.172 HD
ENDBRANCH  23  24
ENDBRANCH  18  23
BRANCH  19  27
HETATM   27  O11 UNL     1     -47.877 -32.584 148.523  1.00  0.00    -0.391 OA
ATOM     28  H11 UNL     1     -48.668 -32.191 148.875  1.00  0.00     0.210 HD
ENDBRANCH  19  27
BRANCH  20  29
HETATM   29  O10 UNL     1     -50.064 -34.535 148.403  1.00  0.00    -0.390 OA
ATOM     30  H10 UNL     1     -50.089 -34.317 149.328  1.00  0.00     0.210 HD
ENDBRANCH  20  29
BRANCH  21  31
HETATM   31  C19 UNL     1     -48.903 -37.155 147.823  1.00  0.00     0.198 C 
BRANCH  31  32
HETATM   32  O9  UNL     1     -50.249 -37.518 147.802  1.00  0.00    -0.398 OA
ATOM     33  H9  UNL     1     -50.508 -37.811 146.937  1.00  0.00     0.209 HD
ENDBRANCH  31  32
ENDBRANCH  21  31
ENDBRANCH  16  17
ENDBRANCH  12  16
ENDBRANCH   8   9
ENDBRANCH   7   8
ENDBRANCH   1   7
BRANCH   6  34
HETATM   34  N6  UNL     1     -46.814 -30.591 143.756  1.00  0.00    -0.072 N 
ATOM     35  H63 UNL     1     -47.802 -30.815 143.642  1.00  0.00     0.274 HD
ATOM     36  H62 UNL     1     -46.444 -31.541 143.787  1.00  0.00     0.274 HD
ATOM     37  H61 UNL     1     -46.638 -30.089 144.626  1.00  0.00     0.274 HD
ENDBRANCH   6  34
BRANCH   3  38
HETATM   38  O4  UNL     1     -43.262 -30.517 142.187  1.00  0.00    -0.349 OA
BRANCH  38  39
HETATM   39  C9  UNL     1     -42.709 -31.639 141.597  1.00  0.00     0.186 C 
HETATM   40  C10 UNL     1     -41.341 -31.868 142.152  1.00  0.00     0.217 C 
HETATM   41  C11 UNL     1     -41.286 -32.230 143.597  1.00  0.00     0.071 C 
HETATM   42  C12 UNL     1     -42.317 -33.245 144.008  1.00  0.00     0.216 C 
HETATM   43  C13 UNL     1     -43.680 -32.879 143.456  1.00  0.00     0.179 C 
HETATM   44  C14 UNL     1     -43.576 -32.827 141.947  1.00  0.00     0.180 C 
BRANCH  40  45
HETATM   45  N3  UNL     1     -40.633 -32.880 141.388  1.00  0.00    -0.072 N 
ATOM     46  H33 UNL     1     -40.836 -32.809 140.391  1.00  0.00     0.274 HD
ATOM     47  H32 UNL     1     -39.630 -32.693 141.354  1.00  0.00     0.274 HD
ATOM     48  H31 UNL     1     -40.830 -33.813 141.747  1.00  0.00     0.274 HD
ENDBRANCH  40  45
BRANCH  42  49
HETATM   49  N4  UNL     1     -41.945 -34.597 143.652  1.00  0.00    -0.072 N 
ATOM     50  H43 UNL     1     -41.843 -34.695 142.642  1.00  0.00     0.274 HD
ATOM     51  H42 UNL     1     -40.985 -34.798 143.936  1.00  0.00     0.274 HD
ATOM     52  H41 UNL     1     -42.589 -35.295 144.025  1.00  0.00     0.274 HD
ENDBRANCH  42  49
BRANCH  43  53
HETATM   53  O5  UNL     1     -44.621 -33.817 143.875  1.00  0.00    -0.391 OA
ATOM     54  H5  UNL     1     -45.205 -33.421 144.510  1.00  0.00     0.210 HD
ENDBRANCH  43  53
BRANCH  44  55
HETATM   55  O6  UNL     1     -43.056 -34.015 141.437  1.00  0.00    -0.390 OA
ATOM     56  H6  UNL     1     -43.739 -34.651 141.257  1.00  0.00     0.210 HD
ENDBRANCH  44  55
ENDBRANCH  38  39
ENDBRANCH   3  38
BRANCH   4  57
HETATM   57  N5  UNL     1     -44.975 -27.478 141.182  1.00  0.00    -0.070 N 
ATOM     58  H53 UNL     1     -45.841 -27.860 140.802  1.00  0.00     0.274 HD
ATOM     59  H52 UNL     1     -45.362 -26.712 141.734  1.00  0.00     0.274 HD
ATOM     60  H51 UNL     1     -44.370 -27.128 140.440  1.00  0.00     0.274 HD
ENDBRANCH   4  57
TORSDOF 20
ENDMDL
MODEL 3
REMARK VINA RESULT: -6.800069994      1.605      2.423
REMARK  20 active torsions:
REMARK  status: ('A' for Active; 'I' for Inactive)
REMARK    1  A    between atoms: N1_1  and  N2_4 
REMARK    2  A    between atoms: N2_4  and  C1_5 
REMARK    3  A    between atoms: C2_6  and  O1_7 
REMARK    4  A    between atoms: O1_7  and  C3_8 
REMARK    5  A    between atoms: C5_10  and  O2_11 
REMARK    6  A    between atoms: C6_13  and  S1_14 
REMARK    7  A    between atoms: S1_14  and  S2_15 
REMARK    8  A    between atoms: S2_15  and  C7_16 
REMARK    9  A    between atoms: C8_18  and  O4_19 
REMARK   10  A    between atoms: O4_19  and  C9_20 
REMARK   11  A    between atoms: C10_21  and  N3_22 
REMARK   12  A    between atoms: C12_27  and  N4_28 
REMARK   13  A    between atoms: C13_32  and  O5_33 
REMARK   14  A    between atoms: C14_35  and  O6_36 
REMARK   15  A    between atoms: C15_38  and  N5_39 
REMARK   16  A    between atoms: C17_44  and  N6_45 
REMARK   17  A    between atoms: C18_51  and  C19_52 
REMARK   18  A    between atoms: C19_52  and  O9_53 
REMARK   19  A    between atoms: C20_55  and  O10_56 
REMARK   20  A    between atoms: C21_58  and  O11_59 
ROOT
HETATM    1  C7  UNL     1     -47.243 -32.017 143.251  1.00  0.00     0.227 C 
HETATM    2  O3  UNL     1     -47.132 -32.477 141.935  1.00  0.00    -0.341 OA
HETATM    3  C8  UNL     1     -45.979 -31.984 141.329  1.00  0.00     0.292 C 
HETATM    4  C15 UNL     1     -46.214 -30.507 141.114  1.00  0.00     0.240 C 
HETATM    5  C16 UNL     1     -46.327 -29.834 142.453  1.00  0.00     0.074 C 
HETATM    6  C17 UNL     1     -47.277 -30.555 143.387  1.00  0.00     0.225 C 
ENDROOT
BRANCH   1   7
HETATM    7  S2  UNL     1     -48.437 -32.990 144.118  1.00  0.00    -0.060 SA
BRANCH   7   8
HETATM    8  S1  UNL     1     -47.949 -34.937 144.610  1.00  0.00    -0.060 SA
BRANCH   8   9
HETATM    9  C6  UNL     1     -47.733 -35.307 146.351  1.00  0.00     0.225 C 
HETATM   10  C5  UNL     1     -48.069 -34.191 147.271  1.00  0.00     0.162 C 
HETATM   11  C4  UNL     1     -48.778 -34.824 148.424  1.00  0.00     0.096 C 
HETATM   12  C3  UNL     1     -49.275 -36.104 147.817  1.00  0.00     0.267 C 
HETATM   13  O7  UNL     1     -48.502 -36.381 146.743  1.00  0.00    -0.342 OA
BRANCH  10  14
HETATM   14  O2  UNL     1     -46.905 -33.525 147.698  1.00  0.00    -0.392 OA
ATOM     15  H2  UNL     1     -46.945 -33.329 148.627  1.00  0.00     0.210 HD
ENDBRANCH  10  14
BRANCH  12  16
HETATM   16  O1  UNL     1     -49.220 -37.065 148.826  1.00  0.00    -0.330 OA
BRANCH  16  17
HETATM   17  C2  UNL     1     -48.342 -38.091 148.593  1.00  0.00     0.287 C 
HETATM   18  C1  UNL     1     -47.265 -38.007 149.683  1.00  0.00     0.185 C 
HETATM   19  C21 UNL     1     -47.970 -37.782 151.000  1.00  0.00     0.175 C 
HETATM   20  C20 UNL     1     -49.048 -38.811 151.238  1.00  0.00     0.179 C 
HETATM   21  C18 UNL     1     -49.824 -39.102 149.964  1.00  0.00     0.179 C 
HETATM   22  O8  UNL     1     -49.021 -39.299 148.863  1.00  0.00    -0.349 OA
BRANCH  18  23
HETATM   23  N2  UNL     1     -46.551 -39.243 149.726  1.00  0.00    -0.136 NA
BRANCH  23  24
HETATM   24  N1  UNL     1     -45.305 -39.169 150.301  1.00  0.00    -0.348 N 
ATOM     25  H12 UNL     1     -44.504 -38.789 149.796  1.00  0.00     0.172 HD
ATOM     26  H11 UNL     1     -45.254 -39.519 151.257  1.00  0.00     0.172 HD
ENDBRANCH  23  24
ENDBRANCH  18  23
BRANCH  19  27
HETATM   27  O11 UNL     1     -47.069 -37.834 152.044  1.00  0.00    -0.391 OA
ATOM     28  H11 UNL     1     -47.259 -37.156 152.682  1.00  0.00     0.210 HD
ENDBRANCH  19  27
BRANCH  20  29
HETATM   29  O10 UNL     1     -49.968 -38.265 152.148  1.00  0.00    -0.390 OA
ATOM     30  H10 UNL     1     -49.463 -37.966 152.895  1.00  0.00     0.210 HD
ENDBRANCH  20  29
BRANCH  21  31
HETATM   31  C19 UNL     1     -50.637 -40.361 150.222  1.00  0.00     0.198 C 
BRANCH  31  32
HETATM   32  O9  UNL     1     -50.374 -40.872 151.491  1.00  0.00    -0.398 OA
ATOM     33  H9  UNL     1     -49.541 -41.328 151.508  1.00  0.00     0.209 HD
ENDBRANCH  31  32
ENDBRANCH  21  31
ENDBRANCH  16  17
ENDBRANCH  12  16
ENDBRANCH   8   9
ENDBRANCH   7   8
ENDBRANCH   1   7
BRANCH   6  34
HETATM   34  N6  UNL     1     -46.971 -30.160 144.747  1.00  0.00    -0.072 N 
ATOM     35  H63 UNL     1     -47.668 -30.506 145.406  1.00  0.00     0.274 HD
ATOM     36  H62 UNL     1     -46.157 -30.656 145.110  1.00  0.00     0.274 HD
ATOM     37  H61 UNL     1     -46.857 -29.149 144.812  1.00  0.00     0.274 HD
ENDBRANCH   6  34
BRANCH   3  38
HETATM   38  O4  UNL     1     -44.846 -32.092 142.132  1.00  0.00    -0.349 OA
BRANCH  38  39
HETATM   39  C9  UNL     1     -43.674 -32.043 141.401  1.00  0.00     0.186 C 
HETATM   40  C10 UNL     1     -42.751 -31.038 142.012  1.00  0.00     0.217 C 
HETATM   41  C11 UNL     1     -42.244 -31.374 143.373  1.00  0.00     0.071 C 
HETATM   42  C12 UNL     1     -41.813 -32.808 143.522  1.00  0.00     0.216 C 
HETATM   43  C13 UNL     1     -42.851 -33.744 142.939  1.00  0.00     0.179 C 
HETATM   44  C14 UNL     1     -43.020 -33.404 141.475  1.00  0.00     0.180 C 
BRANCH  40  45
HETATM   45  N3  UNL     1     -41.618 -30.777 141.141  1.00  0.00    -0.072 N 
ATOM     46  H33 UNL     1     -40.933 -31.531 141.177  1.00  0.00     0.274 HD
ATOM     47  H32 UNL     1     -41.876 -30.849 140.156  1.00  0.00     0.274 HD
ATOM     48  H31 UNL     1     -41.195 -29.873 141.353  1.00  0.00     0.274 HD
ENDBRANCH  40  45
BRANCH  42  49
HETATM   49  N4  UNL     1     -40.499 -33.058 142.969  1.00  0.00    -0.072 N 
ATOM     50  H43 UNL     1     -40.567 -33.513 142.058  1.00  0.00     0.274 HD
ATOM     51  H42 UNL     1     -40.050 -32.187 142.686  1.00  0.00     0.274 HD
ATOM     52  H41 UNL     1     -39.900 -33.591 143.600  1.00  0.00     0.274 HD
ENDBRANCH  42  49
BRANCH  43  53
HETATM   53  O5  UNL     1     -42.443 -35.064 143.117  1.00  0.00    -0.391 OA
ATOM     54  H5  UNL     1     -43.060 -35.649 142.693  1.00  0.00     0.210 HD
ENDBRANCH  43  53
BRANCH  44  55
HETATM   55  O6  UNL     1     -41.796 -33.426 140.809  1.00  0.00    -0.390 OA
ATOM     56  H6  UNL     1     -41.314 -34.227 140.984  1.00  0.00     0.210 HD
ENDBRANCH  44  55
ENDBRANCH  38  39
ENDBRANCH   3  38
BRANCH   4  57
HETATM   57  N5  UNL     1     -47.402 -30.247 140.330  1.00  0.00    -0.070 N 
ATOM     58  H53 UNL     1     -47.386 -30.770 139.454  1.00  0.00     0.274 HD
ATOM     59  H52 UNL     1     -48.225 -30.671 140.759  1.00  0.00     0.274 HD
ATOM     60  H51 UNL     1     -47.546 -29.252 140.162  1.00  0.00     0.274 HD
ENDBRANCH   4  57
TORSDOF 20
ENDMDL
MODEL 4
REMARK VINA RESULT: -6.792290240      1.597      2.433
REMARK  20 active torsions:
REMARK  status: ('A' for Active; 'I' for Inactive)
REMARK    1  A    between atoms: N1_1  and  N2_4 
REMARK    2  A    between atoms: N2_4  and  C1_5 
REMARK    3  A    between atoms: C2_6  and  O1_7 
REMARK    4  A    between atoms: O1_7  and  C3_8 
REMARK    5  A    between atoms: C5_10  and  O2_11 
REMARK    6  A    between atoms: C6_13  and  S1_14 
REMARK    7  A    between atoms: S1_14  and  S2_15 
REMARK    8  A    between atoms: S2_15  and  C7_16 
REMARK    9  A    between atoms: C8_18  and  O4_19 
REMARK   10  A    between atoms: O4_19  and  C9_20 
REMARK   11  A    between atoms: C10_21  and  N3_22 
REMARK   12  A    between atoms: C12_27  and  N4_28 
REMARK   13  A    between atoms: C13_32  and  O5_33 
REMARK   14  A    between atoms: C14_35  and  O6_36 
REMARK   15  A    between atoms: C15_38  and  N5_39 
REMARK   16  A    between atoms: C17_44  and  N6_45 
REMARK   17  A    between atoms: C18_51  and  C19_52 
REMARK   18  A    between atoms: C19_52  and  O9_53 
REMARK   19  A    between atoms: C20_55  and  O10_56 
REMARK   20  A    between atoms: C21_58  and  O11_59 
ROOT
HETATM    1  C7  UNL     1     -47.217 -32.166 143.484  1.00  0.00     0.227 C 
HETATM    2  O3  UNL     1     -47.090 -32.763 142.225  1.00  0.00    -0.341 OA
HETATM    3  C8  UNL     1     -46.024 -32.215 141.517  1.00  0.00     0.292 C 
HETATM    4  C15 UNL     1     -46.443 -30.811 141.144  1.00  0.00     0.240 C 
HETATM    5  C16 UNL     1     -46.595 -30.002 142.401  1.00  0.00     0.074 C 
HETATM    6  C17 UNL     1     -47.422 -30.713 143.452  1.00  0.00     0.225 C 
ENDROOT
BRANCH   1   7
HETATM    7  S2  UNL     1     -48.257 -33.162 144.508  1.00  0.00    -0.060 SA
BRANCH   7   8
HETATM    8  S1  UNL     1     -47.980 -33.092 146.555  1.00  0.00    -0.060 SA
BRANCH   8   9
HETATM    9  C6  UNL     1     -47.339 -34.571 147.341  1.00  0.00     0.225 C 
HETATM   10  C5  UNL     1     -45.968 -34.436 147.896  1.00  0.00     0.162 C 
HETATM   11  C4  UNL     1     -45.993 -35.165 149.200  1.00  0.00     0.096 C 
HETATM   12  C3  UNL     1     -47.456 -35.156 149.533  1.00  0.00     0.267 C 
HETATM   13  O7  UNL     1     -48.142 -34.983 148.381  1.00  0.00    -0.342 OA
BRANCH  10  14
HETATM   14  O2  UNL     1     -45.016 -34.994 147.022  1.00  0.00    -0.392 OA
ATOM     15  H2  UNL     1     -45.431 -35.556 146.379  1.00  0.00     0.210 HD
ENDBRANCH  10  14
BRANCH  12  16
HETATM   16  O1  UNL     1     -47.720 -36.362 150.182  1.00  0.00    -0.330 OA
BRANCH  16  17
HETATM   17  C2  UNL     1     -46.808 -37.354 149.942  1.00  0.00     0.287 C 
HETATM   18  C1  UNL     1     -46.667 -38.152 151.245  1.00  0.00     0.185 C 
HETATM   19  C21 UNL     1     -48.060 -38.397 151.777  1.00  0.00     0.175 C 
HETATM   20  C20 UNL     1     -48.954 -39.020 150.734  1.00  0.00     0.179 C 
HETATM   21  C18 UNL     1     -48.727 -38.393 149.367  1.00  0.00     0.179 C 
HETATM   22  O8  UNL     1     -47.397 -38.262 149.036  1.00  0.00    -0.349 OA
BRANCH  18  23
HETATM   23  N2  UNL     1     -46.037 -39.400 150.960  1.00  0.00    -0.136 NA
BRANCH  23  24
HETATM   24  N1  UNL     1     -44.738 -39.302 150.521  1.00  0.00    -0.348 N 
ATOM     25  H12 UNL     1     -44.416 -38.505 149.972  1.00  0.00     0.172 HD
ATOM     26  H11 UNL     1     -44.137 -40.081 150.788  1.00  0.00     0.172 HD
ENDBRANCH  23  24
ENDBRANCH  18  23
BRANCH  19  27
HETATM   27  O11 UNL     1     -48.017 -39.229 152.878  1.00  0.00    -0.391 OA
ATOM     28  H11 UNL     1     -48.590 -38.904 153.563  1.00  0.00     0.210 HD
ENDBRANCH  19  27
BRANCH  20  29
HETATM   29  O10 UNL     1     -50.285 -38.738 151.084  1.00  0.00    -0.390 OA
ATOM     30  H10 UNL     1     -50.780 -39.532 150.922  1.00  0.00     0.210 HD
ENDBRANCH  20  29
BRANCH  21  31
HETATM   31  C19 UNL     1     -49.409 -39.296 148.351  1.00  0.00     0.198 C 
BRANCH  31  32
HETATM   32  O9  UNL     1     -48.736 -39.270 147.131  1.00  0.00    -0.398 OA
ATOM     33  H9  UNL     1     -49.338 -39.106 146.414  1.00  0.00     0.209 HD
ENDBRANCH  31  32
ENDBRANCH  21  31
ENDBRANCH  16  17
ENDBRANCH  12  16
ENDBRANCH   8   9
ENDBRANCH   7   8
ENDBRANCH   1   7
BRANCH   6  34
HETATM   34  N6  UNL     1     -47.125 -30.126 144.744  1.00  0.00    -0.072 N 
ATOM     35  H63 UNL     1     -47.579 -29.220 144.860  1.00  0.00     0.274 HD
ATOM     36  H62 UNL     1     -47.588 -30.628 145.502  1.00  0.00     0.274 HD
ATOM     37  H61 UNL     1     -46.118 -30.066 144.890  1.00  0.00     0.274 HD
ENDBRANCH   6  34
BRANCH   3  38
HETATM   38  O4  UNL     1     -44.863 -32.093 142.276  1.00  0.00    -0.349 OA
BRANCH  38  39
HETATM   39  C9  UNL     1     -43.723 -32.042 141.494  1.00  0.00     0.186 C 
HETATM   40  C10 UNL     1     -42.780 -31.030 142.060  1.00  0.00     0.217 C 
HETATM   41  C11 UNL     1     -42.213 -31.357 143.399  1.00  0.00     0.071 C 
HETATM   42  C12 UNL     1     -41.768 -32.787 143.535  1.00  0.00     0.216 C 
HETATM   43  C13 UNL     1     -42.825 -33.731 143.002  1.00  0.00     0.179 C 
HETATM   44  C14 UNL     1     -43.060 -33.399 141.545  1.00  0.00     0.180 C 
BRANCH  40  45
HETATM   45  N3  UNL     1     -41.688 -30.766 141.139  1.00  0.00    -0.072 N 
ATOM     46  H33 UNL     1     -41.831 -31.230 140.242  1.00  0.00     0.274 HD
ATOM     47  H32 UNL     1     -41.694 -29.799 140.815  1.00  0.00     0.274 HD
ATOM     48  H31 UNL     1     -40.792 -31.017 141.555  1.00  0.00     0.274 HD
ENDBRANCH  40  45
BRANCH  42  49
HETATM   49  N4  UNL     1     -40.479 -33.034 142.926  1.00  0.00    -0.072 N 
ATOM     50  H43 UNL     1     -40.580 -33.277 141.941  1.00  0.00     0.274 HD
ATOM     51  H42 UNL     1     -39.949 -32.167 142.828  1.00  0.00     0.274 HD
ATOM     52  H41 UNL     1     -39.935 -33.739 143.424  1.00  0.00     0.274 HD
ENDBRANCH  42  49
BRANCH  43  53
HETATM   53  O5  UNL     1     -42.403 -35.049 143.168  1.00  0.00    -0.391 OA
ATOM     54  H5  UNL     1     -41.922 -35.329 142.398  1.00  0.00     0.210 HD
ENDBRANCH  43  53
BRANCH  44  55
HETATM   55  O6  UNL     1     -41.866 -33.418 140.826  1.00  0.00    -0.390 OA
ATOM     56  H6  UNL     1     -41.535 -34.302 140.716  1.00  0.00     0.210 HD
ENDBRANCH  44  55
ENDBRANCH  38  39
ENDBRANCH   3  38
BRANCH   4  57
HETATM   57  N5  UNL     1     -47.676 -30.787 140.389  1.00  0.00    -0.070 N 
ATOM     58  H53 UNL     1     -47.594 -30.184 139.570  1.00  0.00     0.274 HD
ATOM     59  H52 UNL     1     -47.838 -31.678 139.921  1.00  0.00     0.274 HD
ATOM     60  H51 UNL     1     -48.477 -30.522 140.962  1.00  0.00     0.274 HD
ENDBRANCH   4  57
TORSDOF 20
ENDMDL
MODEL 5
REMARK VINA RESULT: -6.775891847      2.476      9.863
REMARK  20 active torsions:
REMARK  status: ('A' for Active; 'I' for Inactive)
REMARK    1  A    between atoms: N1_1  and  N2_4 
REMARK    2  A    between atoms: N2_4  and  C1_5 
REMARK    3  A    between atoms: C2_6  and  O1_7 
REMARK    4  A    between atoms: O1_7  and  C3_8 
REMARK    5  A    between atoms: C5_10  and  O2_11 
REMARK    6  A    between atoms: C6_13  and  S1_14 
REMARK    7  A    between atoms: S1_14  and  S2_15 
REMARK    8  A    between atoms: S2_15  and  C7_16 
REMARK    9  A    between atoms: C8_18  and  O4_19 
REMARK   10  A    between atoms: O4_19  and  C9_20 
REMARK   11  A    between atoms: C10_21  and  N3_22 
REMARK   12  A    between atoms: C12_27  and  N4_28 
REMARK   13  A    between atoms: C13_32  and  O5_33 
REMARK   14  A    between atoms: C14_35  and  O6_36 
REMARK   15  A    between atoms: C15_38  and  N5_39 
REMARK   16  A    between atoms: C17_44  and  N6_45 
REMARK   17  A    between atoms: C18_51  and  C19_52 
REMARK   18  A    between atoms: C19_52  and  O9_53 
REMARK   19  A    between atoms: C20_55  and  O10_56 
REMARK   20  A    between atoms: C21_58  and  O11_59 
ROOT
HETATM    1  C7  UNL     1     -47.633 -35.046 149.374  1.00  0.00     0.227 C 
HETATM    2  O3  UNL     1     -46.673 -35.978 148.966  1.00  0.00    -0.341 OA
HETATM    3  C8  UNL     1     -46.330 -36.833 150.011  1.00  0.00     0.292 C 
HETATM    4  C15 UNL     1     -45.542 -36.000 150.995  1.00  0.00     0.240 C 
HETATM    5  C16 UNL     1     -46.446 -34.946 151.571  1.00  0.00     0.074 C 
HETATM    6  C17 UNL     1     -47.223 -34.203 150.504  1.00  0.00     0.225 C 
ENDROOT
BRANCH   1   7
HETATM    7  S2  UNL     1     -48.363 -34.289 147.954  1.00  0.00    -0.060 SA
BRANCH   7   8
HETATM    8  S1  UNL     1     -48.700 -35.455 146.281  1.00  0.00    -0.060 SA
BRANCH   8   9
HETATM    9  C6  UNL     1     -48.002 -34.878 144.733  1.00  0.00     0.225 C 
HETATM   10  C5  UNL     1     -48.744 -33.762 144.093  1.00  0.00     0.162 C 
HETATM   11  C4  UNL     1     -47.696 -32.840 143.560  1.00  0.00     0.096 C 
HETATM   12  C3  UNL     1     -46.510 -33.197 144.408  1.00  0.00     0.267 C 
HETATM   13  O7  UNL     1     -46.704 -34.445 144.889  1.00  0.00    -0.342 OA
BRANCH  10  14
HETATM   14  O2  UNL     1     -49.573 -34.238 143.059  1.00  0.00    -0.392 OA
ATOM     15  H2  UNL     1     -50.440 -34.448 143.386  1.00  0.00     0.210 HD
ENDBRANCH  10  14
BRANCH  12  16
HETATM   16  O1  UNL     1     -45.388 -33.066 143.590  1.00  0.00    -0.330 OA
BRANCH  16  17
HETATM   17  C2  UNL     1     -44.426 -32.215 144.066  1.00  0.00     0.287 C 
HETATM   18  C1  UNL     1     -43.508 -33.048 144.972  1.00  0.00     0.185 C 
HETATM   19  C21 UNL     1     -43.208 -34.339 144.247  1.00  0.00     0.175 C 
HETATM   20  C20 UNL     1     -42.684 -34.088 142.854  1.00  0.00     0.179 C 
HETATM   21  C18 UNL     1     -43.439 -32.956 142.176  1.00  0.00     0.179 C 
HETATM   22  O8  UNL     1     -43.607 -31.849 142.978  1.00  0.00    -0.349 OA
BRANCH  18  23
HETATM   23  N2  UNL     1     -42.295 -32.328 145.191  1.00  0.00    -0.136 NA
BRANCH  23  24
HETATM   24  N1  UNL     1     -42.463 -31.013 145.554  1.00  0.00    -0.348 N 
ATOM     25  H12 UNL     1     -41.706 -30.335 145.478  1.00  0.00     0.172 HD
ATOM     26  H11 UNL     1     -43.394 -30.781 145.901  1.00  0.00     0.172 HD
ENDBRANCH  23  24
ENDBRANCH  18  23
BRANCH  19  27
HETATM   27  O11 UNL     1     -42.275 -35.079 144.945  1.00  0.00    -0.391 OA
ATOM     28  H11 UNL     1     -42.658 -35.892 145.253  1.00  0.00     0.210 HD
ENDBRANCH  19  27
BRANCH  20  29
HETATM   29  O10 UNL     1     -42.927 -35.241 142.090  1.00  0.00    -0.390 OA
ATOM     30  H10 UNL     1     -42.193 -35.825 142.244  1.00  0.00     0.210 HD
ENDBRANCH  20  29
BRANCH  21  31
HETATM   31  C19 UNL     1     -42.636 -32.566 140.946  1.00  0.00     0.198 C 
BRANCH  31  32
HETATM   32  O9  UNL     1     -41.483 -33.343 140.837  1.00  0.00    -0.398 OA
ATOM     33  H9  UNL     1     -40.704 -32.806 140.912  1.00  0.00     0.209 HD
ENDBRANCH  31  32
ENDBRANCH  21  31
ENDBRANCH  16  17
ENDBRANCH  12  16
ENDBRANCH   8   9
ENDBRANCH   7   8
ENDBRANCH   1   7
BRANCH   6  34
HETATM   34  N6  UNL     1     -48.377 -33.583 151.125  1.00  0.00    -0.072 N 
ATOM     35  H63 UNL     1     -49.235 -34.097 150.925  1.00  0.00     0.274 HD
ATOM     36  H62 UNL     1     -48.364 -33.693 152.139  1.00  0.00     0.274 HD
ATOM     37  H61 UNL     1     -48.451 -32.603 150.852  1.00  0.00     0.274 HD
ENDBRANCH   6  34
BRANCH   3  38
HETATM   38  O4  UNL     1     -47.433 -37.326 150.702  1.00  0.00    -0.349 OA
BRANCH  38  39
HETATM   39  C9  UNL     1     -47.336 -38.683 150.953  1.00  0.00     0.186 C 
HETATM   40  C10 UNL     1     -48.136 -39.020 152.170  1.00  0.00     0.217 C 
HETATM   41  C11 UNL     1     -49.610 -38.843 152.040  1.00  0.00     0.071 C 
HETATM   42  C12 UNL     1     -50.171 -39.363 150.745  1.00  0.00     0.216 C 
HETATM   43  C13 UNL     1     -49.331 -38.902 149.572  1.00  0.00     0.179 C 
HETATM   44  C14 UNL     1     -47.923 -39.420 149.772  1.00  0.00     0.180 C 
BRANCH  40  45
HETATM   45  N3  UNL     1     -47.864 -40.377 152.610  1.00  0.00    -0.072 N 
ATOM     46  H33 UNL     1     -48.531 -41.041 152.219  1.00  0.00     0.274 HD
ATOM     47  H32 UNL     1     -47.012 -40.747 152.187  1.00  0.00     0.274 HD
ATOM     48  H31 UNL     1     -47.831 -40.431 153.628  1.00  0.00     0.274 HD
ENDBRANCH  40  45
BRANCH  42  49
HETATM   49  N4  UNL     1     -50.342 -40.800 150.745  1.00  0.00    -0.072 N 
ATOM     50  H43 UNL     1     -49.659 -41.249 151.355  1.00  0.00     0.274 HD
ATOM     51  H42 UNL     1     -51.198 -41.066 151.232  1.00  0.00     0.274 HD
ATOM     52  H41 UNL     1     -50.316 -41.201 149.807  1.00  0.00     0.274 HD
ENDBRANCH  42  49
BRANCH  43  53
HETATM   53  O5  UNL     1     -49.888 -39.371 148.384  1.00  0.00    -0.391 OA
ATOM     54  H5  UNL     1     -49.312 -39.164 147.658  1.00  0.00     0.210 HD
ENDBRANCH  43  53
BRANCH  44  55
HETATM   55  O6  UNL     1     -47.918 -40.799 149.968  1.00  0.00    -0.390 OA
ATOM     56  H6  UNL     1     -47.139 -41.205 149.603  1.00  0.00     0.210 HD
ENDBRANCH  44  55
ENDBRANCH  38  39
ENDBRANCH   3  38
BRANCH   4  57
HETATM   57  N5  UNL     1     -44.385 -35.379 150.389  1.00  0.00    -0.070 N 
ATOM     58  H53 UNL     1     -44.010 -34.640 150.985  1.00  0.00     0.274 HD
ATOM     59  H52 UNL     1     -43.585 -36.012 150.391  1.00  0.00     0.274 HD
ATOM     60  H51 UNL     1     -44.578 -35.033 149.450  1.00  0.00     0.274 HD
ENDBRANCH   4  57
TORSDOF 20
ENDMDL
