MODEL 1
REMARK VINA RESULT: -7.657699028      0.000      0.000
REMARK  19 active torsions:
REMARK  status: ('A' for Active; 'I' for Inactive)
REMARK    1  A    between atoms: N1_1  and  N2_4 
REMARK    2  A    between atoms: N2_4  and  C1_5 
REMARK    3  A    between atoms: C2_9  and  S1_10 
REMARK    4  A    between atoms: S1_10  and  C3_11 
REMARK    5  A    between atoms: C3_11  and  C4_12 
REMARK    6  A    between atoms: C5_14  and  O2_15 
REMARK    7  A    between atoms: C5_14  and  O3_17 
REMARK    8  A    between atoms: C6_19  and  O4_20 
REMARK    9  A    between atoms: O4_20  and  C7_21 
REMARK   10  A    between atoms: C9_23  and  S2_24 
REMARK   11  A    between atoms: S2_24  and  C10_25 
REMARK   12  A    between atoms: C11_28  and  C12_29 
REMARK   13  A    between atoms: C13_37  and  C14_38 
REMARK   14  A    between atoms: C14_38  and  O8_39 
REMARK   15  A    between atoms: C15_41  and  O9_42 
REMARK   16  A    between atoms: C16_44  and  O10_45 
REMARK   17  A    between atoms: C17_47  and  O11_48 
REMARK   18  A    between atoms: C18_50  and  C19_51 
REMARK   19  A    between atoms: C19_51  and  O12_52 
ROOT
HETATM    1  C4  UNL     1     -46.511 -33.595 146.421  1.00  0.00     0.168 C 
HETATM    2  O1  UNL     1     -45.783 -32.443 146.575  1.00  0.00    -0.322 OA
HETATM    3  C5  UNL     1     -45.401 -31.955 145.353  1.00  0.00     0.308 C 
HETATM    4  C6  UNL     1     -45.542 -33.051 144.346  1.00  0.00     0.246 C 
HETATM    5  C16 UNL     1     -45.941 -34.231 145.166  1.00  0.00     0.185 C 
ENDROOT
BRANCH   4   6
HETATM    6  O4  UNL     1     -44.279 -33.247 143.748  1.00  0.00    -0.367 OA
BRANCH   6   7
HETATM    7  C7  UNL     1     -44.403 -33.288 142.349  1.00  0.00     0.157 C 
HETATM    8  C8  UNL     1     -45.531 -32.421 141.883  1.00  0.00     0.078 C 
HETATM    9  C9  UNL     1     -45.063 -31.105 141.345  1.00  0.00     0.194 C 
HETATM   10  O7  UNL     1     -44.065 -30.517 142.080  1.00  0.00    -0.365 OA
HETATM   11  C13 UNL     1     -42.972 -31.307 142.301  1.00  0.00     0.177 C 
HETATM   12  C15 UNL     1     -43.074 -32.718 141.829  1.00  0.00     0.178 C 
BRANCH   9  13
HETATM   13  S2  UNL     1     -46.515 -29.994 141.210  1.00  0.00    -0.060 SA
BRANCH  13  14
HETATM   14  C10 UNL     1     -47.883 -30.845 140.453  1.00  0.00     0.163 A 
HETATM   15  N4  UNL     1     -48.659 -31.789 141.011  1.00  0.00    -0.315 N 
HETATM   16  C11 UNL     1     -49.595 -32.196 140.130  1.00  0.00     0.200 A 
ATOM     17  H4  UNL     1     -48.556 -32.145 141.961  1.00  0.00     0.169 HD
HETATM   18  N5  UNL     1     -49.388 -31.492 139.016  1.00  0.00    -0.278 N 
HETATM   19  N6  UNL     1     -48.364 -30.685 139.211  1.00  0.00    -0.278 N 
ATOM     20  H5  UNL     1     -49.932 -31.566 138.156  1.00  0.00     0.189 HD
ATOM     21  H6  UNL     1     -47.993 -30.035 138.519  1.00  0.00     0.189 HD
BRANCH  16  22
HETATM   22  C12 UNL     1     -50.595 -33.208 140.416  1.00  0.00     0.246 C 
HETATM   23  O5  UNL     1     -50.746 -33.679 141.568  1.00  0.00    -0.642 OA
HETATM   24  O6  UNL     1     -51.412 -33.678 139.400  1.00  0.00    -0.642 OA
ENDBRANCH  16  22
ENDBRANCH  13  14
ENDBRANCH   9  13
BRANCH  11  25
HETATM   25  C14 UNL     1     -41.690 -30.712 141.761  1.00  0.00     0.198 C 
BRANCH  25  26
HETATM   26  O8  UNL     1     -40.686 -31.682 141.657  1.00  0.00    -0.398 OA
ATOM     27  H8  UNL     1     -39.861 -31.361 142.004  1.00  0.00     0.209 HD
ENDBRANCH  25  26
ENDBRANCH  11  25
BRANCH  12  28
HETATM   28  O9  UNL     1     -42.916 -32.904 140.478  1.00  0.00    -0.390 OA
ATOM     29  H9  UNL     1     -42.693 -33.800 140.258  1.00  0.00     0.210 HD
ENDBRANCH  12  28
ENDBRANCH   6   7
ENDBRANCH   4   6
BRANCH   3  30
HETATM   30  O2  UNL     1     -44.068 -31.517 145.480  1.00  0.00    -0.341 OA
ATOM     31  H2  UNL     1     -43.575 -31.916 144.773  1.00  0.00     0.215 HD
ENDBRANCH   3  30
BRANCH   3  32
HETATM   32  O3  UNL     1     -46.129 -30.849 144.926  1.00  0.00    -0.341 OA
ATOM     33  H3  UNL     1     -46.242 -30.796 143.984  1.00  0.00     0.215 HD
ENDBRANCH   3  32
BRANCH   5  34
HETATM   34  O10 UNL     1     -46.938 -34.993 144.555  1.00  0.00    -0.390 OA
ATOM     35  H10 UNL     1     -47.627 -34.413 144.254  1.00  0.00     0.210 HD
ENDBRANCH   5  34
BRANCH   1  36
HETATM   36  C3  UNL     1     -47.972 -33.317 146.295  1.00  0.00     0.110 C 
BRANCH  36  37
HETATM   37  S1  UNL     1     -48.811 -33.713 147.840  1.00  0.00    -0.131 SA
BRANCH  37  38
HETATM   38  C2  UNL     1     -48.355 -35.342 148.413  1.00  0.00     0.282 C 
HETATM   39  N3  UNL     1     -48.842 -35.673 149.734  1.00  0.00    -0.017 N 
HETATM   40  C1  UNL     1     -48.300 -36.942 150.121  1.00  0.00     0.439 C 
ATOM     41  H32 UNL     1     -49.860 -35.650 149.790  1.00  0.00     0.283 HD
ATOM     42  H31 UNL     1     -48.646 -34.941 150.416  1.00  0.00     0.283 HD
HETATM   43  O13 UNL     1     -47.589 -37.597 149.163  1.00  0.00    -0.336 OA
HETATM   44  C18 UNL     1     -48.200 -37.725 147.937  1.00  0.00     0.180 C 
HETATM   45  C17 UNL     1     -48.882 -36.442 147.491  1.00  0.00     0.190 C 
BRANCH  40  46
HETATM   46  N2  UNL     1     -49.343 -37.769 150.723  1.00  0.00    -0.087 NA
BRANCH  46  47
HETATM   47  N1  UNL     1     -48.793 -38.781 151.516  1.00  0.00    -0.344 N 
ATOM     48  H12 UNL     1     -47.844 -38.752 151.889  1.00  0.00     0.172 HD
ATOM     49  H11 UNL     1     -49.461 -39.537 151.666  1.00  0.00     0.172 HD
ENDBRANCH  46  47
ENDBRANCH  40  46
BRANCH  44  50
HETATM   50  C19 UNL     1     -49.152 -38.887 147.847  1.00  0.00     0.198 C 
BRANCH  50  51
HETATM   51  O12 UNL     1     -48.834 -39.674 146.743  1.00  0.00    -0.398 OA
ATOM     52  H12 UNL     1     -47.931 -39.527 146.490  1.00  0.00     0.209 HD
ENDBRANCH  50  51
ENDBRANCH  44  50
BRANCH  45  53
HETATM   53  O11 UNL     1     -50.242 -36.578 147.774  1.00  0.00    -0.390 OA
ATOM     54  H11 UNL     1     -50.300 -36.981 148.633  1.00  0.00     0.210 HD
ENDBRANCH  45  53
ENDBRANCH  37  38
ENDBRANCH  36  37
ENDBRANCH   1  36
TORSDOF 19
ENDMDL
MODEL 2
REMARK VINA RESULT: -7.539751523      1.141      1.451
REMARK  19 active torsions:
REMARK  status: ('A' for Active; 'I' for Inactive)
REMARK    1  A    between atoms: N1_1  and  N2_4 
REMARK    2  A    between atoms: N2_4  and  C1_5 
REMARK    3  A    between atoms: C2_9  and  S1_10 
REMARK    4  A    between atoms: S1_10  and  C3_11 
REMARK    5  A    between atoms: C3_11  and  C4_12 
REMARK    6  A    between atoms: C5_14  and  O2_15 
REMARK    7  A    between atoms: C5_14  and  O3_17 
REMARK    8  A    between atoms: C6_19  and  O4_20 
REMARK    9  A    between atoms: O4_20  and  C7_21 
REMARK   10  A    between atoms: C9_23  and  S2_24 
REMARK   11  A    between atoms: S2_24  and  C10_25 
REMARK   12  A    between atoms: C11_28  and  C12_29 
REMARK   13  A    between atoms: C13_37  and  C14_38 
REMARK   14  A    between atoms: C14_38  and  O8_39 
REMARK   15  A    between atoms: C15_41  and  O9_42 
REMARK   16  A    between atoms: C16_44  and  O10_45 
REMARK   17  A    between atoms: C17_47  and  O11_48 
REMARK   18  A    between atoms: C18_50  and  C19_51 
REMARK   19  A    between atoms: C19_51  and  O12_52 
ROOT
HETATM    1  C4  UNL     1     -45.932 -33.440 146.381  1.00  0.00     0.168 C 
HETATM    2  O1  UNL     1     -45.045 -32.412 146.576  1.00  0.00    -0.322 OA
HETATM    3  C5  UNL     1     -44.453 -32.065 145.391  1.00  0.00     0.308 C 
HETATM    4  C6  UNL     1     -44.657 -33.181 144.419  1.00  0.00     0.246 C 
HETATM    5  C16 UNL     1     -45.336 -34.232 145.231  1.00  0.00     0.185 C 
ENDROOT
BRANCH   4   6
HETATM    6  O4  UNL     1     -43.384 -33.612 143.987  1.00  0.00    -0.367 OA
BRANCH   6   7
HETATM    7  C7  UNL     1     -43.338 -33.666 142.584  1.00  0.00     0.157 C 
HETATM    8  C8  UNL     1     -44.366 -32.762 141.976  1.00  0.00     0.078 C 
HETATM    9  C9  UNL     1     -43.783 -31.473 141.489  1.00  0.00     0.194 C 
HETATM   10  O7  UNL     1     -42.859 -30.914 142.335  1.00  0.00    -0.365 OA
HETATM   11  C13 UNL     1     -41.834 -31.742 142.696  1.00  0.00     0.177 C 
HETATM   12  C15 UNL     1     -41.934 -33.154 142.226  1.00  0.00     0.178 C 
BRANCH   9  13
HETATM   13  S2  UNL     1     -45.163 -30.308 141.167  1.00  0.00    -0.060 SA
BRANCH  13  14
HETATM   14  C10 UNL     1     -46.720 -31.053 141.600  1.00  0.00     0.163 A 
HETATM   15  N4  UNL     1     -47.580 -31.671 140.773  1.00  0.00    -0.315 N 
HETATM   16  C11 UNL     1     -48.649 -32.111 141.466  1.00  0.00     0.200 A 
ATOM     17  H4  UNL     1     -47.445 -31.789 139.770  1.00  0.00     0.169 HD
HETATM   18  N5  UNL     1     -48.442 -31.758 142.735  1.00  0.00    -0.278 N 
HETATM   19  N6  UNL     1     -47.287 -31.125 142.813  1.00  0.00    -0.278 N 
ATOM     20  H5  UNL     1     -49.071 -31.946 143.516  1.00  0.00     0.189 HD
ATOM     21  H6  UNL     1     -46.885 -30.746 143.670  1.00  0.00     0.189 HD
BRANCH  16  22
HETATM   22  C12 UNL     1     -49.767 -32.822 140.872  1.00  0.00     0.246 C 
HETATM   23  O5  UNL     1     -50.222 -32.512 139.746  1.00  0.00    -0.642 OA
HETATM   24  O6  UNL     1     -50.358 -33.873 141.555  1.00  0.00    -0.642 OA
ENDBRANCH  16  22
ENDBRANCH  13  14
ENDBRANCH   9  13
BRANCH  11  25
HETATM   25  C14 UNL     1     -40.473 -31.204 142.312  1.00  0.00     0.198 C 
BRANCH  25  26
HETATM   26  O8  UNL     1     -40.013 -30.275 143.252  1.00  0.00    -0.398 OA
ATOM     27  H8  UNL     1     -39.322 -30.644 143.790  1.00  0.00     0.209 HD
ENDBRANCH  25  26
ENDBRANCH  11  25
BRANCH  12  28
HETATM   28  O9  UNL     1     -41.619 -33.364 140.906  1.00  0.00    -0.390 OA
ATOM     29  H9  UNL     1     -41.322 -34.250 140.740  1.00  0.00     0.210 HD
ENDBRANCH  12  28
ENDBRANCH   6   7
ENDBRANCH   4   6
BRANCH   3  30
HETATM   30  O2  UNL     1     -43.088 -31.837 145.661  1.00  0.00    -0.341 OA
ATOM     31  H2  UNL     1     -42.943 -30.901 145.591  1.00  0.00     0.215 HD
ENDBRANCH   3  30
BRANCH   3  32
HETATM   32  O3  UNL     1     -44.934 -30.884 144.834  1.00  0.00    -0.341 OA
ATOM     33  H3  UNL     1     -45.633 -31.006 144.202  1.00  0.00     0.215 HD
ENDBRANCH   3  32
BRANCH   5  34
HETATM   34  O10 UNL     1     -46.370 -34.861 144.535  1.00  0.00    -0.390 OA
ATOM     35  H10 UNL     1     -46.417 -34.495 143.659  1.00  0.00     0.210 HD
ENDBRANCH   5  34
BRANCH   1  36
HETATM   36  C3  UNL     1     -47.303 -32.941 146.067  1.00  0.00     0.110 C 
BRANCH  36  37
HETATM   37  S1  UNL     1     -48.435 -33.367 147.403  1.00  0.00    -0.131 SA
BRANCH  37  38
HETATM   38  C2  UNL     1     -48.072 -34.992 148.051  1.00  0.00     0.282 C 
HETATM   39  N3  UNL     1     -48.495 -35.202 149.418  1.00  0.00    -0.017 N 
HETATM   40  C1  UNL     1     -48.031 -36.486 149.853  1.00  0.00     0.439 C 
ATOM     41  H32 UNL     1     -49.502 -35.090 149.536  1.00  0.00     0.283 HD
ATOM     42  H31 UNL     1     -48.196 -34.448 150.038  1.00  0.00     0.283 HD
HETATM   43  O13 UNL     1     -47.439 -37.254 148.898  1.00  0.00    -0.336 OA
HETATM   44  C18 UNL     1     -48.139 -37.403 147.723  1.00  0.00     0.180 C 
HETATM   45  C17 UNL     1     -48.746 -36.097 147.237  1.00  0.00     0.190 C 
BRANCH  40  46
HETATM   46  N2  UNL     1     -49.093 -37.185 150.571  1.00  0.00    -0.087 NA
BRANCH  46  47
HETATM   47  N1  UNL     1     -49.425 -36.524 151.757  1.00  0.00    -0.344 N 
ATOM     48  H12 UNL     1     -49.424 -35.508 151.855  1.00  0.00     0.172 HD
ATOM     49  H11 UNL     1     -49.664 -37.185 152.495  1.00  0.00     0.172 HD
ENDBRANCH  46  47
ENDBRANCH  40  46
BRANCH  44  50
HETATM   50  C19 UNL     1     -49.184 -38.485 147.767  1.00  0.00     0.198 C 
BRANCH  50  51
HETATM   51  O12 UNL     1     -48.814 -39.535 146.931  1.00  0.00    -0.398 OA
ATOM     52  H12 UNL     1     -48.319 -40.180 147.421  1.00  0.00     0.209 HD
ENDBRANCH  50  51
ENDBRANCH  44  50
BRANCH  45  53
HETATM   53  O11 UNL     1     -50.090 -36.102 147.612  1.00  0.00    -0.390 OA
ATOM     54  H11 UNL     1     -50.572 -35.704 146.896  1.00  0.00     0.210 HD
ENDBRANCH  45  53
ENDBRANCH  37  38
ENDBRANCH  36  37
ENDBRANCH   1  36
TORSDOF 19
ENDMDL
MODEL 3
REMARK VINA RESULT: -7.524119274      2.432      3.112
REMARK  19 active torsions:
REMARK  status: ('A' for Active; 'I' for Inactive)
REMARK    1  A    between atoms: N1_1  and  N2_4 
REMARK    2  A    between atoms: N2_4  and  C1_5 
REMARK    3  A    between atoms: C2_9  and  S1_10 
REMARK    4  A    between atoms: S1_10  and  C3_11 
REMARK    5  A    between atoms: C3_11  and  C4_12 
REMARK    6  A    between atoms: C5_14  and  O2_15 
REMARK    7  A    between atoms: C5_14  and  O3_17 
REMARK    8  A    between atoms: C6_19  and  O4_20 
REMARK    9  A    between atoms: O4_20  and  C7_21 
REMARK   10  A    between atoms: C9_23  and  S2_24 
REMARK   11  A    between atoms: S2_24  and  C10_25 
REMARK   12  A    between atoms: C11_28  and  C12_29 
REMARK   13  A    between atoms: C13_37  and  C14_38 
REMARK   14  A    between atoms: C14_38  and  O8_39 
REMARK   15  A    between atoms: C15_41  and  O9_42 
REMARK   16  A    between atoms: C16_44  and  O10_45 
REMARK   17  A    between atoms: C17_47  and  O11_48 
REMARK   18  A    between atoms: C18_50  and  C19_51 
REMARK   19  A    between atoms: C19_51  and  O12_52 
ROOT
HETATM    1  C4  UNL     1     -43.286 -33.741 148.857  1.00  0.00     0.168 C 
HETATM    2  O1  UNL     1     -42.355 -32.740 148.745  1.00  0.00    -0.322 OA
HETATM    3  C5  UNL     1     -42.465 -32.125 147.526  1.00  0.00     0.308 C 
HETATM    4  C6  UNL     1     -43.245 -33.018 146.617  1.00  0.00     0.246 C 
HETATM    5  C16 UNL     1     -43.464 -34.246 147.436  1.00  0.00     0.185 C 
ENDROOT
BRANCH   4   6
HETATM    6  O4  UNL     1     -42.440 -33.292 145.490  1.00  0.00    -0.367 OA
BRANCH   6   7
HETATM    7  C7  UNL     1     -43.195 -33.940 144.498  1.00  0.00     0.157 C 
HETATM    8  C8  UNL     1     -44.342 -33.088 144.051  1.00  0.00     0.078 C 
HETATM    9  C9  UNL     1     -44.075 -32.398 142.751  1.00  0.00     0.194 C 
HETATM   10  O7  UNL     1     -42.809 -31.881 142.635  1.00  0.00    -0.365 OA
HETATM   11  C13 UNL     1     -41.800 -32.772 142.866  1.00  0.00     0.177 C 
HETATM   12  C15 UNL     1     -42.214 -34.127 143.331  1.00  0.00     0.178 C 
BRANCH   9  13
HETATM   13  S2  UNL     1     -45.338 -31.088 142.529  1.00  0.00    -0.060 SA
BRANCH  13  14
HETATM   14  C10 UNL     1     -46.911 -31.805 142.103  1.00  0.00     0.163 A 
HETATM   15  N4  UNL     1     -47.713 -32.531 142.900  1.00  0.00    -0.315 N 
HETATM   16  C11 UNL     1     -48.821 -32.898 142.226  1.00  0.00     0.200 A 
ATOM     17  H4  UNL     1     -47.513 -32.768 143.871  1.00  0.00     0.169 HD
HETATM   18  N5  UNL     1     -48.696 -32.392 140.998  1.00  0.00    -0.278 N 
HETATM   19  N6  UNL     1     -47.553 -31.739 140.927  1.00  0.00    -0.278 N 
ATOM     20  H5  UNL     1     -49.371 -32.493 140.241  1.00  0.00     0.189 HD
ATOM     21  H6  UNL     1     -47.207 -31.254 140.099  1.00  0.00     0.189 HD
BRANCH  16  22
HETATM   22  C12 UNL     1     -49.894 -33.691 142.797  1.00  0.00     0.246 C 
HETATM   23  O5  UNL     1     -50.894 -34.032 142.122  1.00  0.00    -0.642 OA
HETATM   24  O6  UNL     1     -49.829 -34.089 144.123  1.00  0.00    -0.642 OA
ENDBRANCH  16  22
ENDBRANCH  13  14
ENDBRANCH   9  13
BRANCH  11  25
HETATM   25  C14 UNL     1     -40.867 -32.933 141.685  1.00  0.00     0.198 C 
BRANCH  25  26
HETATM   26  O8  UNL     1     -41.574 -33.272 140.526  1.00  0.00    -0.398 OA
ATOM     27  H8  UNL     1     -42.437 -33.610 140.736  1.00  0.00     0.209 HD
ENDBRANCH  25  26
ENDBRANCH  11  25
BRANCH  12  28
HETATM   28  O9  UNL     1     -42.707 -34.962 142.359  1.00  0.00    -0.390 OA
ATOM     29  H9  UNL     1     -42.661 -34.578 141.492  1.00  0.00     0.210 HD
ENDBRANCH  12  28
ENDBRANCH   6   7
ENDBRANCH   4   6
BRANCH   3  30
HETATM   30  O2  UNL     1     -41.155 -31.900 147.056  1.00  0.00    -0.341 OA
ATOM     31  H2  UNL     1     -41.015 -30.961 147.058  1.00  0.00     0.215 HD
ENDBRANCH   3  30
BRANCH   3  32
HETATM   32  O3  UNL     1     -43.075 -30.875 147.568  1.00  0.00    -0.341 OA
ATOM     33  H3  UNL     1     -42.608 -30.230 148.086  1.00  0.00     0.215 HD
ENDBRANCH   3  32
BRANCH   5  34
HETATM   34  O10 UNL     1     -44.755 -34.757 147.298  1.00  0.00    -0.390 OA
ATOM     35  H10 UNL     1     -44.916 -35.377 148.001  1.00  0.00     0.210 HD
ENDBRANCH   5  34
BRANCH   1  36
HETATM   36  C3  UNL     1     -44.567 -33.248 149.441  1.00  0.00     0.110 C 
BRANCH  36  37
HETATM   37  S1  UNL     1     -45.235 -34.470 150.585  1.00  0.00    -0.131 SA
BRANCH  37  38
HETATM   38  C2  UNL     1     -46.856 -35.010 150.065  1.00  0.00     0.282 C 
HETATM   39  N3  UNL     1     -47.363 -34.341 148.887  1.00  0.00    -0.017 N 
HETATM   40  C1  UNL     1     -48.711 -34.770 148.657  1.00  0.00     0.439 C 
ATOM     41  H32 UNL     1     -46.765 -34.481 148.072  1.00  0.00     0.283 HD
ATOM     42  H31 UNL     1     -47.282 -33.327 148.950  1.00  0.00     0.283 HD
HETATM   43  O13 UNL     1     -49.161 -35.764 149.471  1.00  0.00    -0.336 OA
HETATM   44  C18 UNL     1     -48.351 -36.870 149.580  1.00  0.00     0.180 C 
HETATM   45  C17 UNL     1     -46.883 -36.503 149.735  1.00  0.00     0.190 C 
BRANCH  40  46
HETATM   46  N2  UNL     1     -48.910 -35.059 147.239  1.00  0.00    -0.087 NA
BRANCH  46  47
HETATM   47  N1  UNL     1     -47.772 -34.739 146.492  1.00  0.00    -0.344 N 
ATOM     48  H12 UNL     1     -46.911 -35.284 146.515  1.00  0.00     0.172 HD
ATOM     49  H11 UNL     1     -47.922 -33.900 145.932  1.00  0.00     0.172 HD
ENDBRANCH  46  47
ENDBRANCH  40  46
BRANCH  44  50
HETATM   50  C19 UNL     1     -48.528 -37.870 148.469  1.00  0.00     0.198 C 
BRANCH  50  51
HETATM   51  O12 UNL     1     -49.871 -37.938 148.104  1.00  0.00    -0.398 OA
ATOM     52  H12 UNL     1     -50.029 -38.727 147.600  1.00  0.00     0.209 HD
ENDBRANCH  50  51
ENDBRANCH  44  50
BRANCH  45  53
HETATM   53  O11 UNL     1     -46.288 -36.643 148.481  1.00  0.00    -0.390 OA
ATOM     54  H11 UNL     1     -46.942 -36.385 147.842  1.00  0.00     0.210 HD
ENDBRANCH  45  53
ENDBRANCH  37  38
ENDBRANCH  36  37
ENDBRANCH   1  36
TORSDOF 19
ENDMDL
MODEL 4
REMARK VINA RESULT: -7.366712008      3.748      9.516
REMARK  19 active torsions:
REMARK  status: ('A' for Active; 'I' for Inactive)
REMARK    1  A    between atoms: N1_1  and  N2_4 
REMARK    2  A    between atoms: N2_4  and  C1_5 
REMARK    3  A    between atoms: C2_9  and  S1_10 
REMARK    4  A    between atoms: S1_10  and  C3_11 
REMARK    5  A    between atoms: C3_11  and  C4_12 
REMARK    6  A    between atoms: C5_14  and  O2_15 
REMARK    7  A    between atoms: C5_14  and  O3_17 
REMARK    8  A    between atoms: C6_19  and  O4_20 
REMARK    9  A    between atoms: O4_20  and  C7_21 
REMARK   10  A    between atoms: C9_23  and  S2_24 
REMARK   11  A    between atoms: S2_24  and  C10_25 
REMARK   12  A    between atoms: C11_28  and  C12_29 
REMARK   13  A    between atoms: C13_37  and  C14_38 
REMARK   14  A    between atoms: C14_38  and  O8_39 
REMARK   15  A    between atoms: C15_41  and  O9_42 
REMARK   16  A    between atoms: C16_44  and  O10_45 
REMARK   17  A    between atoms: C17_47  and  O11_48 
REMARK   18  A    between atoms: C18_50  and  C19_51 
REMARK   19  A    between atoms: C19_51  and  O12_52 
ROOT
HETATM    1  C4  UNL     1     -48.013 -34.629 145.914  1.00  0.00     0.168 C 
HETATM    2  O1  UNL     1     -49.323 -34.895 146.219  1.00  0.00    -0.322 OA
HETATM    3  C5  UNL     1     -49.420 -35.413 147.484  1.00  0.00     0.308 C 
HETATM    4  C6  UNL     1     -48.067 -35.892 147.900  1.00  0.00     0.246 C 
HETATM    5  C16 UNL     1     -47.231 -35.679 146.683  1.00  0.00     0.185 C 
ENDROOT
BRANCH   4   6
HETATM    6  O4  UNL     1     -48.176 -37.264 148.212  1.00  0.00    -0.367 OA
BRANCH   6   7
HETATM    7  C7  UNL     1     -47.250 -37.612 149.210  1.00  0.00     0.157 C 
HETATM    8  C8  UNL     1     -47.153 -36.540 150.252  1.00  0.00     0.078 C 
HETATM    9  C9  UNL     1     -47.923 -36.870 151.492  1.00  0.00     0.194 C 
HETATM   10  O7  UNL     1     -49.154 -37.430 151.261  1.00  0.00    -0.365 OA
HETATM   11  C13 UNL     1     -49.143 -38.532 150.453  1.00  0.00     0.177 C 
HETATM   12  C15 UNL     1     -47.829 -38.886 149.843  1.00  0.00     0.178 C 
BRANCH   9  13
HETATM   13  S2  UNL     1     -48.078 -35.342 152.493  1.00  0.00    -0.060 SA
BRANCH  13  14
HETATM   14  C10 UNL     1     -49.709 -34.650 152.323  1.00  0.00     0.163 A 
HETATM   15  N4  UNL     1     -50.214 -34.018 151.251  1.00  0.00    -0.315 N 
HETATM   16  C11 UNL     1     -51.484 -33.638 151.495  1.00  0.00     0.200 A 
ATOM     17  H4  UNL     1     -49.710 -33.850 150.380  1.00  0.00     0.169 HD
HETATM   18  N5  UNL     1     -51.761 -34.043 152.735  1.00  0.00    -0.278 N 
HETATM   19  N6  UNL     1     -50.699 -34.648 153.229  1.00  0.00    -0.278 N 
ATOM     20  H5  UNL     1     -52.648 -33.907 153.221  1.00  0.00     0.189 HD
ATOM     21  H6  UNL     1     -50.638 -35.054 154.162  1.00  0.00     0.189 HD
BRANCH  16  22
HETATM   22  C12 UNL     1     -52.319 -32.931 150.542  1.00  0.00     0.246 C 
HETATM   23  O5  UNL     1     -52.973 -31.912 150.867  1.00  0.00    -0.642 OA
HETATM   24  O6  UNL     1     -52.408 -33.381 149.234  1.00  0.00    -0.642 OA
ENDBRANCH  16  22
ENDBRANCH  13  14
ENDBRANCH   9  13
BRANCH  11  25
HETATM   25  C14 UNL     1     -49.709 -39.766 151.123  1.00  0.00     0.198 C 
BRANCH  25  26
HETATM   26  O8  UNL     1     -49.407 -40.921 150.393  1.00  0.00    -0.398 OA
ATOM     27  H8  UNL     1     -48.475 -41.108 150.417  1.00  0.00     0.209 HD
ENDBRANCH  25  26
ENDBRANCH  11  25
BRANCH  12  28
HETATM   28  O9  UNL     1     -46.935 -39.510 150.679  1.00  0.00    -0.390 OA
ATOM     29  H9  UNL     1     -47.364 -39.969 151.392  1.00  0.00     0.210 HD
ENDBRANCH  12  28
ENDBRANCH   6   7
ENDBRANCH   4   6
BRANCH   3  30
HETATM   30  O2  UNL     1     -50.362 -36.460 147.430  1.00  0.00    -0.341 OA
ATOM     31  H2  UNL     1     -51.124 -36.174 147.920  1.00  0.00     0.215 HD
ENDBRANCH   3  30
BRANCH   3  32
HETATM   32  O3  UNL     1     -49.898 -34.517 148.434  1.00  0.00    -0.341 OA
ATOM     33  H3  UNL     1     -49.567 -34.666 149.312  1.00  0.00     0.215 HD
ENDBRANCH   3  32
BRANCH   5  34
HETATM   34  O10 UNL     1     -45.968 -35.168 146.986  1.00  0.00    -0.390 OA
ATOM     35  H10 UNL     1     -45.882 -35.100 147.930  1.00  0.00     0.210 HD
ENDBRANCH   5  34
BRANCH   1  36
HETATM   36  C3  UNL     1     -47.620 -33.242 146.302  1.00  0.00     0.110 C 
BRANCH  36  37
HETATM   37  S1  UNL     1     -47.087 -32.322 144.846  1.00  0.00    -0.131 SA
BRANCH  37  38
HETATM   38  C2  UNL     1     -45.305 -32.233 144.767  1.00  0.00     0.282 C 
HETATM   39  N3  UNL     1     -44.633 -32.494 146.021  1.00  0.00    -0.017 N 
HETATM   40  C1  UNL     1     -43.229 -32.264 145.850  1.00  0.00     0.439 C 
ATOM     41  H32 UNL     1     -44.834 -33.426 146.384  1.00  0.00     0.283 HD
ATOM     42  H31 UNL     1     -45.026 -31.955 146.793  1.00  0.00     0.283 HD
HETATM   43  O13 UNL     1     -42.827 -31.994 144.578  1.00  0.00    -0.336 OA
HETATM   44  C18 UNL     1     -43.259 -32.868 143.609  1.00  0.00     0.180 C 
HETATM   45  C17 UNL     1     -44.725 -33.239 143.772  1.00  0.00     0.190 C 
BRANCH  40  46
HETATM   46  N2  UNL     1     -42.466 -33.340 146.475  1.00  0.00    -0.087 NA
BRANCH  46  47
HETATM   47  N1  UNL     1     -43.309 -34.270 147.091  1.00  0.00    -0.344 N 
ATOM     48  H12 UNL     1     -43.542 -35.176 146.685  1.00  0.00     0.172 HD
ATOM     49  H11 UNL     1     -43.653 -33.921 147.986  1.00  0.00     0.172 HD
ENDBRANCH  46  47
ENDBRANCH  40  46
BRANCH  44  50
HETATM   50  C19 UNL     1     -42.414 -34.106 143.480  1.00  0.00     0.198 C 
BRANCH  50  51
HETATM   51  O12 UNL     1     -42.757 -34.796 142.320  1.00  0.00    -0.398 OA
ATOM     52  H12 UNL     1     -42.697 -34.216 141.570  1.00  0.00     0.209 HD
ENDBRANCH  50  51
ENDBRANCH  44  50
BRANCH  45  53
HETATM   53  O11 UNL     1     -44.768 -34.486 144.398  1.00  0.00    -0.390 OA
ATOM     54  H11 UNL     1     -45.643 -34.828 144.259  1.00  0.00     0.210 HD
ENDBRANCH  45  53
ENDBRANCH  37  38
ENDBRANCH  36  37
ENDBRANCH   1  36
TORSDOF 19
ENDMDL
MODEL 5
REMARK VINA RESULT: -7.307171599      3.094      8.073
REMARK  19 active torsions:
REMARK  status: ('A' for Active; 'I' for Inactive)
REMARK    1  A    between atoms: N1_1  and  N2_4 
REMARK    2  A    between atoms: N2_4  and  C1_5 
REMARK    3  A    between atoms: C2_9  and  S1_10 
REMARK    4  A    between atoms: S1_10  and  C3_11 
REMARK    5  A    between atoms: C3_11  and  C4_12 
REMARK    6  A    between atoms: C5_14  and  O2_15 
REMARK    7  A    between atoms: C5_14  and  O3_17 
REMARK    8  A    between atoms: C6_19  and  O4_20 
REMARK    9  A    between atoms: O4_20  and  C7_21 
REMARK   10  A    between atoms: C9_23  and  S2_24 
REMARK   11  A    between atoms: S2_24  and  C10_25 
REMARK   12  A    between atoms: C11_28  and  C12_29 
REMARK   13  A    between atoms: C13_37  and  C14_38 
REMARK   14  A    between atoms: C14_38  and  O8_39 
REMARK   15  A    between atoms: C15_41  and  O9_42 
REMARK   16  A    between atoms: C16_44  and  O10_45 
REMARK   17  A    between atoms: C17_47  and  O11_48 
REMARK   18  A    between atoms: C18_50  and  C19_51 
REMARK   19  A    between atoms: C19_51  and  O12_52 
ROOT
HETATM    1  C4  UNL     1     -43.231 -34.022 144.722  1.00  0.00     0.168 C 
HETATM    2  O1  UNL     1     -44.422 -34.235 144.075  1.00  0.00    -0.322 OA
HETATM    3  C5  UNL     1     -45.468 -34.097 144.949  1.00  0.00     0.308 C 
HETATM    4  C6  UNL     1     -44.932 -34.189 146.341  1.00  0.00     0.246 C 
HETATM    5  C16 UNL     1     -43.487 -34.500 146.140  1.00  0.00     0.185 C 
ENDROOT
BRANCH   4   6
HETATM    6  O4  UNL     1     -45.599 -35.251 146.988  1.00  0.00    -0.367 OA
BRANCH   6   7
HETATM    7  C7  UNL     1     -46.211 -34.796 148.167  1.00  0.00     0.157 C 
HETATM    8  C8  UNL     1     -46.849 -33.457 147.961  1.00  0.00     0.078 C 
HETATM    9  C9  UNL     1     -48.331 -33.549 147.771  1.00  0.00     0.194 C 
HETATM   10  O7  UNL     1     -48.734 -34.582 146.964  1.00  0.00    -0.365 OA
HETATM   11  C13 UNL     1     -48.270 -35.814 147.330  1.00  0.00     0.177 C 
HETATM   12  C15 UNL     1     -47.299 -35.840 148.462  1.00  0.00     0.178 C 
BRANCH   9  13
HETATM   13  S2  UNL     1     -48.923 -31.941 147.118  1.00  0.00    -0.060 SA
BRANCH  13  14
HETATM   14  C10 UNL     1     -48.889 -31.941 145.338  1.00  0.00     0.163 A 
HETATM   15  N4  UNL     1     -49.465 -32.835 144.517  1.00  0.00    -0.315 N 
HETATM   16  C11 UNL     1     -49.225 -32.501 143.233  1.00  0.00     0.200 A 
ATOM     17  H4  UNL     1     -50.003 -33.646 144.820  1.00  0.00     0.169 HD
HETATM   18  N5  UNL     1     -48.492 -31.387 143.268  1.00  0.00    -0.278 N 
HETATM   19  N6  UNL     1     -48.292 -31.054 144.528  1.00  0.00    -0.278 N 
ATOM     20  H5  UNL     1     -48.144 -30.878 142.456  1.00  0.00     0.189 HD
ATOM     21  H6  UNL     1     -47.762 -30.241 144.841  1.00  0.00     0.189 HD
BRANCH  16  22
HETATM   22  C12 UNL     1     -49.706 -33.259 142.093  1.00  0.00     0.246 C 
HETATM   23  O5  UNL     1     -50.148 -34.425 142.215  1.00  0.00    -0.642 OA
HETATM   24  O6  UNL     1     -49.682 -32.694 140.827  1.00  0.00    -0.642 OA
ENDBRANCH  16  22
ENDBRANCH  13  14
ENDBRANCH   9  13
BRANCH  11  25
HETATM   25  C14 UNL     1     -49.376 -36.804 147.623  1.00  0.00     0.198 C 
BRANCH  25  26
HETATM   26  O8  UNL     1     -50.631 -36.267 147.310  1.00  0.00    -0.398 OA
ATOM     27  H8  UNL     1     -51.311 -36.646 147.854  1.00  0.00     0.209 HD
ENDBRANCH  25  26
ENDBRANCH  11  25
BRANCH  12  28
HETATM   28  O9  UNL     1     -47.844 -35.691 149.714  1.00  0.00    -0.390 OA
ATOM     29  H9  UNL     1     -48.753 -35.416 149.684  1.00  0.00     0.210 HD
ENDBRANCH  12  28
ENDBRANCH   6   7
ENDBRANCH   4   6
BRANCH   3  30
HETATM   30  O2  UNL     1     -46.384 -35.128 144.662  1.00  0.00    -0.341 OA
ATOM     31  H2  UNL     1     -47.222 -34.866 145.026  1.00  0.00     0.215 HD
ENDBRANCH   3  30
BRANCH   3  32
HETATM   32  O3  UNL     1     -46.175 -32.908 144.812  1.00  0.00    -0.341 OA
ATOM     33  H3  UNL     1     -47.064 -33.016 144.494  1.00  0.00     0.215 HD
ENDBRANCH   3  32
BRANCH   5  34
HETATM   34  O10 UNL     1     -42.660 -33.789 147.011  1.00  0.00    -0.390 OA
ATOM     35  H10 UNL     1     -42.779 -34.127 147.891  1.00  0.00     0.210 HD
ENDBRANCH   5  34
BRANCH   1  36
HETATM   36  C3  UNL     1     -42.822 -32.588 144.679  1.00  0.00     0.110 C 
BRANCH  36  37
HETATM   37  S1  UNL     1     -42.858 -31.986 142.981  1.00  0.00    -0.131 SA
BRANCH  37  38
HETATM   38  C2  UNL     1     -44.281 -30.942 142.705  1.00  0.00     0.282 C 
HETATM   39  N3  UNL     1     -44.238 -29.672 143.395  1.00  0.00    -0.017 N 
HETATM   40  C1  UNL     1     -45.485 -28.995 143.196  1.00  0.00     0.439 C 
ATOM     41  H32 UNL     1     -43.437 -29.105 143.117  1.00  0.00     0.283 HD
ATOM     42  H31 UNL     1     -44.002 -29.774 144.383  1.00  0.00     0.283 HD
HETATM   43  O13 UNL     1     -46.350 -29.595 142.333  1.00  0.00    -0.336 OA
HETATM   44  C18 UNL     1     -45.834 -29.955 141.111  1.00  0.00     0.180 C 
HETATM   45  C17 UNL     1     -44.462 -30.601 141.225  1.00  0.00     0.190 C 
BRANCH  40  46
HETATM   46  N2  UNL     1     -45.246 -27.589 142.879  1.00  0.00    -0.087 NA
BRANCH  46  47
HETATM   47  N1  UNL     1     -43.878 -27.312 142.802  1.00  0.00    -0.344 N 
ATOM     48  H12 UNL     1     -43.295 -27.571 142.006  1.00  0.00     0.172 HD
ATOM     49  H11 UNL     1     -43.552 -26.824 143.635  1.00  0.00     0.172 HD
ENDBRANCH  46  47
ENDBRANCH  40  46
BRANCH  44  50
HETATM   50  C19 UNL     1     -45.806 -28.835 140.106  1.00  0.00     0.198 C 
BRANCH  50  51
HETATM   51  O12 UNL     1     -46.945 -28.045 140.245  1.00  0.00    -0.398 OA
ATOM     52  H12 UNL     1     -46.906 -27.313 139.641  1.00  0.00     0.209 HD
ENDBRANCH  50  51
ENDBRANCH  44  50
BRANCH  45  53
HETATM   53  O11 UNL     1     -43.517 -29.618 140.926  1.00  0.00    -0.390 OA
ATOM     54  H11 UNL     1     -42.738 -30.075 140.630  1.00  0.00     0.210 HD
ENDBRANCH  45  53
ENDBRANCH  37  38
ENDBRANCH  36  37
ENDBRANCH   1  36
TORSDOF 19
ENDMDL
