MODEL 1
REMARK VINA RESULT: -6.981543210      0.000      0.000
REMARK  19 active torsions:
REMARK  status: ('A' for Active; 'I' for Inactive)
REMARK    1  A    between atoms: S1_2  and  C2_3 
REMARK    2  A    between atoms: C3_6  and  C4_7 
REMARK    3  A    between atoms: C4_7  and  N2_8 
REMARK    4  A    between atoms: C4_7  and  C5_12 
REMARK    5  A    between atoms: C5_12  and  O2_13 
REMARK    6  A    between atoms: C5_12  and  N3_15 
REMARK    7  A    between atoms: N3_15  and  C6_17 
REMARK    8  A    between atoms: C7_18  and  C8_19 
REMARK    9  A    between atoms: C8_19  and  O3_20 
REMARK   10  A    between atoms: C8_19  and  O4_22 
REMARK   11  A    between atoms: C10_25  and  N4_26 
REMARK   12  A    between atoms: N4_26  and  C11_28 
REMARK   13  A    between atoms: C12_30  and  C13_31 
REMARK   14  A    between atoms: C13_31  and  O6_32 
REMARK   15  A    between atoms: C14_34  and  O7_35 
REMARK   16  A    between atoms: O7_35  and  N5_36 
REMARK   17  A    between atoms: C15_40  and  C16_41 
REMARK   18  A    between atoms: C16_41  and  O9_42 
REMARK   19  A    between atoms: C17_44  and  O10_45 
ROOT
HETATM    1  C6  UNL     1     -47.015 -35.741 147.206  1.00  0.00     0.068 A 
HETATM    2  C7  UNL     1     -48.354 -35.875 146.897  1.00  0.00     0.027 A 
HETATM    3  C9  UNL     1     -48.870 -35.304 145.727  1.00  0.00     0.046 A 
HETATM    4  C10 UNL     1     -48.094 -34.594 144.843  1.00  0.00     0.066 A 
HETATM    5  C17 UNL     1     -46.766 -34.472 145.175  1.00  0.00     0.118 A 
HETATM    6  C18 UNL     1     -46.218 -35.034 146.343  1.00  0.00     0.108 A 
HETATM    7  N6  UNL     1     -44.823 -34.779 146.594  1.00  0.00    -0.097 NA
ENDROOT
BRANCH   1   8
HETATM    8  N3  UNL     1     -46.510 -36.313 148.391  1.00  0.00    -0.360 N 
ATOM      9  H3  UNL     1     -46.153 -37.260 148.268  1.00  0.00     0.162 HD
BRANCH   8  10
HETATM   10  C5  UNL     1     -46.401 -35.838 149.702  1.00  0.00     0.252 C 
BRANCH  10  11
HETATM   11  C4  UNL     1     -47.283 -36.302 150.792  1.00  0.00     0.279 C 
BRANCH  11  12
HETATM   12  C3  UNL     1     -47.232 -37.777 151.110  1.00  0.00     0.297 C 
HETATM   13  N1  UNL     1     -47.957 -37.952 152.343  1.00  0.00    -0.062 NA
HETATM   14  O1  UNL     1     -47.971 -39.222 152.796  1.00  0.00    -0.250 OA
HETATM   15  C2  UNL     1     -48.950 -39.974 152.137  1.00  0.00     0.358 C 
HETATM   16  S2  UNL     1     -48.543 -39.874 150.407  1.00  0.00     0.306 S 
HETATM   17  O11 UNL     1     -47.821 -38.423 150.027  1.00  0.00    -0.246 OA
HETATM   18  O12 UNL     1     -47.661 -41.016 149.988  1.00  0.00    -0.195 OA
HETATM   19  O13 UNL     1     -49.809 -39.974 149.591  1.00  0.00    -0.195 OA
BRANCH  15  20
HETATM   20  S1  UNL     1     -50.593 -39.275 152.353  1.00  0.00    -0.122 SA
HETATM   21  C1  UNL     1     -51.685 -40.292 153.352  1.00  0.00     0.093 C 
ENDBRANCH  15  20
ENDBRANCH  11  12
BRANCH  11  22
HETATM   22  N2  UNL     1     -48.587 -35.738 150.880  1.00  0.00    -0.067 N 
ATOM     23  H23 UNL     1     -48.685 -35.192 151.736  1.00  0.00     0.275 HD
ATOM     24  H22 UNL     1     -48.705 -34.998 150.190  1.00  0.00     0.275 HD
ATOM     25  H21 UNL     1     -49.340 -36.423 150.804  1.00  0.00     0.275 HD
ENDBRANCH  11  22
ENDBRANCH  10  11
BRANCH  10  26
HETATM   26  O2  UNL     1     -46.490 -34.404 149.762  1.00  0.00    -0.375 OA
ATOM     27  H2  UNL     1     -45.658 -34.135 150.134  1.00  0.00     0.212 HD
ENDBRANCH  10  26
ENDBRANCH   8  10
ENDBRANCH   1   8
BRANCH   2  28
HETATM   28  C8  UNL     1     -49.355 -36.568 147.738  1.00  0.00     0.290 C 
BRANCH  28  29
HETATM   29  O3  UNL     1     -50.652 -36.222 147.227  1.00  0.00    -0.367 OA
ATOM     30  H3  UNL     1     -50.997 -35.533 147.783  1.00  0.00     0.213 HD
ENDBRANCH  28  29
BRANCH  28  31
HETATM   31  O4  UNL     1     -49.257 -37.937 147.474  1.00  0.00    -0.367 OA
ATOM     32  H4  UNL     1     -49.334 -38.397 148.302  1.00  0.00     0.213 HD
ENDBRANCH  28  31
ENDBRANCH   2  28
BRANCH   5  33
HETATM   33  O10 UNL     1     -45.896 -33.782 144.365  1.00  0.00    -0.357 OA
ATOM     34  H10 UNL     1     -46.105 -33.615 143.453  1.00  0.00     0.218 HD
ENDBRANCH   5  33
BRANCH   4  35
HETATM   35  N4  UNL     1     -48.608 -34.054 143.633  1.00  0.00    -0.359 N 
ATOM     36  H4  UNL     1     -48.291 -34.483 142.763  1.00  0.00     0.162 HD
BRANCH  35  37
HETATM   37  C11 UNL     1     -49.530 -32.962 143.521  1.00  0.00     0.253 C 
HETATM   38  O5  UNL     1     -50.331 -33.089 142.369  1.00  0.00    -0.352 OA
HETATM   39  C12 UNL     1     -49.612 -33.153 141.223  1.00  0.00     0.205 C 
HETATM   40  C14 UNL     1     -48.443 -32.234 141.093  1.00  0.00     0.319 C 
HETATM   41  O8  UNL     1     -47.737 -32.114 142.311  1.00  0.00    -0.344 OA
HETATM   42  C15 UNL     1     -48.716 -31.700 143.243  1.00  0.00     0.197 C 
BRANCH  39  43
HETATM   43  C13 UNL     1     -50.525 -32.872 140.023  1.00  0.00     0.201 C 
BRANCH  43  44
HETATM   44  O6  UNL     1     -51.626 -33.703 140.121  1.00  0.00    -0.398 OA
ATOM     45  H6  UNL     1     -51.686 -34.005 141.021  1.00  0.00     0.209 HD
ENDBRANCH  43  44
ENDBRANCH  39  43
BRANCH  40  46
HETATM   46  O7  UNL     1     -48.754 -30.962 140.642  1.00  0.00    -0.252 OA
BRANCH  46  47
HETATM   47  N5  UNL     1     -47.696 -30.430 140.016  1.00  0.00    -0.308 N 
ATOM     48  H52 UNL     1     -47.408 -30.672 139.068  1.00  0.00     0.184 HD
ATOM     49  H51 UNL     1     -47.235 -29.756 140.628  1.00  0.00     0.184 HD
ENDBRANCH  46  47
ENDBRANCH  40  46
BRANCH  42  50
HETATM   50  C16 UNL     1     -48.045 -31.096 144.412  1.00  0.00     0.200 C 
BRANCH  50  51
HETATM   51  O9  UNL     1     -46.657 -31.008 144.267  1.00  0.00    -0.398 OA
ATOM     52  H9  UNL     1     -46.254 -31.831 144.017  1.00  0.00     0.209 HD
ENDBRANCH  50  51
ENDBRANCH  42  50
ENDBRANCH  35  37
ENDBRANCH   4  35
TORSDOF 19
ENDMDL
MODEL 2
REMARK VINA RESULT: -6.841948929      2.246      3.921
REMARK  19 active torsions:
REMARK  status: ('A' for Active; 'I' for Inactive)
REMARK    1  A    between atoms: S1_2  and  C2_3 
REMARK    2  A    between atoms: C3_6  and  C4_7 
REMARK    3  A    between atoms: C4_7  and  N2_8 
REMARK    4  A    between atoms: C4_7  and  C5_12 
REMARK    5  A    between atoms: C5_12  and  O2_13 
REMARK    6  A    between atoms: C5_12  and  N3_15 
REMARK    7  A    between atoms: N3_15  and  C6_17 
REMARK    8  A    between atoms: C7_18  and  C8_19 
REMARK    9  A    between atoms: C8_19  and  O3_20 
REMARK   10  A    between atoms: C8_19  and  O4_22 
REMARK   11  A    between atoms: C10_25  and  N4_26 
REMARK   12  A    between atoms: N4_26  and  C11_28 
REMARK   13  A    between atoms: C12_30  and  C13_31 
REMARK   14  A    between atoms: C13_31  and  O6_32 
REMARK   15  A    between atoms: C14_34  and  O7_35 
REMARK   16  A    between atoms: O7_35  and  N5_36 
REMARK   17  A    between atoms: C15_40  and  C16_41 
REMARK   18  A    between atoms: C16_41  and  O9_42 
REMARK   19  A    between atoms: C17_44  and  O10_45 
ROOT
HETATM    1  C6  UNL     1     -47.924 -33.192 146.521  1.00  0.00     0.068 A 
HETATM    2  C7  UNL     1     -47.164 -33.742 145.507  1.00  0.00     0.027 A 
HETATM    3  C9  UNL     1     -47.281 -33.263 144.196  1.00  0.00     0.046 A 
HETATM    4  C10 UNL     1     -48.138 -32.246 143.852  1.00  0.00     0.066 A 
HETATM    5  C17 UNL     1     -48.885 -31.718 144.877  1.00  0.00     0.118 A 
HETATM    6  C18 UNL     1     -48.790 -32.178 146.204  1.00  0.00     0.108 A 
HETATM    7  N6  UNL     1     -49.675 -31.573 147.166  1.00  0.00    -0.097 NA
ENDROOT
BRANCH   1   8
HETATM    8  N3  UNL     1     -47.803 -33.690 147.834  1.00  0.00    -0.360 N 
ATOM      9  H3  UNL     1     -46.866 -33.595 148.222  1.00  0.00     0.162 HD
BRANCH   8  10
HETATM   10  C5  UNL     1     -48.715 -34.287 148.710  1.00  0.00     0.252 C 
BRANCH  10  11
HETATM   11  C4  UNL     1     -48.346 -35.403 149.605  1.00  0.00     0.279 C 
BRANCH  11  12
HETATM   12  C3  UNL     1     -47.914 -36.683 148.929  1.00  0.00     0.297 C 
HETATM   13  N1  UNL     1     -47.209 -37.450 149.925  1.00  0.00    -0.062 NA
HETATM   14  O1  UNL     1     -46.713 -38.618 149.470  1.00  0.00    -0.250 OA
HETATM   15  C2  UNL     1     -47.707 -39.602 149.444  1.00  0.00     0.358 C 
HETATM   16  S2  UNL     1     -48.993 -38.955 148.397  1.00  0.00     0.306 S 
HETATM   17  O11 UNL     1     -49.083 -37.296 148.487  1.00  0.00    -0.246 OA
HETATM   18  O12 UNL     1     -48.803 -39.387 146.970  1.00  0.00    -0.195 OA
HETATM   19  O13 UNL     1     -50.325 -39.504 148.849  1.00  0.00    -0.195 OA
BRANCH  15  20
HETATM   20  S1  UNL     1     -48.417 -39.883 151.073  1.00  0.00    -0.122 SA
HETATM   21  C1  UNL     1     -47.217 -40.402 152.304  1.00  0.00     0.093 C 
ENDBRANCH  15  20
ENDBRANCH  11  12
BRANCH  11  22
HETATM   22  N2  UNL     1     -49.126 -35.604 150.778  1.00  0.00    -0.067 N 
ATOM     23  H23 UNL     1     -49.953 -35.008 150.765  1.00  0.00     0.275 HD
ATOM     24  H22 UNL     1     -49.574 -36.520 150.757  1.00  0.00     0.275 HD
ATOM     25  H21 UNL     1     -48.606 -35.479 151.646  1.00  0.00     0.275 HD
ENDBRANCH  11  22
ENDBRANCH  10  11
BRANCH  10  26
HETATM   26  O2  UNL     1     -49.887 -34.759 148.023  1.00  0.00    -0.375 OA
ATOM     27  H2  UNL     1     -50.574 -34.715 148.679  1.00  0.00     0.212 HD
ENDBRANCH  10  26
ENDBRANCH   8  10
ENDBRANCH   1   8
BRANCH   2  28
HETATM   28  C8  UNL     1     -46.215 -34.866 145.671  1.00  0.00     0.290 C 
BRANCH  28  29
HETATM   29  O3  UNL     1     -45.347 -34.859 144.527  1.00  0.00    -0.367 OA
ATOM     30  H3  UNL     1     -44.601 -35.410 144.737  1.00  0.00     0.213 HD
ENDBRANCH  28  29
BRANCH  28  31
HETATM   31  O4  UNL     1     -45.360 -34.550 146.729  1.00  0.00    -0.367 OA
ATOM     32  H4  UNL     1     -44.485 -34.443 146.372  1.00  0.00     0.213 HD
ENDBRANCH  28  31
ENDBRANCH   2  28
BRANCH   5  33
HETATM   33  O10 UNL     1     -49.777 -30.697 144.649  1.00  0.00    -0.357 OA
ATOM     34  H10 UNL     1     -50.714 -30.844 144.713  1.00  0.00     0.218 HD
ENDBRANCH   5  33
BRANCH   4  35
HETATM   35  N4  UNL     1     -48.223 -31.729 142.531  1.00  0.00    -0.359 N 
ATOM     36  H4  UNL     1     -48.845 -30.934 142.384  1.00  0.00     0.162 HD
BRANCH  35  37
HETATM   37  C11 UNL     1     -47.517 -32.221 141.385  1.00  0.00     0.253 C 
HETATM   38  O5  UNL     1     -46.212 -31.692 141.324  1.00  0.00    -0.352 OA
HETATM   39  C12 UNL     1     -46.186 -30.339 141.287  1.00  0.00     0.205 C 
HETATM   40  C14 UNL     1     -47.196 -29.656 140.424  1.00  0.00     0.319 C 
HETATM   41  O8  UNL     1     -48.455 -30.292 140.494  1.00  0.00    -0.344 OA
HETATM   42  C15 UNL     1     -48.189 -31.635 140.145  1.00  0.00     0.197 C 
BRANCH  39  43
HETATM   43  C13 UNL     1     -44.809 -29.861 140.811  1.00  0.00     0.201 C 
BRANCH  43  44
HETATM   44  O6  UNL     1     -44.871 -28.491 140.634  1.00  0.00    -0.398 OA
ATOM     45  H6  UNL     1     -44.611 -28.299 139.740  1.00  0.00     0.209 HD
ENDBRANCH  43  44
ENDBRANCH  39  43
BRANCH  40  46
HETATM   46  O7  UNL     1     -46.837 -29.544 139.091  1.00  0.00    -0.252 OA
BRANCH  46  47
HETATM   47  N5  UNL     1     -47.403 -28.453 138.558  1.00  0.00    -0.308 N 
ATOM     48  H52 UNL     1     -47.533 -27.572 139.056  1.00  0.00     0.184 HD
ATOM     49  H51 UNL     1     -47.676 -28.641 137.593  1.00  0.00     0.184 HD
ENDBRANCH  46  47
ENDBRANCH  40  46
BRANCH  42  50
HETATM   50  C16 UNL     1     -49.448 -32.284 139.727  1.00  0.00     0.200 C 
BRANCH  50  51
HETATM   51  O9  UNL     1     -50.258 -31.461 138.939  1.00  0.00    -0.398 OA
ATOM     52  H9  UNL     1     -50.100 -30.535 139.079  1.00  0.00     0.209 HD
ENDBRANCH  50  51
ENDBRANCH  42  50
ENDBRANCH  35  37
ENDBRANCH   4  35
TORSDOF 19
ENDMDL
MODEL 3
REMARK VINA RESULT: -6.716196614      3.522      4.835
REMARK  19 active torsions:
REMARK  status: ('A' for Active; 'I' for Inactive)
REMARK    1  A    between atoms: S1_2  and  C2_3 
REMARK    2  A    between atoms: C3_6  and  C4_7 
REMARK    3  A    between atoms: C4_7  and  N2_8 
REMARK    4  A    between atoms: C4_7  and  C5_12 
REMARK    5  A    between atoms: C5_12  and  O2_13 
REMARK    6  A    between atoms: C5_12  and  N3_15 
REMARK    7  A    between atoms: N3_15  and  C6_17 
REMARK    8  A    between atoms: C7_18  and  C8_19 
REMARK    9  A    between atoms: C8_19  and  O3_20 
REMARK   10  A    between atoms: C8_19  and  O4_22 
REMARK   11  A    between atoms: C10_25  and  N4_26 
REMARK   12  A    between atoms: N4_26  and  C11_28 
REMARK   13  A    between atoms: C12_30  and  C13_31 
REMARK   14  A    between atoms: C13_31  and  O6_32 
REMARK   15  A    between atoms: C14_34  and  O7_35 
REMARK   16  A    between atoms: O7_35  and  N5_36 
REMARK   17  A    between atoms: C15_40  and  C16_41 
REMARK   18  A    between atoms: C16_41  and  O9_42 
REMARK   19  A    between atoms: C17_44  and  O10_45 
ROOT
HETATM    1  C6  UNL     1     -47.587 -33.255 146.929  1.00  0.00     0.068 A 
HETATM    2  C7  UNL     1     -47.122 -33.815 145.756  1.00  0.00     0.027 A 
HETATM    3  C9  UNL     1     -45.835 -33.517 145.291  1.00  0.00     0.046 A 
HETATM    4  C10 UNL     1     -44.983 -32.671 145.959  1.00  0.00     0.066 A 
HETATM    5  C17 UNL     1     -45.470 -32.125 147.121  1.00  0.00     0.118 A 
HETATM    6  C18 UNL     1     -46.759 -32.405 147.614  1.00  0.00     0.108 A 
HETATM    7  N6  UNL     1     -47.159 -31.716 148.814  1.00  0.00    -0.097 NA
ENDROOT
BRANCH   1   8
HETATM    8  N3  UNL     1     -48.888 -33.556 147.381  1.00  0.00    -0.360 N 
ATOM      9  H3  UNL     1     -49.608 -32.955 146.982  1.00  0.00     0.162 HD
BRANCH   8  10
HETATM   10  C5  UNL     1     -49.387 -34.516 148.268  1.00  0.00     0.252 C 
BRANCH  10  11
HETATM   11  C4  UNL     1     -48.514 -35.302 149.163  1.00  0.00     0.279 C 
BRANCH  11  12
HETATM   12  C3  UNL     1     -48.027 -36.626 148.624  1.00  0.00     0.297 C 
HETATM   13  N1  UNL     1     -47.303 -37.260 149.697  1.00  0.00    -0.062 NA
HETATM   14  O1  UNL     1     -46.759 -38.448 149.366  1.00  0.00    -0.250 OA
HETATM   15  C2  UNL     1     -47.714 -39.468 149.434  1.00  0.00     0.358 C 
HETATM   16  S2  UNL     1     -49.013 -38.981 148.318  1.00  0.00     0.306 S 
HETATM   17  O11 UNL     1     -49.167 -37.326 148.238  1.00  0.00    -0.246 OA
HETATM   18  O12 UNL     1     -48.791 -39.547 146.944  1.00  0.00    -0.195 OA
HETATM   19  O13 UNL     1     -50.327 -39.533 148.814  1.00  0.00    -0.195 OA
BRANCH  15  20
HETATM   20  S1  UNL     1     -48.430 -39.610 151.078  1.00  0.00    -0.122 SA
HETATM   21  C1  UNL     1     -47.253 -40.111 152.337  1.00  0.00     0.093 C 
ENDBRANCH  15  20
ENDBRANCH  11  12
BRANCH  11  22
HETATM   22  N2  UNL     1     -48.828 -35.325 150.550  1.00  0.00    -0.067 N 
ATOM     23  H23 UNL     1     -48.028 -35.647 151.094  1.00  0.00     0.275 HD
ATOM     24  H22 UNL     1     -48.912 -34.377 150.915  1.00  0.00     0.275 HD
ATOM     25  H21 UNL     1     -49.659 -35.872 150.777  1.00  0.00     0.275 HD
ENDBRANCH  11  22
ENDBRANCH  10  11
BRANCH  10  26
HETATM   26  O2  UNL     1     -50.183 -35.506 147.593  1.00  0.00    -0.375 OA
ATOM     27  H2  UNL     1     -50.103 -35.281 146.674  1.00  0.00     0.212 HD
ENDBRANCH  10  26
ENDBRANCH   8  10
ENDBRANCH   1   8
BRANCH   2  28
HETATM   28  C8  UNL     1     -47.901 -34.718 144.878  1.00  0.00     0.290 C 
BRANCH  28  29
HETATM   29  O3  UNL     1     -48.034 -35.970 145.567  1.00  0.00    -0.367 OA
ATOM     30  H3  UNL     1     -47.172 -36.371 145.589  1.00  0.00     0.213 HD
ENDBRANCH  28  29
BRANCH  28  31
HETATM   31  O4  UNL     1     -49.211 -34.235 144.826  1.00  0.00    -0.367 OA
ATOM     32  H4  UNL     1     -49.292 -33.702 144.044  1.00  0.00     0.213 HD
ENDBRANCH  28  31
ENDBRANCH   2  28
BRANCH   5  33
HETATM   33  O10 UNL     1     -44.706 -31.262 147.872  1.00  0.00    -0.357 OA
ATOM     34  H10 UNL     1     -45.089 -30.488 148.267  1.00  0.00     0.218 HD
ENDBRANCH   5  33
BRANCH   4  35
HETATM   35  N4  UNL     1     -43.661 -32.404 145.512  1.00  0.00    -0.359 N 
ATOM     36  H4  UNL     1     -42.951 -33.105 145.726  1.00  0.00     0.162 HD
BRANCH  35  37
HETATM   37  C11 UNL     1     -43.232 -31.244 144.788  1.00  0.00     0.253 C 
HETATM   38  O5  UNL     1     -43.804 -31.205 143.502  1.00  0.00    -0.352 OA
HETATM   39  C12 UNL     1     -43.515 -32.297 142.756  1.00  0.00     0.205 C 
HETATM   40  C14 UNL     1     -42.119 -32.824 142.821  1.00  0.00     0.319 C 
HETATM   41  O8  UNL     1     -41.601 -32.763 144.134  1.00  0.00    -0.344 OA
HETATM   42  C15 UNL     1     -41.741 -31.406 144.502  1.00  0.00     0.197 C 
BRANCH  39  43
HETATM   43  C13 UNL     1     -43.804 -32.006 141.278  1.00  0.00     0.201 C 
BRANCH  43  44
HETATM   44  O6  UNL     1     -43.438 -33.119 140.544  1.00  0.00    -0.398 OA
ATOM     45  H6  UNL     1     -44.036 -33.824 140.764  1.00  0.00     0.209 HD
ENDBRANCH  43  44
ENDBRANCH  39  43
BRANCH  40  46
HETATM   46  O7  UNL     1     -41.224 -32.198 141.970  1.00  0.00    -0.252 OA
BRANCH  46  47
HETATM   47  N5  UNL     1     -40.543 -33.116 141.272  1.00  0.00    -0.308 N 
ATOM     48  H52 UNL     1     -39.995 -33.867 141.692  1.00  0.00     0.184 HD
ATOM     49  H51 UNL     1     -40.657 -32.947 140.272  1.00  0.00     0.184 HD
ENDBRANCH  46  47
ENDBRANCH  40  46
BRANCH  42  50
HETATM   50  C16 UNL     1     -40.833 -31.117 145.631  1.00  0.00     0.200 C 
BRANCH  50  51
HETATM   51  O9  UNL     1     -41.149 -31.831 146.791  1.00  0.00    -0.398 OA
ATOM     52  H9  UNL     1     -40.540 -32.537 146.973  1.00  0.00     0.209 HD
ENDBRANCH  50  51
ENDBRANCH  42  50
ENDBRANCH  35  37
ENDBRANCH   4  35
TORSDOF 19
ENDMDL
MODEL 4
REMARK VINA RESULT: -6.687385183      3.923     10.064
REMARK  19 active torsions:
REMARK  status: ('A' for Active; 'I' for Inactive)
REMARK    1  A    between atoms: S1_2  and  C2_3 
REMARK    2  A    between atoms: C3_6  and  C4_7 
REMARK    3  A    between atoms: C4_7  and  N2_8 
REMARK    4  A    between atoms: C4_7  and  C5_12 
REMARK    5  A    between atoms: C5_12  and  O2_13 
REMARK    6  A    between atoms: C5_12  and  N3_15 
REMARK    7  A    between atoms: N3_15  and  C6_17 
REMARK    8  A    between atoms: C7_18  and  C8_19 
REMARK    9  A    between atoms: C8_19  and  O3_20 
REMARK   10  A    between atoms: C8_19  and  O4_22 
REMARK   11  A    between atoms: C10_25  and  N4_26 
REMARK   12  A    between atoms: N4_26  and  C11_28 
REMARK   13  A    between atoms: C12_30  and  C13_31 
REMARK   14  A    between atoms: C13_31  and  O6_32 
REMARK   15  A    between atoms: C14_34  and  O7_35 
REMARK   16  A    between atoms: O7_35  and  N5_36 
REMARK   17  A    between atoms: C15_40  and  C16_41 
REMARK   18  A    between atoms: C16_41  and  O9_42 
REMARK   19  A    between atoms: C17_44  and  O10_45 
ROOT
HETATM    1  C6  UNL     1     -47.000 -34.471 145.240  1.00  0.00     0.068 A 
HETATM    2  C7  UNL     1     -46.007 -34.924 146.087  1.00  0.00     0.027 A 
HETATM    3  C9  UNL     1     -46.339 -35.604 147.265  1.00  0.00     0.046 A 
HETATM    4  C10 UNL     1     -47.638 -35.852 147.638  1.00  0.00     0.066 A 
HETATM    5  C17 UNL     1     -48.606 -35.389 146.781  1.00  0.00     0.118 A 
HETATM    6  C18 UNL     1     -48.305 -34.703 145.590  1.00  0.00     0.108 A 
HETATM    7  N6  UNL     1     -49.421 -34.224 144.815  1.00  0.00    -0.097 NA
ENDROOT
BRANCH   1   8
HETATM    8  N3  UNL     1     -46.652 -33.780 144.061  1.00  0.00    -0.360 N 
ATOM      9  H3  UNL     1     -46.158 -34.356 143.381  1.00  0.00     0.162 HD
BRANCH   8  10
HETATM   10  C5  UNL     1     -46.853 -32.462 143.641  1.00  0.00     0.252 C 
BRANCH  10  11
HETATM   11  C4  UNL     1     -46.877 -32.077 142.214  1.00  0.00     0.279 C 
BRANCH  11  12
HETATM   12  C3  UNL     1     -45.540 -32.025 141.515  1.00  0.00     0.297 C 
HETATM   13  N1  UNL     1     -45.042 -30.684 141.688  1.00  0.00    -0.062 NA
HETATM   14  O1  UNL     1     -43.861 -30.454 141.080  1.00  0.00    -0.250 OA
HETATM   15  C2  UNL     1     -42.800 -30.927 141.860  1.00  0.00     0.358 C 
HETATM   16  S2  UNL     1     -43.117 -32.663 142.094  1.00  0.00     0.306 S 
HETATM   17  O11 UNL     1     -44.748 -32.991 142.130  1.00  0.00    -0.246 OA
HETATM   18  O12 UNL     1     -42.447 -33.487 141.031  1.00  0.00    -0.195 OA
HETATM   19  O13 UNL     1     -42.540 -33.100 143.419  1.00  0.00    -0.195 OA
BRANCH  15  20
HETATM   20  S1  UNL     1     -42.763 -30.155 143.484  1.00  0.00    -0.122 SA
HETATM   21  C1  UNL     1     -41.111 -29.987 144.167  1.00  0.00     0.093 C 
ENDBRANCH  15  20
ENDBRANCH  11  12
BRANCH  11  22
HETATM   22  N2  UNL     1     -47.775 -31.047 141.817  1.00  0.00    -0.067 N 
ATOM     23  H23 UNL     1     -47.697 -30.870 140.816  1.00  0.00     0.275 HD
ATOM     24  H22 UNL     1     -48.739 -31.377 141.858  1.00  0.00     0.275 HD
ATOM     25  H21 UNL     1     -47.670 -30.180 142.344  1.00  0.00     0.275 HD
ENDBRANCH  11  22
ENDBRANCH  10  11
BRANCH  10  26
HETATM   26  O2  UNL     1     -45.901 -31.560 144.233  1.00  0.00    -0.375 OA
ATOM     27  H2  UNL     1     -45.662 -31.980 145.051  1.00  0.00     0.212 HD
ENDBRANCH  10  26
ENDBRANCH   8  10
ENDBRANCH   1   8
BRANCH   2  28
HETATM   28  C8  UNL     1     -44.555 -34.722 145.880  1.00  0.00     0.290 C 
BRANCH  28  29
HETATM   29  O3  UNL     1     -44.255 -35.145 144.542  1.00  0.00    -0.367 OA
ATOM     30  H3  UNL     1     -45.018 -35.608 144.215  1.00  0.00     0.213 HD
ENDBRANCH  28  29
BRANCH  28  31
HETATM   31  O4  UNL     1     -44.319 -33.345 145.845  1.00  0.00    -0.367 OA
ATOM     32  H4  UNL     1     -43.714 -33.139 146.549  1.00  0.00     0.213 HD
ENDBRANCH  28  31
ENDBRANCH   2  28
BRANCH   5  33
HETATM   33  O10 UNL     1     -49.940 -35.579 147.053  1.00  0.00    -0.357 OA
ATOM     34  H10 UNL     1     -50.599 -34.987 146.707  1.00  0.00     0.218 HD
ENDBRANCH   5  33
BRANCH   4  35
HETATM   35  N4  UNL     1     -47.973 -36.582 148.810  1.00  0.00    -0.359 N 
ATOM     36  H4  UNL     1     -48.896 -37.016 148.837  1.00  0.00     0.162 HD
BRANCH  35  37
HETATM   37  C11 UNL     1     -47.137 -36.764 149.960  1.00  0.00     0.253 C 
HETATM   38  O5  UNL     1     -46.598 -38.065 149.997  1.00  0.00    -0.352 OA
HETATM   39  C12 UNL     1     -47.543 -39.034 150.006  1.00  0.00     0.205 C 
HETATM   40  C14 UNL     1     -48.746 -38.813 150.863  1.00  0.00     0.319 C 
HETATM   41  O8  UNL     1     -49.177 -37.469 150.819  1.00  0.00    -0.344 OA
HETATM   42  C15 UNL     1     -48.036 -36.724 151.193  1.00  0.00     0.197 C 
BRANCH  39  43
HETATM   43  C13 UNL     1     -46.920 -40.361 150.458  1.00  0.00     0.201 C 
BRANCH  43  44
HETATM   44  O6  UNL     1     -47.877 -41.350 150.321  1.00  0.00    -0.398 OA
ATOM     45  H6  UNL     1     -47.667 -42.047 150.931  1.00  0.00     0.209 HD
ENDBRANCH  43  44
ENDBRANCH  39  43
BRANCH  40  46
HETATM   46  O7  UNL     1     -48.584 -39.176 152.190  1.00  0.00    -0.252 OA
BRANCH  46  47
HETATM   47  N5  UNL     1     -49.638 -39.896 152.596  1.00  0.00    -0.308 N 
ATOM     48  H52 UNL     1     -49.697 -40.372 153.496  1.00  0.00     0.184 HD
ATOM     49  H51 UNL     1     -50.360 -39.891 151.875  1.00  0.00     0.184 HD
ENDBRANCH  46  47
ENDBRANCH  40  46
BRANCH  42  50
HETATM   50  C16 UNL     1     -48.461 -35.381 151.637  1.00  0.00     0.200 C 
BRANCH  50  51
HETATM   51  O9  UNL     1     -49.387 -34.783 150.777  1.00  0.00    -0.398 OA
ATOM     52  H9  UNL     1     -49.930 -34.132 151.205  1.00  0.00     0.209 HD
ENDBRANCH  50  51
ENDBRANCH  42  50
ENDBRANCH  35  37
ENDBRANCH   4  35
TORSDOF 19
ENDMDL
MODEL 5
REMARK VINA RESULT: -6.629090740      3.072      4.555
REMARK  19 active torsions:
REMARK  status: ('A' for Active; 'I' for Inactive)
REMARK    1  A    between atoms: S1_2  and  C2_3 
REMARK    2  A    between atoms: C3_6  and  C4_7 
REMARK    3  A    between atoms: C4_7  and  N2_8 
REMARK    4  A    between atoms: C4_7  and  C5_12 
REMARK    5  A    between atoms: C5_12  and  O2_13 
REMARK    6  A    between atoms: C5_12  and  N3_15 
REMARK    7  A    between atoms: N3_15  and  C6_17 
REMARK    8  A    between atoms: C7_18  and  C8_19 
REMARK    9  A    between atoms: C8_19  and  O3_20 
REMARK   10  A    between atoms: C8_19  and  O4_22 
REMARK   11  A    between atoms: C10_25  and  N4_26 
REMARK   12  A    between atoms: N4_26  and  C11_28 
REMARK   13  A    between atoms: C12_30  and  C13_31 
REMARK   14  A    between atoms: C13_31  and  O6_32 
REMARK   15  A    between atoms: C14_34  and  O7_35 
REMARK   16  A    between atoms: O7_35  and  N5_36 
REMARK   17  A    between atoms: C15_40  and  C16_41 
REMARK   18  A    between atoms: C16_41  and  O9_42 
REMARK   19  A    between atoms: C17_44  and  O10_45 
ROOT
HETATM    1  C6  UNL     1     -47.629 -33.650 145.749  1.00  0.00     0.068 A 
HETATM    2  C7  UNL     1     -46.370 -33.972 145.282  1.00  0.00     0.027 A 
HETATM    3  C9  UNL     1     -45.751 -33.174 144.312  1.00  0.00     0.046 A 
HETATM    4  C10 UNL     1     -46.347 -32.056 143.780  1.00  0.00     0.066 A 
HETATM    5  C17 UNL     1     -47.600 -31.760 144.259  1.00  0.00     0.118 A 
HETATM    6  C18 UNL     1     -48.248 -32.541 145.234  1.00  0.00     0.108 A 
HETATM    7  N6  UNL     1     -49.584 -32.146 145.601  1.00  0.00    -0.097 NA
ENDROOT
BRANCH   1   8
HETATM    8  N3  UNL     1     -48.245 -34.466 146.720  1.00  0.00    -0.360 N 
ATOM      9  H3  UNL     1     -48.546 -35.372 146.361  1.00  0.00     0.162 HD
BRANCH   8  10
HETATM   10  C5  UNL     1     -48.525 -34.281 148.077  1.00  0.00     0.252 C 
BRANCH  10  11
HETATM   11  C4  UNL     1     -48.108 -35.246 149.115  1.00  0.00     0.279 C 
BRANCH  11  12
HETATM   12  C3  UNL     1     -47.778 -36.639 148.635  1.00  0.00     0.297 C 
HETATM   13  N1  UNL     1     -47.167 -37.318 149.750  1.00  0.00    -0.062 NA
HETATM   14  O1  UNL     1     -46.767 -38.576 149.475  1.00  0.00    -0.250 OA
HETATM   15  C2  UNL     1     -47.844 -39.466 149.548  1.00  0.00     0.358 C 
HETATM   16  S2  UNL     1     -49.043 -38.863 148.379  1.00  0.00     0.306 S 
HETATM   17  O11 UNL     1     -48.986 -37.205 148.240  1.00  0.00    -0.246 OA
HETATM   18  O12 UNL     1     -48.859 -39.502 147.031  1.00  0.00    -0.195 OA
HETATM   19  O13 UNL     1     -50.428 -39.228 148.854  1.00  0.00    -0.195 OA
BRANCH  15  20
HETATM   20  S1  UNL     1     -48.613 -39.457 151.174  1.00  0.00    -0.122 SA
HETATM   21  C1  UNL     1     -47.530 -40.025 152.488  1.00  0.00     0.093 C 
ENDBRANCH  15  20
ENDBRANCH  11  12
BRANCH  11  22
HETATM   22  N2  UNL     1     -48.785 -35.213 150.367  1.00  0.00    -0.067 N 
ATOM     23  H23 UNL     1     -49.759 -35.491 150.256  1.00  0.00     0.275 HD
ATOM     24  H22 UNL     1     -48.459 -35.966 150.971  1.00  0.00     0.275 HD
ATOM     25  H21 UNL     1     -48.721 -34.315 150.847  1.00  0.00     0.275 HD
ENDBRANCH  11  22
ENDBRANCH  10  11
BRANCH  10  26
HETATM   26  O2  UNL     1     -49.931 -34.094 148.314  1.00  0.00    -0.375 OA
ATOM     27  H2  UNL     1     -50.325 -34.911 148.030  1.00  0.00     0.212 HD
ENDBRANCH  10  26
ENDBRANCH   8  10
ENDBRANCH   1   8
BRANCH   2  28
HETATM   28  C8  UNL     1     -45.584 -35.154 145.702  1.00  0.00     0.290 C 
BRANCH  28  29
HETATM   29  O3  UNL     1     -44.399 -35.185 144.892  1.00  0.00    -0.367 OA
ATOM     30  H3  UNL     1     -43.655 -35.151 145.483  1.00  0.00     0.213 HD
ENDBRANCH  28  29
BRANCH  28  31
HETATM   31  O4  UNL     1     -45.093 -34.903 146.986  1.00  0.00    -0.367 OA
ATOM     32  H4  UNL     1     -44.180 -35.164 147.002  1.00  0.00     0.213 HD
ENDBRANCH  28  31
ENDBRANCH   2  28
BRANCH   5  33
HETATM   33  O10 UNL     1     -48.292 -30.665 143.798  1.00  0.00    -0.357 OA
ATOM     34  H10 UNL     1     -48.532 -29.956 144.384  1.00  0.00     0.218 HD
ENDBRANCH   5  33
BRANCH   4  35
HETATM   35  N4  UNL     1     -45.700 -31.222 142.829  1.00  0.00    -0.359 N 
ATOM     36  H4  UNL     1     -46.235 -30.966 141.999  1.00  0.00     0.162 HD
BRANCH  35  37
HETATM   37  C11 UNL     1     -44.367 -30.706 142.926  1.00  0.00     0.253 C 
HETATM   38  O5  UNL     1     -44.373 -29.314 143.139  1.00  0.00    -0.352 OA
HETATM   39  C12 UNL     1     -45.020 -28.628 142.167  1.00  0.00     0.205 C 
HETATM   40  C14 UNL     1     -44.795 -29.060 140.756  1.00  0.00     0.319 C 
HETATM   41  O8  UNL     1     -44.735 -30.467 140.645  1.00  0.00    -0.344 OA
HETATM   42  C15 UNL     1     -43.719 -30.846 141.550  1.00  0.00     0.197 C 
BRANCH  39  43
HETATM   43  C13 UNL     1     -44.637 -27.144 142.238  1.00  0.00     0.201 C 
BRANCH  43  44
HETATM   44  O6  UNL     1     -45.429 -26.457 141.337  1.00  0.00    -0.398 OA
ATOM     45  H6  UNL     1     -45.085 -25.574 141.259  1.00  0.00     0.209 HD
ENDBRANCH  43  44
ENDBRANCH  39  43
BRANCH  40  46
HETATM   46  O7  UNL     1     -43.663 -28.527 140.161  1.00  0.00    -0.252 OA
BRANCH  46  47
HETATM   47  N5  UNL     1     -43.978 -28.012 138.965  1.00  0.00    -0.308 N 
ATOM     48  H52 UNL     1     -44.406 -28.543 138.206  1.00  0.00     0.184 HD
ATOM     49  H51 UNL     1     -43.725 -27.024 138.936  1.00  0.00     0.184 HD
ENDBRANCH  46  47
ENDBRANCH  40  46
BRANCH  42  50
HETATM   50  C16 UNL     1     -43.238 -32.197 141.199  1.00  0.00     0.200 C 
BRANCH  50  51
HETATM   51  O9  UNL     1     -44.272 -33.091 140.904  1.00  0.00    -0.398 OA
ATOM     52  H9  UNL     1     -44.695 -33.444 141.678  1.00  0.00     0.209 HD
ENDBRANCH  50  51
ENDBRANCH  42  50
ENDBRANCH  35  37
ENDBRANCH   4  35
TORSDOF 19
ENDMDL
