MODEL 1
REMARK VINA RESULT: -9.017106114      0.000      0.000
REMARK  13 active torsions:
REMARK  status: ('A' for Active; 'I' for Inactive)
REMARK    1  A    between atoms: C3_4  and  S1_5 
REMARK    2  A    between atoms: S1_5  and  S2_6 
REMARK    3  A    between atoms: S2_6  and  C4_7 
REMARK    4  A    between atoms: C11_14  and  C12_15 
REMARK    5  A    between atoms: C13_19  and  O4_20 
REMARK    6  A    between atoms: O4_20  and  C14_21 
REMARK    7  A    between atoms: C15_23  and  C16_24 
REMARK    8  A    between atoms: C16_24  and  O6_25 
REMARK    9  A    between atoms: C17_27  and  O7_28 
REMARK   10  A    between atoms: C18_30  and  O8_31 
REMARK   11  A    between atoms: C19_33  and  O9_34 
REMARK   12  A    between atoms: C20_36  and  O10_37 
REMARK   13  A    between atoms: C21_39  and  O11_40 
ROOT
HETATM    1  C1  UNL     1      -5.470  19.661  23.335  1.00  0.00     0.221 C 
HETATM    2  N1  UNL     1      -4.584  19.693  24.046  1.00  0.00    -0.460 NA
HETATM    3  C2  UNL     1      -3.516  19.699  24.929  1.00  0.00     0.232 C 
HETATM    4  C3  UNL     1      -3.393  20.873  25.810  1.00  0.00     0.235 C 
HETATM    5  O3  UNL     1      -2.677  20.520  26.956  1.00  0.00    -0.339 OA
HETATM    6  C13 UNL     1      -1.629  19.680  26.786  1.00  0.00     0.295 C 
HETATM    7  C20 UNL     1      -1.126  19.506  25.399  1.00  0.00     0.205 C 
HETATM    8  C21 UNL     1      -2.189  19.352  24.347  1.00  0.00     0.190 C 
ENDROOT
BRANCH   4   9
HETATM    9  S1  UNL     1      -2.760  22.396  25.217  1.00  0.00    -0.061 SA
BRANCH   9  10
HETATM   10  S2  UNL     1      -3.803  24.052  25.929  1.00  0.00    -0.089 SA
BRANCH  10  11
HETATM   11  C4  UNL     1      -2.757  25.253  26.672  1.00  0.00     0.076 C 
HETATM   12  C5  UNL     1      -3.392  25.939  27.840  1.00  0.00    -0.003 C 
HETATM   13  C6  UNL     1      -4.558  25.136  28.364  1.00  0.00     0.011 C 
HETATM   14  C7  UNL     1      -3.956  27.312  27.525  1.00  0.00     0.005 C 
HETATM   15  C8  UNL     1      -2.947  28.370  27.288  1.00  0.00     0.000 C 
HETATM   16  C9  UNL     1      -1.509  27.934  27.454  1.00  0.00     0.001 C 
HETATM   17  C10 UNL     1      -1.106  27.028  26.308  1.00  0.00     0.017 C 
HETATM   18  C11 UNL     1      -2.317  26.348  25.699  1.00  0.00     0.102 C 
BRANCH  18  19
HETATM   19  C12 UNL     1      -1.886  25.740  24.414  1.00  0.00     0.178 C 
HETATM   20  O1  UNL     1      -0.665  25.532  24.135  1.00  0.00    -0.648 OA
HETATM   21  O2  UNL     1      -2.831  25.373  23.454  1.00  0.00    -0.648 OA
ENDBRANCH  18  19
ENDBRANCH  10  11
ENDBRANCH   9  10
ENDBRANCH   4   9
BRANCH   8  22
HETATM   22  O11 UNL     1      -1.907  20.088  23.209  1.00  0.00    -0.390 OA
ATOM     23  H11 UNL     1      -2.093  19.604  22.412  1.00  0.00     0.210 HD
ENDBRANCH   8  22
BRANCH   7  24
HETATM   24  O10 UNL     1      -0.227  20.542  25.090  1.00  0.00    -0.388 OA
ATOM     25  H10 UNL     1      -0.419  20.882  24.224  1.00  0.00     0.210 HD
ENDBRANCH   7  24
BRANCH   6  26
HETATM   26  O4  UNL     1      -1.931  18.479  27.422  1.00  0.00    -0.326 OA
BRANCH  26  27
HETATM   27  C14 UNL     1      -0.881  17.974  28.189  1.00  0.00     0.294 C 
HETATM   28  O5  UNL     1      -0.434  16.837  27.536  1.00  0.00    -0.348 OA
HETATM   29  C15 UNL     1       0.470  16.099  28.274  1.00  0.00     0.179 C 
HETATM   30  C17 UNL     1      -0.180  15.608  29.550  1.00  0.00     0.180 C 
HETATM   31  C18 UNL     1      -0.695  16.735  30.384  1.00  0.00     0.183 C 
HETATM   32  C19 UNL     1      -1.420  17.743  29.560  1.00  0.00     0.204 C 
BRANCH  29  33
HETATM   33  C16 UNL     1       1.752  16.828  28.564  1.00  0.00     0.198 C 
BRANCH  33  34
HETATM   34  O6  UNL     1       2.279  16.420  29.770  1.00  0.00    -0.398 OA
ATOM     35  H6  UNL     1       1.598  16.370  30.431  1.00  0.00     0.209 HD
ENDBRANCH  33  34
ENDBRANCH  29  33
BRANCH  30  36
HETATM   36  O7  UNL     1      -1.304  14.855  29.144  1.00  0.00    -0.390 OA
ATOM     37  H7  UNL     1      -1.039  13.945  29.194  1.00  0.00     0.210 HD
ENDBRANCH  30  36
BRANCH  31  38
HETATM   38  O8  UNL     1       0.284  17.281  31.209  1.00  0.00    -0.390 OA
ATOM     39  H8  UNL     1       0.536  16.696  31.914  1.00  0.00     0.210 HD
ENDBRANCH  31  38
BRANCH  32  40
HETATM   40  O9  UNL     1      -2.797  17.463  29.552  1.00  0.00    -0.388 OA
ATOM     41  H9  UNL     1      -3.130  17.317  28.675  1.00  0.00     0.210 HD
ENDBRANCH  32  40
ENDBRANCH  26  27
ENDBRANCH   6  26
TORSDOF 13
ENDMDL
MODEL 2
REMARK VINA RESULT: -8.995712724      1.058      1.818
REMARK  13 active torsions:
REMARK  status: ('A' for Active; 'I' for Inactive)
REMARK    1  A    between atoms: C3_4  and  S1_5 
REMARK    2  A    between atoms: S1_5  and  S2_6 
REMARK    3  A    between atoms: S2_6  and  C4_7 
REMARK    4  A    between atoms: C11_14  and  C12_15 
REMARK    5  A    between atoms: C13_19  and  O4_20 
REMARK    6  A    between atoms: O4_20  and  C14_21 
REMARK    7  A    between atoms: C15_23  and  C16_24 
REMARK    8  A    between atoms: C16_24  and  O6_25 
REMARK    9  A    between atoms: C17_27  and  O7_28 
REMARK   10  A    between atoms: C18_30  and  O8_31 
REMARK   11  A    between atoms: C19_33  and  O9_34 
REMARK   12  A    between atoms: C20_36  and  O10_37 
REMARK   13  A    between atoms: C21_39  and  O11_40 
ROOT
HETATM    1  C1  UNL     1      -5.102  19.842  23.363  1.00  0.00     0.221 C 
HETATM    2  N1  UNL     1      -4.253  19.640  24.092  1.00  0.00    -0.460 NA
HETATM    3  C2  UNL     1      -3.232  19.356  24.985  1.00  0.00     0.232 C 
HETATM    4  C3  UNL     1      -3.165  20.188  26.198  1.00  0.00     0.235 C 
HETATM    5  O3  UNL     1      -2.506  19.483  27.209  1.00  0.00    -0.339 OA
HETATM    6  C13 UNL     1      -1.444  18.732  26.835  1.00  0.00     0.295 C 
HETATM    7  C20 UNL     1      -0.868  19.003  25.492  1.00  0.00     0.205 C 
HETATM    8  C21 UNL     1      -1.875  19.199  24.392  1.00  0.00     0.190 C 
ENDROOT
BRANCH   4   9
HETATM    9  S1  UNL     1      -2.514  21.815  26.153  1.00  0.00    -0.061 SA
BRANCH   9  10
HETATM   10  S2  UNL     1      -3.907  23.271  26.682  1.00  0.00    -0.089 SA
BRANCH  10  11
HETATM   11  C4  UNL     1      -3.162  24.782  27.182  1.00  0.00     0.076 C 
HETATM   12  C5  UNL     1      -3.840  25.407  28.359  1.00  0.00    -0.003 C 
HETATM   13  C6  UNL     1      -4.682  24.392  29.093  1.00  0.00     0.011 C 
HETATM   14  C7  UNL     1      -4.788  26.538  28.004  1.00  0.00     0.005 C 
HETATM   15  C8  UNL     1      -4.136  27.789  27.552  1.00  0.00     0.000 C 
HETATM   16  C9  UNL     1      -2.625  27.768  27.569  1.00  0.00     0.001 C 
HETATM   17  C10 UNL     1      -2.106  26.875  26.462  1.00  0.00     0.017 C 
HETATM   18  C11 UNL     1      -3.138  25.834  26.071  1.00  0.00     0.102 C 
BRANCH  18  19
HETATM   19  C12 UNL     1      -2.688  25.217  24.798  1.00  0.00     0.178 C 
HETATM   20  O1  UNL     1      -1.461  25.110  24.490  1.00  0.00    -0.648 OA
HETATM   21  O2  UNL     1      -3.622  24.727  23.881  1.00  0.00    -0.648 OA
ENDBRANCH  18  19
ENDBRANCH  10  11
ENDBRANCH   9  10
ENDBRANCH   4   9
BRANCH   8  22
HETATM   22  O11 UNL     1      -1.540  20.256  23.563  1.00  0.00    -0.390 OA
ATOM     23  H11 UNL     1      -0.859  20.804  23.936  1.00  0.00     0.210 HD
ENDBRANCH   8  22
BRANCH   7  24
HETATM   24  O10 UNL     1       0.037  20.075  25.575  1.00  0.00    -0.388 OA
ATOM     25  H10 UNL     1       0.901  19.746  25.793  1.00  0.00     0.210 HD
ENDBRANCH   7  24
BRANCH   6  26
HETATM   26  O4  UNL     1      -1.768  17.393  27.040  1.00  0.00    -0.326 OA
BRANCH  26  27
HETATM   27  C14 UNL     1      -1.430  16.925  28.310  1.00  0.00     0.294 C 
HETATM   28  O5  UNL     1      -0.717  17.943  28.922  1.00  0.00    -0.348 OA
HETATM   29  C15 UNL     1      -0.129  17.563  30.113  1.00  0.00     0.179 C 
HETATM   30  C17 UNL     1       0.872  16.455  29.866  1.00  0.00     0.180 C 
HETATM   31  C18 UNL     1       0.239  15.263  29.225  1.00  0.00     0.183 C 
HETATM   32  C19 UNL     1      -0.674  15.655  28.115  1.00  0.00     0.204 C 
BRANCH  29  33
HETATM   33  C16 UNL     1      -1.116  17.176  31.178  1.00  0.00     0.198 C 
BRANCH  33  34
HETATM   34  O6  UNL     1      -0.481  16.515  32.208  1.00  0.00    -0.398 OA
ATOM     35  H6  UNL     1      -0.060  17.135  32.792  1.00  0.00     0.209 HD
ENDBRANCH  33  34
ENDBRANCH  29  33
BRANCH  30  36
HETATM   36  O7  UNL     1       1.799  16.973  28.934  1.00  0.00    -0.390 OA
ATOM     37  H7  UNL     1       2.649  16.646  29.204  1.00  0.00     0.210 HD
ENDBRANCH  30  36
BRANCH  31  38
HETATM   38  O8  UNL     1      -0.339  14.400  30.153  1.00  0.00    -0.390 OA
ATOM     39  H8  UNL     1      -0.627  13.584  29.762  1.00  0.00     0.210 HD
ENDBRANCH  31  38
BRANCH  32  40
HETATM   40  O9  UNL     1       0.012  15.625  26.889  1.00  0.00    -0.388 OA
ATOM     41  H9  UNL     1       0.137  14.741  26.567  1.00  0.00     0.210 HD
ENDBRANCH  32  40
ENDBRANCH  26  27
ENDBRANCH   6  26
TORSDOF 13
ENDMDL
MODEL 3
REMARK VINA RESULT: -8.941396888      4.092      6.132
REMARK  13 active torsions:
REMARK  status: ('A' for Active; 'I' for Inactive)
REMARK    1  A    between atoms: C3_4  and  S1_5 
REMARK    2  A    between atoms: S1_5  and  S2_6 
REMARK    3  A    between atoms: S2_6  and  C4_7 
REMARK    4  A    between atoms: C11_14  and  C12_15 
REMARK    5  A    between atoms: C13_19  and  O4_20 
REMARK    6  A    between atoms: O4_20  and  C14_21 
REMARK    7  A    between atoms: C15_23  and  C16_24 
REMARK    8  A    between atoms: C16_24  and  O6_25 
REMARK    9  A    between atoms: C17_27  and  O7_28 
REMARK   10  A    between atoms: C18_30  and  O8_31 
REMARK   11  A    between atoms: C19_33  and  O9_34 
REMARK   12  A    between atoms: C20_36  and  O10_37 
REMARK   13  A    between atoms: C21_39  and  O11_40 
ROOT
HETATM    1  C1  UNL     1      -2.431  20.686  31.410  1.00  0.00     0.221 C 
HETATM    2  N1  UNL     1      -2.776  21.198  30.455  1.00  0.00    -0.460 NA
HETATM    3  C2  UNL     1      -3.163  21.810  29.274  1.00  0.00     0.232 C 
HETATM    4  C3  UNL     1      -3.382  23.266  29.324  1.00  0.00     0.235 C 
HETATM    5  O3  UNL     1      -3.214  23.805  28.046  1.00  0.00    -0.339 OA
HETATM    6  C13 UNL     1      -3.693  23.077  27.010  1.00  0.00     0.295 C 
HETATM    7  C20 UNL     1      -4.645  21.985  27.339  1.00  0.00     0.205 C 
HETATM    8  C21 UNL     1      -4.272  21.149  28.532  1.00  0.00     0.190 C 
ENDROOT
BRANCH   4   9
HETATM    9  S1  UNL     1      -4.841  23.945  30.017  1.00  0.00    -0.061 SA
BRANCH   9  10
HETATM   10  S2  UNL     1      -4.510  24.937  31.818  1.00  0.00    -0.089 SA
BRANCH  10  11
HETATM   11  C4  UNL     1      -3.098  25.984  31.775  1.00  0.00     0.076 C 
HETATM   12  C5  UNL     1      -2.057  25.602  32.779  1.00  0.00    -0.003 C 
HETATM   13  C6  UNL     1      -2.261  24.183  33.250  1.00  0.00     0.011 C 
HETATM   14  C7  UNL     1      -2.063  26.451  34.037  1.00  0.00     0.005 C 
HETATM   15  C8  UNL     1      -1.574  27.839  33.864  1.00  0.00     0.000 C 
HETATM   16  C9  UNL     1      -1.088  28.180  32.474  1.00  0.00     0.001 C 
HETATM   17  C10 UNL     1      -2.262  28.274  31.522  1.00  0.00     0.017 C 
HETATM   18  C11 UNL     1      -3.437  27.455  32.022  1.00  0.00     0.102 C 
BRANCH  18  19
HETATM   19  C12 UNL     1      -4.624  27.844  31.219  1.00  0.00     0.178 C 
HETATM   20  O1  UNL     1      -4.680  27.675  29.962  1.00  0.00    -0.648 OA
HETATM   21  O2  UNL     1      -5.736  28.419  31.836  1.00  0.00    -0.648 OA
ENDBRANCH  18  19
ENDBRANCH  10  11
ENDBRANCH   9  10
ENDBRANCH   4   9
BRANCH   8  22
HETATM   22  O11 UNL     1      -5.362  20.885  29.344  1.00  0.00    -0.390 OA
ATOM     23  H11 UNL     1      -6.153  21.311  29.034  1.00  0.00     0.210 HD
ENDBRANCH   8  22
BRANCH   7  24
HETATM   24  O10 UNL     1      -5.944  22.510  27.449  1.00  0.00    -0.388 OA
ATOM     25  H10 UNL     1      -6.551  21.963  26.964  1.00  0.00     0.210 HD
ENDBRANCH   7  24
BRANCH   6  26
HETATM   26  O4  UNL     1      -2.610  22.657  26.241  1.00  0.00    -0.326 OA
BRANCH  26  27
HETATM   27  C14 UNL     1      -2.601  21.284  25.993  1.00  0.00     0.294 C 
HETATM   28  O5  UNL     1      -1.282  20.877  26.108  1.00  0.00    -0.348 OA
HETATM   29  C15 UNL     1      -1.069  19.578  25.689  1.00  0.00     0.179 C 
HETATM   30  C17 UNL     1      -1.411  19.445  24.220  1.00  0.00     0.180 C 
HETATM   31  C18 UNL     1      -2.827  19.829  23.939  1.00  0.00     0.183 C 
HETATM   32  C19 UNL     1      -3.207  21.085  24.645  1.00  0.00     0.204 C 
BRANCH  29  33
HETATM   33  C16 UNL     1      -1.796  18.550  26.510  1.00  0.00     0.198 C 
BRANCH  33  34
HETATM   34  O6  UNL     1      -1.371  18.590  27.820  1.00  0.00    -0.398 OA
ATOM     35  H6  UNL     1      -0.427  18.686  27.862  1.00  0.00     0.209 HD
ENDBRANCH  33  34
ENDBRANCH  29  33
BRANCH  30  36
HETATM   36  O7  UNL     1      -0.594  20.382  23.548  1.00  0.00    -0.390 OA
ATOM     37  H7  UNL     1      -0.389  19.992  22.707  1.00  0.00     0.210 HD
ENDBRANCH  30  36
BRANCH  31  38
HETATM   38  O8  UNL     1      -3.716  18.777  24.140  1.00  0.00    -0.390 OA
ATOM     39  H8  UNL     1      -4.593  18.977  23.834  1.00  0.00     0.210 HD
ENDBRANCH  31  38
BRANCH  32  40
HETATM   40  O9  UNL     1      -3.012  22.193  23.804  1.00  0.00    -0.388 OA
ATOM     41  H9  UNL     1      -3.707  22.285  23.162  1.00  0.00     0.210 HD
ENDBRANCH  32  40
ENDBRANCH  26  27
ENDBRANCH   6  26
TORSDOF 13
ENDMDL
MODEL 4
REMARK VINA RESULT: -8.918578545      1.353      2.137
REMARK  13 active torsions:
REMARK  status: ('A' for Active; 'I' for Inactive)
REMARK    1  A    between atoms: C3_4  and  S1_5 
REMARK    2  A    between atoms: S1_5  and  S2_6 
REMARK    3  A    between atoms: S2_6  and  C4_7 
REMARK    4  A    between atoms: C11_14  and  C12_15 
REMARK    5  A    between atoms: C13_19  and  O4_20 
REMARK    6  A    between atoms: O4_20  and  C14_21 
REMARK    7  A    between atoms: C15_23  and  C16_24 
REMARK    8  A    between atoms: C16_24  and  O6_25 
REMARK    9  A    between atoms: C17_27  and  O7_28 
REMARK   10  A    between atoms: C18_30  and  O8_31 
REMARK   11  A    between atoms: C19_33  and  O9_34 
REMARK   12  A    between atoms: C20_36  and  O10_37 
REMARK   13  A    between atoms: C21_39  and  O11_40 
ROOT
HETATM    1  C1  UNL     1      -5.468  19.692  23.492  1.00  0.00     0.221 C 
HETATM    2  N1  UNL     1      -4.541  19.692  24.150  1.00  0.00    -0.460 NA
HETATM    3  C2  UNL     1      -3.422  19.657  24.967  1.00  0.00     0.232 C 
HETATM    4  C3  UNL     1      -3.254  20.780  25.905  1.00  0.00     0.235 C 
HETATM    5  O3  UNL     1      -2.469  20.369  26.985  1.00  0.00    -0.339 OA
HETATM    6  C13 UNL     1      -1.428  19.550  26.705  1.00  0.00     0.295 C 
HETATM    7  C20 UNL     1      -1.007  19.459  25.283  1.00  0.00     0.205 C 
HETATM    8  C21 UNL     1      -2.131  19.355  24.289  1.00  0.00     0.190 C 
ENDROOT
BRANCH   4   9
HETATM    9  S1  UNL     1      -2.666  22.340  25.364  1.00  0.00    -0.061 SA
BRANCH   9  10
HETATM   10  S2  UNL     1      -4.164  23.779  25.225  1.00  0.00    -0.089 SA
BRANCH  10  11
HETATM   11  C4  UNL     1      -3.588  25.404  25.565  1.00  0.00     0.076 C 
HETATM   12  C5  UNL     1      -2.542  25.868  24.602  1.00  0.00    -0.003 C 
HETATM   13  C6  UNL     1      -2.568  25.038  23.341  1.00  0.00     0.011 C 
HETATM   14  C7  UNL     1      -1.122  25.762  25.125  1.00  0.00     0.005 C 
HETATM   15  C8  UNL     1      -0.764  26.738  26.182  1.00  0.00     0.000 C 
HETATM   16  C9  UNL     1      -1.850  27.727  26.535  1.00  0.00     0.001 C 
HETATM   17  C10 UNL     1      -2.962  27.029  27.291  1.00  0.00     0.017 C 
HETATM   18  C11 UNL     1      -2.995  25.548  26.968  1.00  0.00     0.102 C 
BRANCH  18  19
HETATM   19  C12 UNL     1      -3.884  24.895  27.963  1.00  0.00     0.178 C 
HETATM   20  O1  UNL     1      -4.989  25.404  28.325  1.00  0.00    -0.648 OA
HETATM   21  O2  UNL     1      -3.522  23.677  28.542  1.00  0.00    -0.648 OA
ENDBRANCH  18  19
ENDBRANCH  10  11
ENDBRANCH   9  10
ENDBRANCH   4   9
BRANCH   8  22
HETATM   22  O11 UNL     1      -1.921  20.157  23.180  1.00  0.00    -0.390 OA
ATOM     23  H11 UNL     1      -1.180  20.742  23.294  1.00  0.00     0.210 HD
ENDBRANCH   8  22
BRANCH   7  24
HETATM   24  O10 UNL     1      -0.134  20.519  24.981  1.00  0.00    -0.388 OA
ATOM     25  H10 UNL     1       0.169  20.436  24.085  1.00  0.00     0.210 HD
ENDBRANCH   7  24
BRANCH   6  26
HETATM   26  O4  UNL     1      -1.685  18.312  27.288  1.00  0.00    -0.326 OA
BRANCH  26  27
HETATM   27  C14 UNL     1      -0.683  17.887  28.161  1.00  0.00     0.294 C 
HETATM   28  O5  UNL     1      -0.174  16.715  27.627  1.00  0.00    -0.348 OA
HETATM   29  C15 UNL     1       0.689  16.053  28.479  1.00  0.00     0.179 C 
HETATM   30  C17 UNL     1      -0.040  15.644  29.741  1.00  0.00     0.180 C 
HETATM   31  C18 UNL     1      -0.630  16.819  30.451  1.00  0.00     0.183 C 
HETATM   32  C19 UNL     1      -1.312  17.747  29.506  1.00  0.00     0.204 C 
BRANCH  29  33
HETATM   33  C16 UNL     1       1.936  16.828  28.801  1.00  0.00     0.198 C 
BRANCH  33  34
HETATM   34  O6  UNL     1       2.420  16.474  30.041  1.00  0.00    -0.398 OA
ATOM     35  H6  UNL     1       3.365  16.375  30.015  1.00  0.00     0.209 HD
ENDBRANCH  33  34
ENDBRANCH  29  33
BRANCH  30  36
HETATM   36  O7  UNL     1      -1.122  14.839  29.317  1.00  0.00    -0.390 OA
ATOM     37  H7  UNL     1      -1.715  14.792  30.057  1.00  0.00     0.210 HD
ENDBRANCH  30  36
BRANCH  31  38
HETATM   38  O8  UNL     1       0.280  17.444  31.298  1.00  0.00    -0.390 OA
ATOM     39  H8  UNL     1       0.335  17.025  32.148  1.00  0.00     0.210 HD
ENDBRANCH  31  38
BRANCH  32  40
HETATM   40  O9  UNL     1      -2.681  17.438  29.424  1.00  0.00    -0.388 OA
ATOM     41  H9  UNL     1      -3.231  18.201  29.553  1.00  0.00     0.210 HD
ENDBRANCH  32  40
ENDBRANCH  26  27
ENDBRANCH   6  26
TORSDOF 13
ENDMDL
MODEL 5
REMARK VINA RESULT: -8.896792917      1.579      2.793
REMARK  13 active torsions:
REMARK  status: ('A' for Active; 'I' for Inactive)
REMARK    1  A    between atoms: C3_4  and  S1_5 
REMARK    2  A    between atoms: S1_5  and  S2_6 
REMARK    3  A    between atoms: S2_6  and  C4_7 
REMARK    4  A    between atoms: C11_14  and  C12_15 
REMARK    5  A    between atoms: C13_19  and  O4_20 
REMARK    6  A    between atoms: O4_20  and  C14_21 
REMARK    7  A    between atoms: C15_23  and  C16_24 
REMARK    8  A    between atoms: C16_24  and  O6_25 
REMARK    9  A    between atoms: C17_27  and  O7_28 
REMARK   10  A    between atoms: C18_30  and  O8_31 
REMARK   11  A    between atoms: C19_33  and  O9_34 
REMARK   12  A    between atoms: C20_36  and  O10_37 
REMARK   13  A    between atoms: C21_39  and  O11_40 
ROOT
HETATM    1  C1  UNL     1      -5.242  19.838  23.355  1.00  0.00     0.221 C 
HETATM    2  N1  UNL     1      -4.373  19.675  24.070  1.00  0.00    -0.460 NA
HETATM    3  C2  UNL     1      -3.324  19.438  24.943  1.00  0.00     0.232 C 
HETATM    4  C3  UNL     1      -3.324  20.206  26.200  1.00  0.00     0.235 C 
HETATM    5  O3  UNL     1      -2.596  19.511  27.169  1.00  0.00    -0.339 OA
HETATM    6  C13 UNL     1      -1.472  18.881  26.752  1.00  0.00     0.295 C 
HETATM    7  C20 UNL     1      -0.934  19.275  25.425  1.00  0.00     0.205 C 
HETATM    8  C21 UNL     1      -1.962  19.438  24.340  1.00  0.00     0.190 C 
ENDROOT
BRANCH   4   9
HETATM    9  S1  UNL     1      -2.824  21.885  26.242  1.00  0.00    -0.061 SA
BRANCH   9  10
HETATM   10  S2  UNL     1      -4.383  23.215  25.867  1.00  0.00    -0.089 SA
BRANCH  10  11
HETATM   11  C4  UNL     1      -3.918  24.896  26.084  1.00  0.00     0.076 C 
HETATM   12  C5  UNL     1      -2.996  25.389  25.015  1.00  0.00    -0.003 C 
HETATM   13  C6  UNL     1      -3.056  24.495  23.800  1.00  0.00     0.011 C 
HETATM   14  C7  UNL     1      -1.533  25.424  25.419  1.00  0.00     0.005 C 
HETATM   15  C8  UNL     1      -1.173  26.477  26.396  1.00  0.00     0.000 C 
HETATM   16  C9  UNL     1      -2.305  27.395  26.796  1.00  0.00     0.001 C 
HETATM   17  C10 UNL     1      -3.290  26.652  27.674  1.00  0.00     0.017 C 
HETATM   18  C11 UNL     1      -3.227  25.158  27.423  1.00  0.00     0.102 C 
BRANCH  18  19
HETATM   19  C12 UNL     1      -3.975  24.490  28.518  1.00  0.00     0.178 C 
HETATM   20  O1  UNL     1      -5.088  24.926  28.947  1.00  0.00    -0.648 OA
HETATM   21  O2  UNL     1      -3.464  23.340  29.123  1.00  0.00    -0.648 OA
ENDBRANCH  18  19
ENDBRANCH  10  11
ENDBRANCH   9  10
ENDBRANCH   4   9
BRANCH   8  22
HETATM   22  O11 UNL     1      -1.731  20.564  23.568  1.00  0.00    -0.390 OA
ATOM     23  H11 UNL     1      -2.507  20.843  23.097  1.00  0.00     0.210 HD
ENDBRANCH   8  22
BRANCH   7  24
HETATM   24  O10 UNL     1      -0.129  20.420  25.564  1.00  0.00    -0.388 OA
ATOM     25  H10 UNL     1       0.321  20.594  24.745  1.00  0.00     0.210 HD
ENDBRANCH   7  24
BRANCH   6  26
HETATM   26  O4  UNL     1      -1.672  17.509  26.885  1.00  0.00    -0.326 OA
BRANCH  26  27
HETATM   27  C14 UNL     1      -1.376  17.022  28.158  1.00  0.00     0.294 C 
HETATM   28  O5  UNL     1      -0.660  18.020  28.798  1.00  0.00    -0.348 OA
HETATM   29  C15 UNL     1      -0.110  17.617  30.000  1.00  0.00     0.179 C 
HETATM   30  C17 UNL     1       0.875  16.492  29.768  1.00  0.00     0.180 C 
HETATM   31  C18 UNL     1       0.236  15.319  29.099  1.00  0.00     0.183 C 
HETATM   32  C19 UNL     1      -0.640  15.739  27.970  1.00  0.00     0.204 C 
BRANCH  29  33
HETATM   33  C16 UNL     1      -1.131  17.239  31.036  1.00  0.00     0.198 C 
BRANCH  33  34
HETATM   34  O6  UNL     1      -0.527  16.613  32.105  1.00  0.00    -0.398 OA
ATOM     35  H6  UNL     1      -0.770  15.695  32.134  1.00  0.00     0.209 HD
ENDBRANCH  33  34
ENDBRANCH  29  33
BRANCH  30  36
HETATM   36  O7  UNL     1       1.836  17.000  28.865  1.00  0.00    -0.390 OA
ATOM     37  H7  UNL     1       2.121  16.259  28.344  1.00  0.00     0.210 HD
ENDBRANCH  30  36
BRANCH  31  38
HETATM   38  O8  UNL     1      -0.382  14.459  30.003  1.00  0.00    -0.390 OA
ATOM     39  H8  UNL     1      -0.577  14.879  30.832  1.00  0.00     0.210 HD
ENDBRANCH  31  38
BRANCH  32  40
HETATM   40  O9  UNL     1       0.077  15.707  26.762  1.00  0.00    -0.388 OA
ATOM     41  H9  UNL     1       0.908  16.163  26.824  1.00  0.00     0.210 HD
ENDBRANCH  32  40
ENDBRANCH  26  27
ENDBRANCH   6  26
TORSDOF 13
ENDMDL
