MODEL 1
REMARK VINA RESULT: -10.421033766      0.000      0.000
REMARK  11 active torsions:
REMARK  status: ('A' for Active; 'I' for Inactive)
REMARK    1  A    between atoms: C2_2  and  N1_5 
REMARK       I    between atoms: N1_5  and  C5_7 
REMARK    2  A    between atoms: C5_7  and  C6_9 
REMARK    3  A    between atoms: C7_15  and  S1_16 
REMARK    4  A    between atoms: S1_16  and  N4_19 
REMARK    5  A    between atoms: N4_19  and  C8_21 
REMARK    6  A    between atoms: C8_21  and  C9_26 
REMARK    7  A    between atoms: N5_22  and  O5_24 
REMARK       I    between atoms: C9_26  and  N6_28 
REMARK    8  A    between atoms: N6_28  and  C10_30 
REMARK    9  A    between atoms: C10_30  and  C11_31 
REMARK   10  A    between atoms: C14_34  and  C15_35 
REMARK   11  A    between atoms: C17_43  and  O7_44 
ROOT
HETATM    1  C8  UNL     1      -1.860  26.090  26.086  1.00  0.00     0.204 C 
HETATM    2  N5  UNL     1      -1.016  26.942  25.697  1.00  0.00    -0.248 N 
ATOM      3  H5  UNL     1      -0.559  26.749  24.806  1.00  0.00     0.196 HD
ENDROOT
BRANCH   1   4
HETATM    4  N4  UNL     1      -2.573  26.200  27.282  1.00  0.00    -0.259 N 
ATOM      5  H4  UNL     1      -2.575  25.375  27.881  1.00  0.00     0.180 HD
BRANCH   4   6
HETATM    6  S1  UNL     1      -3.447  27.561  27.864  1.00  0.00     0.284 S 
HETATM    7  O3  UNL     1      -3.356  28.594  26.730  1.00  0.00    -0.199 OA
HETATM    8  O4  UNL     1      -4.903  27.290  28.008  1.00  0.00    -0.199 OA
BRANCH   6   9
HETATM    9  C7  UNL     1      -2.662  28.230  29.230  1.00  0.00     0.206 A 
HETATM   10  C6  UNL     1      -2.759  27.982  30.545  1.00  0.00     0.166 A 
HETATM   11  N2  UNL     1      -1.845  28.803  31.145  1.00  0.00    -0.233 N 
HETATM   12  O2  UNL     1      -1.235  29.502  30.254  1.00  0.00    -0.155 OA
ATOM     13  H2  UNL     1      -1.671  28.853  32.149  1.00  0.00     0.197 HD
HETATM   14  N3  UNL     1      -1.693  29.191  29.110  1.00  0.00    -0.227 N 
ATOM     15  H3  UNL     1      -1.383  29.599  28.228  1.00  0.00     0.197 HD
BRANCH  10  16
HETATM   16  C5  UNL     1      -3.613  27.056  31.252  1.00  0.00     0.273 C 
HETATM   17  N1  UNL     1      -5.045  27.246  31.198  1.00  0.00    -0.347 N 
ATOM     18  H1  UNL     1      -5.405  28.032  30.657  1.00  0.00     0.163 HD
HETATM   19  O1  UNL     1      -3.228  26.080  31.929  1.00  0.00    -0.266 OA
BRANCH  17  20
HETATM   20  C2  UNL     1      -5.989  26.395  31.857  1.00  0.00     0.022 C 
HETATM   21  C1  UNL     1      -5.767  26.324  33.349  1.00  0.00     0.037 C 
HETATM   22  C3  UNL     1      -5.905  25.011  31.262  1.00  0.00     0.037 C 
HETATM   23  C4  UNL     1      -7.390  26.943  31.611  1.00  0.00     0.037 C 
ENDBRANCH  17  20
ENDBRANCH  10  16
ENDBRANCH   6   9
ENDBRANCH   4   6
ENDBRANCH   1   4
BRANCH   1  24
HETATM   24  C9  UNL     1      -2.118  24.953  25.207  1.00  0.00     0.288 C 
HETATM   25  O6  UNL     1      -1.656  24.949  24.035  1.00  0.00    -0.264 OA
HETATM   26  N6  UNL     1      -2.888  23.866  25.670  1.00  0.00    -0.350 N 
ATOM     27  H6  UNL     1      -3.247  23.892  26.625  1.00  0.00     0.163 HD
BRANCH  26  28
HETATM   28  C10 UNL     1      -3.190  22.715  24.843  1.00  0.00     0.162 C 
BRANCH  28  29
HETATM   29  C11 UNL     1      -2.613  21.504  25.433  1.00  0.00    -0.025 A 
HETATM   30  C12 UNL     1      -2.494  21.420  26.800  1.00  0.00     0.012 A 
HETATM   31  C13 UNL     1      -1.961  20.249  27.331  1.00  0.00     0.031 A 
HETATM   32  C14 UNL     1      -1.567  19.215  26.541  1.00  0.00     0.053 A 
HETATM   33  N9  UNL     1      -1.694  19.327  25.193  1.00  0.00    -0.364 N 
HETATM   34  C18 UNL     1      -2.204  20.437  24.636  1.00  0.00     0.097 A 
ATOM     35  H9  UNL     1      -1.398  18.556  24.595  1.00  0.00     0.165 HD
BRANCH  32  36
HETATM   36  C15 UNL     1      -1.035  17.955  27.099  1.00  0.00     0.086 A 
HETATM   37  S2  UNL     1      -1.415  17.309  28.671  1.00  0.00    -0.048 SA
HETATM   38  C16 UNL     1      -0.444  15.919  28.604  1.00  0.00     0.144 A 
HETATM   39  N7  UNL     1      -0.235  14.951  29.475  1.00  0.00    -0.380 N 
HETATM   40  N8  UNL     1       0.124  16.004  27.398  1.00  0.00    -0.317 N 
ATOM     41  H72 UNL     1      -0.669  14.887  30.396  1.00  0.00     0.158 HD
ATOM     42  H71 UNL     1       0.348  14.116  29.435  1.00  0.00     0.158 HD
HETATM   43  C17 UNL     1      -0.171  17.025  26.638  1.00  0.00     0.161 A 
ATOM     44  H8  UNL     1       0.773  15.286  27.077  1.00  0.00     0.170 HD
BRANCH  43  45
HETATM   45  O7  UNL     1       0.412  17.156  25.336  1.00  0.00    -0.345 OA
ATOM     46  H7  UNL     1       1.324  17.406  25.238  1.00  0.00     0.219 HD
ENDBRANCH  43  45
ENDBRANCH  32  36
ENDBRANCH  28  29
ENDBRANCH  26  28
ENDBRANCH   1  24
BRANCH   2  47
HETATM   47  O5  UNL     1      -0.648  28.075  26.322  1.00  0.00    -0.288 OA
ATOM     48  H5  UNL     1      -1.148  28.879  26.405  1.00  0.00     0.244 HD
ENDBRANCH   2  47
TORSDOF 11
ENDMDL
MODEL 2
REMARK VINA RESULT: -10.352376407      3.579      9.250
REMARK  11 active torsions:
REMARK  status: ('A' for Active; 'I' for Inactive)
REMARK    1  A    between atoms: C2_2  and  N1_5 
REMARK       I    between atoms: N1_5  and  C5_7 
REMARK    2  A    between atoms: C5_7  and  C6_9 
REMARK    3  A    between atoms: C7_15  and  S1_16 
REMARK    4  A    between atoms: S1_16  and  N4_19 
REMARK    5  A    between atoms: N4_19  and  C8_21 
REMARK    6  A    between atoms: C8_21  and  C9_26 
REMARK    7  A    between atoms: N5_22  and  O5_24 
REMARK       I    between atoms: C9_26  and  N6_28 
REMARK    8  A    between atoms: N6_28  and  C10_30 
REMARK    9  A    between atoms: C10_30  and  C11_31 
REMARK   10  A    between atoms: C14_34  and  C15_35 
REMARK   11  A    between atoms: C17_43  and  O7_44 
ROOT
HETATM    1  C8  UNL     1      -3.056  21.489  30.079  1.00  0.00     0.204 C 
HETATM    2  N5  UNL     1      -3.134  21.929  31.257  1.00  0.00    -0.248 N 
ATOM      3  H5  UNL     1      -3.773  22.711  31.405  1.00  0.00     0.196 HD
ENDROOT
BRANCH   1   4
HETATM    4  N4  UNL     1      -2.229  20.428  29.704  1.00  0.00    -0.259 N 
ATOM      5  H4  UNL     1      -1.547  20.625  28.972  1.00  0.00     0.180 HD
BRANCH   4   6
HETATM    6  S1  UNL     1      -2.224  18.827  30.331  1.00  0.00     0.284 S 
HETATM    7  O3  UNL     1      -1.263  18.883  31.529  1.00  0.00    -0.199 OA
HETATM    8  O4  UNL     1      -3.534  18.436  30.920  1.00  0.00    -0.199 OA
BRANCH   6   9
HETATM    9  C7  UNL     1      -1.553  17.744  29.188  1.00  0.00     0.206 A 
HETATM   10  C6  UNL     1      -1.234  17.877  27.891  1.00  0.00     0.166 A 
HETATM   11  N2  UNL     1      -0.690  16.678  27.520  1.00  0.00    -0.233 N 
HETATM   12  O2  UNL     1      -0.682  15.873  28.524  1.00  0.00    -0.155 OA
ATOM     13  H2  UNL     1      -0.342  16.455  26.588  1.00  0.00     0.197 HD
HETATM   14  N3  UNL     1      -1.185  16.469  29.526  1.00  0.00    -0.227 N 
ATOM     15  H3  UNL     1      -1.300  16.056  30.452  1.00  0.00     0.197 HD
BRANCH  10  16
HETATM   16  C5  UNL     1      -1.390  19.010  27.010  1.00  0.00     0.273 C 
HETATM   17  N1  UNL     1      -2.274  18.894  25.872  1.00  0.00    -0.347 N 
ATOM     18  H1  UNL     1      -2.760  18.010  25.731  1.00  0.00     0.163 HD
HETATM   19  O1  UNL     1      -0.819  20.114  27.133  1.00  0.00    -0.266 OA
BRANCH  17  20
HETATM   20  C2  UNL     1      -2.507  19.948  24.931  1.00  0.00     0.022 C 
HETATM   21  C1  UNL     1      -2.536  21.312  25.578  1.00  0.00     0.037 C 
HETATM   22  C3  UNL     1      -3.813  19.693  24.220  1.00  0.00     0.037 C 
HETATM   23  C4  UNL     1      -1.385  19.933  23.900  1.00  0.00     0.037 C 
ENDBRANCH  17  20
ENDBRANCH  10  16
ENDBRANCH   6   9
ENDBRANCH   4   6
ENDBRANCH   1   4
BRANCH   1  24
HETATM   24  C9  UNL     1      -3.910  22.113  29.073  1.00  0.00     0.288 C 
HETATM   25  O6  UNL     1      -4.608  21.395  28.310  1.00  0.00    -0.264 OA
HETATM   26  N6  UNL     1      -3.946  23.519  28.955  1.00  0.00    -0.350 N 
ATOM     27  H6  UNL     1      -3.375  24.079  29.588  1.00  0.00     0.163 HD
BRANCH  26  28
HETATM   28  C10 UNL     1      -4.763  24.198  27.969  1.00  0.00     0.162 C 
BRANCH  28  29
HETATM   29  C11 UNL     1      -3.958  24.534  26.792  1.00  0.00    -0.025 A 
HETATM   30  C12 UNL     1      -4.473  24.294  25.540  1.00  0.00     0.012 A 
HETATM   31  C13 UNL     1      -3.692  24.642  24.442  1.00  0.00     0.031 A 
HETATM   32  C14 UNL     1      -2.460  25.201  24.584  1.00  0.00     0.053 A 
HETATM   33  N9  UNL     1      -1.975  25.424  25.833  1.00  0.00    -0.364 N 
HETATM   34  C18 UNL     1      -2.693  25.106  26.921  1.00  0.00     0.097 A 
ATOM     35  H9  UNL     1      -1.051  25.841  25.946  1.00  0.00     0.165 HD
BRANCH  32  36
HETATM   36  C15 UNL     1      -1.641  25.608  23.424  1.00  0.00     0.086 A 
HETATM   37  S2  UNL     1      -1.706  24.886  21.841  1.00  0.00    -0.048 SA
HETATM   38  C16 UNL     1      -0.508  25.827  21.094  1.00  0.00     0.144 A 
HETATM   39  N7  UNL     1      -0.022  25.819  19.868  1.00  0.00    -0.380 N 
HETATM   40  N8  UNL     1      -0.112  26.646  22.073  1.00  0.00    -0.317 N 
ATOM     41  H72 UNL     1      -0.325  25.194  19.121  1.00  0.00     0.158 HD
ATOM     42  H71 UNL     1       0.698  26.385  19.420  1.00  0.00     0.158 HD
HETATM   43  C17 UNL     1      -0.679  26.539  23.246  1.00  0.00     0.161 A 
ATOM     44  H8  UNL     1       0.617  27.339  21.908  1.00  0.00     0.170 HD
BRANCH  43  45
HETATM   45  O7  UNL     1      -0.288  27.397  24.324  1.00  0.00    -0.345 OA
ATOM     46  H7  UNL     1      -0.609  28.290  24.371  1.00  0.00     0.219 HD
ENDBRANCH  43  45
ENDBRANCH  32  36
ENDBRANCH  28  29
ENDBRANCH  26  28
ENDBRANCH   1  24
BRANCH   2  47
HETATM   47  O5  UNL     1      -2.472  21.488  32.343  1.00  0.00    -0.288 OA
ATOM     48  H5  UNL     1      -2.548  21.805  33.235  1.00  0.00     0.244 HD
ENDBRANCH   2  47
TORSDOF 11
ENDMDL
MODEL 3
REMARK VINA RESULT: -10.224315482      0.961      1.037
REMARK  11 active torsions:
REMARK  status: ('A' for Active; 'I' for Inactive)
REMARK    1  A    between atoms: C2_2  and  N1_5 
REMARK       I    between atoms: N1_5  and  C5_7 
REMARK    2  A    between atoms: C5_7  and  C6_9 
REMARK    3  A    between atoms: C7_15  and  S1_16 
REMARK    4  A    between atoms: S1_16  and  N4_19 
REMARK    5  A    between atoms: N4_19  and  C8_21 
REMARK    6  A    between atoms: C8_21  and  C9_26 
REMARK    7  A    between atoms: N5_22  and  O5_24 
REMARK       I    between atoms: C9_26  and  N6_28 
REMARK    8  A    between atoms: N6_28  and  C10_30 
REMARK    9  A    between atoms: C10_30  and  C11_31 
REMARK   10  A    between atoms: C14_34  and  C15_35 
REMARK   11  A    between atoms: C17_43  and  O7_44 
ROOT
HETATM    1  C8  UNL     1      -2.425  26.372  26.113  1.00  0.00     0.204 C 
HETATM    2  N5  UNL     1      -1.201  26.671  26.077  1.00  0.00    -0.248 N 
ATOM      3  H5  UNL     1      -0.605  26.061  25.518  1.00  0.00     0.196 HD
ENDROOT
BRANCH   1   4
HETATM    4  N4  UNL     1      -3.377  27.099  26.832  1.00  0.00    -0.259 N 
ATOM      5  H4  UNL     1      -3.830  27.864  26.333  1.00  0.00     0.180 HD
BRANCH   4   6
HETATM    6  S1  UNL     1      -3.876  26.856  28.459  1.00  0.00     0.284 S 
HETATM    7  O3  UNL     1      -5.371  27.210  28.463  1.00  0.00    -0.199 OA
HETATM    8  O4  UNL     1      -3.829  25.426  28.868  1.00  0.00    -0.199 OA
BRANCH   6   9
HETATM    9  C7  UNL     1      -3.085  27.967  29.494  1.00  0.00     0.206 A 
HETATM   10  C6  UNL     1      -3.292  28.321  30.772  1.00  0.00     0.166 A 
HETATM   11  N2  UNL     1      -2.309  29.225  31.068  1.00  0.00    -0.233 N 
HETATM   12  O2  UNL     1      -1.559  29.407  30.039  1.00  0.00    -0.155 OA
ATOM     13  H2  UNL     1      -2.188  29.685  31.970  1.00  0.00     0.197 HD
HETATM   14  N3  UNL     1      -1.989  28.681  29.090  1.00  0.00    -0.227 N 
ATOM     15  H3  UNL     1      -1.576  28.636  28.158  1.00  0.00     0.197 HD
BRANCH  10  16
HETATM   16  C5  UNL     1      -4.304  27.881  31.704  1.00  0.00     0.273 C 
HETATM   17  N1  UNL     1      -4.843  26.546  31.571  1.00  0.00    -0.347 N 
ATOM     18  H1  UNL     1      -4.486  25.958  30.818  1.00  0.00     0.163 HD
HETATM   19  O1  UNL     1      -4.777  28.558  32.641  1.00  0.00    -0.266 OA
BRANCH  17  20
HETATM   20  C2  UNL     1      -5.848  26.001  32.432  1.00  0.00     0.022 C 
HETATM   21  C1  UNL     1      -5.526  26.189  33.896  1.00  0.00     0.037 C 
HETATM   22  C3  UNL     1      -6.011  24.532  32.130  1.00  0.00     0.037 C 
HETATM   23  C4  UNL     1      -7.168  26.705  32.142  1.00  0.00     0.037 C 
ENDBRANCH  17  20
ENDBRANCH  10  16
ENDBRANCH   6   9
ENDBRANCH   4   6
ENDBRANCH   1   4
BRANCH   1  24
HETATM   24  C9  UNL     1      -2.857  25.222  25.325  1.00  0.00     0.288 C 
HETATM   25  O6  UNL     1      -2.827  25.276  24.067  1.00  0.00    -0.264 OA
HETATM   26  N6  UNL     1      -3.312  24.055  25.974  1.00  0.00    -0.350 N 
ATOM     27  H6  UNL     1      -3.322  24.034  26.994  1.00  0.00     0.163 HD
BRANCH  26  28
HETATM   28  C10 UNL     1      -3.766  22.885  25.249  1.00  0.00     0.162 C 
BRANCH  28  29
HETATM   29  C11 UNL     1      -3.061  21.692  25.724  1.00  0.00    -0.025 A 
HETATM   30  C12 UNL     1      -2.445  21.725  26.953  1.00  0.00     0.012 A 
HETATM   31  C13 UNL     1      -1.801  20.569  27.384  1.00  0.00     0.031 A 
HETATM   32  C14 UNL     1      -1.771  19.438  26.630  1.00  0.00     0.053 A 
HETATM   33  N9  UNL     1      -2.385  19.434  25.418  1.00  0.00    -0.364 N 
HETATM   34  C18 UNL     1      -3.020  20.525  24.962  1.00  0.00     0.097 A 
ATOM     35  H9  UNL     1      -2.364  18.590  24.847  1.00  0.00     0.165 HD
BRANCH  32  36
HETATM   36  C15 UNL     1      -1.121  18.197  27.098  1.00  0.00     0.086 A 
HETATM   37  S2  UNL     1      -1.318  17.488  28.677  1.00  0.00    -0.048 SA
HETATM   38  C16 UNL     1      -0.282  16.159  28.478  1.00  0.00     0.144 A 
HETATM   39  N7  UNL     1       0.060  15.182  29.295  1.00  0.00    -0.380 N 
HETATM   40  N8  UNL     1       0.166  16.308  27.228  1.00  0.00    -0.317 N 
ATOM     41  H72 UNL     1      -0.283  15.069  30.250  1.00  0.00     0.158 HD
ATOM     42  H71 UNL     1       0.682  14.383  29.176  1.00  0.00     0.158 HD
HETATM   43  C17 UNL     1      -0.253  17.331  26.531  1.00  0.00     0.161 A 
ATOM     44  H8  UNL     1       0.821  15.638  26.827  1.00  0.00     0.170 HD
BRANCH  43  45
HETATM   45  O7  UNL     1       0.198  17.529  25.186  1.00  0.00    -0.345 OA
ATOM     46  H7  UNL     1       1.095  17.790  25.012  1.00  0.00     0.219 HD
ENDBRANCH  43  45
ENDBRANCH  32  36
ENDBRANCH  28  29
ENDBRANCH  26  28
ENDBRANCH   1  24
BRANCH   2  47
HETATM   47  O5  UNL     1      -0.591  27.700  26.692  1.00  0.00    -0.288 OA
ATOM     48  H5  UNL     1       0.292  27.724  27.042  1.00  0.00     0.244 HD
ENDBRANCH   2  47
TORSDOF 11
ENDMDL
MODEL 4
REMARK VINA RESULT: -10.217329967      3.480      6.296
REMARK  11 active torsions:
REMARK  status: ('A' for Active; 'I' for Inactive)
REMARK    1  A    between atoms: C2_2  and  N1_5 
REMARK       I    between atoms: N1_5  and  C5_7 
REMARK    2  A    between atoms: C5_7  and  C6_9 
REMARK    3  A    between atoms: C7_15  and  S1_16 
REMARK    4  A    between atoms: S1_16  and  N4_19 
REMARK    5  A    between atoms: N4_19  and  C8_21 
REMARK    6  A    between atoms: C8_21  and  C9_26 
REMARK    7  A    between atoms: N5_22  and  O5_24 
REMARK       I    between atoms: C9_26  and  N6_28 
REMARK    8  A    between atoms: N6_28  and  C10_30 
REMARK    9  A    between atoms: C10_30  and  C11_31 
REMARK   10  A    between atoms: C14_34  and  C15_35 
REMARK   11  A    between atoms: C17_43  and  O7_44 
ROOT
HETATM    1  C8  UNL     1      -3.582  19.758  24.900  1.00  0.00     0.204 C 
HETATM    2  N5  UNL     1      -4.306  19.418  23.926  1.00  0.00    -0.248 N 
ATOM      3  H5  UNL     1      -3.916  18.716  23.298  1.00  0.00     0.196 HD
ENDROOT
BRANCH   1   4
HETATM    4  N4  UNL     1      -3.963  20.708  25.852  1.00  0.00    -0.259 N 
ATOM      5  H4  UNL     1      -4.896  20.599  26.246  1.00  0.00     0.180 HD
BRANCH   4   6
HETATM    6  S1  UNL     1      -3.044  22.038  26.436  1.00  0.00     0.284 S 
HETATM    7  O3  UNL     1      -4.014  22.810  27.343  1.00  0.00    -0.199 OA
HETATM    8  O4  UNL     1      -1.938  21.619  27.340  1.00  0.00    -0.199 OA
BRANCH   6   9
HETATM    9  C7  UNL     1      -2.615  23.076  25.144  1.00  0.00     0.206 A 
HETATM   10  C6  UNL     1      -2.397  24.399  25.078  1.00  0.00     0.166 A 
HETATM   11  N2  UNL     1      -2.041  24.649  23.781  1.00  0.00    -0.233 N 
HETATM   12  O2  UNL     1      -2.044  23.553  23.108  1.00  0.00    -0.155 OA
ATOM     13  H2  UNL     1      -1.807  25.568  23.405  1.00  0.00     0.197 HD
HETATM   14  N3  UNL     1      -2.380  22.603  23.881  1.00  0.00    -0.227 N 
ATOM     15  H3  UNL     1      -2.463  21.626  23.600  1.00  0.00     0.197 HD
BRANCH  10  16
HETATM   16  C5  UNL     1      -2.488  25.406  26.109  1.00  0.00     0.273 C 
HETATM   17  N1  UNL     1      -3.788  25.747  26.640  1.00  0.00    -0.347 N 
ATOM     18  H1  UNL     1      -4.602  25.261  26.264  1.00  0.00     0.163 HD
HETATM   19  O1  UNL     1      -1.527  26.033  26.603  1.00  0.00    -0.266 OA
BRANCH  17  20
HETATM   20  C2  UNL     1      -4.002  26.728  27.661  1.00  0.00     0.022 C 
HETATM   21  C1  UNL     1      -3.211  27.994  27.428  1.00  0.00     0.037 C 
HETATM   22  C3  UNL     1      -3.634  26.134  28.998  1.00  0.00     0.037 C 
HETATM   23  C4  UNL     1      -5.482  27.089  27.683  1.00  0.00     0.037 C 
ENDBRANCH  17  20
ENDBRANCH  10  16
ENDBRANCH   6   9
ENDBRANCH   4   6
ENDBRANCH   1   4
BRANCH   1  24
HETATM   24  C9  UNL     1      -2.295  19.085  25.045  1.00  0.00     0.288 C 
HETATM   25  O6  UNL     1      -1.476  19.085  24.088  1.00  0.00    -0.264 OA
HETATM   26  N6  UNL     1      -1.974  18.430  26.253  1.00  0.00    -0.350 N 
ATOM     27  H6  UNL     1      -2.653  18.449  27.015  1.00  0.00     0.163 HD
BRANCH  26  28
HETATM   28  C10 UNL     1      -0.720  17.734  26.454  1.00  0.00     0.162 C 
BRANCH  28  29
HETATM   29  C11 UNL     1      -0.521  17.453  27.879  1.00  0.00    -0.025 A 
HETATM   30  C12 UNL     1       0.619  16.797  28.277  1.00  0.00     0.012 A 
HETATM   31  C13 UNL     1       0.788  16.564  29.639  1.00  0.00     0.031 A 
HETATM   32  C14 UNL     1      -0.132  16.964  30.557  1.00  0.00     0.053 A 
HETATM   33  N9  UNL     1      -1.251  17.608  30.134  1.00  0.00    -0.364 N 
HETATM   34  C18 UNL     1      -1.456  17.856  28.831  1.00  0.00     0.097 A 
ATOM     35  H9  UNL     1      -1.946  17.908  30.818  1.00  0.00     0.165 HD
BRANCH  32  36
HETATM   36  C15 UNL     1       0.058  16.753  32.006  1.00  0.00     0.086 A 
HETATM   37  S2  UNL     1       0.654  17.943  33.129  1.00  0.00    -0.048 SA
HETATM   38  C16 UNL     1       0.622  16.992  34.533  1.00  0.00     0.144 A 
HETATM   39  N7  UNL     1       0.954  17.256  35.782  1.00  0.00    -0.380 N 
HETATM   40  N8  UNL     1       0.162  15.817  34.093  1.00  0.00    -0.317 N 
ATOM     41  H72 UNL     1       1.305  18.154  36.118  1.00  0.00     0.158 HD
ATOM     42  H71 UNL     1       0.935  16.684  36.626  1.00  0.00     0.158 HD
HETATM   43  C17 UNL     1      -0.123  15.693  32.823  1.00  0.00     0.161 A 
ATOM     44  H8  UNL     1       0.036  15.034  34.734  1.00  0.00     0.170 HD
BRANCH  43  45
HETATM   45  O7  UNL     1      -0.621  14.453  32.307  1.00  0.00    -0.345 OA
ATOM     46  H7  UNL     1      -1.010  13.810  32.888  1.00  0.00     0.219 HD
ENDBRANCH  43  45
ENDBRANCH  32  36
ENDBRANCH  28  29
ENDBRANCH  26  28
ENDBRANCH   1  24
BRANCH   2  47
HETATM   47  O5  UNL     1      -5.533  19.876  23.618  1.00  0.00    -0.288 OA
ATOM     48  H5  UNL     1      -5.898  20.015  22.752  1.00  0.00     0.244 HD
ENDBRANCH   2  47
TORSDOF 11
ENDMDL
MODEL 5
REMARK VINA RESULT: -10.120200515      1.609      2.065
REMARK  11 active torsions:
REMARK  status: ('A' for Active; 'I' for Inactive)
REMARK    1  A    between atoms: C2_2  and  N1_5 
REMARK       I    between atoms: N1_5  and  C5_7 
REMARK    2  A    between atoms: C5_7  and  C6_9 
REMARK    3  A    between atoms: C7_15  and  S1_16 
REMARK    4  A    between atoms: S1_16  and  N4_19 
REMARK    5  A    between atoms: N4_19  and  C8_21 
REMARK    6  A    between atoms: C8_21  and  C9_26 
REMARK    7  A    between atoms: N5_22  and  O5_24 
REMARK       I    between atoms: C9_26  and  N6_28 
REMARK    8  A    between atoms: N6_28  and  C10_30 
REMARK    9  A    between atoms: C10_30  and  C11_31 
REMARK   10  A    between atoms: C14_34  and  C15_35 
REMARK   11  A    between atoms: C17_43  and  O7_44 
ROOT
HETATM    1  C8  UNL     1      -1.822  25.222  24.095  1.00  0.00     0.204 C 
HETATM    2  N5  UNL     1      -0.744  25.826  23.842  1.00  0.00    -0.248 N 
ATOM      3  H5  UNL     1      -0.055  25.308  23.298  1.00  0.00     0.196 HD
ENDROOT
BRANCH   1   4
HETATM    4  N4  UNL     1      -2.868  25.784  24.830  1.00  0.00    -0.259 N 
ATOM      5  H4  UNL     1      -3.548  26.329  24.300  1.00  0.00     0.180 HD
BRANCH   4   6
HETATM    6  S1  UNL     1      -3.147  25.666  26.523  1.00  0.00     0.284 S 
HETATM    7  O3  UNL     1      -4.675  25.598  26.660  1.00  0.00    -0.199 OA
HETATM    8  O4  UNL     1      -2.662  24.380  27.096  1.00  0.00    -0.199 OA
BRANCH   6   9
HETATM    9  C7  UNL     1      -2.626  27.092  27.311  1.00  0.00     0.206 A 
HETATM   10  C6  UNL     1      -2.816  27.564  28.554  1.00  0.00     0.166 A 
HETATM   11  N2  UNL     1      -2.114  28.736  28.615  1.00  0.00    -0.233 N 
HETATM   12  O2  UNL     1      -1.539  28.960  27.487  1.00  0.00    -0.155 OA
ATOM     13  H2  UNL     1      -2.055  29.341  29.434  1.00  0.00     0.197 HD
HETATM   14  N3  UNL     1      -1.820  28.010  26.692  1.00  0.00    -0.227 N 
ATOM     15  H3  UNL     1      -1.492  27.941  25.728  1.00  0.00     0.197 HD
BRANCH  10  16
HETATM   16  C5  UNL     1      -3.575  27.007  29.649  1.00  0.00     0.273 C 
HETATM   17  N1  UNL     1      -3.959  25.615  29.597  1.00  0.00    -0.347 N 
ATOM     18  H1  UNL     1      -3.678  25.070  28.782  1.00  0.00     0.163 HD
HETATM   19  O1  UNL     1      -3.946  27.627  30.668  1.00  0.00    -0.266 OA
BRANCH  17  20
HETATM   20  C2  UNL     1      -4.711  24.955  30.621  1.00  0.00     0.022 C 
HETATM   21  C1  UNL     1      -5.946  25.724  31.026  1.00  0.00     0.037 C 
HETATM   22  C3  UNL     1      -3.824  24.743  31.824  1.00  0.00     0.037 C 
HETATM   23  C4  UNL     1      -5.149  23.592  30.098  1.00  0.00     0.037 C 
ENDBRANCH  17  20
ENDBRANCH  10  16
ENDBRANCH   6   9
ENDBRANCH   4   6
ENDBRANCH   1   4
BRANCH   1  24
HETATM   24  C9  UNL     1      -1.978  23.876  23.551  1.00  0.00     0.288 C 
HETATM   25  O6  UNL     1      -1.352  23.544  22.511  1.00  0.00    -0.264 OA
HETATM   26  N6  UNL     1      -2.836  22.955  24.189  1.00  0.00    -0.350 N 
ATOM     27  H6  UNL     1      -3.329  23.248  25.033  1.00  0.00     0.163 HD
BRANCH  26  28
HETATM   28  C10 UNL     1      -3.044  21.610  23.691  1.00  0.00     0.162 C 
BRANCH  28  29
HETATM   29  C11 UNL     1      -2.481  20.633  24.626  1.00  0.00    -0.025 A 
HETATM   30  C12 UNL     1      -2.773  20.745  25.965  1.00  0.00     0.012 A 
HETATM   31  C13 UNL     1      -2.239  19.790  26.825  1.00  0.00     0.031 A 
HETATM   32  C14 UNL     1      -1.453  18.776  26.374  1.00  0.00     0.053 A 
HETATM   33  N9  UNL     1      -1.178  18.691  25.047  1.00  0.00    -0.364 N 
HETATM   34  C18 UNL     1      -1.673  19.589  24.180  1.00  0.00     0.097 A 
ATOM     35  H9  UNL     1      -0.587  17.935  24.703  1.00  0.00     0.165 HD
BRANCH  32  36
HETATM   36  C15 UNL     1      -0.913  17.737  27.276  1.00  0.00     0.086 A 
HETATM   37  S2  UNL     1      -1.274  17.588  28.973  1.00  0.00    -0.048 SA
HETATM   38  C16 UNL     1      -0.302  16.240  29.311  1.00  0.00     0.144 A 
HETATM   39  N7  UNL     1      -0.082  15.574  30.428  1.00  0.00    -0.380 N 
HETATM   40  N8  UNL     1       0.252  15.961  28.128  1.00  0.00    -0.317 N 
ATOM     41  H72 UNL     1      -0.505  15.787  31.332  1.00  0.00     0.158 HD
ATOM     42  H71 UNL     1       0.503  14.763  30.632  1.00  0.00     0.158 HD
HETATM   43  C17 UNL     1      -0.052  16.711  27.102  1.00  0.00     0.161 A 
ATOM     44  H8  UNL     1       0.899  15.179  28.027  1.00  0.00     0.170 HD
BRANCH  43  45
HETATM   45  O7  UNL     1       0.516  16.448  25.814  1.00  0.00    -0.345 OA
ATOM     46  H7  UNL     1      -0.039  16.192  25.085  1.00  0.00     0.219 HD
ENDBRANCH  43  45
ENDBRANCH  32  36
ENDBRANCH  28  29
ENDBRANCH  26  28
ENDBRANCH   1  24
BRANCH   2  47
HETATM   47  O5  UNL     1      -0.399  27.074  24.208  1.00  0.00    -0.288 OA
ATOM     48  H5  UNL     1       0.329  27.591  23.886  1.00  0.00     0.244 HD
ENDBRANCH   2  47
TORSDOF 11
ENDMDL
