MODEL 1
REMARK VINA RESULT: -8.091453866      0.000      0.000
REMARK  15 active torsions:
REMARK  status: ('A' for Active; 'I' for Inactive)
REMARK    1  A    between atoms: O1_2  and  C2_3 
REMARK    2  A    between atoms: C4_5  and  C5_6 
REMARK    3  A    between atoms: C6_7  and  O2_8 
REMARK    4  A    between atoms: C8_11  and  O3_12 
REMARK    5  A    between atoms: C12_16  and  O4_17 
REMARK    6  A    between atoms: O4_17  and  C13_18 
REMARK    7  A    between atoms: C13_18  and  C14_20 
REMARK       I    between atoms: C14_20  and  N1_22 
REMARK    8  A    between atoms: N1_22  and  N2_24 
REMARK    9  A    between atoms: C15_27  and  O7_28 
REMARK   10  A    between atoms: O7_28  and  C16_29 
REMARK   11  A    between atoms: C18_32  and  C19_33 
REMARK   12  A    between atoms: C19_33  and  O9_34 
REMARK   13  A    between atoms: C19_33  and  C20_36 
REMARK   14  A    between atoms: C23_41  and  O12_42 
REMARK   15  A    between atoms: C24_44  and  O13_45 
ROOT
HETATM    1  C5  UNL     1      -2.900  24.951  32.400  1.00  0.00     0.017 A 
HETATM    2  C6  UNL     1      -2.241  24.030  33.224  1.00  0.00     0.080 A 
HETATM    3  C7  UNL     1      -2.245  22.701  32.927  1.00  0.00     0.074 A 
HETATM    4  C8  UNL     1      -2.924  22.305  31.777  1.00  0.00     0.077 A 
HETATM    5  C10 UNL     1      -3.555  23.174  30.981  1.00  0.00    -0.014 A 
HETATM    6  C11 UNL     1      -3.572  24.560  31.266  1.00  0.00    -0.003 A 
HETATM    7  C12 UNL     1      -4.324  25.444  30.355  1.00  0.00     0.197 C 
HETATM    8  C15 UNL     1      -4.123  25.129  28.896  1.00  0.00     0.173 C 
HETATM    9  C18 UNL     1      -3.479  23.803  28.742  1.00  0.00     0.062 C 
HETATM   10  C21 UNL     1      -4.225  22.847  29.712  1.00  0.00     0.052 C 
ENDROOT
BRANCH   1  11
HETATM   11  C4  UNL     1      -2.803  26.350  32.772  1.00  0.00    -0.017 A 
HETATM   12  C3  UNL     1      -3.753  27.007  33.517  1.00  0.00     0.052 A 
HETATM   13  C2  UNL     1      -3.669  28.341  33.839  1.00  0.00     0.104 A 
HETATM   14  C24 UNL     1      -2.559  29.041  33.379  1.00  0.00     0.132 A 
HETATM   15  C23 UNL     1      -1.573  28.441  32.626  1.00  0.00     0.102 A 
HETATM   16  C22 UNL     1      -1.729  27.085  32.340  1.00  0.00     0.052 A 
BRANCH  13  17
HETATM   17  O1  UNL     1      -4.648  28.971  34.595  1.00  0.00    -0.353 OA
HETATM   18  C1  UNL     1      -5.970  29.144  34.124  1.00  0.00     0.210 C 
ENDBRANCH  13  17
BRANCH  14  19
HETATM   19  O13 UNL     1      -2.482  30.369  33.703  1.00  0.00    -0.356 OA
ATOM     20  H13 UNL     1      -1.670  30.817  33.496  1.00  0.00     0.218 HD
ENDBRANCH  14  19
BRANCH  15  21
HETATM   21  O12 UNL     1      -0.456  29.127  32.158  1.00  0.00    -0.358 OA
ATOM     22  H12 UNL     1       0.149  29.526  32.773  1.00  0.00     0.217 HD
ENDBRANCH  15  21
ENDBRANCH   1  11
BRANCH   2  23
HETATM   23  O2  UNL     1      -1.574  24.494  34.365  1.00  0.00    -0.360 OA
ATOM     24  H2  UNL     1      -1.271  25.394  34.389  1.00  0.00     0.217 HD
ENDBRANCH   2  23
BRANCH   7  25
HETATM   25  O4  UNL     1      -5.641  25.446  30.778  1.00  0.00    -0.301 OA
BRANCH  25  26
HETATM   26  C13 UNL     1      -6.367  26.521  31.167  1.00  0.00     0.353 C 
HETATM   27  O5  UNL     1      -5.893  27.611  30.820  1.00  0.00    -0.254 OA
BRANCH  26  28
HETATM   28  C14 UNL     1      -7.598  26.487  31.925  1.00  0.00     0.334 C 
HETATM   29  O6  UNL     1      -7.749  25.584  32.781  1.00  0.00    -0.260 OA
HETATM   30  N1  UNL     1      -8.607  27.441  31.716  1.00  0.00    -0.268 N 
ATOM     31  H1  UNL     1      -8.460  28.167  31.014  1.00  0.00     0.190 HD
BRANCH  30  32
HETATM   32  N2  UNL     1      -9.813  27.433  32.437  1.00  0.00    -0.342 N 
ATOM     33  H22 UNL     1     -10.295  26.540  32.546  1.00  0.00     0.176 HD
ATOM     34  H21 UNL     1     -10.212  28.278  32.846  1.00  0.00     0.176 HD
ENDBRANCH  30  32
ENDBRANCH  26  28
ENDBRANCH  25  26
ENDBRANCH   7  25
BRANCH   4  35
HETATM   35  O3  UNL     1      -2.953  20.967  31.439  1.00  0.00    -0.355 OA
HETATM   36  C9  UNL     1      -1.911  20.134  31.891  1.00  0.00     0.210 C 
ENDBRANCH   4  35
BRANCH   8  37
HETATM   37  O7  UNL     1      -3.355  26.094  28.239  1.00  0.00    -0.313 OA
BRANCH  37  38
HETATM   38  C16 UNL     1      -3.834  27.294  27.719  1.00  0.00     0.255 C 
HETATM   39  C17 UNL     1      -2.890  28.348  27.309  1.00  0.00     0.126 C 
HETATM   40  O8  UNL     1      -5.075  27.383  27.641  1.00  0.00    -0.266 OA
ENDBRANCH  37  38
ENDBRANCH   8  37
BRANCH   9  41
HETATM   41  C19 UNL     1      -3.438  23.244  27.337  1.00  0.00     0.225 C 
BRANCH  41  42
HETATM   42  O9  UNL     1      -2.435  24.028  26.691  1.00  0.00    -0.384 OA
ATOM     43  H9  UNL     1      -2.857  24.870  26.562  1.00  0.00     0.210 HD
ENDBRANCH  41  42
BRANCH  41  44
HETATM   44  C20 UNL     1      -2.879  21.886  27.376  1.00  0.00     0.203 C 
HETATM   45  O10 UNL     1      -3.435  20.909  26.799  1.00  0.00    -0.646 OA
HETATM   46  O11 UNL     1      -1.681  21.672  28.086  1.00  0.00    -0.646 OA
ENDBRANCH  41  44
ENDBRANCH   9  41
TORSDOF 15
ENDMDL
MODEL 2
REMARK VINA RESULT: -7.822286705      3.662      7.915
REMARK  15 active torsions:
REMARK  status: ('A' for Active; 'I' for Inactive)
REMARK    1  A    between atoms: O1_2  and  C2_3 
REMARK    2  A    between atoms: C4_5  and  C5_6 
REMARK    3  A    between atoms: C6_7  and  O2_8 
REMARK    4  A    between atoms: C8_11  and  O3_12 
REMARK    5  A    between atoms: C12_16  and  O4_17 
REMARK    6  A    between atoms: O4_17  and  C13_18 
REMARK    7  A    between atoms: C13_18  and  C14_20 
REMARK       I    between atoms: C14_20  and  N1_22 
REMARK    8  A    between atoms: N1_22  and  N2_24 
REMARK    9  A    between atoms: C15_27  and  O7_28 
REMARK   10  A    between atoms: O7_28  and  C16_29 
REMARK   11  A    between atoms: C18_32  and  C19_33 
REMARK   12  A    between atoms: C19_33  and  O9_34 
REMARK   13  A    between atoms: C19_33  and  C20_36 
REMARK   14  A    between atoms: C23_41  and  O12_42 
REMARK   15  A    between atoms: C24_44  and  O13_45 
ROOT
HETATM    1  C5  UNL     1      -2.330  26.431  26.623  1.00  0.00     0.017 A 
HETATM    2  C6  UNL     1      -1.644  27.639  26.806  1.00  0.00     0.080 A 
HETATM    3  C7  UNL     1      -1.868  28.407  27.907  1.00  0.00     0.074 A 
HETATM    4  C8  UNL     1      -2.800  27.942  28.833  1.00  0.00     0.077 A 
HETATM    5  C10 UNL     1      -3.460  26.791  28.670  1.00  0.00    -0.014 A 
HETATM    6  C11 UNL     1      -3.251  25.972  27.535  1.00  0.00    -0.003 A 
HETATM    7  C12 UNL     1      -4.048  24.737  27.417  1.00  0.00     0.197 C 
HETATM    8  C15 UNL     1      -4.173  23.966  28.703  1.00  0.00     0.173 C 
HETATM    9  C18 UNL     1      -3.738  24.803  29.847  1.00  0.00     0.062 C 
HETATM   10  C21 UNL     1      -4.396  26.193  29.636  1.00  0.00     0.052 C 
ENDROOT
BRANCH   1  11
HETATM   11  C4  UNL     1      -1.992  25.658  25.443  1.00  0.00    -0.017 A 
HETATM   12  C3  UNL     1      -1.384  26.193  24.331  1.00  0.00     0.052 A 
HETATM   13  C2  UNL     1      -1.094  25.460  23.204  1.00  0.00     0.104 A 
HETATM   14  C24 UNL     1      -1.442  24.114  23.210  1.00  0.00     0.132 A 
HETATM   15  C23 UNL     1      -2.053  23.518  24.292  1.00  0.00     0.102 A 
HETATM   16  C22 UNL     1      -2.315  24.327  25.398  1.00  0.00     0.052 A 
BRANCH  13  17
HETATM   17  O1  UNL     1      -0.479  26.035  22.100  1.00  0.00    -0.353 OA
HETATM   18  C1  UNL     1      -1.148  26.201  20.865  1.00  0.00     0.210 C 
ENDBRANCH  13  17
BRANCH  14  19
HETATM   19  O13 UNL     1      -1.151  23.390  22.085  1.00  0.00    -0.356 OA
ATOM     20  H13 UNL     1      -1.012  22.457  22.195  1.00  0.00     0.218 HD
ENDBRANCH  14  19
BRANCH  15  21
HETATM   21  O12 UNL     1      -2.406  22.173  24.314  1.00  0.00    -0.358 OA
ATOM     22  H12 UNL     1      -2.100  21.612  25.018  1.00  0.00     0.217 HD
ENDBRANCH  15  21
ENDBRANCH   1  11
BRANCH   2  23
HETATM   23  O2  UNL     1      -0.718  28.049  25.838  1.00  0.00    -0.360 OA
ATOM     24  H2  UNL     1      -0.715  27.618  24.991  1.00  0.00     0.217 HD
ENDBRANCH   2  23
BRANCH   7  25
HETATM   25  O4  UNL     1      -5.250  25.079  26.821  1.00  0.00    -0.301 OA
BRANCH  25  26
HETATM   26  C13 UNL     1      -5.915  24.376  25.874  1.00  0.00     0.353 C 
HETATM   27  O5  UNL     1      -6.515  25.073  25.045  1.00  0.00    -0.254 OA
BRANCH  26  28
HETATM   28  C14 UNL     1      -5.972  22.935  25.768  1.00  0.00     0.334 C 
HETATM   29  O6  UNL     1      -6.782  22.313  26.496  1.00  0.00    -0.260 OA
HETATM   30  N1  UNL     1      -5.146  22.237  24.872  1.00  0.00    -0.268 N 
ATOM     31  H1  UNL     1      -4.496  22.766  24.289  1.00  0.00     0.190 HD
BRANCH  30  32
HETATM   32  N2  UNL     1      -5.179  20.838  24.748  1.00  0.00    -0.342 N 
ATOM     33  H22 UNL     1      -5.889  20.433  24.137  1.00  0.00     0.176 HD
ATOM     34  H21 UNL     1      -4.527  20.229  25.242  1.00  0.00     0.176 HD
ENDBRANCH  30  32
ENDBRANCH  26  28
ENDBRANCH  25  26
ENDBRANCH   7  25
BRANCH   4  35
HETATM   35  O3  UNL     1      -3.058  28.690  29.964  1.00  0.00    -0.355 OA
HETATM   36  C9  UNL     1      -2.106  28.695  31.002  1.00  0.00     0.210 C 
ENDBRANCH   4  35
BRANCH   8  37
HETATM   37  O7  UNL     1      -3.432  22.781  28.692  1.00  0.00    -0.313 OA
BRANCH  37  38
HETATM   38  C16 UNL     1      -3.892  21.542  28.250  1.00  0.00     0.255 C 
HETATM   39  C17 UNL     1      -4.874  20.791  29.052  1.00  0.00     0.126 C 
HETATM   40  O8  UNL     1      -3.416  21.153  27.166  1.00  0.00    -0.266 OA
ENDBRANCH  37  38
ENDBRANCH   8  37
BRANCH   9  41
HETATM   41  C19 UNL     1      -4.038  24.252  31.224  1.00  0.00     0.225 C 
BRANCH  41  42
HETATM   42  O9  UNL     1      -3.132  23.156  31.352  1.00  0.00    -0.384 OA
ATOM     43  H9  UNL     1      -3.541  22.466  30.843  1.00  0.00     0.210 HD
ENDBRANCH  41  42
BRANCH  41  44
HETATM   44  C20 UNL     1      -3.594  25.221  32.236  1.00  0.00     0.203 C 
HETATM   45  O10 UNL     1      -2.373  25.474  32.438  1.00  0.00    -0.646 OA
HETATM   46  O11 UNL     1      -4.570  25.885  33.005  1.00  0.00    -0.646 OA
ENDBRANCH  41  44
ENDBRANCH   9  41
TORSDOF 15
ENDMDL
MODEL 3
REMARK VINA RESULT: -7.813798384      1.814      2.681
REMARK  15 active torsions:
REMARK  status: ('A' for Active; 'I' for Inactive)
REMARK    1  A    between atoms: O1_2  and  C2_3 
REMARK    2  A    between atoms: C4_5  and  C5_6 
REMARK    3  A    between atoms: C6_7  and  O2_8 
REMARK    4  A    between atoms: C8_11  and  O3_12 
REMARK    5  A    between atoms: C12_16  and  O4_17 
REMARK    6  A    between atoms: O4_17  and  C13_18 
REMARK    7  A    between atoms: C13_18  and  C14_20 
REMARK       I    between atoms: C14_20  and  N1_22 
REMARK    8  A    between atoms: N1_22  and  N2_24 
REMARK    9  A    between atoms: C15_27  and  O7_28 
REMARK   10  A    between atoms: O7_28  and  C16_29 
REMARK   11  A    between atoms: C18_32  and  C19_33 
REMARK   12  A    between atoms: C19_33  and  O9_34 
REMARK   13  A    between atoms: C19_33  and  C20_36 
REMARK   14  A    between atoms: C23_41  and  O12_42 
REMARK   15  A    between atoms: C24_44  and  O13_45 
ROOT
HETATM    1  C5  UNL     1      -2.705  23.270  32.350  1.00  0.00     0.017 A 
HETATM    2  C6  UNL     1      -2.002  22.141  32.790  1.00  0.00     0.080 A 
HETATM    3  C7  UNL     1      -2.038  20.978  32.083  1.00  0.00     0.074 A 
HETATM    4  C8  UNL     1      -2.795  20.965  30.913  1.00  0.00     0.077 A 
HETATM    5  C10 UNL     1      -3.468  22.036  30.482  1.00  0.00    -0.014 A 
HETATM    6  C11 UNL     1      -3.453  23.257  31.197  1.00  0.00    -0.003 A 
HETATM    7  C12 UNL     1      -4.254  24.377  30.669  1.00  0.00     0.197 C 
HETATM    8  C15 UNL     1      -4.152  24.550  29.177  1.00  0.00     0.173 C 
HETATM    9  C18 UNL     1      -3.531  23.351  28.563  1.00  0.00     0.062 C 
HETATM   10  C21 UNL     1      -4.222  22.126  29.221  1.00  0.00     0.052 C 
ENDROOT
BRANCH   1  11
HETATM   11  C4  UNL     1      -2.570  24.476  33.145  1.00  0.00    -0.017 A 
HETATM   12  C3  UNL     1      -1.621  25.443  32.907  1.00  0.00     0.052 A 
HETATM   13  C2  UNL     1      -1.480  26.569  33.684  1.00  0.00     0.104 A 
HETATM   14  C24 UNL     1      -2.350  26.716  34.758  1.00  0.00     0.132 A 
HETATM   15  C23 UNL     1      -3.321  25.783  35.051  1.00  0.00     0.102 A 
HETATM   16  C22 UNL     1      -3.402  24.669  34.217  1.00  0.00     0.052 A 
BRANCH  13  17
HETATM   17  O1  UNL     1      -0.511  27.524  33.412  1.00  0.00    -0.353 OA
HETATM   18  C1  UNL     1      -0.659  28.477  32.378  1.00  0.00     0.210 C 
ENDBRANCH  13  17
BRANCH  14  19
HETATM   19  O13 UNL     1      -2.204  27.839  35.528  1.00  0.00    -0.356 OA
ATOM     20  H13 UNL     1      -2.952  28.421  35.590  1.00  0.00     0.218 HD
ENDBRANCH  14  19
BRANCH  15  21
HETATM   21  O12 UNL     1      -4.199  25.917  36.122  1.00  0.00    -0.358 OA
ATOM     22  H12 UNL     1      -4.165  25.301  36.845  1.00  0.00     0.217 HD
ENDBRANCH  15  21
ENDBRANCH   1  11
BRANCH   2  23
HETATM   23  O2  UNL     1      -1.258  22.221  33.975  1.00  0.00    -0.360 OA
ATOM     24  H2  UNL     1      -1.639  21.895  34.782  1.00  0.00     0.217 HD
ENDBRANCH   2  23
BRANCH   7  25
HETATM   25  O4  UNL     1      -5.541  24.228  31.155  1.00  0.00    -0.301 OA
BRANCH  25  26
HETATM   26  C13 UNL     1      -6.287  25.170  31.777  1.00  0.00     0.353 C 
HETATM   27  O5  UNL     1      -7.160  24.717  32.530  1.00  0.00    -0.254 OA
BRANCH  26  28
HETATM   28  C14 UNL     1      -6.146  26.602  31.631  1.00  0.00     0.334 C 
HETATM   29  O6  UNL     1      -7.013  27.225  30.974  1.00  0.00    -0.260 OA
HETATM   30  N1  UNL     1      -5.066  27.289  32.209  1.00  0.00    -0.268 N 
ATOM     31  H1  UNL     1      -4.374  26.759  32.740  1.00  0.00     0.190 HD
BRANCH  30  32
HETATM   32  N2  UNL     1      -4.902  28.679  32.083  1.00  0.00    -0.342 N 
ATOM     33  H22 UNL     1      -5.187  29.113  31.204  1.00  0.00     0.176 HD
ATOM     34  H21 UNL     1      -4.515  29.255  32.830  1.00  0.00     0.176 HD
ENDBRANCH  30  32
ENDBRANCH  26  28
ENDBRANCH  25  26
ENDBRANCH   7  25
BRANCH   4  35
HETATM   35  O3  UNL     1      -2.859  19.806  30.165  1.00  0.00    -0.355 OA
HETATM   36  C9  UNL     1      -2.907  18.570  30.839  1.00  0.00     0.210 C 
ENDBRANCH   4  35
BRANCH   8  37
HETATM   37  O7  UNL     1      -3.419  25.684  28.816  1.00  0.00    -0.313 OA
BRANCH  37  38
HETATM   38  C16 UNL     1      -3.917  26.983  28.752  1.00  0.00     0.255 C 
HETATM   39  C17 UNL     1      -4.981  27.318  27.789  1.00  0.00     0.126 C 
HETATM   40  O8  UNL     1      -3.400  27.792  29.547  1.00  0.00    -0.266 OA
ENDBRANCH  37  38
ENDBRANCH   8  37
BRANCH   9  41
HETATM   41  C19 UNL     1      -3.588  23.274  27.053  1.00  0.00     0.225 C 
BRANCH  41  42
HETATM   42  O9  UNL     1      -2.558  24.169  26.632  1.00  0.00    -0.384 OA
ATOM     43  H9  UNL     1      -2.550  24.072  25.687  1.00  0.00     0.210 HD
ENDBRANCH  41  42
BRANCH  41  44
HETATM   44  C20 UNL     1      -3.127  21.947  26.623  1.00  0.00     0.203 C 
HETATM   45  O10 UNL     1      -1.989  21.494  26.932  1.00  0.00    -0.646 OA
HETATM   46  O11 UNL     1      -3.988  21.159  25.835  1.00  0.00    -0.646 OA
ENDBRANCH  41  44
ENDBRANCH   9  41
TORSDOF 15
ENDMDL
MODEL 4
REMARK VINA RESULT: -7.748820060      3.542      7.776
REMARK  15 active torsions:
REMARK  status: ('A' for Active; 'I' for Inactive)
REMARK    1  A    between atoms: O1_2  and  C2_3 
REMARK    2  A    between atoms: C4_5  and  C5_6 
REMARK    3  A    between atoms: C6_7  and  O2_8 
REMARK    4  A    between atoms: C8_11  and  O3_12 
REMARK    5  A    between atoms: C12_16  and  O4_17 
REMARK    6  A    between atoms: O4_17  and  C13_18 
REMARK    7  A    between atoms: C13_18  and  C14_20 
REMARK       I    between atoms: C14_20  and  N1_22 
REMARK    8  A    between atoms: N1_22  and  N2_24 
REMARK    9  A    between atoms: C15_27  and  O7_28 
REMARK   10  A    between atoms: O7_28  and  C16_29 
REMARK   11  A    between atoms: C18_32  and  C19_33 
REMARK   12  A    between atoms: C19_33  and  O9_34 
REMARK   13  A    between atoms: C19_33  and  C20_36 
REMARK   14  A    between atoms: C23_41  and  O12_42 
REMARK   15  A    between atoms: C24_44  and  O13_45 
ROOT
HETATM    1  C5  UNL     1      -2.374  26.470  26.615  1.00  0.00     0.017 A 
HETATM    2  C6  UNL     1      -1.676  27.667  26.822  1.00  0.00     0.080 A 
HETATM    3  C7  UNL     1      -1.872  28.402  27.951  1.00  0.00     0.074 A 
HETATM    4  C8  UNL     1      -2.788  27.913  28.880  1.00  0.00     0.077 A 
HETATM    5  C10 UNL     1      -3.460  26.773  28.695  1.00  0.00    -0.014 A 
HETATM    6  C11 UNL     1      -3.279  25.989  27.531  1.00  0.00    -0.003 A 
HETATM    7  C12 UNL     1      -4.088  24.764  27.390  1.00  0.00     0.197 C 
HETATM    8  C15 UNL     1      -4.192  23.953  28.654  1.00  0.00     0.173 C 
HETATM    9  C18 UNL     1      -3.728  24.750  29.815  1.00  0.00     0.062 C 
HETATM   10  C21 UNL     1      -4.380  26.151  29.661  1.00  0.00     0.052 C 
ENDROOT
BRANCH   1  11
HETATM   11  C4  UNL     1      -2.065  25.733  25.404  1.00  0.00    -0.017 A 
HETATM   12  C3  UNL     1      -2.446  24.429  25.189  1.00  0.00     0.052 A 
HETATM   13  C2  UNL     1      -2.122  23.727  24.052  1.00  0.00     0.104 A 
HETATM   14  C24 UNL     1      -1.372  24.387  23.085  1.00  0.00     0.132 A 
HETATM   15  C23 UNL     1      -0.959  25.693  23.241  1.00  0.00     0.102 A 
HETATM   16  C22 UNL     1      -1.326  26.338  24.421  1.00  0.00     0.052 A 
BRANCH  13  17
HETATM   17  O1  UNL     1      -2.525  22.411  23.869  1.00  0.00    -0.353 OA
HETATM   18  C1  UNL     1      -1.760  21.316  24.334  1.00  0.00     0.210 C 
ENDBRANCH  13  17
BRANCH  14  19
HETATM   19  O13 UNL     1      -1.053  23.682  21.956  1.00  0.00    -0.356 OA
ATOM     20  H13 UNL     1      -0.280  23.959  21.478  1.00  0.00     0.218 HD
ENDBRANCH  14  19
BRANCH  15  21
HETATM   21  O12 UNL     1      -0.209  26.367  22.282  1.00  0.00    -0.358 OA
ATOM     22  H12 UNL     1       0.455  25.903  21.785  1.00  0.00     0.217 HD
ENDBRANCH  15  21
ENDBRANCH   1  11
BRANCH   2  23
HETATM   23  O2  UNL     1      -0.767  28.101  25.849  1.00  0.00    -0.360 OA
ATOM     24  H2  UNL     1      -0.452  28.998  25.879  1.00  0.00     0.217 HD
ENDBRANCH   2  23
BRANCH   7  25
HETATM   25  O4  UNL     1      -5.299  25.132  26.830  1.00  0.00    -0.301 OA
BRANCH  25  26
HETATM   26  C13 UNL     1      -5.998  24.452  25.891  1.00  0.00     0.353 C 
HETATM   27  O5  UNL     1      -6.627  25.169  25.101  1.00  0.00    -0.254 OA
BRANCH  26  28
HETATM   28  C14 UNL     1      -6.063  23.013  25.754  1.00  0.00     0.334 C 
HETATM   29  O6  UNL     1      -6.919  22.386  26.420  1.00  0.00    -0.260 OA
HETATM   30  N1  UNL     1      -5.191  22.325  24.895  1.00  0.00    -0.268 N 
ATOM     31  H1  UNL     1      -4.503  22.858  24.362  1.00  0.00     0.190 HD
BRANCH  30  32
HETATM   32  N2  UNL     1      -5.229  20.929  24.742  1.00  0.00    -0.342 N 
ATOM     33  H22 UNL     1      -4.841  20.358  25.493  1.00  0.00     0.176 HD
ATOM     34  H21 UNL     1      -5.627  20.479  23.917  1.00  0.00     0.176 HD
ENDBRANCH  30  32
ENDBRANCH  26  28
ENDBRANCH  25  26
ENDBRANCH   7  25
BRANCH   4  35
HETATM   35  O3  UNL     1      -3.018  28.628  30.039  1.00  0.00    -0.355 OA
HETATM   36  C9  UNL     1      -2.003  28.675  31.015  1.00  0.00     0.210 C 
ENDBRANCH   4  35
BRANCH   8  37
HETATM   37  O7  UNL     1      -3.460  22.764  28.591  1.00  0.00    -0.313 OA
BRANCH  37  38
HETATM   38  C16 UNL     1      -3.972  21.515  28.244  1.00  0.00     0.255 C 
HETATM   39  C17 UNL     1      -4.956  20.853  29.119  1.00  0.00     0.126 C 
HETATM   40  O8  UNL     1      -3.538  21.039  27.178  1.00  0.00    -0.266 OA
ENDBRANCH  37  38
ENDBRANCH   8  37
BRANCH   9  41
HETATM   41  C19 UNL     1      -4.004  24.159  31.179  1.00  0.00     0.225 C 
BRANCH  41  42
HETATM   42  O9  UNL     1      -3.070  23.083  31.275  1.00  0.00    -0.384 OA
ATOM     43  H9  UNL     1      -3.596  22.313  31.097  1.00  0.00     0.210 HD
ENDBRANCH  41  42
BRANCH  41  44
HETATM   44  C20 UNL     1      -3.577  25.113  32.212  1.00  0.00     0.203 C 
HETATM   45  O10 UNL     1      -2.364  25.417  32.392  1.00  0.00    -0.646 OA
HETATM   46  O11 UNL     1      -4.561  25.706  33.028  1.00  0.00    -0.646 OA
ENDBRANCH  41  44
ENDBRANCH   9  41
TORSDOF 15
ENDMDL
MODEL 5
REMARK VINA RESULT: -7.684030513      1.816      6.940
REMARK  15 active torsions:
REMARK  status: ('A' for Active; 'I' for Inactive)
REMARK    1  A    between atoms: O1_2  and  C2_3 
REMARK    2  A    between atoms: C4_5  and  C5_6 
REMARK    3  A    between atoms: C6_7  and  O2_8 
REMARK    4  A    between atoms: C8_11  and  O3_12 
REMARK    5  A    between atoms: C12_16  and  O4_17 
REMARK    6  A    between atoms: O4_17  and  C13_18 
REMARK    7  A    between atoms: C13_18  and  C14_20 
REMARK       I    between atoms: C14_20  and  N1_22 
REMARK    8  A    between atoms: N1_22  and  N2_24 
REMARK    9  A    between atoms: C15_27  and  O7_28 
REMARK   10  A    between atoms: O7_28  and  C16_29 
REMARK   11  A    between atoms: C18_32  and  C19_33 
REMARK   12  A    between atoms: C19_33  and  O9_34 
REMARK   13  A    between atoms: C19_33  and  C20_36 
REMARK   14  A    between atoms: C23_41  and  O12_42 
REMARK   15  A    between atoms: C24_44  and  O13_45 
ROOT
HETATM    1  C5  UNL     1      -3.453  25.983  28.199  1.00  0.00     0.017 A 
HETATM    2  C6  UNL     1      -2.806  27.054  27.569  1.00  0.00     0.080 A 
HETATM    3  C7  UNL     1      -2.410  28.144  28.281  1.00  0.00     0.074 A 
HETATM    4  C8  UNL     1      -2.673  28.145  29.649  1.00  0.00     0.077 A 
HETATM    5  C10 UNL     1      -3.288  27.129  30.262  1.00  0.00    -0.014 A 
HETATM    6  C11 UNL     1      -3.715  25.984  29.549  1.00  0.00    -0.003 A 
HETATM    7  C12 UNL     1      -4.419  24.926  30.297  1.00  0.00     0.197 C 
HETATM    8  C15 UNL     1      -3.802  24.610  31.634  1.00  0.00     0.173 C 
HETATM    9  C18 UNL     1      -2.832  25.665  32.013  1.00  0.00     0.062 C 
HETATM   10  C21 UNL     1      -3.530  27.019  31.710  1.00  0.00     0.052 C 
ENDROOT
BRANCH   1  11
HETATM   11  C4  UNL     1      -3.797  24.845  27.368  1.00  0.00    -0.017 A 
HETATM   12  C3  UNL     1      -2.954  23.780  27.147  1.00  0.00     0.052 A 
HETATM   13  C2  UNL     1      -3.275  22.720  26.333  1.00  0.00     0.104 A 
HETATM   14  C24 UNL     1      -4.519  22.746  25.711  1.00  0.00     0.132 A 
HETATM   15  C23 UNL     1      -5.409  23.783  25.890  1.00  0.00     0.102 A 
HETATM   16  C22 UNL     1      -5.011  24.822  26.731  1.00  0.00     0.052 A 
BRANCH  13  17
HETATM   17  O1  UNL     1      -2.398  21.663  26.135  1.00  0.00    -0.353 OA
HETATM   18  C1  UNL     1      -2.117  20.716  27.147  1.00  0.00     0.210 C 
ENDBRANCH  13  17
BRANCH  14  19
HETATM   19  O13 UNL     1      -4.832  21.687  24.902  1.00  0.00    -0.356 OA
ATOM     20  H13 UNL     1      -4.115  21.267  24.443  1.00  0.00     0.218 HD
ENDBRANCH  14  19
BRANCH  15  21
HETATM   21  O12 UNL     1      -6.656  23.823  25.276  1.00  0.00    -0.358 OA
ATOM     22  H12 UNL     1      -6.968  23.072  24.783  1.00  0.00     0.217 HD
ENDBRANCH  15  21
ENDBRANCH   1  11
BRANCH   2  23
HETATM   23  O2  UNL     1      -2.570  26.989  26.190  1.00  0.00    -0.360 OA
ATOM     24  H2  UNL     1      -2.349  27.787  25.722  1.00  0.00     0.217 HD
ENDBRANCH   2  23
BRANCH   7  25
HETATM   25  O4  UNL     1      -5.758  25.272  30.338  1.00  0.00    -0.301 OA
BRANCH  25  26
HETATM   26  C13 UNL     1      -6.550  25.321  31.434  1.00  0.00     0.353 C 
HETATM   27  O5  UNL     1      -6.621  24.257  32.063  1.00  0.00    -0.254 OA
BRANCH  26  28
HETATM   28  C14 UNL     1      -7.288  26.474  31.900  1.00  0.00     0.334 C 
HETATM   29  O6  UNL     1      -6.827  27.616  31.663  1.00  0.00    -0.260 OA
HETATM   30  N1  UNL     1      -8.496  26.330  32.603  1.00  0.00    -0.268 N 
ATOM     31  H1  UNL     1      -8.850  25.391  32.783  1.00  0.00     0.190 HD
BRANCH  30  32
HETATM   32  N2  UNL     1      -9.234  27.432  33.068  1.00  0.00    -0.342 N 
ATOM     33  H22 UNL     1     -10.135  27.247  33.510  1.00  0.00     0.176 HD
ATOM     34  H21 UNL     1      -8.900  28.392  32.979  1.00  0.00     0.176 HD
ENDBRANCH  30  32
ENDBRANCH  26  28
ENDBRANCH  25  26
ENDBRANCH   7  25
BRANCH   4  35
HETATM   35  O3  UNL     1      -2.288  29.232  30.409  1.00  0.00    -0.355 OA
HETATM   36  C9  UNL     1      -0.965  29.284  30.890  1.00  0.00     0.210 C 
ENDBRANCH   4  35
BRANCH   8  37
HETATM   37  O7  UNL     1      -3.161  23.369  31.649  1.00  0.00    -0.313 OA
BRANCH  37  38
HETATM   38  C16 UNL     1      -3.435  22.304  30.794  1.00  0.00     0.255 C 
HETATM   39  C17 UNL     1      -2.467  21.202  30.655  1.00  0.00     0.126 C 
HETATM   40  O8  UNL     1      -4.523  22.373  30.189  1.00  0.00    -0.266 OA
ENDBRANCH  37  38
ENDBRANCH   8  37
BRANCH   9  41
HETATM   41  C19 UNL     1      -2.318  25.614  33.435  1.00  0.00     0.225 C 
BRANCH  41  42
HETATM   42  O9  UNL     1      -1.463  24.470  33.442  1.00  0.00    -0.384 OA
ATOM     43  H9  UNL     1      -2.060  23.747  33.594  1.00  0.00     0.210 HD
ENDBRANCH  41  42
BRANCH  41  44
HETATM   44  C20 UNL     1      -1.416  26.752  33.660  1.00  0.00     0.203 C 
HETATM   45  O10 UNL     1      -0.249  26.796  33.177  1.00  0.00    -0.646 OA
HETATM   46  O11 UNL     1      -1.874  27.828  34.446  1.00  0.00    -0.646 OA
ENDBRANCH  41  44
ENDBRANCH   9  41
TORSDOF 15
ENDMDL
