MODEL 1
REMARK VINA RESULT: -11.291172443      0.000      0.000
REMARK  12 active torsions:
REMARK  status: ('A' for Active; 'I' for Inactive)
REMARK    1  A    between atoms: O1_2  and  C2_3 
REMARK    2  A    between atoms: C7_8  and  O2_9 
REMARK    3  A    between atoms: C9_11  and  O3_12 
REMARK    4  A    between atoms: N1_14  and  C10_15 
REMARK    5  A    between atoms: C10_15  and  C11_16 
REMARK    6  A    between atoms: C11_16  and  C17_37 
REMARK    7  A    between atoms: N2_17  and  N3_19 
REMARK    8  A    between atoms: N3_19  and  C12_21 
REMARK    9  A    between atoms: N7_29  and  N8_31 
REMARK   10  A    between atoms: N8_31  and  C15_32 
REMARK   11  A    between atoms: C19_39  and  O4_40 
REMARK   12  A    between atoms: C20_42  and  O5_43 
ROOT
HETATM    1  C11 UNL     1      -2.489  25.153  25.948  1.00  0.00     0.081 C 
HETATM    2  N2  UNL     1      -3.384  24.247  26.003  1.00  0.00    -0.287 N 
ATOM      3  H2  UNL     1      -3.816  24.109  26.917  1.00  0.00     0.187 HD
ENDROOT
BRANCH   1   4
HETATM    4  C10 UNL     1      -2.169  25.899  27.189  1.00  0.00     0.337 C 
BRANCH   4   5
HETATM    5  N1  UNL     1      -2.592  27.282  27.012  1.00  0.00     0.127 N 
HETATM    6  C9  UNL     1      -2.036  28.127  28.063  1.00  0.00     0.392 C 
HETATM    7  C5  UNL     1      -2.808  28.116  29.308  1.00  0.00     0.009 A 
HETATM    8  C4  UNL     1      -4.000  27.456  29.492  1.00  0.00    -0.043 A 
HETATM    9  C6  UNL     1      -2.254  28.849  30.368  1.00  0.00     0.051 A 
HETATM   10  C3  UNL     1      -4.625  27.524  30.707  1.00  0.00     0.047 A 
HETATM   11  C23 UNL     1      -4.562  26.712  28.351  1.00  0.00     0.069 C 
HETATM   12  C2  UNL     1      -4.126  28.224  31.777  1.00  0.00     0.102 A 
HETATM   13  C7  UNL     1      -2.919  28.889  31.574  1.00  0.00     0.102 A 
HETATM   14  C22 UNL     1      -4.046  27.392  27.089  1.00  0.00     0.281 C 
BRANCH   6  15
HETATM   15  O3  UNL     1      -1.971  29.432  27.551  1.00  0.00    -0.364 OA
ATOM     16  H3  UNL     1      -1.254  29.503  26.932  1.00  0.00     0.212 HD
ENDBRANCH   6  15
BRANCH  12  17
HETATM   17  O1  UNL     1      -4.729  28.313  33.011  1.00  0.00    -0.353 OA
HETATM   18  C1  UNL     1      -5.968  28.961  33.150  1.00  0.00     0.210 C 
ENDBRANCH  12  17
BRANCH  13  19
HETATM   19  O2  UNL     1      -2.405  29.603  32.655  1.00  0.00    -0.353 OA
HETATM   20  C8  UNL     1      -1.439  28.999  33.506  1.00  0.00     0.210 C 
ENDBRANCH  13  19
ENDBRANCH   4   5
ENDBRANCH   1   4
BRANCH   1  21
HETATM   21  C17 UNL     1      -1.842  25.430  24.671  1.00  0.00     0.060 A 
HETATM   22  C18 UNL     1      -0.629  26.073  24.559  1.00  0.00     0.071 A 
HETATM   23  C19 UNL     1      -0.001  26.322  23.369  1.00  0.00     0.102 A 
HETATM   24  C20 UNL     1      -0.612  25.905  22.202  1.00  0.00     0.114 A 
HETATM   25  C21 UNL     1      -1.830  25.261  22.316  1.00  0.00     0.127 A 
HETATM   26  N11 UNL     1      -2.411  25.039  23.500  1.00  0.00    -0.361 N 
ATOM     27  H11 UNL     1      -3.311  24.561  23.526  1.00  0.00     0.165 HD
BRANCH  23  28
HETATM   28  O4  UNL     1       1.232  26.972  23.279  1.00  0.00    -0.358 OA
ATOM     29  H4  UNL     1       1.316  27.906  23.129  1.00  0.00     0.217 HD
ENDBRANCH  23  28
BRANCH  24  30
HETATM   30  O5  UNL     1      -0.027  26.120  20.947  1.00  0.00    -0.357 OA
ATOM     31  H5  UNL     1      -0.089  26.958  20.504  1.00  0.00     0.218 HD
ENDBRANCH  24  30
ENDBRANCH   1  21
BRANCH   2  32
HETATM   32  N3  UNL     1      -3.842  23.438  25.004  1.00  0.00    -0.131 N 
ATOM     33  H3  UNL     1      -4.322  23.889  24.225  1.00  0.00     0.205 HD
BRANCH  32  34
HETATM   34  C12 UNL     1      -3.722  22.159  24.954  1.00  0.00     0.713 A 
HETATM   35  N4  UNL     1      -4.464  21.371  24.194  1.00  0.00    -0.161 N 
HETATM   36  C13 UNL     1      -4.332  20.027  24.136  1.00  0.00     0.221 A 
ATOM     37  H4  UNL     1      -5.182  21.806  23.613  1.00  0.00     0.187 HD
HETATM   38  N5  UNL     1      -5.139  19.217  23.311  1.00  0.00    -0.062 NA
HETATM   39  N6  UNL     1      -3.369  19.467  24.919  1.00  0.00    -0.160 N 
HETATM   40  C14 UNL     1      -2.591  20.233  25.709  1.00  0.00     0.724 A 
ATOM     41  H6  UNL     1      -3.235  18.456  24.908  1.00  0.00     0.187 HD
HETATM   42  N7  UNL     1      -1.685  19.696  26.428  1.00  0.00    -0.063 N 
HETATM   43  N10 UNL     1      -2.780  21.592  25.718  1.00  0.00    -0.018 N 
ATOM     44  H7  UNL     1      -1.158  20.368  26.986  1.00  0.00     0.221 HD
ATOM     45  H10 UNL     1      -2.195  22.177  26.313  1.00  0.00     0.203 HD
BRANCH  42  46
HETATM   46  N8  UNL     1      -1.306  18.491  26.589  1.00  0.00    -0.301 NA
BRANCH  46  47
HETATM   47  C15 UNL     1      -0.867  17.407  26.836  1.00  0.00     0.186 C 
HETATM   48  C16 UNL     1       0.319  16.853  26.089  1.00  0.00     0.104 C 
HETATM   49  N9  UNL     1      -1.385  16.486  27.840  1.00  0.00    -0.070 NA
ENDBRANCH  46  47
ENDBRANCH  42  46
ENDBRANCH  32  34
ENDBRANCH   2  32
TORSDOF 12
ENDMDL
MODEL 2
REMARK VINA RESULT: -10.518878532      1.588      2.049
REMARK  12 active torsions:
REMARK  status: ('A' for Active; 'I' for Inactive)
REMARK    1  A    between atoms: O1_2  and  C2_3 
REMARK    2  A    between atoms: C7_8  and  O2_9 
REMARK    3  A    between atoms: C9_11  and  O3_12 
REMARK    4  A    between atoms: N1_14  and  C10_15 
REMARK    5  A    between atoms: C10_15  and  C11_16 
REMARK    6  A    between atoms: C11_16  and  C17_37 
REMARK    7  A    between atoms: N2_17  and  N3_19 
REMARK    8  A    between atoms: N3_19  and  C12_21 
REMARK    9  A    between atoms: N7_29  and  N8_31 
REMARK   10  A    between atoms: N8_31  and  C15_32 
REMARK   11  A    between atoms: C19_39  and  O4_40 
REMARK   12  A    between atoms: C20_42  and  O5_43 
ROOT
HETATM    1  C11 UNL     1      -3.834  24.083  27.344  1.00  0.00     0.081 C 
HETATM    2  N2  UNL     1      -4.258  22.884  27.412  1.00  0.00    -0.287 N 
ATOM      3  H2  UNL     1      -4.686  22.616  28.299  1.00  0.00     0.187 HD
ENDROOT
BRANCH   1   4
HETATM    4  C10 UNL     1      -3.998  24.953  28.533  1.00  0.00     0.337 C 
BRANCH   4   5
HETATM    5  N1  UNL     1      -4.086  26.336  28.079  1.00  0.00     0.127 N 
HETATM    6  C9  UNL     1      -3.109  27.166  28.775  1.00  0.00     0.392 C 
HETATM    7  C5  UNL     1      -3.555  27.636  30.090  1.00  0.00     0.009 A 
HETATM    8  C4  UNL     1      -4.800  27.414  30.627  1.00  0.00    -0.043 A 
HETATM    9  C6  UNL     1      -2.606  28.364  30.823  1.00  0.00     0.051 A 
HETATM   10  C3  UNL     1      -5.094  27.906  31.869  1.00  0.00     0.047 A 
HETATM   11  C23 UNL     1      -5.777  26.661  29.821  1.00  0.00     0.069 C 
HETATM   12  C2  UNL     1      -4.203  28.624  32.629  1.00  0.00     0.102 A 
HETATM   13  C7  UNL     1      -2.946  28.841  32.070  1.00  0.00     0.102 A 
HETATM   14  C22 UNL     1      -5.407  26.889  28.360  1.00  0.00     0.281 C 
BRANCH   6  15
HETATM   15  O3  UNL     1      -2.834  28.263  27.943  1.00  0.00    -0.364 OA
ATOM     16  H3  UNL     1      -3.627  28.542  27.502  1.00  0.00     0.212 HD
ENDBRANCH   6  15
BRANCH  12  17
HETATM   17  O1  UNL     1      -4.467  29.133  33.880  1.00  0.00    -0.353 OA
HETATM   18  C1  UNL     1      -5.793  29.269  34.325  1.00  0.00     0.210 C 
ENDBRANCH  12  17
BRANCH  13  19
HETATM   19  O2  UNL     1      -2.036  29.569  32.835  1.00  0.00    -0.353 OA
HETATM   20  C8  UNL     1      -0.958  28.900  33.475  1.00  0.00     0.210 C 
ENDBRANCH  13  19
ENDBRANCH   4   5
ENDBRANCH   1   4
BRANCH   1  21
HETATM   21  C17 UNL     1      -3.233  24.551  26.100  1.00  0.00     0.060 A 
HETATM   22  C18 UNL     1      -2.008  25.177  26.038  1.00  0.00     0.071 A 
HETATM   23  C19 UNL     1      -1.424  25.603  24.877  1.00  0.00     0.102 A 
HETATM   24  C20 UNL     1      -2.096  25.396  23.687  1.00  0.00     0.114 A 
HETATM   25  C21 UNL     1      -3.326  24.769  23.751  1.00  0.00     0.127 A 
HETATM   26  N11 UNL     1      -3.863  24.369  24.909  1.00  0.00    -0.361 N 
ATOM     27  H11 UNL     1      -4.775  23.913  24.898  1.00  0.00     0.165 HD
BRANCH  23  28
HETATM   28  O4  UNL     1      -0.178  26.233  24.835  1.00  0.00    -0.358 OA
ATOM     29  H4  UNL     1       0.454  26.180  25.543  1.00  0.00     0.217 HD
ENDBRANCH  23  28
BRANCH  24  30
HETATM   30  O5  UNL     1      -1.558  25.800  22.457  1.00  0.00    -0.357 OA
ATOM     31  H5  UNL     1      -1.484  25.201  21.723  1.00  0.00     0.218 HD
ENDBRANCH  24  30
ENDBRANCH   1  21
BRANCH   2  32
HETATM   32  N3  UNL     1      -4.216  21.908  26.457  1.00  0.00    -0.131 N 
ATOM     33  H3  UNL     1      -5.014  21.843  25.826  1.00  0.00     0.205 HD
BRANCH  32  34
HETATM   34  C12 UNL     1      -3.262  21.065  26.282  1.00  0.00     0.713 A 
HETATM   35  N4  UNL     1      -2.575  20.943  25.159  1.00  0.00    -0.161 N 
HETATM   36  C13 UNL     1      -1.566  20.061  24.977  1.00  0.00     0.221 A 
ATOM     37  H4  UNL     1      -2.820  21.553  24.379  1.00  0.00     0.187 HD
HETATM   38  N5  UNL     1      -0.851  19.959  23.765  1.00  0.00    -0.062 NA
HETATM   39  N6  UNL     1      -1.254  19.255  26.029  1.00  0.00    -0.160 N 
HETATM   40  C14 UNL     1      -1.930  19.345  27.191  1.00  0.00     0.724 A 
ATOM     41  H6  UNL     1      -0.500  18.574  25.936  1.00  0.00     0.187 HD
HETATM   42  N7  UNL     1      -1.619  18.593  28.172  1.00  0.00    -0.063 N 
HETATM   43  N10 UNL     1      -2.942  20.264  27.306  1.00  0.00    -0.018 N 
ATOM     44  H7  UNL     1      -2.195  18.745  29.000  1.00  0.00     0.221 HD
ATOM     45  H10 UNL     1      -3.457  20.338  28.183  1.00  0.00     0.203 HD
BRANCH  42  46
HETATM   46  N8  UNL     1      -0.734  17.689  28.326  1.00  0.00    -0.301 NA
BRANCH  46  47
HETATM   47  C15 UNL     1      -0.000  16.769  28.531  1.00  0.00     0.186 C 
HETATM   48  C16 UNL     1      -0.509  15.350  28.552  1.00  0.00     0.104 C 
HETATM   49  N9  UNL     1       1.431  16.861  28.790  1.00  0.00    -0.070 NA
ENDBRANCH  46  47
ENDBRANCH  42  46
ENDBRANCH  32  34
ENDBRANCH   2  32
TORSDOF 12
ENDMDL
MODEL 3
REMARK VINA RESULT: -10.357602028      3.674      5.815
REMARK  12 active torsions:
REMARK  status: ('A' for Active; 'I' for Inactive)
REMARK    1  A    between atoms: O1_2  and  C2_3 
REMARK    2  A    between atoms: C7_8  and  O2_9 
REMARK    3  A    between atoms: C9_11  and  O3_12 
REMARK    4  A    between atoms: N1_14  and  C10_15 
REMARK    5  A    between atoms: C10_15  and  C11_16 
REMARK    6  A    between atoms: C11_16  and  C17_37 
REMARK    7  A    between atoms: N2_17  and  N3_19 
REMARK    8  A    between atoms: N3_19  and  C12_21 
REMARK    9  A    between atoms: N7_29  and  N8_31 
REMARK   10  A    between atoms: N8_31  and  C15_32 
REMARK   11  A    between atoms: C19_39  and  O4_40 
REMARK   12  A    between atoms: C20_42  and  O5_43 
ROOT
HETATM    1  C11 UNL     1      -2.741  20.789  28.152  1.00  0.00     0.081 C 
HETATM    2  N2  UNL     1      -2.373  19.752  28.793  1.00  0.00    -0.287 N 
ATOM      3  H2  UNL     1      -2.338  19.850  29.808  1.00  0.00     0.187 HD
ENDROOT
BRANCH   1   4
HETATM    4  C10 UNL     1      -3.073  22.010  28.925  1.00  0.00     0.337 C 
BRANCH   4   5
HETATM    5  N1  UNL     1      -4.252  22.624  28.326  1.00  0.00     0.127 N 
HETATM    6  C9  UNL     1      -3.893  23.857  27.634  1.00  0.00     0.392 C 
HETATM    7  C5  UNL     1      -3.805  25.028  28.511  1.00  0.00     0.009 A 
HETATM    8  C4  UNL     1      -4.108  25.035  29.852  1.00  0.00    -0.043 A 
HETATM    9  C6  UNL     1      -3.378  26.212  27.893  1.00  0.00     0.051 A 
HETATM   10  C3  UNL     1      -3.985  26.198  30.562  1.00  0.00     0.047 A 
HETATM   11  C23 UNL     1      -4.573  23.778  30.463  1.00  0.00     0.069 C 
HETATM   12  C2  UNL     1      -3.569  27.383  30.008  1.00  0.00     0.102 A 
HETATM   13  C7  UNL     1      -3.268  27.360  28.649  1.00  0.00     0.102 A 
HETATM   14  C22 UNL     1      -5.232  22.969  29.352  1.00  0.00     0.281 C 
BRANCH   6  15
HETATM   15  O3  UNL     1      -4.864  24.072  26.644  1.00  0.00    -0.364 OA
ATOM     16  H3  UNL     1      -4.634  23.596  25.855  1.00  0.00     0.212 HD
ENDBRANCH   6  15
BRANCH  12  17
HETATM   17  O1  UNL     1      -3.436  28.569  30.694  1.00  0.00    -0.353 OA
HETATM   18  C1  UNL     1      -3.625  28.608  32.086  1.00  0.00     0.210 C 
ENDBRANCH  12  17
BRANCH  13  19
HETATM   19  O2  UNL     1      -2.846  28.560  28.078  1.00  0.00    -0.353 OA
HETATM   20  C8  UNL     1      -2.162  28.546  26.831  1.00  0.00     0.210 C 
ENDBRANCH  13  19
ENDBRANCH   4   5
ENDBRANCH   1   4
BRANCH   1  21
HETATM   21  C17 UNL     1      -2.844  20.723  26.698  1.00  0.00     0.060 A 
HETATM   22  C18 UNL     1      -1.781  20.421  25.876  1.00  0.00     0.071 A 
HETATM   23  C19 UNL     1      -1.867  20.335  24.513  1.00  0.00     0.102 A 
HETATM   24  C20 UNL     1      -3.092  20.562  23.915  1.00  0.00     0.114 A 
HETATM   25  C21 UNL     1      -4.158  20.866  24.742  1.00  0.00     0.127 A 
HETATM   26  N11 UNL     1      -4.029  20.942  26.071  1.00  0.00    -0.361 N 
ATOM     27  H11 UNL     1      -4.849  21.173  26.633  1.00  0.00     0.165 HD
BRANCH  23  28
HETATM   28  O4  UNL     1      -0.777  20.023  23.698  1.00  0.00    -0.358 OA
ATOM     29  H4  UNL     1      -0.797  20.104  22.752  1.00  0.00     0.217 HD
ENDBRANCH  23  28
BRANCH  24  30
HETATM   30  O5  UNL     1      -3.259  20.487  22.526  1.00  0.00    -0.357 OA
ATOM     31  H5  UNL     1      -3.979  20.924  22.085  1.00  0.00     0.218 HD
ENDBRANCH  24  30
ENDBRANCH   1  21
BRANCH   2  32
HETATM   32  N3  UNL     1      -2.020  18.527  28.304  1.00  0.00    -0.131 N 
ATOM     33  H3  UNL     1      -2.236  18.339  27.325  1.00  0.00     0.205 HD
BRANCH  32  34
HETATM   34  C12 UNL     1      -1.441  17.590  28.964  1.00  0.00     0.713 A 
HETATM   35  N4  UNL     1      -0.993  16.467  28.427  1.00  0.00    -0.161 N 
HETATM   36  C13 UNL     1      -0.377  15.485  29.122  1.00  0.00     0.221 A 
ATOM     37  H4  UNL     1      -1.122  16.334  27.423  1.00  0.00     0.187 HD
HETATM   38  N5  UNL     1       0.091  14.300  28.514  1.00  0.00    -0.062 NA
HETATM   39  N6  UNL     1      -0.216  15.681  30.459  1.00  0.00    -0.160 N 
HETATM   40  C14 UNL     1      -0.657  16.810  31.048  1.00  0.00     0.724 A 
ATOM     41  H6  UNL     1       0.243  14.966  31.022  1.00  0.00     0.187 HD
HETATM   42  N7  UNL     1      -0.490  16.986  32.298  1.00  0.00    -0.063 N 
HETATM   43  N10 UNL     1      -1.275  17.766  30.282  1.00  0.00    -0.018 N 
ATOM     44  H7  UNL     1      -0.863  17.873  32.639  1.00  0.00     0.221 HD
ATOM     45  H10 UNL     1      -1.611  18.623  30.720  1.00  0.00     0.203 HD
BRANCH  42  46
HETATM   46  N8  UNL     1       0.050  16.278  33.211  1.00  0.00    -0.301 NA
BRANCH  46  47
HETATM   47  C15 UNL     1       0.666  15.615  33.990  1.00  0.00     0.186 C 
HETATM   48  C16 UNL     1      -0.021  14.607  34.876  1.00  0.00     0.104 C 
HETATM   49  N9  UNL     1       2.105  15.672  34.209  1.00  0.00    -0.070 NA
ENDBRANCH  46  47
ENDBRANCH  42  46
ENDBRANCH  32  34
ENDBRANCH   2  32
TORSDOF 12
ENDMDL
MODEL 4
REMARK VINA RESULT: -10.272805116      4.084      6.655
REMARK  12 active torsions:
REMARK  status: ('A' for Active; 'I' for Inactive)
REMARK    1  A    between atoms: O1_2  and  C2_3 
REMARK    2  A    between atoms: C7_8  and  O2_9 
REMARK    3  A    between atoms: C9_11  and  O3_12 
REMARK    4  A    between atoms: N1_14  and  C10_15 
REMARK    5  A    between atoms: C10_15  and  C11_16 
REMARK    6  A    between atoms: C11_16  and  C17_37 
REMARK    7  A    between atoms: N2_17  and  N3_19 
REMARK    8  A    between atoms: N3_19  and  C12_21 
REMARK    9  A    between atoms: N7_29  and  N8_31 
REMARK   10  A    between atoms: N8_31  and  C15_32 
REMARK   11  A    between atoms: C19_39  and  O4_40 
REMARK   12  A    between atoms: C20_42  and  O5_43 
ROOT
HETATM    1  C11 UNL     1      -2.841  20.729  28.498  1.00  0.00     0.081 C 
HETATM    2  N2  UNL     1      -2.939  19.874  29.436  1.00  0.00    -0.287 N 
ATOM      3  H2  UNL     1      -3.231  20.243  30.341  1.00  0.00     0.187 HD
ENDROOT
BRANCH   1   4
HETATM    4  C10 UNL     1      -3.151  22.146  28.805  1.00  0.00     0.337 C 
BRANCH   4   5
HETATM    5  N1  UNL     1      -4.082  22.639  27.797  1.00  0.00     0.127 N 
HETATM    6  C9  UNL     1      -3.369  23.371  26.756  1.00  0.00     0.392 C 
HETATM    7  C5  UNL     1      -3.093  24.770  27.095  1.00  0.00     0.009 A 
HETATM    8  C4  UNL     1      -3.519  25.406  28.237  1.00  0.00    -0.043 A 
HETATM    9  C6  UNL     1      -2.333  25.479  26.152  1.00  0.00     0.051 A 
HETATM   10  C3  UNL     1      -3.193  26.719  28.436  1.00  0.00     0.047 A 
HETATM   11  C23 UNL     1      -4.331  24.635  29.194  1.00  0.00     0.069 C 
HETATM   12  C2  UNL     1      -2.452  27.458  27.548  1.00  0.00     0.102 A 
HETATM   13  C7  UNL     1      -2.029  26.801  26.395  1.00  0.00     0.102 A 
HETATM   14  C22 UNL     1      -5.050  23.557  28.392  1.00  0.00     0.281 C 
BRANCH   6  15
HETATM   15  O3  UNL     1      -4.156  23.306  25.595  1.00  0.00    -0.364 OA
ATOM     16  H3  UNL     1      -3.786  22.675  24.988  1.00  0.00     0.212 HD
ENDBRANCH   6  15
BRANCH  12  17
HETATM   17  O1  UNL     1      -2.107  28.779  27.719  1.00  0.00    -0.353 OA
HETATM   18  C1  UNL     1      -1.688  29.246  28.976  1.00  0.00     0.210 C 
ENDBRANCH  12  17
BRANCH  13  19
HETATM   19  O2  UNL     1      -1.276  27.544  25.488  1.00  0.00    -0.353 OA
HETATM   20  C8  UNL     1      -0.887  26.963  24.250  1.00  0.00     0.210 C 
ENDBRANCH  13  19
ENDBRANCH   4   5
ENDBRANCH   1   4
BRANCH   1  21
HETATM   21  C17 UNL     1      -2.454  20.277  27.166  1.00  0.00     0.060 A 
HETATM   22  C18 UNL     1      -3.361  19.884  26.206  1.00  0.00     0.071 A 
HETATM   23  C19 UNL     1      -3.014  19.476  24.947  1.00  0.00     0.102 A 
HETATM   24  C20 UNL     1      -1.674  19.457  24.607  1.00  0.00     0.114 A 
HETATM   25  C21 UNL     1      -0.766  19.851  25.572  1.00  0.00     0.127 A 
HETATM   26  N11 UNL     1      -1.148  20.240  26.793  1.00  0.00    -0.361 N 
ATOM     27  H11 UNL     1      -0.435  20.518  27.467  1.00  0.00     0.165 HD
BRANCH  23  28
HETATM   28  O4  UNL     1      -3.949  19.085  23.987  1.00  0.00    -0.358 OA
ATOM     29  H4  UNL     1      -4.375  18.236  23.993  1.00  0.00     0.217 HD
ENDBRANCH  23  28
BRANCH  24  30
HETATM   30  O5  UNL     1      -1.243  19.056  23.334  1.00  0.00    -0.357 OA
ATOM     31  H5  UNL     1      -1.313  19.631  22.581  1.00  0.00     0.218 HD
ENDBRANCH  24  30
ENDBRANCH   1  21
BRANCH   2  32
HETATM   32  N3  UNL     1      -2.706  18.529  29.393  1.00  0.00    -0.131 N 
ATOM     33  H3  UNL     1      -3.398  17.954  28.913  1.00  0.00     0.205 HD
BRANCH  32  34
HETATM   34  C12 UNL     1      -1.694  17.922  29.903  1.00  0.00     0.713 A 
HETATM   35  N4  UNL     1      -0.772  17.290  29.196  1.00  0.00    -0.161 N 
HETATM   36  C13 UNL     1       0.296  16.658  29.733  1.00  0.00     0.221 A 
ATOM     37  H4  UNL     1      -0.873  17.278  28.181  1.00  0.00     0.187 HD
HETATM   38  N5  UNL     1       1.263  15.996  28.948  1.00  0.00    -0.062 NA
HETATM   39  N6  UNL     1       0.412  16.685  31.089  1.00  0.00    -0.160 N 
HETATM   40  C14 UNL     1      -0.505  17.317  31.847  1.00  0.00     0.724 A 
ATOM     41  H6  UNL     1       1.202  16.220  31.536  1.00  0.00     0.187 HD
HETATM   42  N7  UNL     1      -0.377  17.344  33.115  1.00  0.00    -0.063 N 
HETATM   43  N10 UNL     1      -1.565  17.938  31.236  1.00  0.00    -0.018 N 
ATOM     44  H7  UNL     1      -1.128  17.848  33.589  1.00  0.00     0.221 HD
ATOM     45  H10 UNL     1      -2.262  18.418  31.803  1.00  0.00     0.203 HD
BRANCH  42  46
HETATM   46  N8  UNL     1       0.498  16.869  33.910  1.00  0.00    -0.301 NA
BRANCH  46  47
HETATM   47  C15 UNL     1       1.219  16.408  34.743  1.00  0.00     0.186 C 
HETATM   48  C16 UNL     1       0.962  16.630  36.212  1.00  0.00     0.104 C 
HETATM   49  N9  UNL     1       2.409  15.604  34.492  1.00  0.00    -0.070 NA
ENDBRANCH  46  47
ENDBRANCH  42  46
ENDBRANCH  32  34
ENDBRANCH   2  32
TORSDOF 12
ENDMDL
MODEL 5
REMARK VINA RESULT: -10.169279400      1.916      3.158
REMARK  12 active torsions:
REMARK  status: ('A' for Active; 'I' for Inactive)
REMARK    1  A    between atoms: O1_2  and  C2_3 
REMARK    2  A    between atoms: C7_8  and  O2_9 
REMARK    3  A    between atoms: C9_11  and  O3_12 
REMARK    4  A    between atoms: N1_14  and  C10_15 
REMARK    5  A    between atoms: C10_15  and  C11_16 
REMARK    6  A    between atoms: C11_16  and  C17_37 
REMARK    7  A    between atoms: N2_17  and  N3_19 
REMARK    8  A    between atoms: N3_19  and  C12_21 
REMARK    9  A    between atoms: N7_29  and  N8_31 
REMARK   10  A    between atoms: N8_31  and  C15_32 
REMARK   11  A    between atoms: C19_39  and  O4_40 
REMARK   12  A    between atoms: C20_42  and  O5_43 
ROOT
HETATM    1  C11 UNL     1      -4.484  25.062  26.742  1.00  0.00     0.081 C 
HETATM    2  N2  UNL     1      -5.077  24.022  26.307  1.00  0.00    -0.287 N 
ATOM      3  H2  UNL     1      -5.866  23.698  26.866  1.00  0.00     0.187 HD
ENDROOT
BRANCH   1   4
HETATM    4  C10 UNL     1      -4.985  25.684  27.992  1.00  0.00     0.337 C 
BRANCH   4   5
HETATM    5  N1  UNL     1      -4.478  24.914  29.120  1.00  0.00     0.127 N 
HETATM    6  C9  UNL     1      -5.526  24.711  30.115  1.00  0.00     0.392 C 
HETATM    7  C5  UNL     1      -5.696  25.836  31.039  1.00  0.00     0.009 A 
HETATM    8  C4  UNL     1      -4.910  26.963  31.064  1.00  0.00    -0.043 A 
HETATM    9  C6  UNL     1      -6.753  25.710  31.953  1.00  0.00     0.051 A 
HETATM   10  C3  UNL     1      -5.174  27.945  31.979  1.00  0.00     0.047 A 
HETATM   11  C23 UNL     1      -3.797  27.052  30.103  1.00  0.00     0.069 C 
HETATM   12  C2  UNL     1      -6.195  27.874  32.893  1.00  0.00     0.102 A 
HETATM   13  C7  UNL     1      -6.981  26.725  32.856  1.00  0.00     0.102 A 
HETATM   14  C22 UNL     1      -3.383  25.621  29.779  1.00  0.00     0.281 C 
BRANCH   6  15
HETATM   15  O3  UNL     1      -5.196  23.549  30.830  1.00  0.00    -0.364 OA
ATOM     16  H3  UNL     1      -5.251  23.716  31.764  1.00  0.00     0.212 HD
ENDBRANCH   6  15
BRANCH  12  17
HETATM   17  O1  UNL     1      -6.486  28.843  33.826  1.00  0.00    -0.353 OA
HETATM   18  C1  UNL     1      -5.559  29.157  34.834  1.00  0.00     0.210 C 
ENDBRANCH  12  17
BRANCH  13  19
HETATM   19  O2  UNL     1      -8.020  26.644  33.782  1.00  0.00    -0.353 OA
HETATM   20  C8  UNL     1      -9.362  26.850  33.357  1.00  0.00     0.210 C 
ENDBRANCH  13  19
ENDBRANCH   4   5
ENDBRANCH   1   4
BRANCH   1  21
HETATM   21  C17 UNL     1      -3.362  25.606  25.984  1.00  0.00     0.060 A 
HETATM   22  C18 UNL     1      -2.546  26.610  26.455  1.00  0.00     0.071 A 
HETATM   23  C19 UNL     1      -1.478  27.116  25.763  1.00  0.00     0.102 A 
HETATM   24  C20 UNL     1      -1.193  26.591  24.517  1.00  0.00     0.114 A 
HETATM   25  C21 UNL     1      -2.015  25.584  24.046  1.00  0.00     0.127 A 
HETATM   26  N11 UNL     1      -3.050  25.120  24.754  1.00  0.00    -0.361 N 
ATOM     27  H11 UNL     1      -3.625  24.377  24.358  1.00  0.00     0.165 HD
BRANCH  23  28
HETATM   28  O4  UNL     1      -0.660  28.132  26.260  1.00  0.00    -0.358 OA
ATOM     29  H4  UNL     1      -0.745  29.042  26.000  1.00  0.00     0.217 HD
ENDBRANCH  23  28
BRANCH  24  30
HETATM   30  O5  UNL     1      -0.113  27.054  23.752  1.00  0.00    -0.357 OA
ATOM     31  H5  UNL     1       0.200  27.949  23.823  1.00  0.00     0.218 HD
ENDBRANCH  24  30
ENDBRANCH   1  21
BRANCH   2  32
HETATM   32  N3  UNL     1      -4.799  23.284  25.193  1.00  0.00    -0.131 N 
ATOM     33  H3  UNL     1      -4.967  23.727  24.289  1.00  0.00     0.205 HD
BRANCH  32  34
HETATM   34  C12 UNL     1      -4.343  22.083  25.178  1.00  0.00     0.713 A 
HETATM   35  N4  UNL     1      -4.755  21.141  24.346  1.00  0.00    -0.161 N 
HETATM   36  C13 UNL     1      -4.269  19.879  24.326  1.00  0.00     0.221 A 
ATOM     37  H4  UNL     1      -5.486  21.381  23.676  1.00  0.00     0.187 HD
HETATM   38  N5  UNL     1      -4.730  18.900  23.422  1.00  0.00    -0.062 NA
HETATM   39  N6  UNL     1      -3.295  19.578  25.228  1.00  0.00    -0.160 N 
HETATM   40  C14 UNL     1      -2.847  20.508  26.095  1.00  0.00     0.724 A 
ATOM     41  H6  UNL     1      -2.901  18.638  25.249  1.00  0.00     0.187 HD
HETATM   42  N7  UNL     1      -1.926  20.215  26.926  1.00  0.00    -0.063 N 
HETATM   43  N10 UNL     1      -3.384  21.769  26.059  1.00  0.00    -0.018 N 
ATOM     44  H7  UNL     1      -1.664  20.992  27.534  1.00  0.00     0.221 HD
ATOM     45  H10 UNL     1      -3.050  22.478  26.712  1.00  0.00     0.203 HD
BRANCH  42  46
HETATM   46  N8  UNL     1      -1.266  19.149  27.151  1.00  0.00    -0.301 NA
BRANCH  46  47
HETATM   47  C15 UNL     1      -0.757  18.082  27.325  1.00  0.00     0.186 C 
HETATM   48  C16 UNL     1      -0.164  17.300  26.180  1.00  0.00     0.104 C 
HETATM   49  N9  UNL     1      -0.639  17.392  28.603  1.00  0.00    -0.070 NA
ENDBRANCH  46  47
ENDBRANCH  42  46
ENDBRANCH  32  34
ENDBRANCH   2  32
TORSDOF 12
ENDMDL
