MODEL 1
REMARK VINA RESULT: -7.926524170      0.000      0.000
REMARK  12 active torsions:
REMARK  status: ('A' for Active; 'I' for Inactive)
REMARK    1  A    between atoms: C2_2  and  O2_4 
REMARK    2  A    between atoms: O2_4  and  C3_5 
REMARK    3  A    between atoms: C6_8  and  O3_9 
REMARK    4  A    between atoms: C7_11  and  C8_12 
REMARK    5  A    between atoms: C9_13  and  C10_14 
REMARK    6  A    between atoms: C15_19  and  O4_20 
REMARK    7  A    between atoms: O4_20  and  C16_21 
REMARK    8  A    between atoms: C19_26  and  O6_27 
REMARK    9  A    between atoms: C21_30  and  O7_31 
REMARK   10  A    between atoms: O7_31  and  C22_32 
REMARK   11  A    between atoms: C24_38  and  O8_39 
REMARK   12  A    between atoms: C25_41  and  O9_42 
ROOT
HETATM    1  C3  UNL     1      -3.894  27.706  29.426  1.00  0.00     0.168 C 
HETATM    2  C4  UNL     1      -4.767  26.560  28.993  1.00  0.00     0.047 C 
HETATM    3  C5  UNL     1      -5.477  25.873  30.090  1.00  0.00     0.088 C 
HETATM    4  C6  UNL     1      -4.531  24.841  30.695  1.00  0.00     0.145 C 
HETATM    5  C7  UNL     1      -4.192  25.540  32.019  1.00  0.00     0.069 C 
HETATM    6  C15 UNL     1      -3.306  26.678  31.657  1.00  0.00     0.186 C 
HETATM    7  C18 UNL     1      -3.965  27.815  30.934  1.00  0.00     0.290 C 
HETATM    8  N1  UNL     1      -5.343  27.992  31.237  1.00  0.00     0.170 N 
HETATM    9  C19 UNL     1      -5.624  28.828  32.355  1.00  0.00     0.394 C 
HETATM   10  C20 UNL     1      -6.311  28.043  33.421  1.00  0.00     0.004 C 
HETATM   11  C21 UNL     1      -7.366  28.485  34.078  1.00  0.00     0.152 C 
HETATM   12  C23 UNL     1      -5.700  26.707  33.681  1.00  0.00     0.085 C 
HETATM   13  C24 UNL     1      -5.598  25.940  32.417  1.00  0.00     0.138 C 
HETATM   14  C25 UNL     1      -6.000  26.735  31.184  1.00  0.00     0.301 C 
ENDROOT
BRANCH   5  15
HETATM   15  C8  UNL     1      -3.580  24.657  33.007  1.00  0.00    -0.012 C 
HETATM   16  C9  UNL     1      -2.471  23.971  32.812  1.00  0.00    -0.020 C 
BRANCH  16  17
HETATM   17  C10 UNL     1      -1.874  23.079  33.839  1.00  0.00    -0.027 C 
HETATM   18  C11 UNL     1      -2.473  23.248  35.223  1.00  0.00     0.019 C 
HETATM   19  C12 UNL     1      -0.376  23.248  33.886  1.00  0.00     0.013 C 
HETATM   20  C13 UNL     1      -0.241  21.874  33.294  1.00  0.00     0.002 C 
HETATM   21  C14 UNL     1      -1.719  21.628  33.444  1.00  0.00     0.013 C 
ENDBRANCH  16  17
ENDBRANCH   5  15
BRANCH   4  22
HETATM   22  O3  UNL     1      -5.135  23.624  30.876  1.00  0.00    -0.394 OA
ATOM     23  H3  UNL     1      -5.630  23.584  31.685  1.00  0.00     0.210 HD
ENDBRANCH   4  22
BRANCH   6  24
HETATM   24  O4  UNL     1      -2.617  27.110  32.820  1.00  0.00    -0.313 OA
BRANCH  24  25
HETATM   25  C16 UNL     1      -1.368  27.742  32.733  1.00  0.00     0.255 C 
HETATM   26  C17 UNL     1      -0.097  27.030  33.056  1.00  0.00     0.126 C 
HETATM   27  O5  UNL     1      -1.386  28.944  32.367  1.00  0.00    -0.266 OA
ENDBRANCH  24  25
ENDBRANCH   6  24
BRANCH  13  28
HETATM   28  O8  UNL     1      -6.414  24.825  32.456  1.00  0.00    -0.383 OA
ATOM     29  H8  UNL     1      -6.651  24.627  33.354  1.00  0.00     0.210 HD
ENDBRANCH  13  28
BRANCH  14  30
HETATM   30  O9  UNL     1      -7.384  26.840  31.088  1.00  0.00    -0.360 OA
ATOM     31  H9  UNL     1      -7.617  27.413  30.367  1.00  0.00     0.212 HD
ENDBRANCH  14  30
BRANCH   1  32
HETATM   32  O2  UNL     1      -2.603  27.663  28.910  1.00  0.00    -0.314 OA
BRANCH  32  33
HETATM   33  C2  UNL     1      -2.117  28.674  28.091  1.00  0.00     0.255 C 
HETATM   34  C1  UNL     1      -2.336  28.677  26.619  1.00  0.00     0.126 C 
HETATM   35  O1  UNL     1      -1.473  29.606  28.637  1.00  0.00    -0.266 OA
ENDBRANCH  32  33
ENDBRANCH   1  32
BRANCH   9  36
HETATM   36  O6  UNL     1      -4.491  29.452  32.877  1.00  0.00    -0.364 OA
ATOM     37  H6  UNL     1      -4.689  30.232  33.382  1.00  0.00     0.212 HD
ENDBRANCH   9  36
BRANCH  11  38
HETATM   38  O7  UNL     1      -7.912  27.637  35.055  1.00  0.00    -0.294 OA
BRANCH  38  39
HETATM   39  C22 UNL     1      -9.164  27.050  34.823  1.00  0.00     0.229 C 
HETATM   40  N2  UNL     1      -9.852  26.780  35.857  1.00  0.00    -0.368 N 
ATOM     41  H22 UNL     1      -9.575  26.953  36.823  1.00  0.00     0.159 HD
ATOM     42  H21 UNL     1     -10.763  26.353  35.689  1.00  0.00     0.159 HD
HETATM   43  N3  UNL     1      -9.550  26.810  33.479  1.00  0.00    -0.056 NA
ENDBRANCH  38  39
ENDBRANCH  11  38
TORSDOF 12
ENDMDL
MODEL 2
REMARK VINA RESULT: -7.676900966      1.832      2.323
REMARK  12 active torsions:
REMARK  status: ('A' for Active; 'I' for Inactive)
REMARK    1  A    between atoms: C2_2  and  O2_4 
REMARK    2  A    between atoms: O2_4  and  C3_5 
REMARK    3  A    between atoms: C6_8  and  O3_9 
REMARK    4  A    between atoms: C7_11  and  C8_12 
REMARK    5  A    between atoms: C9_13  and  C10_14 
REMARK    6  A    between atoms: C15_19  and  O4_20 
REMARK    7  A    between atoms: O4_20  and  C16_21 
REMARK    8  A    between atoms: C19_26  and  O6_27 
REMARK    9  A    between atoms: C21_30  and  O7_31 
REMARK   10  A    between atoms: O7_31  and  C22_32 
REMARK   11  A    between atoms: C24_38  and  O8_39 
REMARK   12  A    between atoms: C25_41  and  O9_42 
ROOT
HETATM    1  C3  UNL     1      -4.420  25.920  28.978  1.00  0.00     0.168 C 
HETATM    2  C4  UNL     1      -4.515  24.448  29.269  1.00  0.00     0.047 C 
HETATM    3  C5  UNL     1      -4.757  24.109  30.686  1.00  0.00     0.088 C 
HETATM    4  C6  UNL     1      -3.415  24.101  31.408  1.00  0.00     0.145 C 
HETATM    5  C7  UNL     1      -3.542  25.402  32.213  1.00  0.00     0.069 C 
HETATM    6  C15 UNL     1      -3.414  26.502  31.221  1.00  0.00     0.186 C 
HETATM    7  C18 UNL     1      -4.571  26.673  30.283  1.00  0.00     0.290 C 
HETATM    8  N1  UNL     1      -5.829  26.268  30.810  1.00  0.00     0.170 N 
HETATM    9  C19 UNL     1      -6.545  27.268  31.527  1.00  0.00     0.394 C 
HETATM   10  C20 UNL     1      -6.714  26.855  32.950  1.00  0.00     0.004 C 
HETATM   11  C21 UNL     1      -7.853  26.969  33.606  1.00  0.00     0.152 C 
HETATM   12  C23 UNL     1      -5.478  26.297  33.572  1.00  0.00     0.085 C 
HETATM   13  C24 UNL     1      -4.946  25.191  32.741  1.00  0.00     0.138 C 
HETATM   14  C25 UNL     1      -5.690  24.998  31.429  1.00  0.00     0.301 C 
ENDROOT
BRANCH   5  15
HETATM   15  C8  UNL     1      -2.568  25.518  33.294  1.00  0.00    -0.012 C 
HETATM   16  C9  UNL     1      -1.260  25.512  33.127  1.00  0.00    -0.020 C 
BRANCH  16  17
HETATM   17  C10 UNL     1      -0.295  25.631  34.250  1.00  0.00    -0.027 C 
HETATM   18  C11 UNL     1      -0.923  25.464  35.621  1.00  0.00     0.019 C 
HETATM   19  C12 UNL     1       0.459  26.935  34.169  1.00  0.00     0.013 C 
HETATM   20  C13 UNL     1       1.692  26.155  33.814  1.00  0.00     0.002 C 
HETATM   21  C14 UNL     1       0.992  24.854  34.101  1.00  0.00     0.013 C 
ENDBRANCH  16  17
ENDBRANCH   5  15
BRANCH   4  22
HETATM   22  O3  UNL     1      -3.258  22.996  32.204  1.00  0.00    -0.394 OA
ATOM     23  H3  UNL     1      -3.606  23.129  33.078  1.00  0.00     0.210 HD
ENDBRANCH   4  22
BRANCH   6  24
HETATM   24  O4  UNL     1      -3.100  27.703  31.907  1.00  0.00    -0.313 OA
BRANCH  24  25
HETATM   25  C16 UNL     1      -2.720  28.861  31.212  1.00  0.00     0.255 C 
HETATM   26  C17 UNL     1      -1.653  28.843  30.169  1.00  0.00     0.126 C 
HETATM   27  O5  UNL     1      -3.334  29.912  31.521  1.00  0.00    -0.266 OA
ENDBRANCH  24  25
ENDBRANCH   6  24
BRANCH  13  28
HETATM   28  O8  UNL     1      -5.020  23.991  33.422  1.00  0.00    -0.383 OA
ATOM     29  H8  UNL     1      -4.520  24.042  34.229  1.00  0.00     0.210 HD
ENDBRANCH  13  28
BRANCH  14  30
HETATM   30  O9  UNL     1      -6.904  24.350  31.634  1.00  0.00    -0.360 OA
ATOM     31  H9  UNL     1      -7.594  24.988  31.770  1.00  0.00     0.212 HD
ENDBRANCH  14  30
BRANCH   1  32
HETATM   32  O2  UNL     1      -3.305  26.280  28.230  1.00  0.00    -0.314 OA
BRANCH  32  33
HETATM   33  C2  UNL     1      -3.338  27.359  27.355  1.00  0.00     0.255 C 
HETATM   34  C1  UNL     1      -2.144  27.785  26.574  1.00  0.00     0.126 C 
HETATM   35  O1  UNL     1      -4.425  27.980  27.237  1.00  0.00    -0.266 OA
ENDBRANCH  32  33
ENDBRANCH   1  32
BRANCH   9  36
HETATM   36  O6  UNL     1      -5.949  28.527  31.464  1.00  0.00    -0.364 OA
ATOM     37  H6  UNL     1      -5.008  28.493  31.336  1.00  0.00     0.212 HD
ENDBRANCH   9  36
BRANCH  11  38
HETATM   38  O7  UNL     1      -7.868  26.537  34.942  1.00  0.00    -0.294 OA
BRANCH  38  39
HETATM   39  C22 UNL     1      -8.610  27.264  35.883  1.00  0.00     0.229 C 
HETATM   40  N2  UNL     1      -9.380  28.160  35.413  1.00  0.00    -0.368 N 
ATOM     41  H22 UNL     1      -9.501  28.388  34.427  1.00  0.00     0.159 HD
ATOM     42  H21 UNL     1      -9.921  28.689  36.098  1.00  0.00     0.159 HD
HETATM   43  N3  UNL     1      -8.442  26.946  37.255  1.00  0.00    -0.056 NA
ENDBRANCH  38  39
ENDBRANCH  11  38
TORSDOF 12
ENDMDL
MODEL 3
REMARK VINA RESULT: -7.648761195      1.999      5.712
REMARK  12 active torsions:
REMARK  status: ('A' for Active; 'I' for Inactive)
REMARK    1  A    between atoms: C2_2  and  O2_4 
REMARK    2  A    between atoms: O2_4  and  C3_5 
REMARK    3  A    between atoms: C6_8  and  O3_9 
REMARK    4  A    between atoms: C7_11  and  C8_12 
REMARK    5  A    between atoms: C9_13  and  C10_14 
REMARK    6  A    between atoms: C15_19  and  O4_20 
REMARK    7  A    between atoms: O4_20  and  C16_21 
REMARK    8  A    between atoms: C19_26  and  O6_27 
REMARK    9  A    between atoms: C21_30  and  O7_31 
REMARK   10  A    between atoms: O7_31  and  C22_32 
REMARK   11  A    between atoms: C24_38  and  O8_39 
REMARK   12  A    between atoms: C25_41  and  O9_42 
ROOT
HETATM    1  C3  UNL     1      -2.814  23.673  32.806  1.00  0.00     0.168 C 
HETATM    2  C4  UNL     1      -2.017  24.830  33.344  1.00  0.00     0.047 C 
HETATM    3  C5  UNL     1      -2.639  26.155  33.150  1.00  0.00     0.088 C 
HETATM    4  C6  UNL     1      -2.285  26.645  31.750  1.00  0.00     0.145 C 
HETATM    5  C7  UNL     1      -3.642  26.459  31.055  1.00  0.00     0.069 C 
HETATM    6  C15 UNL     1      -3.812  24.991  30.895  1.00  0.00     0.186 C 
HETATM    7  C18 UNL     1      -4.068  24.221  32.156  1.00  0.00     0.290 C 
HETATM    8  N1  UNL     1      -4.733  24.955  33.176  1.00  0.00     0.170 N 
HETATM    9  C19 UNL     1      -6.155  24.923  33.128  1.00  0.00     0.394 C 
HETATM   10  C20 UNL     1      -6.690  26.297  32.899  1.00  0.00     0.004 C 
HETATM   11  C21 UNL     1      -7.708  26.798  33.572  1.00  0.00     0.152 C 
HETATM   12  C23 UNL     1      -5.970  27.060  31.838  1.00  0.00     0.085 C 
HETATM   13  C24 UNL     1      -4.516  27.080  32.125  1.00  0.00     0.138 C 
HETATM   14  C25 UNL     1      -4.115  26.226  33.317  1.00  0.00     0.301 C 
ENDROOT
BRANCH   5  15
HETATM   15  C8  UNL     1      -3.750  27.170  29.786  1.00  0.00    -0.012 C 
HETATM   16  C9  UNL     1      -3.150  26.805  28.670  1.00  0.00    -0.020 C 
BRANCH  16  17
HETATM   17  C10 UNL     1      -3.282  27.552  27.393  1.00  0.00    -0.027 C 
HETATM   18  C11 UNL     1      -4.715  27.865  27.008  1.00  0.00     0.019 C 
HETATM   19  C12 UNL     1      -2.581  26.823  26.274  1.00  0.00     0.013 C 
HETATM   20  C13 UNL     1      -1.550  27.915  26.260  1.00  0.00     0.002 C 
HETATM   21  C14 UNL     1      -2.361  28.739  27.223  1.00  0.00     0.013 C 
ENDBRANCH  16  17
ENDBRANCH   5  15
BRANCH   4  22
HETATM   22  O3  UNL     1      -1.860  27.948  31.746  1.00  0.00    -0.394 OA
ATOM     23  H3  UNL     1      -2.419  28.509  31.222  1.00  0.00     0.210 HD
ENDBRANCH   4  22
BRANCH   6  24
HETATM   24  O4  UNL     1      -4.805  24.750  29.911  1.00  0.00    -0.313 OA
BRANCH  24  25
HETATM   25  C16 UNL     1      -4.825  23.558  29.173  1.00  0.00     0.255 C 
HETATM   26  C17 UNL     1      -3.860  23.298  28.065  1.00  0.00     0.126 C 
HETATM   27  O5  UNL     1      -5.704  22.724  29.503  1.00  0.00    -0.266 OA
ENDBRANCH  24  25
ENDBRANCH   6  24
BRANCH  13  28
HETATM   28  O8  UNL     1      -4.091  28.367  32.395  1.00  0.00    -0.383 OA
ATOM     29  H8  UNL     1      -4.750  28.993  32.118  1.00  0.00     0.210 HD
ENDBRANCH  13  28
BRANCH  14  30
HETATM   30  O9  UNL     1      -4.429  26.861  34.514  1.00  0.00    -0.360 OA
ATOM     31  H9  UNL     1      -4.818  27.710  34.340  1.00  0.00     0.212 HD
ENDBRANCH  14  30
BRANCH   1  32
HETATM   32  O2  UNL     1      -2.082  22.804  32.005  1.00  0.00    -0.314 OA
BRANCH  32  33
HETATM   33  C2  UNL     1      -2.400  21.453  31.924  1.00  0.00     0.255 C 
HETATM   34  C1  UNL     1      -2.733  20.792  30.633  1.00  0.00     0.126 C 
HETATM   35  O1  UNL     1      -2.399  20.790  32.993  1.00  0.00    -0.266 OA
ENDBRANCH  32  33
ENDBRANCH   1  32
BRANCH   9  36
HETATM   36  O6  UNL     1      -6.656  24.049  32.164  1.00  0.00    -0.364 OA
ATOM     37  H6  UNL     1      -7.455  23.610  32.432  1.00  0.00     0.212 HD
ENDBRANCH   9  36
BRANCH  11  38
HETATM   38  O7  UNL     1      -8.104  28.107  33.252  1.00  0.00    -0.294 OA
BRANCH  38  39
HETATM   39  C22 UNL     1      -7.733  29.157  34.103  1.00  0.00     0.229 C 
HETATM   40  N2  UNL     1      -8.669  29.674  34.790  1.00  0.00    -0.368 N 
ATOM     41  H22 UNL     1      -9.649  29.392  34.775  1.00  0.00     0.159 HD
ATOM     42  H21 UNL     1      -8.400  30.437  35.410  1.00  0.00     0.159 HD
HETATM   43  N3  UNL     1      -6.370  29.548  34.125  1.00  0.00    -0.056 NA
ENDBRANCH  38  39
ENDBRANCH  11  38
TORSDOF 12
ENDMDL
MODEL 4
REMARK VINA RESULT: -7.605546592      1.866      2.406
REMARK  12 active torsions:
REMARK  status: ('A' for Active; 'I' for Inactive)
REMARK    1  A    between atoms: C2_2  and  O2_4 
REMARK    2  A    between atoms: O2_4  and  C3_5 
REMARK    3  A    between atoms: C6_8  and  O3_9 
REMARK    4  A    between atoms: C7_11  and  C8_12 
REMARK    5  A    between atoms: C9_13  and  C10_14 
REMARK    6  A    between atoms: C15_19  and  O4_20 
REMARK    7  A    between atoms: O4_20  and  C16_21 
REMARK    8  A    between atoms: C19_26  and  O6_27 
REMARK    9  A    between atoms: C21_30  and  O7_31 
REMARK   10  A    between atoms: O7_31  and  C22_32 
REMARK   11  A    between atoms: C24_38  and  O8_39 
REMARK   12  A    between atoms: C25_41  and  O9_42 
ROOT
HETATM    1  C3  UNL     1      -4.593  26.017  29.073  1.00  0.00     0.168 C 
HETATM    2  C4  UNL     1      -4.679  24.536  29.322  1.00  0.00     0.047 C 
HETATM    3  C5  UNL     1      -4.813  24.152  30.742  1.00  0.00     0.088 C 
HETATM    4  C6  UNL     1      -3.418  24.110  31.355  1.00  0.00     0.145 C 
HETATM    5  C7  UNL     1      -3.469  25.384  32.211  1.00  0.00     0.069 C 
HETATM    6  C15 UNL     1      -3.409  26.516  31.248  1.00  0.00     0.186 C 
HETATM    7  C18 UNL     1      -4.634  26.726  30.410  1.00  0.00     0.290 C 
HETATM    8  N1  UNL     1      -5.850  26.313  31.021  1.00  0.00     0.170 N 
HETATM    9  C19 UNL     1      -6.498  27.293  31.824  1.00  0.00     0.394 C 
HETATM   10  C20 UNL     1      -6.560  26.834  33.242  1.00  0.00     0.004 C 
HETATM   11  C21 UNL     1      -7.643  26.934  33.988  1.00  0.00     0.152 C 
HETATM   12  C23 UNL     1      -5.284  26.246  33.746  1.00  0.00     0.085 C 
HETATM   13  C24 UNL     1      -4.829  25.166  32.840  1.00  0.00     0.138 C 
HETATM   14  C25 UNL     1      -5.676  25.022  31.584  1.00  0.00     0.301 C 
ENDROOT
BRANCH   5  15
HETATM   15  C8  UNL     1      -2.413  25.456  33.215  1.00  0.00    -0.012 C 
HETATM   16  C9  UNL     1      -1.122  25.455  32.945  1.00  0.00    -0.020 C 
BRANCH  16  17
HETATM   17  C10 UNL     1      -0.071  25.529  33.992  1.00  0.00    -0.027 C 
HETATM   18  C11 UNL     1       0.959  26.618  33.754  1.00  0.00     0.019 C 
HETATM   19  C12 UNL     1       0.604  24.192  34.165  1.00  0.00     0.013 C 
HETATM   20  C13 UNL     1      -0.060  24.074  35.507  1.00  0.00     0.002 C 
HETATM   21  C14 UNL     1      -0.559  25.492  35.422  1.00  0.00     0.013 C 
ENDBRANCH  16  17
ENDBRANCH   5  15
BRANCH   4  22
HETATM   22  O3  UNL     1      -3.210  22.978  32.100  1.00  0.00    -0.394 OA
ATOM     23  H3  UNL     1      -2.295  22.727  32.127  1.00  0.00     0.210 HD
ENDBRANCH   4  22
BRANCH   6  24
HETATM   24  O4  UNL     1      -3.030  27.691  31.946  1.00  0.00    -0.313 OA
BRANCH  24  25
HETATM   25  C16 UNL     1      -2.672  28.861  31.261  1.00  0.00     0.255 C 
HETATM   26  C17 UNL     1      -1.605  28.873  30.218  1.00  0.00     0.126 C 
HETATM   27  O5  UNL     1      -3.305  29.898  31.580  1.00  0.00    -0.266 OA
ENDBRANCH  24  25
ENDBRANCH   6  24
BRANCH  13  28
HETATM   28  O8  UNL     1      -4.861  23.943  33.485  1.00  0.00    -0.383 OA
ATOM     29  H8  UNL     1      -4.674  24.058  34.409  1.00  0.00     0.210 HD
ENDBRANCH  13  28
BRANCH  14  30
HETATM   30  O9  UNL     1      -6.876  24.376  31.863  1.00  0.00    -0.360 OA
ATOM     31  H9  UNL     1      -7.338  24.185  31.056  1.00  0.00     0.212 HD
ENDBRANCH  14  30
BRANCH   1  32
HETATM   32  O2  UNL     1      -3.536  26.393  28.251  1.00  0.00    -0.314 OA
BRANCH  32  33
HETATM   33  C2  UNL     1      -3.636  27.486  27.400  1.00  0.00     0.255 C 
HETATM   34  C1  UNL     1      -2.441  28.123  26.782  1.00  0.00     0.126 C 
HETATM   35  O1  UNL     1      -4.786  27.934  27.159  1.00  0.00    -0.266 OA
ENDBRANCH  32  33
ENDBRANCH   1  32
BRANCH   9  36
HETATM   36  O6  UNL     1      -5.897  28.550  31.756  1.00  0.00    -0.364 OA
ATOM     37  H6  UNL     1      -6.496  29.241  31.499  1.00  0.00     0.212 HD
ENDBRANCH   9  36
BRANCH  11  38
HETATM   38  O7  UNL     1      -7.557  26.458  35.307  1.00  0.00    -0.294 OA
BRANCH  38  39
HETATM   39  C22 UNL     1      -7.285  27.364  36.341  1.00  0.00     0.229 C 
HETATM   40  N2  UNL     1      -7.734  28.543  36.181  1.00  0.00    -0.368 N 
ATOM     41  H22 UNL     1      -8.267  28.877  35.378  1.00  0.00     0.159 HD
ATOM     42  H21 UNL     1      -7.536  29.203  36.933  1.00  0.00     0.159 HD
HETATM   43  N3  UNL     1      -6.544  26.900  37.457  1.00  0.00    -0.056 NA
ENDBRANCH  38  39
ENDBRANCH  11  38
TORSDOF 12
ENDMDL
MODEL 5
REMARK VINA RESULT: -7.431452857      2.644      5.986
REMARK  12 active torsions:
REMARK  status: ('A' for Active; 'I' for Inactive)
REMARK    1  A    between atoms: C2_2  and  O2_4 
REMARK    2  A    between atoms: O2_4  and  C3_5 
REMARK    3  A    between atoms: C6_8  and  O3_9 
REMARK    4  A    between atoms: C7_11  and  C8_12 
REMARK    5  A    between atoms: C9_13  and  C10_14 
REMARK    6  A    between atoms: C15_19  and  O4_20 
REMARK    7  A    between atoms: O4_20  and  C16_21 
REMARK    8  A    between atoms: C19_26  and  O6_27 
REMARK    9  A    between atoms: C21_30  and  O7_31 
REMARK   10  A    between atoms: O7_31  and  C22_32 
REMARK   11  A    between atoms: C24_38  and  O8_39 
REMARK   12  A    between atoms: C25_41  and  O9_42 
ROOT
HETATM    1  C3  UNL     1      -6.094  27.965  33.420  1.00  0.00     0.168 C 
HETATM    2  C4  UNL     1      -5.978  26.845  34.418  1.00  0.00     0.047 C 
HETATM    3  C5  UNL     1      -4.729  26.062  34.330  1.00  0.00     0.088 C 
HETATM    4  C6  UNL     1      -4.911  24.999  33.253  1.00  0.00     0.145 C 
HETATM    5  C7  UNL     1      -4.030  25.594  32.145  1.00  0.00     0.069 C 
HETATM    6  C15 UNL     1      -4.777  26.769  31.626  1.00  0.00     0.186 C 
HETATM    7  C18 UNL     1      -4.858  27.951  32.545  1.00  0.00     0.290 C 
HETATM    8  N1  UNL     1      -3.760  28.085  33.439  1.00  0.00     0.170 N 
HETATM    9  C19 UNL     1      -2.650  28.824  32.941  1.00  0.00     0.394 C 
HETATM   10  C20 UNL     1      -1.446  27.947  32.859  1.00  0.00     0.004 C 
HETATM   11  C21 UNL     1      -0.249  28.320  33.269  1.00  0.00     0.152 C 
HETATM   12  C23 UNL     1      -1.713  26.602  32.269  1.00  0.00     0.085 C 
HETATM   13  C24 UNL     1      -2.824  25.941  32.994  1.00  0.00     0.138 C 
HETATM   14  C25 UNL     1      -3.488  26.826  34.037  1.00  0.00     0.301 C 
ENDROOT
BRANCH   5  15
HETATM   15  C8  UNL     1      -3.694  24.642  31.091  1.00  0.00    -0.012 C 
HETATM   16  C9  UNL     1      -4.565  23.860  30.484  1.00  0.00    -0.020 C 
BRANCH  16  17
HETATM   17  C10 UNL     1      -4.190  22.901  29.414  1.00  0.00    -0.027 C 
HETATM   18  C11 UNL     1      -3.207  21.835  29.859  1.00  0.00     0.019 C 
HETATM   19  C12 UNL     1      -3.665  23.631  28.203  1.00  0.00     0.013 C 
HETATM   20  C13 UNL     1      -4.914  23.234  27.470  1.00  0.00     0.002 C 
HETATM   21  C14 UNL     1      -5.334  22.336  28.602  1.00  0.00     0.013 C 
ENDBRANCH  16  17
ENDBRANCH   5  15
BRANCH   4  22
HETATM   22  O3  UNL     1      -4.485  23.763  33.665  1.00  0.00    -0.394 OA
ATOM     23  H3  UNL     1      -4.081  23.267  32.962  1.00  0.00     0.210 HD
ENDBRANCH   4  22
BRANCH   6  24
HETATM   24  O4  UNL     1      -4.257  27.116  30.352  1.00  0.00    -0.313 OA
BRANCH  24  25
HETATM   25  C16 UNL     1      -5.085  27.188  29.223  1.00  0.00     0.255 C 
HETATM   26  C17 UNL     1      -4.535  27.389  27.850  1.00  0.00     0.126 C 
HETATM   27  O5  UNL     1      -6.317  27.071  29.438  1.00  0.00    -0.266 OA
ENDBRANCH  24  25
ENDBRANCH   6  24
BRANCH  13  28
HETATM   28  O8  UNL     1      -2.371  24.815  33.656  1.00  0.00    -0.383 OA
ATOM     29  H8  UNL     1      -2.890  24.666  34.438  1.00  0.00     0.210 HD
ENDBRANCH  13  28
BRANCH  14  30
HETATM   30  O9  UNL     1      -2.704  26.920  35.183  1.00  0.00    -0.360 OA
ATOM     31  H9  UNL     1      -2.142  27.684  35.131  1.00  0.00     0.212 HD
ENDBRANCH  14  30
BRANCH   1  32
HETATM   32  O2  UNL     1      -7.296  27.980  32.721  1.00  0.00    -0.314 OA
BRANCH  32  33
HETATM   33  C2  UNL     1      -8.247  26.983  32.897  1.00  0.00     0.255 C 
HETATM   34  C1  UNL     1      -9.350  27.105  33.889  1.00  0.00     0.126 C 
HETATM   35  O1  UNL     1      -8.151  25.954  32.181  1.00  0.00    -0.266 OA
ENDBRANCH  32  33
ENDBRANCH   1  32
BRANCH   9  36
HETATM   36  O6  UNL     1      -2.892  29.419  31.703  1.00  0.00    -0.364 OA
ATOM     37  H6  UNL     1      -2.838  30.368  31.724  1.00  0.00     0.212 HD
ENDBRANCH   9  36
BRANCH  11  38
HETATM   38  O7  UNL     1       0.793  27.389  33.133  1.00  0.00    -0.294 OA
BRANCH  38  39
HETATM   39  C22 UNL     1       1.221  26.677  34.262  1.00  0.00     0.229 C 
HETATM   40  N2  UNL     1       2.479  26.579  34.415  1.00  0.00    -0.368 N 
ATOM     41  H22 UNL     1       3.190  26.970  33.796  1.00  0.00     0.159 HD
ATOM     42  H21 UNL     1       2.791  26.061  35.236  1.00  0.00     0.159 HD
HETATM   43  N3  UNL     1       0.233  26.133  35.122  1.00  0.00    -0.056 NA
ENDBRANCH  38  39
ENDBRANCH  11  38
TORSDOF 12
ENDMDL
