MODEL 1
REMARK VINA RESULT: -9.011706011      0.000      0.000
REMARK  13 active torsions:
REMARK  status: ('A' for Active; 'I' for Inactive)
REMARK    1  A    between atoms: O1_2  and  C2_3 
REMARK    2  A    between atoms: C2_3  and  C3_5 
REMARK    3  A    between atoms: C3_5  and  C4_6 
REMARK    4  A    between atoms: C4_6  and  O3_7 
REMARK    5  A    between atoms: C4_6  and  C5_9 
REMARK    6  A    between atoms: N1_11  and  C6_12 
REMARK    7  A    between atoms: C7_15  and  C8_16 
REMARK    8  A    between atoms: C9_17  and  C10_18 
REMARK    9  A    between atoms: C13_26  and  N6_27 
REMARK   10  A    between atoms: C19_39  and  N9_40 
REMARK   11  A    between atoms: N9_40  and  N10_42 
REMARK   12  A    between atoms: N10_42  and  N11_43 
REMARK   13  A    between atoms: C20_46  and  O5_47 
ROOT
HETATM    1  C6  UNL     1      -3.773  25.713  29.033  1.00  0.00     0.158 A 
HETATM    2  N2  UNL     1      -3.166  26.174  27.901  1.00  0.00    -0.330 N 
ATOM      3  H2  UNL     1      -2.782  27.112  27.790  1.00  0.00     0.168 HD
HETATM    4  C7  UNL     1      -3.145  25.224  26.955  1.00  0.00     0.117 A 
HETATM    5  C14 UNL     1      -3.743  24.107  27.447  1.00  0.00     0.094 A 
HETATM    6  C15 UNL     1      -4.129  24.428  28.746  1.00  0.00     0.104 A 
HETATM    7  N7  UNL     1      -4.783  23.393  29.472  1.00  0.00    -0.383 N 
ATOM      8  H7  UNL     1      -4.775  23.400  30.492  1.00  0.00     0.159 HD
HETATM    9  C16 UNL     1      -5.470  22.317  28.748  1.00  0.00     0.139 C 
HETATM   10  C17 UNL     1      -4.541  21.785  27.688  1.00  0.00     0.139 C 
HETATM   11  N8  UNL     1      -3.991  22.835  26.884  1.00  0.00    -0.384 N 
ATOM     12  H8  UNL     1      -3.778  22.663  25.901  1.00  0.00     0.159 HD
ENDROOT
BRANCH   1  13
HETATM   13  N1  UNL     1      -3.986  26.420  30.242  1.00  0.00    -0.237 N 
HETATM   14  O4  UNL     1      -4.278  25.695  31.339  1.00  0.00    -0.266 OA
HETATM   15  C5  UNL     1      -5.255  26.202  32.149  1.00  0.00     0.212 C 
HETATM   16  C20 UNL     1      -5.014  27.621  32.616  1.00  0.00     0.181 C 
HETATM   17  C19 UNL     1      -3.867  28.208  31.864  1.00  0.00     0.166 C 
HETATM   18  C18 UNL     1      -3.903  27.848  30.389  1.00  0.00     0.188 C 
BRANCH  15  19
HETATM   19  C4  UNL     1      -6.661  26.012  31.671  1.00  0.00     0.161 C 
BRANCH  19  20
HETATM   20  C3  UNL     1      -7.546  27.213  31.941  1.00  0.00     0.145 C 
BRANCH  20  21
HETATM   21  C2  UNL     1      -8.726  26.853  32.748  1.00  0.00     0.260 C 
HETATM   22  O2  UNL     1      -9.786  26.449  32.217  1.00  0.00    -0.265 OA
BRANCH  21  23
HETATM   23  O1  UNL     1      -8.663  26.963  34.120  1.00  0.00    -0.326 OA
HETATM   24  C1  UNL     1      -8.232  28.099  34.817  1.00  0.00     0.213 C 
ENDBRANCH  21  23
ENDBRANCH  20  21
ENDBRANCH  19  20
BRANCH  19  25
HETATM   25  O3  UNL     1      -7.285  24.882  32.160  1.00  0.00    -0.392 OA
ATOM     26  H3  UNL     1      -7.336  24.237  31.465  1.00  0.00     0.210 HD
ENDBRANCH  19  25
ENDBRANCH  15  19
BRANCH  16  27
HETATM   27  O5  UNL     1      -4.815  27.725  33.985  1.00  0.00    -0.386 OA
HETATM   28  C21 UNL     1      -4.821  26.519  34.636  1.00  0.00     0.202 C 
ENDBRANCH  16  27
BRANCH  17  29
HETATM   29  N9  UNL     1      -3.954  29.652  31.986  1.00  0.00    -0.243 N 
ATOM     30  H9  UNL     1      -4.643  30.182  31.452  1.00  0.00     0.197 HD
BRANCH  29  31
HETATM   31  N10 UNL     1      -3.175  30.221  32.750  1.00  0.00    -0.248 NA
BRANCH  31  32
HETATM   32  N11 UNL     1      -2.444  30.445  33.709  1.00  0.00    -0.261 N 
ATOM     33 2H11 UNL     1      -3.080  30.074  34.415  1.00  0.00     0.193 HD
ATOM     34 1H11 UNL     1      -1.644  30.748  34.264  1.00  0.00     0.193 HD
ENDBRANCH  31  32
ENDBRANCH  29  31
ENDBRANCH  17  29
ENDBRANCH   1  13
BRANCH   4  35
HETATM   35  C8  UNL     1      -2.579  25.370  25.630  1.00  0.00    -0.041 C 
HETATM   36  C9  UNL     1      -2.122  25.479  24.520  1.00  0.00    -0.052 C 
BRANCH  36  37
HETATM   37  C10 UNL     1      -1.568  25.594  23.187  1.00  0.00     0.102 A 
HETATM   38  C11 UNL     1      -1.716  24.594  22.251  1.00  0.00     0.139 A 
HETATM   39  N3  UNL     1      -2.443  23.423  22.649  1.00  0.00    -0.081 NA
HETATM   40  N4  UNL     1      -1.199  24.699  21.005  1.00  0.00    -0.340 N 
HETATM   41  C12 UNL     1      -0.519  25.802  20.649  1.00  0.00     0.183 A 
ATOM     42  H4  UNL     1      -1.325  23.940  20.335  1.00  0.00     0.167 HD
HETATM   43  N5  UNL     1      -0.359  26.793  21.533  1.00  0.00    -0.338 N 
HETATM   44  C13 UNL     1      -0.868  26.716  22.798  1.00  0.00     0.122 A 
ATOM     45  H5  UNL     1       0.157  27.628  21.255  1.00  0.00     0.168 HD
BRANCH  44  46
HETATM   46  N6  UNL     1      -0.707  27.672  23.640  1.00  0.00    -0.384 N 
ATOM     47  H62 UNL     1      -1.084  27.612  24.586  1.00  0.00     0.157 HD
ATOM     48  H61 UNL     1      -0.192  28.504  23.350  1.00  0.00     0.157 HD
ENDBRANCH  44  46
ENDBRANCH  36  37
ENDBRANCH   4  35
TORSDOF 13
ENDMDL
MODEL 2
REMARK VINA RESULT: -8.915970443      2.301      3.908
REMARK  13 active torsions:
REMARK  status: ('A' for Active; 'I' for Inactive)
REMARK    1  A    between atoms: O1_2  and  C2_3 
REMARK    2  A    between atoms: C2_3  and  C3_5 
REMARK    3  A    between atoms: C3_5  and  C4_6 
REMARK    4  A    between atoms: C4_6  and  O3_7 
REMARK    5  A    between atoms: C4_6  and  C5_9 
REMARK    6  A    between atoms: N1_11  and  C6_12 
REMARK    7  A    between atoms: C7_15  and  C8_16 
REMARK    8  A    between atoms: C9_17  and  C10_18 
REMARK    9  A    between atoms: C13_26  and  N6_27 
REMARK   10  A    between atoms: C19_39  and  N9_40 
REMARK   11  A    between atoms: N9_40  and  N10_42 
REMARK   12  A    between atoms: N10_42  and  N11_43 
REMARK   13  A    between atoms: C20_46  and  O5_47 
ROOT
HETATM    1  C6  UNL     1      -4.523  25.560  28.966  1.00  0.00     0.158 A 
HETATM    2  N2  UNL     1      -4.056  26.051  27.783  1.00  0.00    -0.330 N 
ATOM      3  H2  UNL     1      -4.198  27.007  27.455  1.00  0.00     0.168 HD
HETATM    4  C7  UNL     1      -3.385  25.106  27.109  1.00  0.00     0.117 A 
HETATM    5  C14 UNL     1      -3.396  23.960  27.840  1.00  0.00     0.094 A 
HETATM    6  C15 UNL     1      -4.110  24.260  28.997  1.00  0.00     0.104 A 
HETATM    7  N7  UNL     1      -4.251  23.195  29.932  1.00  0.00    -0.383 N 
ATOM      8  H7  UNL     1      -4.423  23.398  30.917  1.00  0.00     0.159 HD
HETATM    9  C16 UNL     1      -4.148  21.805  29.473  1.00  0.00     0.139 C 
HETATM   10  C17 UNL     1      -2.911  21.673  28.624  1.00  0.00     0.139 C 
HETATM   11  N8  UNL     1      -2.852  22.677  27.606  1.00  0.00    -0.384 N 
ATOM     12  H8  UNL     1      -2.415  22.466  26.708  1.00  0.00     0.159 HD
ENDROOT
BRANCH   1  13
HETATM   13  N1  UNL     1      -5.274  26.252  29.948  1.00  0.00    -0.237 N 
HETATM   14  O4  UNL     1      -5.127  27.589  30.010  1.00  0.00    -0.266 OA
HETATM   15  C5  UNL     1      -5.052  28.125  31.265  1.00  0.00     0.212 C 
HETATM   16  C20 UNL     1      -6.209  27.771  32.173  1.00  0.00     0.181 C 
HETATM   17  C19 UNL     1      -7.038  26.707  31.537  1.00  0.00     0.166 C 
HETATM   18  C18 UNL     1      -6.189  25.638  30.872  1.00  0.00     0.188 C 
BRANCH  15  19
HETATM   19  C4  UNL     1      -3.737  27.966  31.964  1.00  0.00     0.161 C 
BRANCH  19  20
HETATM   20  C3  UNL     1      -2.590  27.692  31.012  1.00  0.00     0.145 C 
BRANCH  20  21
HETATM   21  C2  UNL     1      -1.630  28.811  30.974  1.00  0.00     0.260 C 
HETATM   22  O2  UNL     1      -1.003  29.173  31.997  1.00  0.00    -0.265 OA
BRANCH  21  23
HETATM   23  O1  UNL     1      -1.415  29.473  29.785  1.00  0.00    -0.326 OA
HETATM   24  C1  UNL     1      -1.826  29.018  28.525  1.00  0.00     0.213 C 
ENDBRANCH  21  23
ENDBRANCH  20  21
ENDBRANCH  19  20
BRANCH  19  25
HETATM   25  O3  UNL     1      -3.728  27.006  32.956  1.00  0.00    -0.392 OA
ATOM     26  H3  UNL     1      -4.266  26.275  32.678  1.00  0.00     0.210 HD
ENDBRANCH  19  25
ENDBRANCH  15  19
BRANCH  16  27
HETATM   27  O5  UNL     1      -6.989  28.864  32.525  1.00  0.00    -0.386 OA
HETATM   28  C21 UNL     1      -6.737  29.338  33.785  1.00  0.00     0.202 C 
ENDBRANCH  16  27
BRANCH  17  29
HETATM   29  N9  UNL     1      -7.829  26.081  32.581  1.00  0.00    -0.243 N 
ATOM     30  H9  UNL     1      -7.468  25.282  33.103  1.00  0.00     0.197 HD
BRANCH  29  31
HETATM   31  N10 UNL     1      -8.945  26.540  32.822  1.00  0.00    -0.248 NA
BRANCH  31  32
HETATM   32  N11 UNL     1      -9.834  27.298  33.195  1.00  0.00    -0.261 N 
ATOM     33 2H11 UNL     1      -9.474  28.124  32.718  1.00  0.00     0.193 HD
ATOM     34 1H11 UNL     1     -10.675  27.650  33.651  1.00  0.00     0.193 HD
ENDBRANCH  31  32
ENDBRANCH  29  31
ENDBRANCH  17  29
ENDBRANCH   1  13
BRANCH   4  35
HETATM   35  C8  UNL     1      -2.757  25.281  25.816  1.00  0.00    -0.041 C 
HETATM   36  C9  UNL     1      -2.252  25.425  24.731  1.00  0.00    -0.052 C 
BRANCH  36  37
HETATM   37  C10 UNL     1      -1.647  25.580  23.424  1.00  0.00     0.102 A 
HETATM   38  C11 UNL     1      -1.769  24.615  22.448  1.00  0.00     0.139 A 
HETATM   39  N3  UNL     1      -2.523  23.440  22.778  1.00  0.00    -0.081 NA
HETATM   40  N4  UNL     1      -1.205  24.758  21.227  1.00  0.00    -0.340 N 
HETATM   41  C12 UNL     1      -0.502  25.866  20.936  1.00  0.00     0.183 A 
ATOM     42  H4  UNL     1      -1.314  24.024  20.527  1.00  0.00     0.167 HD
HETATM   43  N5  UNL     1      -0.365  26.823  21.860  1.00  0.00    -0.338 N 
HETATM   44  C13 UNL     1      -0.922  26.707  23.101  1.00  0.00     0.122 A 
ATOM     45  H5  UNL     1       0.169  27.661  21.631  1.00  0.00     0.168 HD
BRANCH  44  46
HETATM   46  N6  UNL     1      -0.783  27.632  23.982  1.00  0.00    -0.384 N 
ATOM     47  H62 UNL     1      -0.764  27.414  24.978  1.00  0.00     0.157 HD
ATOM     48  H61 UNL     1      -0.692  28.600  23.672  1.00  0.00     0.157 HD
ENDBRANCH  44  46
ENDBRANCH  36  37
ENDBRANCH   4  35
TORSDOF 13
ENDMDL
MODEL 3
REMARK VINA RESULT: -8.866495363      3.633      6.102
REMARK  13 active torsions:
REMARK  status: ('A' for Active; 'I' for Inactive)
REMARK    1  A    between atoms: O1_2  and  C2_3 
REMARK    2  A    between atoms: C2_3  and  C3_5 
REMARK    3  A    between atoms: C3_5  and  C4_6 
REMARK    4  A    between atoms: C4_6  and  O3_7 
REMARK    5  A    between atoms: C4_6  and  C5_9 
REMARK    6  A    between atoms: N1_11  and  C6_12 
REMARK    7  A    between atoms: C7_15  and  C8_16 
REMARK    8  A    between atoms: C9_17  and  C10_18 
REMARK    9  A    between atoms: C13_26  and  N6_27 
REMARK   10  A    between atoms: C19_39  and  N9_40 
REMARK   11  A    between atoms: N9_40  and  N10_42 
REMARK   12  A    between atoms: N10_42  and  N11_43 
REMARK   13  A    between atoms: C20_46  and  O5_47 
ROOT
HETATM    1  C6  UNL     1      -4.041  23.864  28.074  1.00  0.00     0.158 A 
HETATM    2  N2  UNL     1      -3.522  22.618  28.267  1.00  0.00    -0.330 N 
ATOM      3  H2  UNL     1      -3.545  22.111  29.152  1.00  0.00     0.168 HD
HETATM    4  C7  UNL     1      -2.979  22.151  27.134  1.00  0.00     0.117 A 
HETATM    5  C14 UNL     1      -3.128  23.088  26.162  1.00  0.00     0.094 A 
HETATM    6  C15 UNL     1      -3.794  24.152  26.764  1.00  0.00     0.104 A 
HETATM    7  N7  UNL     1      -4.068  25.268  25.923  1.00  0.00    -0.383 N 
ATOM      8  H7  UNL     1      -4.832  25.905  26.151  1.00  0.00     0.159 HD
HETATM    9  C16 UNL     1      -3.249  25.498  24.728  1.00  0.00     0.139 C 
HETATM   10  C17 UNL     1      -3.146  24.204  23.962  1.00  0.00     0.139 C 
HETATM   11  N8  UNL     1      -2.744  23.117  24.802  1.00  0.00    -0.384 N 
ATOM     12  H8  UNL     1      -2.177  22.361  24.417  1.00  0.00     0.159 HD
ENDROOT
BRANCH   1  13
HETATM   13  N1  UNL     1      -4.693  24.681  29.030  1.00  0.00    -0.237 N 
HETATM   14  O4  UNL     1      -4.971  25.950  28.673  1.00  0.00    -0.266 OA
HETATM   15  C5  UNL     1      -4.750  26.903  29.628  1.00  0.00     0.212 C 
HETATM   16  C20 UNL     1      -5.456  26.655  30.943  1.00  0.00     0.181 C 
HETATM   17  C19 UNL     1      -6.035  25.280  30.950  1.00  0.00     0.166 C 
HETATM   18  C18 UNL     1      -5.091  24.256  30.346  1.00  0.00     0.188 C 
BRANCH  15  19
HETATM   19  C4  UNL     1      -3.320  27.294  29.838  1.00  0.00     0.161 C 
BRANCH  19  20
HETATM   20  C3  UNL     1      -2.961  27.464  31.300  1.00  0.00     0.145 C 
BRANCH  20  21
HETATM   21  C2  UNL     1      -2.377  28.791  31.571  1.00  0.00     0.260 C 
HETATM   22  O2  UNL     1      -3.094  29.778  31.856  1.00  0.00    -0.265 OA
BRANCH  21  23
HETATM   23  O1  UNL     1      -1.009  28.950  31.511  1.00  0.00    -0.326 OA
HETATM   24  C1  UNL     1      -0.115  28.615  32.537  1.00  0.00     0.213 C 
ENDBRANCH  21  23
ENDBRANCH  20  21
ENDBRANCH  19  20
BRANCH  19  25
HETATM   25  O3  UNL     1      -2.929  28.426  29.151  1.00  0.00    -0.392 OA
ATOM     26  H3  UNL     1      -3.426  28.479  28.343  1.00  0.00     0.210 HD
ENDBRANCH  19  25
ENDBRANCH  15  19
BRANCH  16  27
HETATM   27  O5  UNL     1      -6.426  27.603  31.235  1.00  0.00    -0.386 OA
HETATM   28  C21 UNL     1      -6.230  28.241  32.432  1.00  0.00     0.202 C 
ENDBRANCH  16  27
BRANCH  17  29
HETATM   29  N9  UNL     1      -6.285  24.915  32.332  1.00  0.00    -0.243 N 
ATOM     30  H9  UNL     1      -7.237  24.799  32.679  1.00  0.00     0.197 HD
BRANCH  29  31
HETATM   31  N10 UNL     1      -5.319  24.750  33.075  1.00  0.00    -0.248 NA
BRANCH  31  32
HETATM   32  N11 UNL     1      -4.382  24.982  33.832  1.00  0.00    -0.261 N 
ATOM     33 2H11 UNL     1      -4.763  25.850  34.207  1.00  0.00     0.193 HD
ATOM     34 1H11 UNL     1      -3.496  24.891  34.329  1.00  0.00     0.193 HD
ENDBRANCH  31  32
ENDBRANCH  29  31
ENDBRANCH  17  29
ENDBRANCH   1  13
BRANCH   4  35
HETATM   35  C8  UNL     1      -2.339  20.861  26.979  1.00  0.00    -0.041 C 
HETATM   36  C9  UNL     1      -1.788  19.796  26.854  1.00  0.00    -0.052 C 
BRANCH  36  37
HETATM   37  C10 UNL     1      -1.119  18.522  26.689  1.00  0.00     0.102 A 
HETATM   38  C11 UNL     1      -1.058  17.596  27.708  1.00  0.00     0.139 A 
HETATM   39  N3  UNL     1      -1.686  17.944  28.950  1.00  0.00    -0.081 NA
HETATM   40  N4  UNL     1      -0.434  16.406  27.556  1.00  0.00    -0.340 N 
HETATM   41  C12 UNL     1       0.150  16.097  26.386  1.00  0.00     0.183 A 
ATOM     42  H4  UNL     1      -0.406  15.743  28.331  1.00  0.00     0.167 HD
HETATM   43  N5  UNL     1       0.109  16.972  25.376  1.00  0.00    -0.338 N 
HETATM   44  C13 UNL     1      -0.512  18.182  25.499  1.00  0.00     0.122 A 
ATOM     45  H5  UNL     1       0.554  16.730  24.490  1.00  0.00     0.168 HD
BRANCH  44  46
HETATM   46  N6  UNL     1      -0.546  19.016  24.523  1.00  0.00    -0.384 N 
ATOM     47  H62 UNL     1      -1.365  19.600  24.354  1.00  0.00     0.157 HD
ATOM     48  H61 UNL     1       0.266  19.090  23.909  1.00  0.00     0.157 HD
ENDBRANCH  44  46
ENDBRANCH  36  37
ENDBRANCH   4  35
TORSDOF 13
ENDMDL
MODEL 4
REMARK VINA RESULT: -8.771086949      2.308      4.138
REMARK  13 active torsions:
REMARK  status: ('A' for Active; 'I' for Inactive)
REMARK    1  A    between atoms: O1_2  and  C2_3 
REMARK    2  A    between atoms: C2_3  and  C3_5 
REMARK    3  A    between atoms: C3_5  and  C4_6 
REMARK    4  A    between atoms: C4_6  and  O3_7 
REMARK    5  A    between atoms: C4_6  and  C5_9 
REMARK    6  A    between atoms: N1_11  and  C6_12 
REMARK    7  A    between atoms: C7_15  and  C8_16 
REMARK    8  A    between atoms: C9_17  and  C10_18 
REMARK    9  A    between atoms: C13_26  and  N6_27 
REMARK   10  A    between atoms: C19_39  and  N9_40 
REMARK   11  A    between atoms: N9_40  and  N10_42 
REMARK   12  A    between atoms: N10_42  and  N11_43 
REMARK   13  A    between atoms: C20_46  and  O5_47 
ROOT
HETATM    1  C6  UNL     1      -4.494  25.523  28.905  1.00  0.00     0.158 A 
HETATM    2  N2  UNL     1      -4.048  26.001  27.708  1.00  0.00    -0.330 N 
ATOM      3  H2  UNL     1      -4.203  26.950  27.368  1.00  0.00     0.168 HD
HETATM    4  C7  UNL     1      -3.377  25.052  27.039  1.00  0.00     0.117 A 
HETATM    5  C14 UNL     1      -3.367  23.917  27.787  1.00  0.00     0.094 A 
HETATM    6  C15 UNL     1      -4.068  24.228  28.950  1.00  0.00     0.104 A 
HETATM    7  N7  UNL     1      -4.185  23.176  29.902  1.00  0.00    -0.383 N 
ATOM      8  H7  UNL     1      -4.346  23.392  30.886  1.00  0.00     0.159 HD
HETATM    9  C16 UNL     1      -4.075  21.780  29.463  1.00  0.00     0.139 C 
HETATM   10  C17 UNL     1      -2.849  21.646  28.598  1.00  0.00     0.139 C 
HETATM   11  N8  UNL     1      -2.813  22.636  27.565  1.00  0.00    -0.384 N 
ATOM     12  H8  UNL     1      -2.387  22.416  26.664  1.00  0.00     0.159 HD
ENDROOT
BRANCH   1  13
HETATM   13  N1  UNL     1      -5.238  26.222  29.886  1.00  0.00    -0.237 N 
HETATM   14  O4  UNL     1      -5.082  27.559  29.944  1.00  0.00    -0.266 OA
HETATM   15  C5  UNL     1      -5.001  28.098  31.197  1.00  0.00     0.212 C 
HETATM   16  C20 UNL     1      -6.158  27.754  32.109  1.00  0.00     0.181 C 
HETATM   17  C19 UNL     1      -6.995  26.693  31.479  1.00  0.00     0.166 C 
HETATM   18  C18 UNL     1      -6.154  25.617  30.815  1.00  0.00     0.188 C 
BRANCH  15  19
HETATM   19  C4  UNL     1      -3.685  27.933  31.893  1.00  0.00     0.161 C 
BRANCH  19  20
HETATM   20  C3  UNL     1      -2.539  27.664  30.938  1.00  0.00     0.145 C 
BRANCH  20  21
HETATM   21  C2  UNL     1      -1.641  28.826  30.818  1.00  0.00     0.260 C 
HETATM   22  O2  UNL     1      -0.915  29.196  31.771  1.00  0.00    -0.265 OA
BRANCH  21  23
HETATM   23  O1  UNL     1      -1.594  29.522  29.630  1.00  0.00    -0.326 OA
HETATM   24  C1  UNL     1      -1.836  28.970  28.365  1.00  0.00     0.213 C 
ENDBRANCH  21  23
ENDBRANCH  20  21
ENDBRANCH  19  20
BRANCH  19  25
HETATM   25  O3  UNL     1      -3.676  26.967  32.880  1.00  0.00    -0.392 OA
ATOM     26  H3  UNL     1      -4.541  26.580  32.935  1.00  0.00     0.210 HD
ENDBRANCH  19  25
ENDBRANCH  15  19
BRANCH  16  27
HETATM   27  O5  UNL     1      -6.930  28.852  32.460  1.00  0.00    -0.386 OA
HETATM   28  C21 UNL     1      -6.709  29.297  33.737  1.00  0.00     0.202 C 
ENDBRANCH  16  27
BRANCH  17  29
HETATM   29  N9  UNL     1      -7.787  26.075  32.527  1.00  0.00    -0.243 N 
ATOM     30  H9  UNL     1      -7.421  25.289  33.065  1.00  0.00     0.197 HD
BRANCH  29  31
HETATM   31  N10 UNL     1      -8.910  26.524  32.751  1.00  0.00    -0.248 NA
BRANCH  31  32
HETATM   32  N11 UNL     1      -9.811  27.269  33.123  1.00  0.00    -0.261 N 
ATOM     33 2H11 UNL     1     -10.421  27.103  32.322  1.00  0.00     0.193 HD
ATOM     34 1H11 UNL     1     -10.349  27.929  33.683  1.00  0.00     0.193 HD
ENDBRANCH  31  32
ENDBRANCH  29  31
ENDBRANCH  17  29
ENDBRANCH   1  13
BRANCH   4  35
HETATM   35  C8  UNL     1      -2.768  25.214  25.735  1.00  0.00    -0.041 C 
HETATM   36  C9  UNL     1      -2.280  25.351  24.641  1.00  0.00    -0.052 C 
BRANCH  36  37
HETATM   37  C10 UNL     1      -1.699  25.499  23.323  1.00  0.00     0.102 A 
HETATM   38  C11 UNL     1      -1.013  26.636  22.956  1.00  0.00     0.139 A 
HETATM   39  N3  UNL     1      -0.895  27.677  23.936  1.00  0.00    -0.081 NA
HETATM   40  N4  UNL     1      -0.469  26.777  21.725  1.00  0.00    -0.340 N 
HETATM   41  C12 UNL     1      -0.590  25.791  20.819  1.00  0.00     0.183 A 
ATOM     42  H4  UNL     1       0.032  27.631  21.485  1.00  0.00     0.167 HD
HETATM   43  N5  UNL     1      -1.250  24.674  21.143  1.00  0.00    -0.338 N 
HETATM   44  C13 UNL     1      -1.810  24.503  22.377  1.00  0.00     0.122 A 
ATOM     45  H5  UNL     1      -1.336  23.930  20.451  1.00  0.00     0.168 HD
BRANCH  44  46
HETATM   46  N6  UNL     1      -2.441  23.426  22.678  1.00  0.00    -0.384 N 
ATOM     47  H62 UNL     1      -3.459  23.413  22.752  1.00  0.00     0.157 HD
ATOM     48  H61 UNL     1      -1.910  22.571  22.845  1.00  0.00     0.157 HD
ENDBRANCH  44  46
ENDBRANCH  36  37
ENDBRANCH   4  35
TORSDOF 13
ENDMDL
MODEL 5
REMARK VINA RESULT: -8.714900413      2.084      3.385
REMARK  13 active torsions:
REMARK  status: ('A' for Active; 'I' for Inactive)
REMARK    1  A    between atoms: O1_2  and  C2_3 
REMARK    2  A    between atoms: C2_3  and  C3_5 
REMARK    3  A    between atoms: C3_5  and  C4_6 
REMARK    4  A    between atoms: C4_6  and  O3_7 
REMARK    5  A    between atoms: C4_6  and  C5_9 
REMARK    6  A    between atoms: N1_11  and  C6_12 
REMARK    7  A    between atoms: C7_15  and  C8_16 
REMARK    8  A    between atoms: C9_17  and  C10_18 
REMARK    9  A    between atoms: C13_26  and  N6_27 
REMARK   10  A    between atoms: C19_39  and  N9_40 
REMARK   11  A    between atoms: N9_40  and  N10_42 
REMARK   12  A    between atoms: N10_42  and  N11_43 
REMARK   13  A    between atoms: C20_46  and  O5_47 
ROOT
HETATM    1  C6  UNL     1      -3.954  26.142  29.273  1.00  0.00     0.158 A 
HETATM    2  N2  UNL     1      -3.331  26.547  28.128  1.00  0.00    -0.330 N 
ATOM      3  H2  UNL     1      -2.943  27.477  27.977  1.00  0.00     0.168 HD
HETATM    4  C7  UNL     1      -3.300  25.552  27.230  1.00  0.00     0.117 A 
HETATM    5  C14 UNL     1      -3.907  24.461  27.767  1.00  0.00     0.094 A 
HETATM    6  C15 UNL     1      -4.309  24.846  29.043  1.00  0.00     0.104 A 
HETATM    7  N7  UNL     1      -4.975  23.848  29.810  1.00  0.00    -0.383 N 
ATOM      8  H7  UNL     1      -4.980  23.903  30.829  1.00  0.00     0.159 HD
HETATM    9  C16 UNL     1      -5.655  22.740  29.129  1.00  0.00     0.139 C 
HETATM   10  C17 UNL     1      -4.714  22.156  28.109  1.00  0.00     0.139 C 
HETATM   11  N8  UNL     1      -4.152  23.164  27.262  1.00  0.00    -0.384 N 
ATOM     12  H8  UNL     1      -3.927  22.945  26.291  1.00  0.00     0.159 HD
ENDROOT
BRANCH   1  13
HETATM   13  N1  UNL     1      -4.180  26.906  30.444  1.00  0.00    -0.237 N 
HETATM   14  O4  UNL     1      -3.131  27.107  31.264  1.00  0.00    -0.266 OA
HETATM   15  C5  UNL     1      -3.389  27.003  32.602  1.00  0.00     0.212 C 
HETATM   16  C20 UNL     1      -4.508  27.891  33.100  1.00  0.00     0.181 C 
HETATM   17  C19 UNL     1      -5.225  28.492  31.939  1.00  0.00     0.166 C 
HETATM   18  C18 UNL     1      -5.440  27.492  30.817  1.00  0.00     0.188 C 
BRANCH  15  19
HETATM   19  C4  UNL     1      -3.515  25.609  33.135  1.00  0.00     0.161 C 
BRANCH  19  20
HETATM   20  C3  UNL     1      -2.419  24.686  32.644  1.00  0.00     0.145 C 
BRANCH  20  21
HETATM   21  C2  UNL     1      -2.805  23.268  32.756  1.00  0.00     0.260 C 
HETATM   22  O2  UNL     1      -2.806  22.672  33.859  1.00  0.00    -0.265 OA
BRANCH  21  23
HETATM   23  O1  UNL     1      -3.176  22.578  31.622  1.00  0.00    -0.326 OA
HETATM   24  C1  UNL     1      -2.558  21.412  31.152  1.00  0.00     0.213 C 
ENDBRANCH  21  23
ENDBRANCH  20  21
ENDBRANCH  19  20
BRANCH  19  25
HETATM   25  O3  UNL     1      -4.737  25.013  32.895  1.00  0.00    -0.392 OA
ATOM     26  H3  UNL     1      -4.783  24.203  33.389  1.00  0.00     0.210 HD
ENDBRANCH  19  25
ENDBRANCH  15  19
BRANCH  16  27
HETATM   27  O5  UNL     1      -4.081  28.874  33.983  1.00  0.00    -0.386 OA
HETATM   28  C21 UNL     1      -3.224  29.783  33.422  1.00  0.00     0.202 C 
ENDBRANCH  16  27
BRANCH  17  29
HETATM   29  N9  UNL     1      -6.524  28.940  32.409  1.00  0.00    -0.243 N 
ATOM     30  H9  UNL     1      -6.603  29.706  33.078  1.00  0.00     0.197 HD
BRANCH  29  31
HETATM   31  N10 UNL     1      -7.527  28.372  31.979  1.00  0.00    -0.248 NA
BRANCH  31  32
HETATM   32  N11 UNL     1      -8.691  28.004  31.855  1.00  0.00    -0.261 N 
ATOM     33 2H11 UNL     1      -8.714  28.074  30.837  1.00  0.00     0.193 HD
ATOM     34 1H11 UNL     1      -9.631  27.682  32.080  1.00  0.00     0.193 HD
ENDBRANCH  31  32
ENDBRANCH  29  31
ENDBRANCH  17  29
ENDBRANCH   1  13
BRANCH   4  35
HETATM   35  C8  UNL     1      -2.717  25.633  25.907  1.00  0.00    -0.041 C 
HETATM   36  C9  UNL     1      -2.237  25.681  24.802  1.00  0.00    -0.052 C 
BRANCH  36  37
HETATM   37  C10 UNL     1      -1.649  25.728  23.479  1.00  0.00     0.102 A 
HETATM   38  C11 UNL     1      -1.847  24.721  22.560  1.00  0.00     0.139 A 
HETATM   39  N3  UNL     1      -2.663  23.613  22.965  1.00  0.00    -0.081 NA
HETATM   40  N4  UNL     1      -1.298  24.763  21.324  1.00  0.00    -0.340 N 
HETATM   41  C12 UNL     1      -0.535  25.808  20.962  1.00  0.00     0.183 A 
ATOM     42  H4  UNL     1      -1.463  24.000  20.668  1.00  0.00     0.167 HD
HETATM   43  N5  UNL     1      -0.323  26.803  21.830  1.00  0.00    -0.338 N 
HETATM   44  C13 UNL     1      -0.862  26.789  23.084  1.00  0.00     0.122 A 
ATOM     45  H5  UNL     1       0.257  27.594  21.547  1.00  0.00     0.168 HD
BRANCH  44  46
HETATM   46  N6  UNL     1      -0.653  27.750  23.910  1.00  0.00    -0.384 N 
ATOM     47  H62 UNL     1      -0.261  28.639  23.598  1.00  0.00     0.157 HD
ATOM     48  H61 UNL     1      -0.884  27.615  24.894  1.00  0.00     0.157 HD
ENDBRANCH  44  46
ENDBRANCH  36  37
ENDBRANCH   4  35
TORSDOF 13
ENDMDL
