MODEL 1
REMARK VINA RESULT: -7.069834022      0.000      0.000
REMARK  2 active torsions:
REMARK  status: ('A' for Active; 'I' for Inactive)
REMARK    1  A    between atoms: C4_8  and  C5_9 
REMARK    2  A    between atoms: N3_18  and  C9_19 
ROOT
HETATM    1  C5  UNL     1      14.424   6.979  11.011  1.00  0.00     0.065 A 
HETATM    2  C6  UNL     1      13.365   6.933  10.139  1.00  0.00     0.106 A 
HETATM    3 BR1  UNL     1      12.586   8.530   9.501  1.00  0.00    -0.043 Br
HETATM    4  C7  UNL     1      12.871   5.713   9.661  1.00  0.00     0.269 A 
HETATM    5  O3  UNL     1      11.891   5.712   8.860  1.00  0.00    -0.267 OA
HETATM    6  N2  UNL     1      13.457   4.599  10.074  1.00  0.00    -0.274 N 
ATOM      7  H2  UNL     1      13.116   3.698   9.740  1.00  0.00     0.173 HD
HETATM    8  C8  UNL     1      14.493   4.640  10.924  1.00  0.00     0.331 A 
HETATM    9  O4  UNL     1      14.997   3.552  11.270  1.00  0.00    -0.246 OA
HETATM   10  N3  UNL     1      14.991   5.794  11.402  1.00  0.00    -0.267 N 
ENDROOT
BRANCH  10  11
HETATM   11  C9  UNL     1      16.086   5.860  12.305  1.00  0.00     0.320 C 
HETATM   12  C10 UNL     1      15.739   5.432  13.728  1.00  0.00     0.287 C 
HETATM   13  N4  UNL     1      16.850   5.920  14.551  1.00  0.00    -0.070 N 
HETATM   14  C11 UNL     1      18.111   5.393  14.133  1.00  0.00     0.260 C 
ATOM     15  H42 UNL     1      16.868   6.939  14.576  1.00  0.00     0.277 HD
ATOM     16  H41 UNL     1      16.683   5.734  15.540  1.00  0.00     0.277 HD
HETATM   17  C12 UNL     1      18.375   5.691  12.666  1.00  0.00     0.262 C 
HETATM   18  N5  UNL     1      17.248   5.079  11.934  1.00  0.00    -0.050 N 
ATOM     19  H52 UNL     1      17.143   4.078  12.102  1.00  0.00     0.279 HD
ATOM     20  H51 UNL     1      17.397   5.015  10.927  1.00  0.00     0.279 HD
ENDBRANCH  10  11
BRANCH   1  21
HETATM   21  C4  UNL     1      14.892   8.242  11.544  1.00  0.00     0.056 C 
HETATM   22  C3  UNL     1      14.421   8.911  12.544  1.00  0.00     0.080 C 
HETATM   23  C2  UNL     1      13.334   8.726  13.493  1.00  0.00     0.266 C 
HETATM   24  S1  UNL     1      15.070  10.540  13.074  1.00  0.00    -0.024 SA
HETATM   25  N1  UNL     1      12.850   9.882  14.099  1.00  0.00    -0.283 N 
HETATM   26  O2  UNL     1      12.872   7.551  13.741  1.00  0.00    -0.267 OA
HETATM   27  C1  UNL     1      13.470  11.087  13.723  1.00  0.00     0.291 C 
ATOM     28  H1  UNL     1      12.089   9.856  14.777  1.00  0.00     0.172 HD
HETATM   29  O1  UNL     1      13.116  12.262  13.773  1.00  0.00    -0.260 OA
ENDBRANCH   1  21
TORSDOF 2
ENDMDL
MODEL 2
REMARK VINA RESULT: -7.030554599      2.945      3.649
REMARK  2 active torsions:
REMARK  status: ('A' for Active; 'I' for Inactive)
REMARK    1  A    between atoms: C4_8  and  C5_9 
REMARK    2  A    between atoms: N3_18  and  C9_19 
ROOT
HETATM    1  C5  UNL     1      12.793   9.604  11.998  1.00  0.00     0.065 A 
HETATM    2  C6  UNL     1      12.180  10.453  11.112  1.00  0.00     0.106 A 
HETATM    3 BR1  UNL     1      11.358  12.039  11.723  1.00  0.00    -0.043 Br
HETATM    4  C7  UNL     1      12.191  10.195   9.734  1.00  0.00     0.269 A 
HETATM    5  O3  UNL     1      11.613  11.001   8.949  1.00  0.00    -0.267 OA
HETATM    6  N2  UNL     1      12.815   9.107   9.310  1.00  0.00    -0.274 N 
ATOM      7  H2  UNL     1      12.838   8.898   8.312  1.00  0.00     0.173 HD
HETATM    8  C8  UNL     1      13.416   8.276  10.174  1.00  0.00     0.331 A 
HETATM    9  O4  UNL     1      13.986   7.270   9.703  1.00  0.00    -0.246 OA
HETATM   10  N3  UNL     1      13.424   8.493  11.501  1.00  0.00    -0.267 N 
ENDROOT
BRANCH  10  11
HETATM   11  C9  UNL     1      14.053   7.625  12.433  1.00  0.00     0.320 C 
HETATM   12  C10 UNL     1      13.467   6.216  12.457  1.00  0.00     0.287 C 
HETATM   13  N4  UNL     1      13.969   5.620  13.698  1.00  0.00    -0.070 N 
HETATM   14  C11 UNL     1      15.398   5.600  13.755  1.00  0.00     0.260 C 
ATOM     15  H42 UNL     1      13.575   6.086  14.516  1.00  0.00     0.277 HD
ATOM     16  H41 UNL     1      13.583   4.686  13.840  1.00  0.00     0.277 HD
HETATM   17  C12 UNL     1      15.976   6.993  13.571  1.00  0.00     0.262 C 
HETATM   18  N5  UNL     1      15.480   7.453  12.259  1.00  0.00    -0.050 N 
ATOM     19  H52 UNL     1      15.730   6.837  11.486  1.00  0.00     0.279 HD
ATOM     20  H51 UNL     1      15.956   8.284  11.907  1.00  0.00     0.279 HD
ENDBRANCH  10  11
BRANCH   1  21
HETATM   21  C4  UNL     1      12.727   9.848  13.425  1.00  0.00     0.056 C 
HETATM   22  C3  UNL     1      13.689  10.171  14.226  1.00  0.00     0.080 C 
HETATM   23  C2  UNL     1      15.115  10.418  14.084  1.00  0.00     0.266 C 
HETATM   24  S1  UNL     1      13.478  10.385  16.033  1.00  0.00    -0.024 SA
HETATM   25  N1  UNL     1      15.878  10.261  15.237  1.00  0.00    -0.283 N 
HETATM   26  O2  UNL     1      15.611  10.763  12.948  1.00  0.00    -0.267 OA
HETATM   27  C1  UNL     1      15.180   9.886  16.399  1.00  0.00     0.291 C 
ATOM     28  H1  UNL     1      16.887  10.410  15.239  1.00  0.00     0.172 HD
HETATM   29  O1  UNL     1      15.528   9.353  17.450  1.00  0.00    -0.260 OA
ENDBRANCH   1  21
TORSDOF 2
ENDMDL
MODEL 3
REMARK VINA RESULT: -7.007879408      2.022      2.229
REMARK  2 active torsions:
REMARK  status: ('A' for Active; 'I' for Inactive)
REMARK    1  A    between atoms: C4_8  and  C5_9 
REMARK    2  A    between atoms: N3_18  and  C9_19 
ROOT
HETATM    1  C5  UNL     1      14.126   5.283  11.235  1.00  0.00     0.065 A 
HETATM    2  C6  UNL     1      13.577   5.189   9.981  1.00  0.00     0.106 A 
HETATM    3 BR1  UNL     1      12.266   6.427   9.419  1.00  0.00    -0.043 Br
HETATM    4  C7  UNL     1      14.007   4.214   9.071  1.00  0.00     0.269 A 
HETATM    5  O3  UNL     1      13.475   4.159   7.924  1.00  0.00    -0.267 OA
HETATM    6  N2  UNL     1      14.963   3.383   9.456  1.00  0.00    -0.274 N 
ATOM      7  H2  UNL     1      15.294   2.665   8.812  1.00  0.00     0.173 HD
HETATM    8  C8  UNL     1      15.502   3.472  10.680  1.00  0.00     0.331 A 
HETATM    9  O4  UNL     1      16.401   2.657  10.975  1.00  0.00    -0.246 OA
HETATM   10  N3  UNL     1      15.113   4.395  11.577  1.00  0.00    -0.267 N 
ENDROOT
BRANCH  10  11
HETATM   11  C9  UNL     1      15.670   4.506  12.880  1.00  0.00     0.320 C 
HETATM   12  C10 UNL     1      15.336   3.332  13.795  1.00  0.00     0.287 C 
HETATM   13  N4  UNL     1      15.660   3.801  15.145  1.00  0.00    -0.070 N 
HETATM   14  C11 UNL     1      17.028   4.198  15.271  1.00  0.00     0.260 C 
ATOM     15  H42 UNL     1      15.032   4.551  15.434  1.00  0.00     0.277 HD
ATOM     16  H41 UNL     1      15.415   3.102  15.846  1.00  0.00     0.277 HD
HETATM   17  C12 UNL     1      17.391   5.260  14.245  1.00  0.00     0.262 C 
HETATM   18  N5  UNL     1      17.110   4.647  12.932  1.00  0.00    -0.050 N 
ATOM     19  H52 UNL     1      17.616   3.776  12.768  1.00  0.00     0.279 HD
ATOM     20  H51 UNL     1      17.503   5.162  12.144  1.00  0.00     0.279 HD
ENDBRANCH  10  11
BRANCH   1  21
HETATM   21  C4  UNL     1      13.636   6.257  12.188  1.00  0.00     0.056 C 
HETATM   22  C3  UNL     1      13.958   7.504  12.295  1.00  0.00     0.080 C 
HETATM   23  C2  UNL     1      14.852   8.406  11.586  1.00  0.00     0.266 C 
HETATM   24  S1  UNL     1      13.308   8.615  13.598  1.00  0.00    -0.024 SA
HETATM   25  N1  UNL     1      15.280   9.523  12.296  1.00  0.00    -0.283 N 
HETATM   26  O2  UNL     1      15.206   8.160  10.373  1.00  0.00    -0.267 OA
HETATM   27  C1  UNL     1      14.796   9.647  13.611  1.00  0.00     0.291 C 
ATOM     28  H1  UNL     1      15.910  10.213  11.887  1.00  0.00     0.172 HD
HETATM   29  O1  UNL     1      15.193  10.266  14.595  1.00  0.00    -0.260 OA
ENDBRANCH   1  21
TORSDOF 2
ENDMDL
MODEL 4
REMARK VINA RESULT: -6.933649355      2.619      5.281
REMARK  2 active torsions:
REMARK  status: ('A' for Active; 'I' for Inactive)
REMARK    1  A    between atoms: C4_8  and  C5_9 
REMARK    2  A    between atoms: N3_18  and  C9_19 
ROOT
HETATM    1  C5  UNL     1      13.475   7.088  12.160  1.00  0.00     0.065 A 
HETATM    2  C6  UNL     1      13.016   6.806  10.898  1.00  0.00     0.106 A 
HETATM    3 BR1  UNL     1      12.780   5.016  10.346  1.00  0.00    -0.043 Br
HETATM    4  C7  UNL     1      12.664   7.830  10.008  1.00  0.00     0.269 A 
HETATM    5  O3  UNL     1      12.246   7.530   8.852  1.00  0.00    -0.267 OA
HETATM    6  N2  UNL     1      12.784   9.082  10.422  1.00  0.00    -0.274 N 
ATOM      7  H2  UNL     1      12.534   9.846   9.794  1.00  0.00     0.173 HD
HETATM    8  C8  UNL     1      13.231   9.361  11.655  1.00  0.00     0.331 A 
HETATM    9  O4  UNL     1      13.318  10.563  11.978  1.00  0.00    -0.246 OA
HETATM   10  N3  UNL     1      13.578   8.403  12.533  1.00  0.00    -0.267 N 
ENDROOT
BRANCH  10  11
HETATM   11  C9  UNL     1      14.055   8.676  13.843  1.00  0.00     0.320 C 
HETATM   12  C10 UNL     1      15.536   9.041  13.896  1.00  0.00     0.287 C 
HETATM   13  N4  UNL     1      15.906   8.910  15.309  1.00  0.00    -0.070 N 
HETATM   14  C11 UNL     1      15.123   9.752  16.158  1.00  0.00     0.260 C 
ATOM     15  H42 UNL     1      15.861   7.937  15.612  1.00  0.00     0.277 HD
ATOM     16  H41 UNL     1      16.903   9.077  15.444  1.00  0.00     0.277 HD
HETATM   17  C12 UNL     1      13.637   9.486  15.979  1.00  0.00     0.262 C 
HETATM   18  N5  UNL     1      13.365   9.735  14.550  1.00  0.00    -0.050 N 
ATOM     19  H52 UNL     1      13.620  10.672  14.239  1.00  0.00     0.279 HD
ATOM     20  H51 UNL     1      12.372   9.802  14.325  1.00  0.00     0.279 HD
ENDBRANCH  10  11
BRANCH   1  21
HETATM   21  C4  UNL     1      13.891   6.025  13.052  1.00  0.00     0.056 C 
HETATM   22  C3  UNL     1      15.014   5.385  13.064  1.00  0.00     0.080 C 
HETATM   23  C2  UNL     1      16.241   5.433  12.285  1.00  0.00     0.266 C 
HETATM   24  S1  UNL     1      15.386   4.006  14.212  1.00  0.00    -0.024 SA
HETATM   25  N1  UNL     1      17.012   4.274  12.289  1.00  0.00    -0.283 N 
HETATM   26  O2  UNL     1      16.569   6.498  11.643  1.00  0.00    -0.267 OA
HETATM   27  C1  UNL     1      16.514   3.199  13.047  1.00  0.00     0.291 C 
ATOM     28  H1  UNL     1      17.888   4.208  11.771  1.00  0.00     0.172 HD
HETATM   29  O1  UNL     1      16.718   1.988  13.017  1.00  0.00    -0.260 OA
ENDBRANCH   1  21
TORSDOF 2
ENDMDL
MODEL 5
REMARK VINA RESULT: -6.674398830      2.894      5.286
REMARK  2 active torsions:
REMARK  status: ('A' for Active; 'I' for Inactive)
REMARK    1  A    between atoms: C4_8  and  C5_9 
REMARK    2  A    between atoms: N3_18  and  C9_19 
ROOT
HETATM    1  C5  UNL     1      14.352   5.148  12.342  1.00  0.00     0.065 A 
HETATM    2  C6  UNL     1      14.150   4.200  11.371  1.00  0.00     0.106 A 
HETATM    3 BR1  UNL     1      14.715   2.419  11.645  1.00  0.00    -0.043 Br
HETATM    4  C7  UNL     1      13.479   4.511  10.181  1.00  0.00     0.269 A 
HETATM    5  O3  UNL     1      13.314   3.609   9.309  1.00  0.00    -0.267 OA
HETATM    6  N2  UNL     1      13.041   5.750  10.020  1.00  0.00    -0.274 N 
ATOM      7  H2  UNL     1      12.549   6.001   9.162  1.00  0.00     0.173 HD
HETATM    8  C8  UNL     1      13.236   6.679  10.967  1.00  0.00     0.331 A 
HETATM    9  O4  UNL     1      12.795   7.826  10.748  1.00  0.00    -0.246 OA
HETATM   10  N3  UNL     1      13.876   6.414  12.119  1.00  0.00    -0.267 N 
ENDROOT
BRANCH  10  11
HETATM   11  C9  UNL     1      14.094   7.383  13.135  1.00  0.00     0.320 C 
HETATM   12  C10 UNL     1      15.109   8.457  12.754  1.00  0.00     0.287 C 
HETATM   13  N4  UNL     1      15.465   9.105  14.020  1.00  0.00    -0.070 N 
HETATM   14  C11 UNL     1      14.330   9.662  14.687  1.00  0.00     0.260 C 
ATOM     15  H42 UNL     1      15.972   8.465  14.631  1.00  0.00     0.277 HD
ATOM     16  H41 UNL     1      16.191   9.808  13.881  1.00  0.00     0.277 HD
HETATM   17  C12 UNL     1      13.256   8.612  14.919  1.00  0.00     0.262 C 
HETATM   18  N5  UNL     1      12.915   8.098  13.578  1.00  0.00    -0.050 N 
ATOM     19  H52 UNL     1      12.601   8.819  12.929  1.00  0.00     0.279 HD
ATOM     20  H51 UNL     1      12.062   7.539  13.556  1.00  0.00     0.279 HD
ENDBRANCH  10  11
BRANCH   1  21
HETATM   21  C4  UNL     1      15.097   4.832  13.544  1.00  0.00     0.056 C 
HETATM   22  C3  UNL     1      16.373   4.902  13.735  1.00  0.00     0.080 C 
HETATM   23  C2  UNL     1      17.521   5.291  12.930  1.00  0.00     0.266 C 
HETATM   24  S1  UNL     1      17.196   4.405  15.294  1.00  0.00    -0.024 SA
HETATM   25  N1  UNL     1      18.749   4.771  13.327  1.00  0.00    -0.283 N 
HETATM   26  O2  UNL     1      17.378   6.075  11.919  1.00  0.00    -0.267 OA
HETATM   27  C1  UNL     1      18.733   3.935  14.458  1.00  0.00     0.291 C 
ATOM     28  H1  UNL     1      19.611   4.984  12.826  1.00  0.00     0.172 HD
HETATM   29  O1  UNL     1      19.505   3.074  14.874  1.00  0.00    -0.260 OA
ENDBRANCH   1  21
TORSDOF 2
ENDMDL
