MODEL 1
REMARK VINA RESULT: -8.721694230      0.000      0.000
REMARK  2 active torsions:
REMARK  status: ('A' for Active; 'I' for Inactive)
REMARK    1  A    between atoms: N4_15  and  N5_16 
REMARK    2  A    between atoms: N5_16  and  C9_18 
ROOT
HETATM    1  C1  UNL     1       8.950  11.053   8.269  1.00  0.00     0.310 C 
HETATM    2  N1  UNL     1      10.231  10.667   8.809  1.00  0.00     0.086 N 
HETATM    3  C2  UNL     1      10.406  11.272  10.115  1.00  0.00     0.277 C 
HETATM    4  C3  UNL     1      11.859  11.691  10.311  1.00  0.00     0.074 C 
HETATM    5  C4  UNL     1      11.984  12.960  11.085  1.00  0.00     0.057 C 
HETATM    6  N2  UNL     1      11.676  12.932  12.442  1.00  0.00    -0.401 N 
ATOM      7  H2  UNL     1      11.418  13.794  12.924  1.00  0.00     0.158 HD
HETATM    8  C5  UNL     1      11.719  11.720  13.149  1.00  0.00     0.146 C 
HETATM    9  C6  UNL     1      12.847  11.668  14.183  1.00  0.00     0.251 C 
HETATM   10  N3  UNL     1      13.961  10.883  13.694  1.00  0.00    -0.072 N 
ATOM     11  H31 UNL     1      14.852  11.262  14.012  1.00  0.00     0.277 HD
ATOM     12  H32 UNL     1      14.088  11.002  12.688  1.00  0.00     0.277 HD
HETATM   13  C7  UNL     1      13.821   9.478  14.051  1.00  0.00     0.249 C 
HETATM   14  C8  UNL     1      14.117   8.672  12.807  1.00  0.00     0.159 C 
HETATM   15  N4  UNL     1      13.405   7.418  12.780  1.00  0.00    -0.117 NA
HETATM   16  S1  UNL     1      13.430   6.805  11.163  1.00  0.00     0.253 S 
HETATM   17  O1  UNL     1      13.396   5.305  11.169  1.00  0.00    -0.208 OA
HETATM   18  O2  UNL     1      14.675   7.292  10.471  1.00  0.00    -0.208 OA
HETATM   19  C15 UNL     1      12.006   7.487  10.345  1.00  0.00     0.390 C 
HETATM   20  N6  UNL     1      12.168   7.524   8.911  1.00  0.00    -0.059 N 
ATOM     21  H61 UNL     1      11.711   6.726   8.469  1.00  0.00     0.278 HD
ATOM     22  H62 UNL     1      13.132   7.328   8.645  1.00  0.00     0.278 HD
HETATM   23  C16 UNL     1      11.713   8.766   8.339  1.00  0.00     0.263 C 
HETATM   24  C17 UNL     1      10.380   9.215   8.864  1.00  0.00     0.299 C 
ENDROOT
BRANCH  15  25
HETATM   25  N5  UNL     1      13.831   6.505  13.713  1.00  0.00    -0.306 N 
ATOM     26  H5  UNL     1      13.198   6.202  14.453  1.00  0.00     0.182 HD
BRANCH  25  27
HETATM   27  C9  UNL     1      15.152   5.981  13.650  1.00  0.00     0.044 A 
HETATM   28  C10 UNL     1      16.265   6.789  13.704  1.00  0.00     0.033 A 
HETATM   29  C11 UNL     1      17.556   6.300  13.647  1.00  0.00     0.044 A 
HETATM   30  C12 UNL     1      17.759   4.944  13.530  1.00  0.00     0.116 A 
HETATM   31  F1  UNL     1      19.032   4.478  13.474  1.00  0.00    -0.206 F 
HETATM   32  C13 UNL     1      16.664   4.112  13.473  1.00  0.00     0.044 A 
HETATM   33  C14 UNL     1      15.385   4.617  13.532  1.00  0.00     0.033 A 
ENDBRANCH  25  27
ENDBRANCH  15  25
TORSDOF 2
ENDMDL
MODEL 2
REMARK VINA RESULT: -8.679811100      3.404      6.927
REMARK  2 active torsions:
REMARK  status: ('A' for Active; 'I' for Inactive)
REMARK    1  A    between atoms: N4_15  and  N5_16 
REMARK    2  A    between atoms: N5_16  and  C9_18 
ROOT
HETATM    1  C1  UNL     1      14.318   1.716   8.239  1.00  0.00     0.310 C 
HETATM    2  N1  UNL     1      13.988   2.669   9.270  1.00  0.00     0.086 N 
HETATM    3  C2  UNL     1      15.097   2.780  10.198  1.00  0.00     0.277 C 
HETATM    4  C3  UNL     1      14.579   2.956  11.621  1.00  0.00     0.074 C 
HETATM    5  C4  UNL     1      15.432   2.257  12.625  1.00  0.00     0.057 C 
HETATM    6  N2  UNL     1      16.696   2.777  12.886  1.00  0.00    -0.401 N 
ATOM      7  H2  UNL     1      17.422   2.178  13.281  1.00  0.00     0.158 HD
HETATM    8  C5  UNL     1      16.975   4.124  12.606  1.00  0.00     0.146 C 
HETATM    9  C6  UNL     1      17.205   4.964  13.865  1.00  0.00     0.251 C 
HETATM   10  N3  UNL     1      16.035   5.756  14.180  1.00  0.00    -0.072 N 
ATOM     11  H31 UNL     1      15.906   5.847  15.187  1.00  0.00     0.277 HD
ATOM     12  H32 UNL     1      15.174   5.256  13.955  1.00  0.00     0.277 HD
HETATM   13  C7  UNL     1      16.082   7.058  13.529  1.00  0.00     0.249 C 
HETATM   14  C8  UNL     1      14.727   7.290  12.901  1.00  0.00     0.159 C 
HETATM   15  N4  UNL     1      14.799   8.121  11.725  1.00  0.00    -0.117 NA
HETATM   16  S1  UNL     1      13.328   7.943  10.833  1.00  0.00     0.253 S 
HETATM   17  O1  UNL     1      13.010   9.205  10.086  1.00  0.00    -0.208 OA
HETATM   18  O2  UNL     1      12.212   7.610  11.786  1.00  0.00    -0.208 OA
HETATM   19  C15 UNL     1      13.574   6.574   9.725  1.00  0.00     0.390 C 
HETATM   20  N6  UNL     1      12.327   5.968   9.324  1.00  0.00    -0.059 N 
ATOM     21  H61 UNL     1      12.028   6.311   8.411  1.00  0.00     0.278 HD
ATOM     22  H62 UNL     1      11.552   6.313   9.890  1.00  0.00     0.278 HD
HETATM   23  C16 UNL     1      12.385   4.528   9.346  1.00  0.00     0.263 C 
HETATM   24  C17 UNL     1      13.624   3.968   8.710  1.00  0.00     0.299 C 
ENDROOT
BRANCH  15  25
HETATM   25  N5  UNL     1      15.126   9.431  11.977  1.00  0.00    -0.306 N 
ATOM     26  H5  UNL     1      15.867   9.882  11.440  1.00  0.00     0.182 HD
BRANCH  25  27
HETATM   27  C9  UNL     1      14.434  10.160  12.983  1.00  0.00     0.044 A 
HETATM   28  C10 UNL     1      13.301  10.892  12.710  1.00  0.00     0.033 A 
HETATM   29  C11 UNL     1      12.614  11.606  13.672  1.00  0.00     0.044 A 
HETATM   30  C12 UNL     1      13.067  11.598  14.972  1.00  0.00     0.116 A 
HETATM   31  F1  UNL     1      12.383  12.304  15.906  1.00  0.00    -0.206 F 
HETATM   32  C13 UNL     1      14.199  10.874  15.274  1.00  0.00     0.044 A 
HETATM   33  C14 UNL     1      14.870  10.168  14.302  1.00  0.00     0.033 A 
ENDBRANCH  25  27
ENDBRANCH  15  25
TORSDOF 2
ENDMDL
MODEL 3
REMARK VINA RESULT: -8.663693402      3.614      7.371
REMARK  2 active torsions:
REMARK  status: ('A' for Active; 'I' for Inactive)
REMARK    1  A    between atoms: N4_15  and  N5_16 
REMARK    2  A    between atoms: N5_16  and  C9_18 
ROOT
HETATM    1  C1  UNL     1      15.384   2.114  10.241  1.00  0.00     0.310 C 
HETATM    2  N1  UNL     1      14.501   3.200  10.590  1.00  0.00     0.086 N 
HETATM    3  C2  UNL     1      15.189   4.114  11.482  1.00  0.00     0.277 C 
HETATM    4  C3  UNL     1      14.223   4.654  12.531  1.00  0.00     0.074 C 
HETATM    5  C4  UNL     1      14.874   4.836  13.860  1.00  0.00     0.057 C 
HETATM    6  N2  UNL     1      15.801   5.865  14.000  1.00  0.00    -0.401 N 
ATOM      7  H2  UNL     1      16.500   5.824  14.742  1.00  0.00     0.158 HD
HETATM    8  C5  UNL     1      15.776   6.959  13.121  1.00  0.00     0.146 C 
HETATM    9  C6  UNL     1      15.362   8.266  13.801  1.00  0.00     0.251 C 
HETATM   10  N3  UNL     1      13.983   8.591  13.503  1.00  0.00    -0.072 N 
ATOM     11  H31 UNL     1      13.525   9.039  14.296  1.00  0.00     0.277 HD
ATOM     12  H32 UNL     1      13.407   7.752  13.441  1.00  0.00     0.277 HD
HETATM   13  C7  UNL     1      13.876   9.403  12.298  1.00  0.00     0.249 C 
HETATM   14  C8  UNL     1      12.777   8.800  11.453  1.00  0.00     0.159 C 
HETATM   15  N4  UNL     1      12.986   9.014  10.043  1.00  0.00    -0.117 NA
HETATM   16  S1  UNL     1      11.976   7.920   9.164  1.00  0.00     0.253 S 
HETATM   17  O1  UNL     1      11.577   8.516   7.845  1.00  0.00    -0.208 OA
HETATM   18  O2  UNL     1      10.751   7.613   9.984  1.00  0.00    -0.208 OA
HETATM   19  C15 UNL     1      12.919   6.429   8.947  1.00  0.00     0.390 C 
HETATM   20  N6  UNL     1      12.075   5.277   8.734  1.00  0.00    -0.059 N 
ATOM     21  H61 UNL     1      11.997   5.057   7.740  1.00  0.00     0.278 HD
ATOM     22  H62 UNL     1      11.099   5.496   8.930  1.00  0.00     0.278 HD
HETATM   23  C16 UNL     1      12.513   4.129   9.487  1.00  0.00     0.263 C 
HETATM   24  C17 UNL     1      13.992   3.886   9.405  1.00  0.00     0.299 C 
ENDROOT
BRANCH  15  25
HETATM   25  N5  UNL     1      12.847  10.321   9.643  1.00  0.00    -0.306 N 
ATOM     26  H5  UNL     1      13.552  10.745   9.039  1.00  0.00     0.182 HD
BRANCH  25  27
HETATM   27  C9  UNL     1      11.724  11.084  10.066  1.00  0.00     0.044 A 
HETATM   28  C10 UNL     1      10.531  11.075   9.381  1.00  0.00     0.033 A 
HETATM   29  C11 UNL     1       9.428  11.808   9.776  1.00  0.00     0.044 A 
HETATM   30  C12 UNL     1       9.507  12.590  10.905  1.00  0.00     0.116 A 
HETATM   31  F1  UNL     1       8.417  13.305  11.281  1.00  0.00    -0.206 F 
HETATM   32  C13 UNL     1      10.689  12.620  11.610  1.00  0.00     0.044 A 
HETATM   33  C14 UNL     1      11.777  11.882  11.202  1.00  0.00     0.033 A 
ENDBRANCH  25  27
ENDBRANCH  15  25
TORSDOF 2
ENDMDL
MODEL 4
REMARK VINA RESULT: -8.447905648      3.865      8.803
REMARK  2 active torsions:
REMARK  status: ('A' for Active; 'I' for Inactive)
REMARK    1  A    between atoms: N4_15  and  N5_16 
REMARK    2  A    between atoms: N5_16  and  C9_18 
ROOT
HETATM    1  C1  UNL     1      18.655   0.977  14.579  1.00  0.00     0.310 C 
HETATM    2  N1  UNL     1      18.200   2.076  13.763  1.00  0.00     0.086 N 
HETATM    3  C2  UNL     1      17.492   1.559  12.609  1.00  0.00     0.277 C 
HETATM    4  C3  UNL     1      17.789   2.414  11.381  1.00  0.00     0.074 C 
HETATM    5  C4  UNL     1      17.875   1.603  10.133  1.00  0.00     0.057 C 
HETATM    6  N2  UNL     1      16.700   1.056   9.625  1.00  0.00    -0.401 N 
ATOM      7  H2  UNL     1      16.741   0.247   9.005  1.00  0.00     0.158 HD
HETATM    8  C5  UNL     1      15.458   1.616   9.965  1.00  0.00     0.146 C 
HETATM    9  C6  UNL     1      14.759   2.287   8.780  1.00  0.00     0.251 C 
HETATM   10  N3  UNL     1      14.900   3.727   8.844  1.00  0.00    -0.072 N 
ATOM     11  H31 UNL     1      14.988   4.135   7.913  1.00  0.00     0.277 HD
ATOM     12  H32 UNL     1      15.809   3.997   9.221  1.00  0.00     0.277 HD
HETATM   13  C7  UNL     1      13.810   4.337   9.593  1.00  0.00     0.249 C 
HETATM   14  C8  UNL     1      14.430   5.325  10.554  1.00  0.00     0.159 C 
HETATM   15  N4  UNL     1      13.649   5.490  11.755  1.00  0.00    -0.117 NA
HETATM   16  S1  UNL     1      14.639   6.242  12.956  1.00  0.00     0.253 S 
HETATM   17  O1  UNL     1      13.801   7.073  13.883  1.00  0.00    -0.208 OA
HETATM   18  O2  UNL     1      15.669   7.104  12.277  1.00  0.00    -0.208 OA
HETATM   19  C15 UNL     1      15.463   4.927  13.825  1.00  0.00     0.390 C 
HETATM   20  N6  UNL     1      16.683   5.372  14.455  1.00  0.00    -0.059 N 
ATOM     21  H61 UNL     1      16.534   5.575  15.444  1.00  0.00     0.278 HD
ATOM     22  H62 UNL     1      16.943   6.305  14.135  1.00  0.00     0.278 HD
HETATM   23  C16 UNL     1      17.767   4.439  14.273  1.00  0.00     0.263 C 
HETATM   24  C17 UNL     1      17.377   3.012  14.525  1.00  0.00     0.299 C 
ENDROOT
BRANCH  15  25
HETATM   25  N5  UNL     1      12.447   6.127  11.565  1.00  0.00    -0.306 N 
ATOM     26  H5  UNL     1      11.609   5.781  12.033  1.00  0.00     0.182 HD
BRANCH  25  27
HETATM   27  C9  UNL     1      12.367   7.267  10.719  1.00  0.00     0.044 A 
HETATM   28  C10 UNL     1      12.886   8.489  11.084  1.00  0.00     0.033 A 
HETATM   29  C11 UNL     1      12.820   9.608  10.277  1.00  0.00     0.044 A 
HETATM   30  C12 UNL     1      12.210   9.518   9.047  1.00  0.00     0.116 A 
HETATM   31  F1  UNL     1      12.151  10.626   8.266  1.00  0.00    -0.206 F 
HETATM   32  C13 UNL     1      11.681   8.309   8.656  1.00  0.00     0.044 A 
HETATM   33  C14 UNL     1      11.757   7.204   9.473  1.00  0.00     0.033 A 
ENDBRANCH  25  27
ENDBRANCH  15  25
TORSDOF 2
ENDMDL
MODEL 5
REMARK VINA RESULT: -8.196214715      0.658      1.049
REMARK  2 active torsions:
REMARK  status: ('A' for Active; 'I' for Inactive)
REMARK    1  A    between atoms: N4_15  and  N5_16 
REMARK    2  A    between atoms: N5_16  and  C9_18 
ROOT
HETATM    1  C1  UNL     1       8.754  11.461   8.973  1.00  0.00     0.310 C 
HETATM    2  N1  UNL     1      10.073  10.985   9.311  1.00  0.00     0.086 N 
HETATM    3  C2  UNL     1      10.413  11.418  10.653  1.00  0.00     0.277 C 
HETATM    4  C3  UNL     1      11.892  11.779  10.731  1.00  0.00     0.074 C 
HETATM    5  C4  UNL     1      12.145  12.938  11.635  1.00  0.00     0.057 C 
HETATM    6  N2  UNL     1      11.989  12.748  13.005  1.00  0.00    -0.401 N 
ATOM      7  H2  UNL     1      11.816  13.547  13.614  1.00  0.00     0.158 HD
HETATM    8  C5  UNL     1      12.068  11.455  13.549  1.00  0.00     0.146 C 
HETATM    9  C6  UNL     1      13.301  11.252  14.433  1.00  0.00     0.251 C 
HETATM   10  N3  UNL     1      14.327  10.512  13.728  1.00  0.00    -0.072 N 
ATOM     11  H31 UNL     1      15.261  10.830  13.986  1.00  0.00     0.277 HD
ATOM     12  H32 UNL     1      14.346  10.753  12.736  1.00  0.00     0.277 HD
HETATM   13  C7  UNL     1      14.179   9.076  13.924  1.00  0.00     0.249 C 
HETATM   14  C8  UNL     1      14.308   8.426  12.566  1.00  0.00     0.159 C 
HETATM   15  N4  UNL     1      13.554   7.201  12.468  1.00  0.00    -0.117 NA
HETATM   16  S1  UNL     1      13.379   6.795  10.796  1.00  0.00     0.253 S 
HETATM   17  O1  UNL     1      13.295   5.306  10.622  1.00  0.00    -0.208 OA
HETATM   18  O2  UNL     1      14.555   7.339  10.031  1.00  0.00    -0.208 OA
HETATM   19  C15 UNL     1      11.897   7.602  10.235  1.00  0.00     0.390 C 
HETATM   20  N6  UNL     1      11.900   7.815   8.807  1.00  0.00    -0.059 N 
ATOM     21  H61 UNL     1      11.370   7.088   8.326  1.00  0.00     0.278 HD
ATOM     22  H62 UNL     1      12.822   7.634   8.411  1.00  0.00     0.278 HD
HETATM   23  C16 UNL     1      11.428   9.128   8.447  1.00  0.00     0.263 C 
HETATM   24  C17 UNL     1      10.178   9.535   9.171  1.00  0.00     0.299 C 
ENDROOT
BRANCH  15  25
HETATM   25  N5  UNL     1      14.050   6.170  13.227  1.00  0.00    -0.306 N 
ATOM     26  H5  UNL     1      13.442   5.689  13.891  1.00  0.00     0.182 HD
BRANCH  25  27
HETATM   27  C9  UNL     1      15.408   5.768  13.092  1.00  0.00     0.044 A 
HETATM   28  C10 UNL     1      15.787   4.731  12.271  1.00  0.00     0.033 A 
HETATM   29  C11 UNL     1      17.100   4.327  12.124  1.00  0.00     0.044 A 
HETATM   30  C12 UNL     1      18.090   4.979  12.823  1.00  0.00     0.116 A 
HETATM   31  F1  UNL     1      19.374   4.570  12.670  1.00  0.00    -0.206 F 
HETATM   32  C13 UNL     1      17.739   6.020  13.653  1.00  0.00     0.044 A 
HETATM   33  C14 UNL     1      16.426   6.409  13.786  1.00  0.00     0.033 A 
ENDBRANCH  25  27
ENDBRANCH  15  25
TORSDOF 2
ENDMDL
