MODEL 1
REMARK VINA RESULT: -8.953740539      0.000      0.000
REMARK  6 active torsions:
REMARK  status: ('A' for Active; 'I' for Inactive)
REMARK    1  A    between atoms: C2_2  and  N1_4 
REMARK    2  A    between atoms: N1_4  and  C4_6 
REMARK    3  A    between atoms: C5_11  and  C6_12 
REMARK    4  A    between atoms: C13_22  and  C14_23 
REMARK       I    between atoms: C14_23  and  N4_25 
REMARK    5  A    between atoms: N4_25  and  C15_27 
REMARK    6  A    between atoms: C16_33  and  N7_34 
ROOT
HETATM    1  C4  UNL     1      10.840  10.340   9.022  1.00  0.00     0.135 A 
HETATM    2  N2  UNL     1      11.000   9.102   8.518  1.00  0.00    -0.285 N 
ATOM      3  H2  UNL     1      10.427   8.816   7.724  1.00  0.00     0.188 HD
HETATM    4  N3  UNL     1      11.880   8.236   9.020  1.00  0.00    -0.299 N 
ATOM      5  H3  UNL     1      11.956   7.312   8.596  1.00  0.00     0.186 HD
HETATM    6  C5  UNL     1      12.670   8.537  10.063  1.00  0.00     0.082 A 
HETATM    7  C12 UNL     1      12.545   9.800  10.620  1.00  0.00     0.161 A 
HETATM    8  F1  UNL     1      13.345  10.070  11.658  1.00  0.00    -0.203 F 
HETATM    9  C13 UNL     1      11.635  10.691  10.099  1.00  0.00     0.117 A 
ENDROOT
BRANCH   9  10
HETATM   10  C14 UNL     1      11.488  12.030  10.675  1.00  0.00     0.264 C 
HETATM   11  O3  UNL     1      12.075  12.979  10.076  1.00  0.00    -0.267 OA
HETATM   12  N4  UNL     1      10.749  12.304  11.823  1.00  0.00    -0.304 N 
ATOM     13  H4  UNL     1       9.782  11.981  11.789  1.00  0.00     0.171 HD
BRANCH  12  14
HETATM   14  C15 UNL     1      11.068  12.884  12.899  1.00  0.00     0.176 A 
HETATM   15  N5  UNL     1      10.339  13.887  13.489  1.00  0.00    -0.222 N 
HETATM   16  O4  UNL     1      10.946  14.248  14.566  1.00  0.00    -0.153 OA
ATOM     17  H5  UNL     1       9.467  14.280  13.134  1.00  0.00     0.198 HD
HETATM   18  N6  UNL     1      12.021  13.583  14.763  1.00  0.00    -0.222 N 
HETATM   19  C16 UNL     1      12.145  12.706  13.737  1.00  0.00     0.167 A 
ATOM     20  H6  UNL     1      12.665  13.692  15.547  1.00  0.00     0.198 HD
BRANCH  19  21
HETATM   21  N7  UNL     1      13.117  11.884  13.625  1.00  0.00    -0.381 N 
ATOM     22  H72 UNL     1      13.752  11.868  12.828  1.00  0.00     0.157 HD
ATOM     23  H71 UNL     1      13.408  11.149  14.270  1.00  0.00     0.157 HD
ENDBRANCH  19  21
ENDBRANCH  12  14
ENDBRANCH   9  10
BRANCH   1  24
HETATM   24  N1  UNL     1       9.984  11.165   8.524  1.00  0.00    -0.370 N 
ATOM     25  H1  UNL     1      10.338  11.988   8.035  1.00  0.00     0.161 HD
BRANCH  24  26
HETATM   26  C2  UNL     1       8.563  10.994   8.618  1.00  0.00     0.075 C 
HETATM   27  C1  UNL     1       7.913  11.219   7.257  1.00  0.00     0.031 C 
HETATM   28  C3  UNL     1       7.918  11.987   9.571  1.00  0.00     0.031 C 
ENDBRANCH  24  26
ENDBRANCH   1  24
BRANCH   6  29
HETATM   29  C6  UNL     1      13.610   7.543  10.561  1.00  0.00     0.074 C 
HETATM   30  C7  UNL     1      15.066   7.917  10.585  1.00  0.00     0.050 C 
HETATM   31  C8  UNL     1      15.740   6.969  11.587  1.00  0.00     0.170 C 
HETATM   32  O1  UNL     1      15.212   5.687  11.478  1.00  0.00    -0.378 OA
HETATM   33  C9  UNL     1      13.833   5.680  11.411  1.00  0.00     0.193 C 
HETATM   34  C10 UNL     1      13.451   6.134   9.996  1.00  0.00     0.064 C 
HETATM   35  C11 UNL     1      13.250   6.990  11.884  1.00  0.00     0.170 C 
HETATM   36  O2  UNL     1      12.724   7.432  12.869  1.00  0.00    -0.294 OA
ENDBRANCH   6  29
TORSDOF 6
ENDMDL
MODEL 2
REMARK VINA RESULT: -8.767987492      3.082      5.743
REMARK  6 active torsions:
REMARK  status: ('A' for Active; 'I' for Inactive)
REMARK    1  A    between atoms: C2_2  and  N1_4 
REMARK    2  A    between atoms: N1_4  and  C4_6 
REMARK    3  A    between atoms: C5_11  and  C6_12 
REMARK    4  A    between atoms: C13_22  and  C14_23 
REMARK       I    between atoms: C14_23  and  N4_25 
REMARK    5  A    between atoms: N4_25  and  C15_27 
REMARK    6  A    between atoms: C16_33  and  N7_34 
ROOT
HETATM    1  C4  UNL     1      15.361   9.609  14.920  1.00  0.00     0.135 A 
HETATM    2  N2  UNL     1      16.141   8.512  14.963  1.00  0.00    -0.285 N 
ATOM      3  H2  UNL     1      16.969   8.521  15.558  1.00  0.00     0.188 HD
HETATM    4  N3  UNL     1      15.870   7.416  14.256  1.00  0.00    -0.299 N 
ATOM      5  H3  UNL     1      16.498   6.616  14.329  1.00  0.00     0.186 HD
HETATM    6  C5  UNL     1      14.800   7.327  13.450  1.00  0.00     0.082 A 
HETATM    7  C12 UNL     1      13.963   8.429  13.369  1.00  0.00     0.161 A 
HETATM    8  F1  UNL     1      12.906   8.310  12.557  1.00  0.00    -0.203 F 
HETATM    9  C13 UNL     1      14.247   9.559  14.100  1.00  0.00     0.117 A 
ENDROOT
BRANCH   9  10
HETATM   10  C14 UNL     1      13.375  10.734  14.027  1.00  0.00     0.264 C 
HETATM   11  O3  UNL     1      12.804  11.093  15.099  1.00  0.00    -0.267 OA
HETATM   12  N4  UNL     1      13.150  11.462  12.861  1.00  0.00    -0.304 N 
ATOM     13  H4  UNL     1      13.997  11.798  12.403  1.00  0.00     0.171 HD
BRANCH  12  14
HETATM   14  C15 UNL     1      12.078  11.778  12.271  1.00  0.00     0.176 A 
HETATM   15  N5  UNL     1      11.115  12.604  12.795  1.00  0.00    -0.222 N 
HETATM   16  O4  UNL     1      10.163  12.712  11.935  1.00  0.00    -0.153 OA
ATOM     17  H5  UNL     1      11.148  13.055  13.710  1.00  0.00     0.198 HD
HETATM   18  N6  UNL     1      10.390  12.035  10.874  1.00  0.00    -0.222 N 
HETATM   19  C16 UNL     1      11.589  11.424  11.034  1.00  0.00     0.167 A 
ATOM     20  H6  UNL     1       9.781  11.968  10.058  1.00  0.00     0.198 HD
BRANCH  19  21
HETATM   21  N7  UNL     1      12.117  10.665  10.152  1.00  0.00    -0.381 N 
ATOM     22  H72 UNL     1      12.470   9.729  10.354  1.00  0.00     0.157 HD
ATOM     23  H71 UNL     1      12.269  10.849   9.161  1.00  0.00     0.157 HD
ENDBRANCH  19  21
ENDBRANCH  12  14
ENDBRANCH   9  10
BRANCH   1  24
HETATM   24  N1  UNL     1      15.638  10.662  15.611  1.00  0.00    -0.370 N 
ATOM     25  H1  UNL     1      15.501  11.573  15.173  1.00  0.00     0.161 HD
BRANCH  24  26
HETATM   26  C2  UNL     1      16.126  10.626  16.959  1.00  0.00     0.075 C 
HETATM   27  C1  UNL     1      15.194   9.797  17.836  1.00  0.00     0.031 C 
HETATM   28  C3  UNL     1      16.195  12.006  17.591  1.00  0.00     0.031 C 
ENDBRANCH  24  26
ENDBRANCH   1  24
BRANCH   6  29
HETATM   29  C6  UNL     1      14.563   6.099  12.705  1.00  0.00     0.074 C 
HETATM   30  C7  UNL     1      13.549   6.145  11.597  1.00  0.00     0.050 C 
HETATM   31  C8  UNL     1      13.857   4.953  10.679  1.00  0.00     0.170 C 
HETATM   32  O1  UNL     1      14.219   3.839  11.429  1.00  0.00    -0.378 OA
HETATM   33  C9  UNL     1      15.127   4.137  12.424  1.00  0.00     0.193 C 
HETATM   34  C10 UNL     1      14.350   4.842  13.545  1.00  0.00     0.064 C 
HETATM   35  C11 UNL     1      15.796   5.469  12.183  1.00  0.00     0.170 C 
HETATM   36  O2  UNL     1      16.842   5.883  11.763  1.00  0.00    -0.294 OA
ENDBRANCH   6  29
TORSDOF 6
ENDMDL
MODEL 3
REMARK VINA RESULT: -8.693533241      3.054      5.777
REMARK  6 active torsions:
REMARK  status: ('A' for Active; 'I' for Inactive)
REMARK    1  A    between atoms: C2_2  and  N1_4 
REMARK    2  A    between atoms: N1_4  and  C4_6 
REMARK    3  A    between atoms: C5_11  and  C6_12 
REMARK    4  A    between atoms: C13_22  and  C14_23 
REMARK       I    between atoms: C14_23  and  N4_25 
REMARK    5  A    between atoms: N4_25  and  C15_27 
REMARK    6  A    between atoms: C16_33  and  N7_34 
ROOT
HETATM    1  C4  UNL     1      15.372   9.515  14.853  1.00  0.00     0.135 A 
HETATM    2  N2  UNL     1      16.170   8.437  14.956  1.00  0.00    -0.285 N 
ATOM      3  H2  UNL     1      16.975   8.479  15.582  1.00  0.00     0.188 HD
HETATM    4  N3  UNL     1      15.949   7.317  14.269  1.00  0.00    -0.299 N 
ATOM      5  H3  UNL     1      16.589   6.532  14.388  1.00  0.00     0.186 HD
HETATM    6  C5  UNL     1      14.912   7.184  13.426  1.00  0.00     0.082 A 
HETATM    7  C12 UNL     1      14.058   8.266  13.283  1.00  0.00     0.161 A 
HETATM    8  F1  UNL     1      13.035   8.104  12.436  1.00  0.00    -0.203 F 
HETATM    9  C13 UNL     1      14.291   9.421  13.994  1.00  0.00     0.117 A 
ENDROOT
BRANCH   9  10
HETATM   10  C14 UNL     1      13.399  10.575  13.856  1.00  0.00     0.264 C 
HETATM   11  O3  UNL     1      12.738  10.916  14.881  1.00  0.00    -0.267 OA
HETATM   12  N4  UNL     1      13.248  11.302  12.677  1.00  0.00    -0.304 N 
ATOM     13  H4  UNL     1      14.120  11.660  12.287  1.00  0.00     0.171 HD
BRANCH  12  14
HETATM   14  C15 UNL     1      12.218  11.595  12.007  1.00  0.00     0.176 A 
HETATM   15  N5  UNL     1      11.918  11.074  10.772  1.00  0.00    -0.222 N 
HETATM   16  O4  UNL     1      10.804  11.584  10.378  1.00  0.00    -0.153 OA
ATOM     17  H5  UNL     1      12.483  10.399  10.255  1.00  0.00     0.198 HD
HETATM   18  N6  UNL     1      10.317  12.404  11.231  1.00  0.00    -0.222 N 
HETATM   19  C16 UNL     1      11.173  12.448  12.280  1.00  0.00     0.167 A 
ATOM     20  H6  UNL     1       9.446  12.927  11.138  1.00  0.00     0.198 HD
BRANCH  19  21
HETATM   21  N7  UNL     1      10.986  13.176  13.314  1.00  0.00    -0.381 N 
ATOM     22  H72 UNL     1      11.653  13.876  13.638  1.00  0.00     0.157 HD
ATOM     23  H71 UNL     1      10.191  13.183  13.952  1.00  0.00     0.157 HD
ENDBRANCH  19  21
ENDBRANCH  12  14
ENDBRANCH   9  10
BRANCH   1  24
HETATM   24  N1  UNL     1      15.601  10.592  15.525  1.00  0.00    -0.370 N 
ATOM     25  H1  UNL     1      15.442  11.488  15.065  1.00  0.00     0.161 HD
BRANCH  24  26
HETATM   26  C2  UNL     1      16.065  10.602  16.882  1.00  0.00     0.075 C 
HETATM   27  C1  UNL     1      15.137   9.773  17.764  1.00  0.00     0.031 C 
HETATM   28  C3  UNL     1      16.092  11.999  17.479  1.00  0.00     0.031 C 
ENDBRANCH  24  26
ENDBRANCH   1  24
BRANCH   6  29
HETATM   29  C6  UNL     1      14.728   5.932  12.707  1.00  0.00     0.074 C 
HETATM   30  C7  UNL     1      13.763   5.929  11.555  1.00  0.00     0.050 C 
HETATM   31  C8  UNL     1      14.130   4.718  10.685  1.00  0.00     0.170 C 
HETATM   32  O1  UNL     1      14.478   3.632  11.481  1.00  0.00    -0.378 OA
HETATM   33  C9  UNL     1      15.337   3.974  12.506  1.00  0.00     0.193 C 
HETATM   34  C10 UNL     1      14.500   4.695  13.571  1.00  0.00     0.064 C 
HETATM   35  C11 UNL     1      15.993   5.311  12.256  1.00  0.00     0.170 C 
HETATM   36  O2  UNL     1      17.049   5.731  11.869  1.00  0.00    -0.294 OA
ENDBRANCH   6  29
TORSDOF 6
ENDMDL
MODEL 4
REMARK VINA RESULT: -8.680290922      4.530      6.916
REMARK  6 active torsions:
REMARK  status: ('A' for Active; 'I' for Inactive)
REMARK    1  A    between atoms: C2_2  and  N1_4 
REMARK    2  A    between atoms: N1_4  and  C4_6 
REMARK    3  A    between atoms: C5_11  and  C6_12 
REMARK    4  A    between atoms: C13_22  and  C14_23 
REMARK       I    between atoms: C14_23  and  N4_25 
REMARK    5  A    between atoms: N4_25  and  C15_27 
REMARK    6  A    between atoms: C16_33  and  N7_34 
ROOT
HETATM    1  C4  UNL     1      12.728   6.280   9.937  1.00  0.00     0.135 A 
HETATM    2  N2  UNL     1      12.013   5.674   8.971  1.00  0.00    -0.285 N 
ATOM      3  H2  UNL     1      11.187   6.145   8.603  1.00  0.00     0.188 HD
HETATM    4  N3  UNL     1      12.346   4.482   8.478  1.00  0.00    -0.299 N 
ATOM      5  H3  UNL     1      11.765   4.073   7.746  1.00  0.00     0.186 HD
HETATM    6  C5  UNL     1      13.419   3.800   8.910  1.00  0.00     0.082 A 
HETATM    7  C12 UNL     1      14.190   4.379   9.905  1.00  0.00     0.161 A 
HETATM    8  F1  UNL     1      15.252   3.675  10.315  1.00  0.00    -0.203 F 
HETATM    9  C13 UNL     1      13.843   5.610  10.411  1.00  0.00     0.117 A 
ENDROOT
BRANCH   9  10
HETATM   10  C14 UNL     1      14.646   6.238  11.463  1.00  0.00     0.264 C 
HETATM   11  O3  UNL     1      15.471   7.128  11.102  1.00  0.00    -0.267 OA
HETATM   12  N4  UNL     1      14.545   5.913  12.814  1.00  0.00    -0.304 N 
ATOM     13  H4  UNL     1      13.602   5.984  13.197  1.00  0.00     0.171 HD
BRANCH  12  14
HETATM   14  C15 UNL     1      15.420   5.545  13.648  1.00  0.00     0.176 A 
HETATM   15  N5  UNL     1      16.372   6.370  14.194  1.00  0.00    -0.222 N 
HETATM   16  O4  UNL     1      17.096   5.675  15.000  1.00  0.00    -0.153 OA
ATOM     17  H5  UNL     1      16.486   7.364  13.994  1.00  0.00     0.198 HD
HETATM   18  N6  UNL     1      16.724   4.452  15.054  1.00  0.00    -0.222 N 
HETATM   19  C16 UNL     1      15.667   4.316  14.217  1.00  0.00     0.167 A 
ATOM     20  H6  UNL     1      17.145   3.716  15.621  1.00  0.00     0.198 HD
BRANCH  19  21
HETATM   21  N7  UNL     1      15.051   3.211  14.032  1.00  0.00    -0.381 N 
ATOM     22  H72 UNL     1      14.067   3.070  14.260  1.00  0.00     0.157 HD
ATOM     23  H71 UNL     1      15.411   2.337  13.651  1.00  0.00     0.157 HD
ENDBRANCH  19  21
ENDBRANCH  12  14
ENDBRANCH   9  10
BRANCH   1  24
HETATM   24  N1  UNL     1      12.392   7.434  10.402  1.00  0.00    -0.370 N 
ATOM     25  H1  UNL     1      11.912   7.468  11.302  1.00  0.00     0.161 HD
BRANCH  24  26
HETATM   26  C2  UNL     1      12.653   8.674   9.729  1.00  0.00     0.075 C 
HETATM   27  C1  UNL     1      12.837   9.797  10.744  1.00  0.00     0.031 C 
HETATM   28  C3  UNL     1      11.510   9.096   8.822  1.00  0.00     0.031 C 
ENDBRANCH  24  26
ENDBRANCH   1  24
BRANCH   6  29
HETATM   29  C6  UNL     1      13.726   2.501   8.328  1.00  0.00     0.074 C 
HETATM   30  C7  UNL     1      14.040   1.375   9.272  1.00  0.00     0.050 C 
HETATM   31  C8  UNL     1      13.811   0.075   8.488  1.00  0.00     0.170 C 
HETATM   32  O1  UNL     1      14.257   0.210   7.177  1.00  0.00    -0.378 OA
HETATM   33  C9  UNL     1      13.853   1.395   6.595  1.00  0.00     0.193 C 
HETATM   34  C10 UNL     1      14.733   2.506   7.182  1.00  0.00     0.064 C 
HETATM   35  C11 UNL     1      12.714   2.027   7.358  1.00  0.00     0.170 C 
HETATM   36  O2  UNL     1      11.521   2.128   7.266  1.00  0.00    -0.294 OA
ENDBRANCH   6  29
TORSDOF 6
ENDMDL
MODEL 5
REMARK VINA RESULT: -8.663678201      2.739      5.275
REMARK  6 active torsions:
REMARK  status: ('A' for Active; 'I' for Inactive)
REMARK    1  A    between atoms: C2_2  and  N1_4 
REMARK    2  A    between atoms: N1_4  and  C4_6 
REMARK    3  A    between atoms: C5_11  and  C6_12 
REMARK    4  A    between atoms: C13_22  and  C14_23 
REMARK       I    between atoms: C14_23  and  N4_25 
REMARK    5  A    between atoms: N4_25  and  C15_27 
REMARK    6  A    between atoms: C16_33  and  N7_34 
ROOT
HETATM    1  C4  UNL     1      13.307   8.499  13.488  1.00  0.00     0.135 A 
HETATM    2  N2  UNL     1      13.587   7.479  14.320  1.00  0.00    -0.285 N 
ATOM      3  H2  UNL     1      13.384   7.585  15.314  1.00  0.00     0.188 HD
HETATM    4  N3  UNL     1      14.120   6.335  13.893  1.00  0.00    -0.299 N 
ATOM      5  H3  UNL     1      14.311   5.598  14.571  1.00  0.00     0.186 HD
HETATM    6  C5  UNL     1      14.416   6.119  12.601  1.00  0.00     0.082 A 
HETATM    7  C12 UNL     1      14.147   7.138  11.701  1.00  0.00     0.161 A 
HETATM    8  F1  UNL     1      14.453   6.892  10.421  1.00  0.00    -0.203 F 
HETATM    9  C13 UNL     1      13.597   8.317  12.147  1.00  0.00     0.117 A 
ENDROOT
BRANCH   9  10
HETATM   10  C14 UNL     1      13.306   9.406  11.211  1.00  0.00     0.264 C 
HETATM   11  O3  UNL     1      13.576  10.581  11.597  1.00  0.00    -0.267 OA
HETATM   12  N4  UNL     1      12.761   9.215   9.943  1.00  0.00    -0.304 N 
ATOM     13  H4  UNL     1      13.279   8.563   9.354  1.00  0.00     0.171 HD
BRANCH  12  14
HETATM   14  C15 UNL     1      11.735   9.709   9.396  1.00  0.00     0.176 A 
HETATM   15  N5  UNL     1      10.758   8.977   8.767  1.00  0.00    -0.222 N 
HETATM   16  O4  UNL     1       9.864   9.791   8.325  1.00  0.00    -0.153 OA
ATOM     17  H5  UNL     1      10.743   7.962   8.668  1.00  0.00     0.198 HD
HETATM   18  N6  UNL     1      10.143  11.010   8.594  1.00  0.00    -0.222 N 
HETATM   19  C16 UNL     1      11.317  11.015   9.271  1.00  0.00     0.167 A 
ATOM     20  H6  UNL     1       9.585  11.827   8.346  1.00  0.00     0.198 HD
BRANCH  19  21
HETATM   21  N7  UNL     1      11.885  12.079   9.692  1.00  0.00    -0.381 N 
ATOM     22  H72 UNL     1      12.191  12.210  10.656  1.00  0.00     0.157 HD
ATOM     23  H71 UNL     1      12.114  12.927   9.174  1.00  0.00     0.157 HD
ENDBRANCH  19  21
ENDBRANCH  12  14
ENDBRANCH   9  10
BRANCH   1  24
HETATM   24  N1  UNL     1      12.791   9.599  13.919  1.00  0.00    -0.370 N 
ATOM     25  H1  UNL     1      11.920   9.920  13.494  1.00  0.00     0.161 HD
BRANCH  24  26
HETATM   26  C2  UNL     1      13.369  10.398  14.960  1.00  0.00     0.075 C 
HETATM   27  C1  UNL     1      12.872  11.836  14.859  1.00  0.00     0.031 C 
HETATM   28  C3  UNL     1      14.885  10.459  14.875  1.00  0.00     0.031 C 
ENDBRANCH  24  26
ENDBRANCH   1  24
BRANCH   6  29
HETATM   29  C6  UNL     1      14.997   4.844  12.202  1.00  0.00     0.074 C 
HETATM   30  C7  UNL     1      16.409   4.858  11.688  1.00  0.00     0.050 C 
HETATM   31  C8  UNL     1      16.938   3.424  11.836  1.00  0.00     0.170 C 
HETATM   32  O1  UNL     1      15.945   2.502  11.517  1.00  0.00    -0.378 OA
HETATM   33  C9  UNL     1      14.730   2.805  12.097  1.00  0.00     0.193 C 
HETATM   34  C10 UNL     1      14.130   3.971  11.300  1.00  0.00     0.064 C 
HETATM   35  C11 UNL     1      14.886   3.788  13.232  1.00  0.00     0.170 C 
HETATM   36  O2  UNL     1      14.915   3.773  14.432  1.00  0.00    -0.294 OA
ENDBRANCH   6  29
TORSDOF 6
ENDMDL
