MODEL 1
REMARK VINA RESULT: -8.751893354      0.000      0.000
REMARK  2 active torsions:
REMARK  status: ('A' for Active; 'I' for Inactive)
REMARK    1  A    between atoms: C1_2  and  C2_4 
REMARK    2  A    between atoms: C6_8  and  N2_9 
ROOT
HETATM    1  C2  UNL     1      66.770  28.079  10.943  1.00  0.00     0.054 A 
HETATM    2  C3  UNL     1      65.948  29.170  11.174  1.00  0.00     0.029 A 
HETATM    3  C4  UNL     1      65.284  29.326  12.373  1.00  0.00     0.001 A 
HETATM    4  C5  UNL     1      65.447  28.359  13.370  1.00  0.00     0.071 A 
HETATM    5  C6  UNL     1      66.279  27.273  13.110  1.00  0.00     0.152 A 
HETATM    6  C7  UNL     1      66.941  27.117  11.917  1.00  0.00     0.084 A 
HETATM    7 CL1  UNL     1      67.957  25.707  11.716  1.00  0.00    -0.081 Cl
HETATM    8  N3  UNL     1      64.656  28.772  14.479  1.00  0.00    -0.385 N 
ATOM      9  H3  UNL     1      64.812  28.555  15.463  1.00  0.00     0.159 HD
HETATM   10  C8  UNL     1      63.568  29.579  13.907  1.00  0.00     0.154 C 
HETATM   11  C9  UNL     1      64.354  30.379  12.883  1.00  0.00     0.167 C 
HETATM   12  C10 UNL     1      65.066  31.441  13.607  1.00  0.00     0.248 C 
HETATM   13  O4  UNL     1      66.191  31.211  14.089  1.00  0.00    -0.271 OA
HETATM   14  N4  UNL     1      64.469  32.710  13.749  1.00  0.00    -0.300 N 
ATOM     15  H4  UNL     1      64.822  33.361  14.450  1.00  0.00     0.171 HD
HETATM   16  C11 UNL     1      63.478  33.050  12.997  1.00  0.00     0.197 C 
HETATM   17  N5  UNL     1      62.929  34.351  13.204  1.00  0.00    -0.063 NA
HETATM   18  N6  UNL     1      62.923  32.205  12.000  1.00  0.00    -0.300 N 
ATOM     19  H6  UNL     1      62.138  32.520  11.430  1.00  0.00     0.171 HD
HETATM   20  C12 UNL     1      63.484  30.914  11.810  1.00  0.00     0.248 C 
HETATM   21  O5  UNL     1      63.258  30.247  10.782  1.00  0.00    -0.271 OA
ENDROOT
BRANCH   1  22
HETATM   22  C1  UNL     1      67.481  27.893   9.689  1.00  0.00     0.266 C 
HETATM   23  N1  UNL     1      68.753  28.465   9.443  1.00  0.00    -0.057 NA
HETATM   24  O1  UNL     1      66.927  27.196   8.805  1.00  0.00    -0.271 OA
ENDBRANCH   1  22
BRANCH   5  25
HETATM   25  N2  UNL     1      66.430  26.305  14.133  1.00  0.00    -0.112 N 
HETATM   26  O2  UNL     1      65.423  26.090  14.863  1.00  0.00    -0.532 OA
HETATM   27  O3  UNL     1      67.572  25.610  14.371  1.00  0.00    -0.532 OA
ENDBRANCH   5  25
TORSDOF 2
ENDMDL
MODEL 2
REMARK VINA RESULT: -8.588296592      1.603      1.738
REMARK  2 active torsions:
REMARK  status: ('A' for Active; 'I' for Inactive)
REMARK    1  A    between atoms: C1_2  and  C2_4 
REMARK    2  A    between atoms: C6_8  and  N2_9 
ROOT
HETATM    1  C2  UNL     1      66.767  29.685   9.754  1.00  0.00     0.054 A 
HETATM    2  C3  UNL     1      65.821  30.582  10.222  1.00  0.00     0.029 A 
HETATM    3  C4  UNL     1      65.074  30.313  11.350  1.00  0.00     0.001 A 
HETATM    4  C5  UNL     1      65.282  29.109  12.030  1.00  0.00     0.071 A 
HETATM    5  C6  UNL     1      66.239  28.226  11.537  1.00  0.00     0.152 A 
HETATM    6  C7  UNL     1      66.983  28.493  10.415  1.00  0.00     0.084 A 
HETATM    7 CL1  UNL     1      68.155  27.300   9.899  1.00  0.00    -0.081 Cl
HETATM    8  N3  UNL     1      64.387  29.101  13.137  1.00  0.00    -0.385 N 
ATOM      9  H3  UNL     1      64.507  28.612  14.024  1.00  0.00     0.159 HD
HETATM   10  C8  UNL     1      63.254  29.947  12.733  1.00  0.00     0.154 C 
HETATM   11  C9  UNL     1      64.008  31.082  12.062  1.00  0.00     0.167 C 
HETATM   12  C10 UNL     1      64.559  31.933  13.126  1.00  0.00     0.248 C 
HETATM   13  O4  UNL     1      65.671  31.666  13.616  1.00  0.00    -0.271 OA
HETATM   14  N4  UNL     1      63.821  33.045  13.580  1.00  0.00    -0.300 N 
ATOM     15  H4  UNL     1      64.060  33.484  14.469  1.00  0.00     0.171 HD
HETATM   16  C11 UNL     1      62.845  33.510  12.877  1.00  0.00     0.197 C 
HETATM   17  N5  UNL     1      62.148  34.637  13.406  1.00  0.00    -0.063 NA
HETATM   18  N6  UNL     1      62.444  32.960  11.630  1.00  0.00    -0.300 N 
ATOM     19  H6  UNL     1      61.664  33.364  11.111  1.00  0.00     0.171 HD
HETATM   20  C12 UNL     1      63.150  31.838  11.121  1.00  0.00     0.248 C 
HETATM   21  O5  UNL     1      63.058  31.494   9.926  1.00  0.00    -0.271 OA
ENDROOT
BRANCH   1  22
HETATM   22  C1  UNL     1      67.567  29.945   8.568  1.00  0.00     0.266 C 
HETATM   23  N1  UNL     1      68.808  29.305   8.331  1.00  0.00    -0.057 NA
HETATM   24  O1  UNL     1      67.121  30.773   7.738  1.00  0.00    -0.271 OA
ENDBRANCH   1  22
BRANCH   5  25
HETATM   25  N2  UNL     1      66.433  27.012  12.241  1.00  0.00    -0.112 N 
HETATM   26  O2  UNL     1      65.393  26.409  12.628  1.00  0.00    -0.532 OA
HETATM   27  O3  UNL     1      67.647  26.470  12.519  1.00  0.00    -0.532 OA
ENDBRANCH   5  25
TORSDOF 2
ENDMDL
MODEL 3
REMARK VINA RESULT: -8.546825534      2.045      4.211
REMARK  2 active torsions:
REMARK  status: ('A' for Active; 'I' for Inactive)
REMARK    1  A    between atoms: C1_2  and  C2_4 
REMARK    2  A    between atoms: C6_8  and  N2_9 
ROOT
HETATM    1  C2  UNL     1      66.024  28.507  11.266  1.00  0.00     0.054 A 
HETATM    2  C3  UNL     1      65.286  29.534  11.829  1.00  0.00     0.029 A 
HETATM    3  C4  UNL     1      65.259  30.791  11.262  1.00  0.00     0.001 A 
HETATM    4  C5  UNL     1      65.995  31.025  10.096  1.00  0.00     0.071 A 
HETATM    5  C6  UNL     1      66.728  29.974   9.553  1.00  0.00     0.152 A 
HETATM    6  C7  UNL     1      66.754  28.722  10.116  1.00  0.00     0.084 A 
HETATM    7 CL1  UNL     1      67.716  27.486   9.335  1.00  0.00    -0.081 Cl
HETATM    8  N3  UNL     1      65.785  32.388   9.742  1.00  0.00    -0.385 N 
ATOM      9  H3  UNL     1      65.830  32.797   8.809  1.00  0.00     0.159 HD
HETATM   10  C8  UNL     1      65.487  33.082  11.004  1.00  0.00     0.154 C 
HETATM   11  C9  UNL     1      64.566  32.059  11.647  1.00  0.00     0.167 C 
HETATM   12  C10 UNL     1      63.251  32.186  11.004  1.00  0.00     0.248 C 
HETATM   13  O4  UNL     1      63.009  31.548   9.962  1.00  0.00    -0.271 OA
HETATM   14  N4  UNL     1      62.276  33.031  11.572  1.00  0.00    -0.300 N 
ATOM     15  H4  UNL     1      61.473  33.325  11.017  1.00  0.00     0.171 HD
HETATM   16  C11 UNL     1      62.395  33.432  12.792  1.00  0.00     0.197 C 
HETATM   17  N5  UNL     1      61.366  34.285  13.293  1.00  0.00    -0.063 NA
HETATM   18  N6  UNL     1      63.479  33.073  13.635  1.00  0.00    -0.300 N 
ATOM     19  H6  UNL     1      63.529  33.418  14.593  1.00  0.00     0.171 HD
HETATM   20  C12 UNL     1      64.494  32.224  13.117  1.00  0.00     0.248 C 
HETATM   21  O5  UNL     1      65.298  31.634  13.864  1.00  0.00    -0.271 OA
ENDROOT
BRANCH   1  22
HETATM   22  C1  UNL     1      66.068  27.174  11.845  1.00  0.00     0.266 C 
HETATM   23  N1  UNL     1      65.748  26.921  13.202  1.00  0.00    -0.057 NA
HETATM   24  O1  UNL     1      66.404  26.226  11.095  1.00  0.00    -0.271 OA
ENDBRANCH   1  22
BRANCH   5  25
HETATM   25  N2  UNL     1      67.466  30.232   8.372  1.00  0.00    -0.112 N 
HETATM   26  O2  UNL     1      66.976  31.077   7.571  1.00  0.00    -0.532 OA
HETATM   27  O3  UNL     1      68.646  29.638   8.056  1.00  0.00    -0.532 OA
ENDBRANCH   5  25
TORSDOF 2
ENDMDL
MODEL 4
REMARK VINA RESULT: -8.319271690      2.369      4.351
REMARK  2 active torsions:
REMARK  status: ('A' for Active; 'I' for Inactive)
REMARK    1  A    between atoms: C1_2  and  C2_4 
REMARK    2  A    between atoms: C6_8  and  N2_9 
ROOT
HETATM    1  C2  UNL     1      66.428  27.550  11.022  1.00  0.00     0.054 A 
HETATM    2  C3  UNL     1      65.857  27.721  12.273  1.00  0.00     0.029 A 
HETATM    3  C4  UNL     1      65.368  28.946  12.676  1.00  0.00     0.001 A 
HETATM    4  C5  UNL     1      65.455  30.033  11.800  1.00  0.00     0.071 A 
HETATM    5  C6  UNL     1      66.034  29.832  10.550  1.00  0.00     0.152 A 
HETATM    6  C7  UNL     1      66.520  28.613  10.147  1.00  0.00     0.084 A 
HETATM    7 CL1  UNL     1      67.224  28.492   8.550  1.00  0.00    -0.081 Cl
HETATM    8  N3  UNL     1      64.882  31.150  12.471  1.00  0.00    -0.385 N 
ATOM      9  H3  UNL     1      64.436  31.963  12.046  1.00  0.00     0.159 HD
HETATM   10  C8  UNL     1      65.068  30.885  13.906  1.00  0.00     0.154 C 
HETATM   11  C9  UNL     1      64.718  29.408  13.940  1.00  0.00     0.167 C 
HETATM   12  C10 UNL     1      63.253  29.302  13.878  1.00  0.00     0.248 C 
HETATM   13  O4  UNL     1      62.684  29.271  12.771  1.00  0.00    -0.271 OA
HETATM   14  N4  UNL     1      62.508  29.235  15.073  1.00  0.00    -0.300 N 
ATOM     15  H4  UNL     1      61.505  29.417  15.056  1.00  0.00     0.171 HD
HETATM   16  C11 UNL     1      63.089  28.945  16.187  1.00  0.00     0.197 C 
HETATM   17  N5  UNL     1      62.265  28.898  17.351  1.00  0.00    -0.063 NA
HETATM   18  N6  UNL     1      64.479  28.679  16.302  1.00  0.00    -0.300 N 
ATOM     19  H6  UNL     1      64.893  28.455  17.206  1.00  0.00     0.171 HD
HETATM   20  C12 UNL     1      65.282  28.731  15.131  1.00  0.00     0.248 C 
HETATM   21  O5  UNL     1      66.423  28.229  15.097  1.00  0.00    -0.271 OA
ENDROOT
BRANCH   1  22
HETATM   22  C1  UNL     1      66.949  26.269  10.574  1.00  0.00     0.266 C 
HETATM   23  N1  UNL     1      66.298  25.484   9.591  1.00  0.00    -0.057 NA
HETATM   24  O1  UNL     1      68.017  25.864  11.092  1.00  0.00    -0.271 OA
ENDBRANCH   1  22
BRANCH   5  25
HETATM   25  N2  UNL     1      66.112  30.946   9.679  1.00  0.00    -0.112 N 
HETATM   26  O2  UNL     1      65.029  31.546   9.428  1.00  0.00    -0.532 OA
HETATM   27  O3  UNL     1      67.258  31.398   9.108  1.00  0.00    -0.532 OA
ENDBRANCH   5  25
TORSDOF 2
ENDMDL
MODEL 5
REMARK VINA RESULT: -8.029323808      2.339      4.668
REMARK  2 active torsions:
REMARK  status: ('A' for Active; 'I' for Inactive)
REMARK    1  A    between atoms: C1_2  and  C2_4 
REMARK    2  A    between atoms: C6_8  and  N2_9 
ROOT
HETATM    1  C2  UNL     1      66.303  28.907  10.176  1.00  0.00     0.054 A 
HETATM    2  C3  UNL     1      65.865  28.715  11.476  1.00  0.00     0.029 A 
HETATM    3  C4  UNL     1      65.276  29.735  12.192  1.00  0.00     0.001 A 
HETATM    4  C5  UNL     1      65.122  30.987  11.588  1.00  0.00     0.071 A 
HETATM    5  C6  UNL     1      65.572  31.152  10.281  1.00  0.00     0.152 A 
HETATM    6  C7  UNL     1      66.158  30.136   9.567  1.00  0.00     0.084 A 
HETATM    7 CL1  UNL     1      66.681  30.473   7.931  1.00  0.00    -0.081 Cl
HETATM    8  N3  UNL     1      64.494  31.833  12.546  1.00  0.00    -0.385 N 
ATOM      9  H3  UNL     1      63.903  32.643  12.360  1.00  0.00     0.159 HD
HETATM   10  C8  UNL     1      64.878  31.293  13.859  1.00  0.00     0.154 C 
HETATM   11  C9  UNL     1      64.724  29.808  13.580  1.00  0.00     0.167 C 
HETATM   12  C10 UNL     1      63.288  29.500  13.619  1.00  0.00     0.248 C 
HETATM   13  O4  UNL     1      62.601  29.626  12.588  1.00  0.00    -0.271 OA
HETATM   14  N4  UNL     1      62.701  29.065  14.825  1.00  0.00    -0.300 N 
ATOM     15  H4  UNL     1      61.688  29.094  14.936  1.00  0.00     0.171 HD
HETATM   16  C11 UNL     1      63.440  28.630  15.787  1.00  0.00     0.197 C 
HETATM   17  N5  UNL     1      62.770  28.208  16.975  1.00  0.00    -0.063 NA
HETATM   18  N6  UNL     1      64.857  28.556  15.719  1.00  0.00    -0.300 N 
ATOM     19  H6  UNL     1      65.398  28.205  16.509  1.00  0.00     0.171 HD
HETATM   20  C12 UNL     1      65.505  28.981  14.528  1.00  0.00     0.248 C 
HETATM   21  O5  UNL     1      66.688  28.675  14.282  1.00  0.00    -0.271 OA
ENDROOT
BRANCH   1  22
HETATM   22  C1  UNL     1      66.927  27.847   9.401  1.00  0.00     0.266 C 
HETATM   23  N1  UNL     1      68.309  27.843   9.090  1.00  0.00    -0.057 NA
HETATM   24  O1  UNL     1      66.193  26.911   9.002  1.00  0.00    -0.271 OA
ENDBRANCH   1  22
BRANCH   5  25
HETATM   25  N2  UNL     1      65.406  32.427   9.688  1.00  0.00    -0.112 N 
HETATM   26  O2  UNL     1      64.219  32.827   9.525  1.00  0.00    -0.532 OA
HETATM   27  O3  UNL     1      66.427  33.231   9.292  1.00  0.00    -0.532 OA
ENDBRANCH   5  25
TORSDOF 2
ENDMDL
