MODEL 1
REMARK VINA RESULT: -7.880983990      0.000      0.000
REMARK  6 active torsions:
REMARK  status: ('A' for Active; 'I' for Inactive)
REMARK    1  A    between atoms: C4_9  and  C5_10 
REMARK    2  A    between atoms: C6_13  and  N4_14 
REMARK    3  A    between atoms: N4_14  and  N5_16 
REMARK    4  A    between atoms: C11_24  and  N7_25 
REMARK    5  A    between atoms: C12_28  and  N8_29 
REMARK    6  A    between atoms: N8_29  and  O3_31 
ROOT
HETATM    1  C5  UNL     1      64.319  31.895  12.274  1.00  0.00     0.111 A 
HETATM    2  N3  UNL     1      64.663  31.004  11.276  1.00  0.00    -0.185 N 
ATOM      3  H3  UNL     1      64.400  30.024  11.384  1.00  0.00     0.184 HD
HETATM    4  C6  UNL     1      65.324  31.372  10.175  1.00  0.00     0.699 A 
HETATM    5  N6  UNL     1      65.687  32.646   9.989  1.00  0.00    -0.173 N 
ATOM      6  H6  UNL     1      66.189  32.915   9.144  1.00  0.00     0.186 HD
HETATM    7  C11 UNL     1      65.394  33.555  10.899  1.00  0.00     0.146 A 
HETATM    8  C12 UNL     1      64.697  33.180  12.071  1.00  0.00     0.127 A 
ENDROOT
BRANCH   1   9
HETATM    9  C4  UNL     1      63.697  31.398  13.476  1.00  0.00     0.107 A 
HETATM   10  N1  UNL     1      62.540  31.724  14.034  1.00  0.00    -0.290 N 
HETATM   11  C1  UNL     1      61.540  32.704  13.650  1.00  0.00     0.178 C 
HETATM   12  N2  UNL     1      62.289  30.915  15.096  1.00  0.00    -0.263 N 
HETATM   13  C2  UNL     1      63.293  30.043  15.237  1.00  0.00     0.284 A 
ATOM     14  H2  UNL     1      61.463  30.965  15.692  1.00  0.00     0.190 HD
HETATM   15  O1  UNL     1      63.387  29.139  16.127  1.00  0.00    -0.265 OA
HETATM   16  C3  UNL     1      64.178  30.320  14.248  1.00  0.00     0.133 A 
HETATM   17 CL1  UNL     1      65.696  29.522  13.945  1.00  0.00    -0.076 Cl
ENDBRANCH   1   9
BRANCH   8  18
HETATM   18  N8  UNL     1      64.491  34.186  13.052  1.00  0.00    -0.263 N 
ATOM     19  H8  UNL     1      64.927  34.144  13.974  1.00  0.00     0.194 HD
BRANCH  18  20
HETATM   20  O3  UNL     1      63.730  35.137  12.708  1.00  0.00    -0.289 OA
ATOM     21  H3  UNL     1      62.814  35.033  12.937  1.00  0.00     0.244 HD
ENDBRANCH  18  20
ENDBRANCH   8  18
BRANCH   4  22
HETATM   22  N4  UNL     1      65.581  30.437   9.327  1.00  0.00    -0.134 N 
ATOM     23  H4  UNL     1      64.965  30.357   8.517  1.00  0.00     0.205 HD
BRANCH  22  24
HETATM   24  N5  UNL     1      66.615  29.538   9.423  1.00  0.00    -0.310 N 
HETATM   25  C7  UNL     1      67.859  29.859   8.741  1.00  0.00     0.169 C 
HETATM   26  C8  UNL     1      68.820  28.717   8.937  1.00  0.00     0.189 C 
HETATM   27  O2  UNL     1      68.213  27.529   8.549  1.00  0.00    -0.388 OA
HETATM   28  C9  UNL     1      67.181  27.147   9.381  1.00  0.00     0.189 C 
HETATM   29  C10 UNL     1      66.572  28.287  10.149  1.00  0.00     0.169 C 
ENDBRANCH  22  24
ENDBRANCH   4  22
BRANCH   7  30
HETATM   30  N7  UNL     1      65.722  34.795  10.766  1.00  0.00    -0.383 N 
ATOM     31  H72 UNL     1      65.647  35.209   9.837  1.00  0.00     0.157 HD
ATOM     32  H71 UNL     1      66.047  35.361  11.550  1.00  0.00     0.157 HD
ENDBRANCH   7  30
TORSDOF 6
ENDMDL
MODEL 2
REMARK VINA RESULT: -7.846904166      3.352      5.537
REMARK  6 active torsions:
REMARK  status: ('A' for Active; 'I' for Inactive)
REMARK    1  A    between atoms: C4_9  and  C5_10 
REMARK    2  A    between atoms: C6_13  and  N4_14 
REMARK    3  A    between atoms: N4_14  and  N5_16 
REMARK    4  A    between atoms: C11_24  and  N7_25 
REMARK    5  A    between atoms: C12_28  and  N8_29 
REMARK    6  A    between atoms: N8_29  and  O3_31 
ROOT
HETATM    1  C5  UNL     1      62.668  33.462  12.511  1.00  0.00     0.111 A 
HETATM    2  N3  UNL     1      63.046  32.466  13.390  1.00  0.00    -0.185 N 
ATOM      3  H3  UNL     1      64.003  32.116  13.349  1.00  0.00     0.184 HD
HETATM    4  C6  UNL     1      62.209  31.940  14.290  1.00  0.00     0.699 A 
HETATM    5  N6  UNL     1      60.945  32.369  14.380  1.00  0.00    -0.173 N 
ATOM      6  H6  UNL     1      60.317  31.962  15.073  1.00  0.00     0.186 HD
HETATM    7  C11 UNL     1      60.511  33.319  13.574  1.00  0.00     0.146 A 
HETATM    8  C12 UNL     1      61.384  33.882  12.615  1.00  0.00     0.127 A 
ENDROOT
BRANCH   1   9
HETATM    9  C4  UNL     1      63.600  33.901  11.503  1.00  0.00     0.107 A 
HETATM   10  N1  UNL     1      64.232  35.058  11.373  1.00  0.00    -0.290 N 
HETATM   11  C1  UNL     1      64.171  36.272  12.169  1.00  0.00     0.178 C 
HETATM   12  N2  UNL     1      65.116  34.996  10.343  1.00  0.00    -0.263 N 
HETATM   13  C2  UNL     1      65.067  33.779   9.790  1.00  0.00     0.284 A 
ATOM     14  H2  UNL     1      65.722  35.758  10.040  1.00  0.00     0.190 HD
HETATM   15  O1  UNL     1      65.760  33.371   8.804  1.00  0.00    -0.265 OA
HETATM   16  C3  UNL     1      64.137  33.081  10.488  1.00  0.00     0.133 A 
HETATM   17 CL1  UNL     1      63.626  31.441  10.205  1.00  0.00    -0.076 Cl
ENDBRANCH   1   9
BRANCH   8  18
HETATM   18  N8  UNL     1      60.833  34.835  11.717  1.00  0.00    -0.263 N 
ATOM     19  H8  UNL     1      61.157  35.802  11.684  1.00  0.00     0.194 HD
BRANCH  18  20
HETATM   20  O3  UNL     1      59.912  34.405  10.962  1.00  0.00    -0.289 OA
ATOM     21  H3  UNL     1      59.108  34.910  10.967  1.00  0.00     0.244 HD
ENDBRANCH  18  20
ENDBRANCH   8  18
BRANCH   4  22
HETATM   22  N4  UNL     1      62.695  31.016  15.046  1.00  0.00    -0.134 N 
ATOM     23  H4  UNL     1      62.481  31.066  16.042  1.00  0.00     0.205 HD
BRANCH  22  24
HETATM   24  N5  UNL     1      63.476  29.970  14.620  1.00  0.00    -0.310 N 
HETATM   25  C7  UNL     1      64.555  29.529  15.490  1.00  0.00     0.169 C 
HETATM   26  C8  UNL     1      65.302  28.420  14.801  1.00  0.00     0.189 C 
HETATM   27  O2  UNL     1      65.688  28.838  13.534  1.00  0.00    -0.388 OA
HETATM   28  C9  UNL     1      64.625  29.012  12.671  1.00  0.00     0.189 C 
HETATM   29  C10 UNL     1      63.317  29.262  13.367  1.00  0.00     0.169 C 
ENDBRANCH  22  24
ENDBRANCH   4  22
BRANCH   7  30
HETATM   30  N7  UNL     1      59.302  33.765  13.622  1.00  0.00    -0.383 N 
ATOM     31  H72 UNL     1      58.697  33.419  14.367  1.00  0.00     0.157 HD
ATOM     32  H71 UNL     1      58.943  34.442  12.949  1.00  0.00     0.157 HD
ENDBRANCH   7  30
TORSDOF 6
ENDMDL
MODEL 3
REMARK VINA RESULT: -7.744800234      3.118      5.290
REMARK  6 active torsions:
REMARK  status: ('A' for Active; 'I' for Inactive)
REMARK    1  A    between atoms: C4_9  and  C5_10 
REMARK    2  A    between atoms: C6_13  and  N4_14 
REMARK    3  A    between atoms: N4_14  and  N5_16 
REMARK    4  A    between atoms: C11_24  and  N7_25 
REMARK    5  A    between atoms: C12_28  and  N8_29 
REMARK    6  A    between atoms: N8_29  and  O3_31 
ROOT
HETATM    1  C5  UNL     1      63.095  33.460  12.608  1.00  0.00     0.111 A 
HETATM    2  N3  UNL     1      63.891  32.501  13.204  1.00  0.00    -0.185 N 
ATOM      3  H3  UNL     1      64.868  32.431  12.919  1.00  0.00     0.184 HD
HETATM    4  C6  UNL     1      63.434  31.662  14.138  1.00  0.00     0.699 A 
HETATM    5  N6  UNL     1      62.161  31.718  14.545  1.00  0.00    -0.173 N 
ATOM      6  H6  UNL     1      61.825  31.074  15.260  1.00  0.00     0.186 HD
HETATM    7  C11 UNL     1      61.340  32.608  14.021  1.00  0.00     0.146 A 
HETATM    8  C12 UNL     1      61.808  33.501  13.030  1.00  0.00     0.127 A 
ENDROOT
BRANCH   1   9
HETATM    9  C4  UNL     1      63.637  34.257  11.536  1.00  0.00     0.107 A 
HETATM   10  N1  UNL     1      63.911  35.552  11.492  1.00  0.00    -0.290 N 
HETATM   11  C1  UNL     1      63.723  36.601  12.480  1.00  0.00     0.178 C 
HETATM   12  N2  UNL     1      64.530  35.861  10.322  1.00  0.00    -0.263 N 
HETATM   13  C2  UNL     1      64.668  34.751   9.589  1.00  0.00     0.284 A 
ATOM     14  H2  UNL     1      64.840  36.792  10.047  1.00  0.00     0.190 HD
HETATM   15  O1  UNL     1      65.204  34.670   8.437  1.00  0.00    -0.265 OA
HETATM   16  C3  UNL     1      64.125  33.744  10.316  1.00  0.00     0.133 A 
HETATM   17 CL1  UNL     1      63.996  32.069   9.856  1.00  0.00    -0.076 Cl
ENDBRANCH   1   9
BRANCH   8  18
HETATM   18  N8  UNL     1      60.854  34.374  12.441  1.00  0.00    -0.263 N 
ATOM     19  H8  UNL     1      60.739  35.340  12.748  1.00  0.00     0.194 HD
BRANCH  18  20
HETATM   20  O3  UNL     1      60.157  33.873  11.511  1.00  0.00    -0.289 OA
ATOM     21  H3  UNL     1      59.545  34.467  11.093  1.00  0.00     0.244 HD
ENDBRANCH  18  20
ENDBRANCH   8  18
BRANCH   4  22
HETATM   22  N4  UNL     1      64.286  30.817  14.608  1.00  0.00    -0.134 N 
ATOM     23  H4  UNL     1      64.733  31.047  15.495  1.00  0.00     0.205 HD
BRANCH  22  24
HETATM   24  N5  UNL     1      64.640  29.631  14.012  1.00  0.00    -0.310 N 
HETATM   25  C7  UNL     1      65.323  28.638  14.828  1.00  0.00     0.169 C 
HETATM   26  C8  UNL     1      65.659  27.456  13.960  1.00  0.00     0.189 C 
HETATM   27  O2  UNL     1      66.353  27.887  12.837  1.00  0.00    -0.388 OA
HETATM   28  C9  UNL     1      65.579  28.634  11.972  1.00  0.00     0.189 C 
HETATM   29  C10 UNL     1      64.392  29.281  12.630  1.00  0.00     0.169 C 
ENDBRANCH  22  24
ENDBRANCH   4  22
BRANCH   7  30
HETATM   30  N7  UNL     1      60.105  32.702  14.379  1.00  0.00    -0.383 N 
ATOM     31  H72 UNL     1      59.419  32.943  13.663  1.00  0.00     0.157 HD
ATOM     32  H71 UNL     1      59.801  32.544  15.340  1.00  0.00     0.157 HD
ENDBRANCH   7  30
TORSDOF 6
ENDMDL
MODEL 4
REMARK VINA RESULT: -7.606171793      3.310      5.716
REMARK  6 active torsions:
REMARK  status: ('A' for Active; 'I' for Inactive)
REMARK    1  A    between atoms: C4_9  and  C5_10 
REMARK    2  A    between atoms: C6_13  and  N4_14 
REMARK    3  A    between atoms: N4_14  and  N5_16 
REMARK    4  A    between atoms: C11_24  and  N7_25 
REMARK    5  A    between atoms: C12_28  and  N8_29 
REMARK    6  A    between atoms: N8_29  and  O3_31 
ROOT
HETATM    1  C5  UNL     1      62.732  33.260  12.424  1.00  0.00     0.111 A 
HETATM    2  N3  UNL     1      63.110  32.292  13.334  1.00  0.00    -0.185 N 
ATOM      3  H3  UNL     1      64.032  31.867  13.239  1.00  0.00     0.184 HD
HETATM    4  C6  UNL     1      62.318  31.889  14.331  1.00  0.00     0.699 A 
HETATM    5  N6  UNL     1      61.100  32.419  14.495  1.00  0.00    -0.173 N 
ATOM      6  H6  UNL     1      60.506  32.105  15.262  1.00  0.00     0.186 HD
HETATM    7  C11 UNL     1      60.669  33.350  13.666  1.00  0.00     0.146 A 
HETATM    8  C12 UNL     1      61.494  33.784  12.603  1.00  0.00     0.127 A 
ENDROOT
BRANCH   1   9
HETATM    9  C4  UNL     1      63.603  33.564  11.317  1.00  0.00     0.107 A 
HETATM   10  N1  UNL     1      63.958  32.817  10.282  1.00  0.00    -0.290 N 
HETATM   11  C1  UNL     1      63.624  31.445   9.938  1.00  0.00     0.178 C 
HETATM   12  N2  UNL     1      64.700  33.547   9.409  1.00  0.00    -0.263 N 
HETATM   13  C2  UNL     1      64.832  34.793   9.876  1.00  0.00     0.284 A 
ATOM     14  H2  UNL     1      65.094  33.199   8.536  1.00  0.00     0.190 HD
HETATM   15  O1  UNL     1      65.464  35.745   9.315  1.00  0.00    -0.265 OA
HETATM   16  C3  UNL     1      64.163  34.832  11.054  1.00  0.00     0.133 A 
HETATM   17 CL1  UNL     1      64.009  36.193  12.129  1.00  0.00    -0.076 Cl
ENDBRANCH   1   9
BRANCH   8  18
HETATM   18  N8  UNL     1      60.939  34.722  11.692  1.00  0.00    -0.263 N 
ATOM     19  H8  UNL     1      61.327  35.657  11.570  1.00  0.00     0.194 HD
BRANCH  18  20
HETATM   20  O3  UNL     1      59.931  34.319  11.042  1.00  0.00    -0.289 OA
ATOM     21  H3  UNL     1      59.422  34.997  10.614  1.00  0.00     0.244 HD
ENDBRANCH  18  20
ENDBRANCH   8  18
BRANCH   4  22
HETATM   22  N4  UNL     1      62.798  30.977  15.105  1.00  0.00    -0.134 N 
ATOM     23  H4  UNL     1      62.607  31.062  16.104  1.00  0.00     0.205 HD
BRANCH  22  24
HETATM   24  N5  UNL     1      63.544  29.899  14.696  1.00  0.00    -0.310 N 
HETATM   25  C7  UNL     1      64.597  29.426  15.581  1.00  0.00     0.169 C 
HETATM   26  C8  UNL     1      65.311  28.285  14.908  1.00  0.00     0.189 C 
HETATM   27  O2  UNL     1      65.725  28.679  13.643  1.00  0.00    -0.388 OA
HETATM   28  C9  UNL     1      64.679  28.885  12.766  1.00  0.00     0.189 C 
HETATM   29  C10 UNL     1      63.373  29.188  13.447  1.00  0.00     0.169 C 
ENDBRANCH  22  24
ENDBRANCH   4  22
BRANCH   7  30
HETATM   30  N7  UNL     1      59.504  33.891  13.781  1.00  0.00    -0.383 N 
ATOM     31  H72 UNL     1      59.304  34.409  14.637  1.00  0.00     0.157 HD
ATOM     32  H71 UNL     1      58.793  33.816  13.055  1.00  0.00     0.157 HD
ENDBRANCH   7  30
TORSDOF 6
ENDMDL
MODEL 5
REMARK VINA RESULT: -7.476692498      3.998      5.289
REMARK  6 active torsions:
REMARK  status: ('A' for Active; 'I' for Inactive)
REMARK    1  A    between atoms: C4_9  and  C5_10 
REMARK    2  A    between atoms: C6_13  and  N4_14 
REMARK    3  A    between atoms: N4_14  and  N5_16 
REMARK    4  A    between atoms: C11_24  and  N7_25 
REMARK    5  A    between atoms: C12_28  and  N8_29 
REMARK    6  A    between atoms: N8_29  and  O3_31 
ROOT
HETATM    1  C5  UNL     1      63.190  34.421  12.432  1.00  0.00     0.111 A 
HETATM    2  N3  UNL     1      63.293  34.340  11.057  1.00  0.00    -0.185 N 
ATOM      3  H3  UNL     1      63.099  33.447  10.605  1.00  0.00     0.184 HD
HETATM    4  C6  UNL     1      63.635  35.383  10.295  1.00  0.00     0.699 A 
HETATM    5  N6  UNL     1      63.896  36.575  10.845  1.00  0.00    -0.173 N 
ATOM      6  H6  UNL     1      64.154  37.364  10.253  1.00  0.00     0.186 HD
HETATM    7  C11 UNL     1      63.819  36.730  12.153  1.00  0.00     0.146 A 
HETATM    8  C12 UNL     1      63.461  35.634  12.972  1.00  0.00     0.127 A 
ENDROOT
BRANCH   1   9
HETATM    9  C4  UNL     1      62.917  33.225  13.189  1.00  0.00     0.107 A 
HETATM   10  N1  UNL     1      61.851  32.893  13.902  1.00  0.00    -0.290 N 
HETATM   11  C1  UNL     1      60.632  33.627  14.191  1.00  0.00     0.178 C 
HETATM   12  N2  UNL     1      61.964  31.613  14.346  1.00  0.00    -0.263 N 
HETATM   13  C2  UNL     1      63.120  31.096  13.915  1.00  0.00     0.284 A 
ATOM     14  H2  UNL     1      61.276  31.125  14.917  1.00  0.00     0.190 HD
HETATM   15  O1  UNL     1      63.551  29.920  14.142  1.00  0.00    -0.265 OA
HETATM   16  C3  UNL     1      63.730  32.071  13.197  1.00  0.00     0.133 A 
HETATM   17 CL1  UNL     1      65.280  31.981  12.409  1.00  0.00    -0.076 Cl
ENDBRANCH   1   9
BRANCH   8  18
HETATM   18  N8  UNL     1      63.484  35.841  14.377  1.00  0.00    -0.263 N 
ATOM     19  H8  UNL     1      64.287  35.586  14.951  1.00  0.00     0.194 HD
BRANCH  18  20
HETATM   20  O3  UNL     1      62.441  36.363  14.869  1.00  0.00    -0.289 OA
ATOM     21  H3  UNL     1      61.800  36.669  14.239  1.00  0.00     0.244 HD
ENDBRANCH  18  20
ENDBRANCH   8  18
BRANCH   4  22
HETATM   22  N4  UNL     1      63.693  35.166   9.027  1.00  0.00    -0.134 N 
ATOM     23  H4  UNL     1      63.227  34.330   8.673  1.00  0.00     0.205 HD
BRANCH  22  24
HETATM   24  N5  UNL     1      64.330  35.968   8.111  1.00  0.00    -0.310 N 
HETATM   25  C7  UNL     1      65.709  35.651   7.774  1.00  0.00     0.169 C 
HETATM   26  C8  UNL     1      66.214  36.686   6.804  1.00  0.00     0.189 C 
HETATM   27  O2  UNL     1      66.001  37.954   7.327  1.00  0.00    -0.388 OA
HETATM   28  C9  UNL     1      64.666  38.296   7.402  1.00  0.00     0.189 C 
HETATM   29  C10 UNL     1      63.742  37.112   7.447  1.00  0.00     0.169 C 
ENDBRANCH  22  24
ENDBRANCH   4  22
BRANCH   7  30
HETATM   30  N7  UNL     1      64.062  37.857  12.729  1.00  0.00    -0.383 N 
ATOM     31  H72 UNL     1      64.933  38.333  12.496  1.00  0.00     0.157 HD
ATOM     32  H71 UNL     1      63.417  38.278  13.399  1.00  0.00     0.157 HD
ENDBRANCH   7  30
TORSDOF 6
ENDMDL
