MODEL 1
REMARK VINA RESULT: -8.058827954      0.000      0.000
REMARK  3 active torsions:
REMARK  status: ('A' for Active; 'I' for Inactive)
REMARK    1  A    between atoms: N3_7  and  C3_8 
REMARK    2  A    between atoms: C6_11  and  O1_12 
REMARK    3  A    between atoms: C8_18  and  N5_19 
REMARK       I    between atoms: N5_19  and  C9_21 
REMARK       I    between atoms: C9_21  and  N8_26 
ROOT
HETATM    1  N5  UNL     1      15.257   7.274  12.454  1.00  0.00    -0.171 N 
ATOM      2  H5  UNL     1      15.405   8.015  11.769  1.00  0.00     0.186 HD
HETATM    3  C9  UNL     1      16.037   7.353  13.621  1.00  0.00     0.702 C 
HETATM    4  N6  UNL     1      15.622   7.989  14.655  1.00  0.00    -0.125 N 
ATOM      5  H6  UNL     1      16.194   8.043  15.498  1.00  0.00     0.197 HD
HETATM    6  C10 UNL     1      14.372   8.605  14.601  1.00  0.00     0.196 C 
HETATM    7  N7  UNL     1      13.342   9.112  14.573  1.00  0.00    -0.171 NA
HETATM    8  N8  UNL     1      17.311   6.741  13.664  1.00  0.00    -0.125 N 
ATOM      9  H8  UNL     1      17.925   6.891  14.466  1.00  0.00     0.197 HD
HETATM   10  C11 UNL     1      17.726   5.931  12.604  1.00  0.00     0.196 C 
HETATM   11  N9  UNL     1      18.060   5.252  11.706  1.00  0.00    -0.171 NA
ENDROOT
BRANCH   1  12
HETATM   12  C8  UNL     1      14.301   6.306  12.111  1.00  0.00     0.169 A 
HETATM   13  C2  UNL     1      14.307   4.983  12.469  1.00  0.00     0.070 A 
HETATM   14  C1  UNL     1      15.254   4.187  13.278  1.00  0.00     0.074 C 
HETATM   15  N1  UNL     1      13.184   4.456  11.902  1.00  0.00    -0.287 N 
HETATM   16  N2  UNL     1      12.557   5.406  11.254  1.00  0.00    -0.233 N 
ATOM     17  H1  UNL     1      12.882   3.484  11.973  1.00  0.00     0.188 HD
HETATM   18  N3  UNL     1      13.189   6.553  11.344  1.00  0.00    -0.207 N 
ATOM     19  H2  UNL     1      11.686   5.271  10.741  1.00  0.00     0.209 HD
BRANCH  18  20
HETATM   20  C3  UNL     1      12.816   7.818  10.771  1.00  0.00     0.133 A 
HETATM   21  C4  UNL     1      12.403   7.890   9.455  1.00  0.00     0.053 A 
HETATM   22  C5  UNL     1      12.036   9.084   8.865  1.00  0.00     0.046 A 
HETATM   23  C6  UNL     1      12.082  10.243   9.613  1.00  0.00     0.134 A 
HETATM   24  C7  UNL     1      12.495  10.138  10.913  1.00  0.00     0.280 A 
HETATM   25  O2  UNL     1      12.534  11.209  11.595  1.00  0.00    -0.265 OA
HETATM   26  N4  UNL     1      12.850   8.962  11.477  1.00  0.00    -0.306 N 
ATOM     27  H4  UNL     1      13.150   8.943  12.451  1.00  0.00     0.170 HD
BRANCH  23  28
HETATM   28  O1  UNL     1      11.723  11.491   9.081  1.00  0.00    -0.356 OA
ATOM     29  H1  UNL     1      10.959  11.606   8.528  1.00  0.00     0.218 HD
ENDBRANCH  23  28
ENDBRANCH  18  20
ENDBRANCH   1  12
TORSDOF 3
ENDMDL
MODEL 2
REMARK VINA RESULT: -7.277716691      2.931      5.469
REMARK  3 active torsions:
REMARK  status: ('A' for Active; 'I' for Inactive)
REMARK    1  A    between atoms: N3_7  and  C3_8 
REMARK    2  A    between atoms: C6_11  and  O1_12 
REMARK    3  A    between atoms: C8_18  and  N5_19 
REMARK       I    between atoms: N5_19  and  C9_21 
REMARK       I    between atoms: C9_21  and  N8_26 
ROOT
HETATM    1  N5  UNL     1      12.094   9.314  10.760  1.00  0.00    -0.171 N 
ATOM      2  H5  UNL     1      11.260   9.412  11.340  1.00  0.00     0.186 HD
HETATM    3  C9  UNL     1      11.869   8.977   9.414  1.00  0.00     0.702 C 
HETATM    4  N6  UNL     1      11.712   9.883   8.520  1.00  0.00    -0.125 N 
ATOM      5  H6  UNL     1      11.548   9.631   7.545  1.00  0.00     0.197 HD
HETATM    6  C10 UNL     1      11.768  11.222   8.910  1.00  0.00     0.196 C 
HETATM    7  N7  UNL     1      11.819  12.327   9.216  1.00  0.00    -0.171 NA
HETATM    8  N8  UNL     1      11.795   7.619   9.027  1.00  0.00    -0.125 N 
ATOM      9  H8  UNL     1      11.521   7.371   8.076  1.00  0.00     0.197 HD
HETATM   10  C11 UNL     1      12.097   6.618   9.954  1.00  0.00     0.196 C 
HETATM   11  N9  UNL     1      12.355   5.788  10.743  1.00  0.00    -0.171 NA
ENDROOT
BRANCH   1  12
HETATM   12  C8  UNL     1      13.318   9.534  11.409  1.00  0.00     0.169 A 
HETATM   13  C2  UNL     1      14.482   8.837  11.223  1.00  0.00     0.070 A 
HETATM   14  C1  UNL     1      14.818   7.700  10.339  1.00  0.00     0.074 C 
HETATM   15  N1  UNL     1      15.383   9.415  12.069  1.00  0.00    -0.287 N 
HETATM   16  N2  UNL     1      14.788  10.389  12.711  1.00  0.00    -0.233 N 
ATOM     17  H1  UNL     1      16.358   9.136  12.182  1.00  0.00     0.188 HD
HETATM   18  N3  UNL     1      13.531  10.509  12.352  1.00  0.00    -0.207 N 
ATOM     19  H2  UNL     1      15.245  10.981  13.405  1.00  0.00     0.209 HD
BRANCH  18  20
HETATM   20  C3  UNL     1      12.560  11.456  12.831  1.00  0.00     0.133 A 
HETATM   21  C4  UNL     1      12.743  12.087  14.046  1.00  0.00     0.053 A 
HETATM   22  C5  UNL     1      11.836  13.002  14.541  1.00  0.00     0.046 A 
HETATM   23  C6  UNL     1      10.709  13.297  13.803  1.00  0.00     0.134 A 
HETATM   24  C7  UNL     1      10.555  12.654  12.604  1.00  0.00     0.280 A 
HETATM   25  O2  UNL     1       9.515  12.931  11.929  1.00  0.00    -0.265 OA
HETATM   26  N4  UNL     1      11.452  11.762  12.131  1.00  0.00    -0.306 N 
ATOM     27  H4  UNL     1      11.288  11.313  11.230  1.00  0.00     0.170 HD
BRANCH  23  28
HETATM   28  O1  UNL     1       9.744  14.216  14.244  1.00  0.00    -0.356 OA
ATOM     29  H1  UNL     1       8.916  14.336  13.794  1.00  0.00     0.218 HD
ENDBRANCH  23  28
ENDBRANCH  18  20
ENDBRANCH   1  12
TORSDOF 3
ENDMDL
MODEL 3
REMARK VINA RESULT: -7.113430443      1.711      2.313
REMARK  3 active torsions:
REMARK  status: ('A' for Active; 'I' for Inactive)
REMARK    1  A    between atoms: N3_7  and  C3_8 
REMARK    2  A    between atoms: C6_11  and  O1_12 
REMARK    3  A    between atoms: C8_18  and  N5_19 
REMARK       I    between atoms: N5_19  and  C9_21 
REMARK       I    between atoms: C9_21  and  N8_26 
ROOT
HETATM    1  N5  UNL     1      15.873   6.266  12.943  1.00  0.00    -0.171 N 
ATOM      2  H5  UNL     1      15.931   6.666  12.006  1.00  0.00     0.186 HD
HETATM    3  C9  UNL     1      16.445   7.031  13.974  1.00  0.00     0.702 C 
HETATM    4  N6  UNL     1      15.754   7.897  14.620  1.00  0.00    -0.125 N 
ATOM      5  H6  UNL     1      16.176   8.450  15.366  1.00  0.00     0.197 HD
HETATM    6  C10 UNL     1      14.412   8.068  14.279  1.00  0.00     0.196 C 
HETATM    7  N7  UNL     1      13.305   8.213  14.013  1.00  0.00    -0.171 NA
HETATM    8  N8  UNL     1      17.810   6.867  14.303  1.00  0.00    -0.125 N 
ATOM      9  H8  UNL     1      18.256   7.497  14.971  1.00  0.00     0.197 HD
HETATM   10  C11 UNL     1      18.547   5.839  13.710  1.00  0.00     0.196 C 
HETATM   11  N9  UNL     1      19.153   4.970  13.203  1.00  0.00    -0.171 NA
ENDROOT
BRANCH   1  12
HETATM   12  C8  UNL     1      15.231   5.022  13.037  1.00  0.00     0.169 A 
HETATM   13  C2  UNL     1      15.549   3.997  13.890  1.00  0.00     0.070 A 
HETATM   14  C1  UNL     1      16.597   3.866  14.924  1.00  0.00     0.074 C 
HETATM   15  N1  UNL     1      14.651   3.009  13.609  1.00  0.00    -0.287 N 
HETATM   16  N2  UNL     1      13.858   3.424  12.653  1.00  0.00    -0.233 N 
ATOM     17  H1  UNL     1      14.605   2.099  14.067  1.00  0.00     0.188 HD
HETATM   18  N3  UNL     1      14.162   4.641  12.265  1.00  0.00    -0.207 N 
ATOM     19  H2  UNL     1      13.097   2.871  12.259  1.00  0.00     0.209 HD
BRANCH  18  20
HETATM   20  C3  UNL     1      13.524   5.431  11.246  1.00  0.00     0.133 A 
HETATM   21  C4  UNL     1      13.024   4.828  10.109  1.00  0.00     0.053 A 
HETATM   22  C5  UNL     1      12.405   5.550   9.108  1.00  0.00     0.046 A 
HETATM   23  C6  UNL     1      12.281   6.917   9.245  1.00  0.00     0.134 A 
HETATM   24  C7  UNL     1      12.787   7.485  10.382  1.00  0.00     0.280 A 
HETATM   25  O2  UNL     1      12.669   8.744  10.502  1.00  0.00    -0.265 OA
HETATM   26  N4  UNL     1      13.390   6.765  11.354  1.00  0.00    -0.306 N 
ATOM     27  H4  UNL     1      13.749   7.241  12.182  1.00  0.00     0.170 HD
BRANCH  23  28
HETATM   28  O1  UNL     1      11.664   7.714   8.268  1.00  0.00    -0.356 OA
ATOM     29  H1  UNL     1      10.935   8.290   8.470  1.00  0.00     0.218 HD
ENDBRANCH  23  28
ENDBRANCH  18  20
ENDBRANCH   1  12
TORSDOF 3
ENDMDL
MODEL 4
REMARK VINA RESULT: -7.091904373      2.463      4.226
REMARK  3 active torsions:
REMARK  status: ('A' for Active; 'I' for Inactive)
REMARK    1  A    between atoms: N3_7  and  C3_8 
REMARK    2  A    between atoms: C6_11  and  O1_12 
REMARK    3  A    between atoms: C8_18  and  N5_19 
REMARK       I    between atoms: N5_19  and  C9_21 
REMARK       I    between atoms: C9_21  and  N8_26 
ROOT
HETATM    1  N5  UNL     1      16.092   3.989  10.983  1.00  0.00    -0.171 N 
ATOM      2  H5  UNL     1      15.786   4.604  10.229  1.00  0.00     0.186 HD
HETATM    3  C9  UNL     1      17.109   3.074  10.655  1.00  0.00     0.702 C 
HETATM    4  N6  UNL     1      18.347   3.379  10.795  1.00  0.00    -0.125 N 
ATOM      5  H6  UNL     1      19.079   2.711  10.553  1.00  0.00     0.197 HD
HETATM    6  C10 UNL     1      18.670   4.645  11.284  1.00  0.00     0.196 C 
HETATM    7  N7  UNL     1      18.951   5.680  11.692  1.00  0.00    -0.171 NA
HETATM    8  N8  UNL     1      16.776   1.799  10.142  1.00  0.00    -0.125 N 
ATOM      9  H8  UNL     1      17.508   1.178   9.798  1.00  0.00     0.197 HD
HETATM   10  C11 UNL     1      15.438   1.395  10.108  1.00  0.00     0.196 C 
HETATM   11  N9  UNL     1      14.310   1.069  10.087  1.00  0.00    -0.171 NA
ENDROOT
BRANCH   1  12
HETATM   12  C8  UNL     1      15.447   4.164  12.216  1.00  0.00     0.169 A 
HETATM   13  C2  UNL     1      15.814   3.622  13.420  1.00  0.00     0.070 A 
HETATM   14  C1  UNL     1      16.934   2.735  13.799  1.00  0.00     0.074 C 
HETATM   15  N1  UNL     1      14.888   4.077  14.313  1.00  0.00    -0.287 N 
HETATM   16  N2  UNL     1      14.032   4.836  13.677  1.00  0.00    -0.233 N 
ATOM     17  H1  UNL     1      14.867   3.862  15.309  1.00  0.00     0.188 HD
HETATM   18  N3  UNL     1      14.320   4.927  12.399  1.00  0.00    -0.207 N 
ATOM     19  H2  UNL     1      13.238   5.301  14.119  1.00  0.00     0.209 HD
BRANCH  18  20
HETATM   20  C3  UNL     1      13.618   5.664  11.382  1.00  0.00     0.133 A 
HETATM   21  C4  UNL     1      12.973   4.997  10.360  1.00  0.00     0.053 A 
HETATM   22  C5  UNL     1      12.288   5.666   9.364  1.00  0.00     0.046 A 
HETATM   23  C6  UNL     1      12.245   7.044   9.390  1.00  0.00     0.134 A 
HETATM   24  C7  UNL     1      12.895   7.676  10.416  1.00  0.00     0.280 A 
HETATM   25  O2  UNL     1      12.852   8.946  10.432  1.00  0.00    -0.265 OA
HETATM   26  N4  UNL     1      13.561   7.008  11.383  1.00  0.00    -0.306 N 
ATOM     27  H4  UNL     1      14.027   7.530  12.125  1.00  0.00     0.170 HD
BRANCH  23  28
HETATM   28  O1  UNL     1      11.569   7.791   8.412  1.00  0.00    -0.356 OA
ATOM     29  H1  UNL     1      12.021   8.385   7.826  1.00  0.00     0.218 HD
ENDBRANCH  23  28
ENDBRANCH  18  20
ENDBRANCH   1  12
TORSDOF 3
ENDMDL
MODEL 5
REMARK VINA RESULT: -7.013210630      2.633      4.748
REMARK  3 active torsions:
REMARK  status: ('A' for Active; 'I' for Inactive)
REMARK    1  A    between atoms: N3_7  and  C3_8 
REMARK    2  A    between atoms: C6_11  and  O1_12 
REMARK    3  A    between atoms: C8_18  and  N5_19 
REMARK       I    between atoms: N5_19  and  C9_21 
REMARK       I    between atoms: C9_21  and  N8_26 
ROOT
HETATM    1  N5  UNL     1      14.740   5.939  12.249  1.00  0.00    -0.171 N 
ATOM      2  H5  UNL     1      13.955   6.271  12.809  1.00  0.00     0.186 HD
HETATM    3  C9  UNL     1      14.413   5.402  10.991  1.00  0.00     0.702 C 
HETATM    4  N6  UNL     1      14.362   6.144   9.946  1.00  0.00    -0.125 N 
ATOM      5  H6  UNL     1      14.123   5.748   9.037  1.00  0.00     0.197 HD
HETATM    6  C10 UNL     1      14.640   7.505  10.080  1.00  0.00     0.196 C 
HETATM    7  N7  UNL     1      14.872   8.625  10.175  1.00  0.00    -0.171 NA
HETATM    8  N8  UNL     1      14.115   4.026  10.863  1.00  0.00    -0.125 N 
ATOM      9  H8  UNL     1      13.769   3.656   9.978  1.00  0.00     0.197 HD
HETATM   10  C11 UNL     1      14.296   3.175  11.957  1.00  0.00     0.196 C 
HETATM   11  N9  UNL     1      14.454   2.471  12.884  1.00  0.00    -0.171 NA
ENDROOT
BRANCH   1  12
HETATM   12  C8  UNL     1      16.008   6.075  12.832  1.00  0.00     0.169 A 
HETATM   13  C2  UNL     1      17.115   5.308  12.580  1.00  0.00     0.070 A 
HETATM   14  C1  UNL     1      17.332   4.161  11.673  1.00  0.00     0.074 C 
HETATM   15  N1  UNL     1      18.094   5.820  13.380  1.00  0.00    -0.287 N 
HETATM   16  N2  UNL     1      17.596   6.823  14.059  1.00  0.00    -0.233 N 
ATOM     17  H1  UNL     1      19.054   5.480  13.439  1.00  0.00     0.188 HD
HETATM   18  N3  UNL     1      16.332   7.026  13.769  1.00  0.00    -0.207 N 
ATOM     19  H2  UNL     1      18.125   7.380  14.731  1.00  0.00     0.209 HD
BRANCH  18  20
HETATM   20  C3  UNL     1      15.449   8.027  14.304  1.00  0.00     0.133 A 
HETATM   21  C4  UNL     1      14.249   8.304  13.678  1.00  0.00     0.053 A 
HETATM   22  C5  UNL     1      13.373   9.257  14.159  1.00  0.00     0.046 A 
HETATM   23  C6  UNL     1      13.704   9.956  15.301  1.00  0.00     0.134 A 
HETATM   24  C7  UNL     1      14.899   9.659  15.898  1.00  0.00     0.280 A 
HETATM   25  O2  UNL     1      15.196  10.308  16.949  1.00  0.00    -0.265 OA
HETATM   26  N4  UNL     1      15.746   8.723  15.416  1.00  0.00    -0.306 N 
ATOM     27  H4  UNL     1      16.624   8.543  15.902  1.00  0.00     0.170 HD
BRANCH  23  28
HETATM   28  O1  UNL     1      12.863  10.938  15.846  1.00  0.00    -0.356 OA
ATOM     29  H1  UNL     1      12.632  11.728  15.372  1.00  0.00     0.218 HD
ENDBRANCH  23  28
ENDBRANCH  18  20
ENDBRANCH   1  12
TORSDOF 3
ENDMDL
