MODEL 1
REMARK VINA RESULT: -7.584050322      0.000      0.000
REMARK  5 active torsions:
REMARK  status: ('A' for Active; 'I' for Inactive)
REMARK    1  A    between atoms: O1_2  and  N1_3 
REMARK       I    between atoms: N1_3  and  C2_5 
REMARK    2  A    between atoms: C2_5  and  C3_7 
REMARK    3  A    between atoms: C6_12  and  N3_13 
REMARK    4  A    between atoms: N3_13  and  C7_15 
REMARK    5  A    between atoms: N6_23  and  O3_24 
ROOT
HETATM    1  C3  UNL     1      12.112  11.541  11.999  1.00  0.00     0.174 A 
HETATM    2  N2  UNL     1      11.915  12.357  13.054  1.00  0.00    -0.348 N 
ATOM      3  H2  UNL     1      11.354  13.197  12.909  1.00  0.00     0.166 HD
HETATM    4  C4  UNL     1      12.416  12.134  14.302  1.00  0.00     0.053 A 
HETATM    5  C5  UNL     1      12.159  13.180  15.352  1.00  0.00     0.072 C 
HETATM    6  C6  UNL     1      13.170  11.020  14.536  1.00  0.00     0.162 A 
HETATM    7  N6  UNL     1      13.391  10.163  13.465  1.00  0.00    -0.167 N 
HETATM    8  C10 UNL     1      12.879  10.422  12.260  1.00  0.00     0.305 A 
HETATM    9  O4  UNL     1      13.134   9.579  11.340  1.00  0.00    -0.263 OA
ENDROOT
BRANCH   6  10
HETATM   10  N3  UNL     1      13.667  10.589  15.770  1.00  0.00    -0.311 N 
ATOM     11  H3  UNL     1      13.031  10.013  16.322  1.00  0.00     0.170 HD
BRANCH  10  12
HETATM   12  C7  UNL     1      14.917  10.839  16.354  1.00  0.00     0.179 C 
HETATM   13  N4  UNL     1      15.176  11.739  17.259  1.00  0.00    -0.358 N 
HETATM   14  C8  UNL     1      16.564  11.731  17.641  1.00  0.00     0.181 C 
ATOM     15  H4  UNL     1      14.479  12.373  17.650  1.00  0.00     0.162 HD
HETATM   16  C9  UNL     1      16.928  10.266  17.344  1.00  0.00     0.289 C 
HETATM   17  F1  UNL     1      16.299   9.516  18.325  1.00  0.00    -0.225 F 
HETATM   18  N5  UNL     1      16.148  10.110  16.111  1.00  0.00    -0.330 N 
ATOM     19  H5  UNL     1      16.414   9.601  15.268  1.00  0.00     0.165 HD
ENDBRANCH  10  12
ENDBRANCH   6  10
BRANCH   7  20
HETATM   20  O3  UNL     1      14.154   9.029  13.691  1.00  0.00    -0.278 OA
ATOM     21  H3  UNL     1      14.397   8.501  12.939  1.00  0.00     0.245 HD
ENDBRANCH   7  20
BRANCH   1  22
HETATM   22  C2  UNL     1      11.553  11.824  10.706  1.00  0.00     0.297 C 
HETATM   23  N1  UNL     1      11.056  10.836   9.862  1.00  0.00    -0.230 N 
ATOM     24  H1  UNL     1      11.081   9.867  10.181  1.00  0.00     0.197 HD
HETATM   25  O2  UNL     1      11.518  13.037  10.329  1.00  0.00    -0.264 OA
BRANCH  23  26
HETATM   26  O1  UNL     1      10.539  11.100   8.633  1.00  0.00    -0.282 OA
HETATM   27  C1  UNL     1       9.168  10.805   8.636  1.00  0.00     0.237 C 
ENDBRANCH  23  26
ENDBRANCH   1  22
TORSDOF 5
ENDMDL
MODEL 2
REMARK VINA RESULT: -7.248790946      1.660      2.242
REMARK  5 active torsions:
REMARK  status: ('A' for Active; 'I' for Inactive)
REMARK    1  A    between atoms: O1_2  and  N1_3 
REMARK       I    between atoms: N1_3  and  C2_5 
REMARK    2  A    between atoms: C2_5  and  C3_7 
REMARK    3  A    between atoms: C6_12  and  N3_13 
REMARK    4  A    between atoms: N3_13  and  C7_15 
REMARK    5  A    between atoms: N6_23  and  O3_24 
ROOT
HETATM    1  C3  UNL     1      12.097  11.292  12.557  1.00  0.00     0.174 A 
HETATM    2  N2  UNL     1      12.733  10.108  12.663  1.00  0.00    -0.348 N 
ATOM      3  H2  UNL     1      12.776   9.513  11.836  1.00  0.00     0.166 HD
HETATM    4  C4  UNL     1      13.323   9.654  13.805  1.00  0.00     0.053 A 
HETATM    5  C5  UNL     1      13.933   8.278  13.772  1.00  0.00     0.072 C 
HETATM    6  C6  UNL     1      13.290  10.421  14.933  1.00  0.00     0.162 A 
HETATM    7  N6  UNL     1      12.638  11.646  14.852  1.00  0.00    -0.167 N 
HETATM    8  C10 UNL     1      12.074  12.051  13.712  1.00  0.00     0.305 A 
HETATM    9  O4  UNL     1      11.501  13.188  13.733  1.00  0.00    -0.263 OA
ENDROOT
BRANCH   6  10
HETATM   10  N3  UNL     1      13.931  10.155  16.147  1.00  0.00    -0.311 N 
ATOM     11  H3  UNL     1      13.414   9.562  16.797  1.00  0.00     0.170 HD
BRANCH  10  12
HETATM   12  C7  UNL     1      15.187  10.590  16.595  1.00  0.00     0.179 C 
HETATM   13  N4  UNL     1      15.414  11.614  17.368  1.00  0.00    -0.358 N 
HETATM   14  C8  UNL     1      16.818  11.782  17.636  1.00  0.00     0.181 C 
ATOM     15  H4  UNL     1      14.684  12.223  17.739  1.00  0.00     0.162 HD
HETATM   16  C9  UNL     1      17.309  10.333  17.479  1.00  0.00     0.289 C 
HETATM   17  F1  UNL     1      16.829   9.653  18.587  1.00  0.00    -0.225 F 
HETATM   18  N5  UNL     1      16.466   9.956  16.339  1.00  0.00    -0.330 N 
ATOM     19  H5  UNL     1      16.724   9.374  15.542  1.00  0.00     0.165 HD
ENDBRANCH  10  12
ENDBRANCH   6  10
BRANCH   7  20
HETATM   20  O3  UNL     1      12.598  12.433  15.991  1.00  0.00    -0.278 OA
ATOM     21  H3  UNL     1      12.936  12.064  16.798  1.00  0.00     0.245 HD
ENDBRANCH   7  20
BRANCH   1  22
HETATM   22  C2  UNL     1      11.498  11.723  11.325  1.00  0.00     0.297 C 
HETATM   23  N1  UNL     1      10.121  11.785  11.132  1.00  0.00    -0.230 N 
ATOM     24  H1  UNL     1       9.510  11.522  11.905  1.00  0.00     0.197 HD
HETATM   25  O2  UNL     1      12.272  12.059  10.375  1.00  0.00    -0.264 OA
BRANCH  23  26
HETATM   26  O1  UNL     1       9.552  12.180   9.962  1.00  0.00    -0.282 OA
HETATM   27  C1  UNL     1       9.159  11.046   9.235  1.00  0.00     0.237 C 
ENDBRANCH  23  26
ENDBRANCH   1  22
TORSDOF 5
ENDMDL
MODEL 3
REMARK VINA RESULT: -7.170569269      1.170      1.189
REMARK  5 active torsions:
REMARK  status: ('A' for Active; 'I' for Inactive)
REMARK    1  A    between atoms: O1_2  and  N1_3 
REMARK       I    between atoms: N1_3  and  C2_5 
REMARK    2  A    between atoms: C2_5  and  C3_7 
REMARK    3  A    between atoms: C6_12  and  N3_13 
REMARK    4  A    between atoms: N3_13  and  C7_15 
REMARK    5  A    between atoms: N6_23  and  O3_24 
ROOT
HETATM    1  C3  UNL     1      12.703  10.725  12.239  1.00  0.00     0.174 A 
HETATM    2  N2  UNL     1      12.390  11.658  13.161  1.00  0.00    -0.348 N 
ATOM      3  H2  UNL     1      11.773  12.419  12.879  1.00  0.00     0.166 HD
HETATM    4  C4  UNL     1      12.845  11.649  14.446  1.00  0.00     0.053 A 
HETATM    5  C5  UNL     1      12.455  12.803  15.329  1.00  0.00     0.072 C 
HETATM    6  C6  UNL     1      13.672  10.645  14.862  1.00  0.00     0.162 A 
HETATM    7  N6  UNL     1      14.012   9.672  13.931  1.00  0.00    -0.167 N 
HETATM    8  C10 UNL     1      13.542   9.720  12.683  1.00  0.00     0.305 A 
HETATM    9  O4  UNL     1      13.907   8.784  11.900  1.00  0.00    -0.263 OA
ENDROOT
BRANCH   6  10
HETATM   10  N3  UNL     1      14.139  10.430  16.163  1.00  0.00    -0.311 N 
ATOM     11  H3  UNL     1      13.477   9.986  16.799  1.00  0.00     0.170 HD
BRANCH  10  12
HETATM   12  C7  UNL     1      15.392  10.740  16.712  1.00  0.00     0.179 C 
HETATM   13  N4  UNL     1      15.644  11.703  17.552  1.00  0.00    -0.358 N 
HETATM   14  C8  UNL     1      17.036  11.744  17.917  1.00  0.00     0.181 C 
ATOM     15  H4  UNL     1      14.941  12.350  17.909  1.00  0.00     0.162 HD
HETATM   16  C9  UNL     1      17.423  10.269  17.713  1.00  0.00     0.289 C 
HETATM   17  F1  UNL     1      16.819   9.576  18.750  1.00  0.00    -0.225 F 
HETATM   18  N5  UNL     1      16.632  10.018  16.504  1.00  0.00    -0.330 N 
ATOM     19  H5  UNL     1      16.897   9.458  15.694  1.00  0.00     0.165 HD
ENDBRANCH  10  12
ENDBRANCH   6  10
BRANCH   7  20
HETATM   20  O3  UNL     1      14.850   8.649  14.342  1.00  0.00    -0.278 OA
ATOM     21  H3  UNL     1      15.571   8.409  13.770  1.00  0.00     0.245 HD
ENDBRANCH   7  20
BRANCH   1  22
HETATM   22  C2  UNL     1      12.188  10.781  10.899  1.00  0.00     0.297 C 
HETATM   23  N1  UNL     1      12.156   9.677  10.052  1.00  0.00    -0.230 N 
ATOM     24  H1  UNL     1      12.504   8.785  10.404  1.00  0.00     0.197 HD
HETATM   25  O2  UNL     1      11.747  11.896  10.480  1.00  0.00    -0.264 OA
BRANCH  23  26
HETATM   26  O1  UNL     1      11.682   9.731   8.779  1.00  0.00    -0.282 OA
HETATM   27  C1  UNL     1      11.432   8.427   8.325  1.00  0.00     0.237 C 
ENDBRANCH  23  26
ENDBRANCH   1  22
TORSDOF 5
ENDMDL
MODEL 4
REMARK VINA RESULT: -7.119171804      3.799      6.107
REMARK  5 active torsions:
REMARK  status: ('A' for Active; 'I' for Inactive)
REMARK    1  A    between atoms: O1_2  and  N1_3 
REMARK       I    between atoms: N1_3  and  C2_5 
REMARK    2  A    between atoms: C2_5  and  C3_7 
REMARK    3  A    between atoms: C6_12  and  N3_13 
REMARK    4  A    between atoms: N3_13  and  C7_15 
REMARK    5  A    between atoms: N6_23  and  O3_24 
ROOT
HETATM    1  C3  UNL     1      13.880   7.452  12.883  1.00  0.00     0.174 A 
HETATM    2  N2  UNL     1      13.928   8.124  14.051  1.00  0.00    -0.348 N 
ATOM      3  H2  UNL     1      14.234   7.617  14.881  1.00  0.00     0.166 HD
HETATM    4  C4  UNL     1      13.593   9.438  14.195  1.00  0.00     0.053 A 
HETATM    5  C5  UNL     1      13.637  10.018  15.582  1.00  0.00     0.072 C 
HETATM    6  C6  UNL     1      13.181  10.152  13.107  1.00  0.00     0.162 A 
HETATM    7  N6  UNL     1      13.121   9.483  11.890  1.00  0.00    -0.167 N 
HETATM    8  C10 UNL     1      13.459   8.195  11.796  1.00  0.00     0.305 A 
HETATM    9  O4  UNL     1      13.373   7.666  10.641  1.00  0.00    -0.263 OA
ENDROOT
BRANCH   6  10
HETATM   10  N3  UNL     1      12.905  11.522  13.059  1.00  0.00    -0.311 N 
ATOM     11  H3  UNL     1      13.721  12.134  13.051  1.00  0.00     0.170 HD
BRANCH  10  12
HETATM   12  C7  UNL     1      11.662  12.170  13.021  1.00  0.00     0.179 C 
HETATM   13  N4  UNL     1      11.317  13.211  13.725  1.00  0.00    -0.358 N 
HETATM   14  C8  UNL     1       9.967  13.625  13.444  1.00  0.00     0.181 C 
ATOM     15  H4  UNL     1      11.930  13.677  14.395  1.00  0.00     0.162 HD
HETATM   16  C9  UNL     1       9.812  13.113  12.002  1.00  0.00     0.289 C 
HETATM   17  F1  UNL     1      10.595  13.949  11.221  1.00  0.00    -0.225 F 
HETATM   18  N5  UNL     1      10.543  11.851  12.154  1.00  0.00    -0.330 N 
ATOM     19  H5  UNL     1      10.315  10.947  11.742  1.00  0.00     0.165 HD
ENDBRANCH  10  12
ENDBRANCH   6  10
BRANCH   7  20
HETATM   20  O3  UNL     1      12.704  10.197  10.779  1.00  0.00    -0.278 OA
ATOM     21  H3  UNL     1      13.355  10.420  10.125  1.00  0.00     0.245 HD
ENDBRANCH   7  20
BRANCH   1  22
HETATM   22  C2  UNL     1      14.252   6.068  12.789  1.00  0.00     0.297 C 
HETATM   23  N1  UNL     1      13.507   5.129  12.081  1.00  0.00    -0.230 N 
ATOM     24  H1  UNL     1      12.665   5.442  11.598  1.00  0.00     0.197 HD
HETATM   25  O2  UNL     1      15.310   5.696  13.386  1.00  0.00    -0.264 OA
BRANCH  23  26
HETATM   26  O1  UNL     1      13.849   3.816  12.002  1.00  0.00    -0.282 OA
HETATM   27  C1  UNL     1      14.288   3.531  10.700  1.00  0.00     0.237 C 
ENDBRANCH  23  26
ENDBRANCH   1  22
TORSDOF 5
ENDMDL
MODEL 5
REMARK VINA RESULT: -7.036185930      2.333      3.543
REMARK  5 active torsions:
REMARK  status: ('A' for Active; 'I' for Inactive)
REMARK    1  A    between atoms: O1_2  and  N1_3 
REMARK       I    between atoms: N1_3  and  C2_5 
REMARK    2  A    between atoms: C2_5  and  C3_7 
REMARK    3  A    between atoms: C6_12  and  N3_13 
REMARK    4  A    between atoms: N3_13  and  C7_15 
REMARK    5  A    between atoms: N6_23  and  O3_24 
ROOT
HETATM    1  C3  UNL     1      12.256   9.319   9.948  1.00  0.00     0.174 A 
HETATM    2  N2  UNL     1      13.156   8.323  10.080  1.00  0.00    -0.348 N 
ATOM      3  H2  UNL     1      13.129   7.562   9.401  1.00  0.00     0.166 HD
HETATM    4  C4  UNL     1      14.100   8.267  11.061  1.00  0.00     0.053 A 
HETATM    5  C5  UNL     1      14.985   7.051  11.106  1.00  0.00     0.072 C 
HETATM    6  C6  UNL     1      14.170   9.267  11.988  1.00  0.00     0.162 A 
HETATM    7  N6  UNL     1      13.253  10.304  11.877  1.00  0.00    -0.167 N 
HETATM    8  C10 UNL     1      12.345  10.318  10.898  1.00  0.00     0.305 A 
HETATM    9  O4  UNL     1      11.546  11.310  10.876  1.00  0.00    -0.263 OA
ENDROOT
BRANCH   6  10
HETATM   10  N3  UNL     1      15.136   9.416  12.988  1.00  0.00    -0.311 N 
ATOM     11  H3  UNL     1      16.096   9.519  12.659  1.00  0.00     0.170 HD
BRANCH  10  12
HETATM   12  C7  UNL     1      14.968   9.444  14.380  1.00  0.00     0.179 C 
HETATM   13  N4  UNL     1      15.732  10.064  15.233  1.00  0.00    -0.358 N 
HETATM   14  C8  UNL     1      15.276   9.888  16.588  1.00  0.00     0.181 C 
ATOM     15  H4  UNL     1      16.555  10.609  14.974  1.00  0.00     0.162 HD
HETATM   16  C9  UNL     1      13.774   9.658  16.350  1.00  0.00     0.289 C 
HETATM   17  F1  UNL     1      13.261  10.890  15.974  1.00  0.00    -0.225 F 
HETATM   18  N5  UNL     1      13.883   8.844  15.135  1.00  0.00    -0.330 N 
ATOM     19  H5  UNL     1      13.321   8.034  14.877  1.00  0.00     0.165 HD
ENDBRANCH  10  12
ENDBRANCH   6  10
BRANCH   7  20
HETATM   20  O3  UNL     1      13.313  11.324  12.812  1.00  0.00    -0.278 OA
ATOM     21  H3  UNL     1      13.898  11.214  13.553  1.00  0.00     0.245 HD
ENDBRANCH   7  20
BRANCH   1  22
HETATM   22  C2  UNL     1      11.287   9.329   8.888  1.00  0.00     0.297 C 
HETATM   23  N1  UNL     1      10.135  10.109   8.922  1.00  0.00    -0.230 N 
ATOM     24  H1  UNL     1       9.978  10.708   9.732  1.00  0.00     0.197 HD
HETATM   25  O2  UNL     1      11.503   8.587   7.880  1.00  0.00    -0.264 OA
BRANCH  23  26
HETATM   26  O1  UNL     1       9.209  10.111   7.926  1.00  0.00    -0.282 OA
HETATM   27  C1  UNL     1       8.262  11.115   8.179  1.00  0.00     0.237 C 
ENDBRANCH  23  26
ENDBRANCH   1  22
TORSDOF 5
ENDMDL
