MODEL 1
REMARK VINA RESULT: -6.885801631      0.000      0.000
REMARK  4 active torsions:
REMARK  status: ('A' for Active; 'I' for Inactive)
REMARK    1  A    between atoms: O1_2  and  C2_3 
REMARK    2  A    between atoms: C2_3  and  O2_4 
REMARK    3  A    between atoms: C2_3  and  C3_6 
REMARK    4  A    between atoms: N3_24  and  O4_26 
ROOT
HETATM    1  C3  UNL     1      14.126   8.685  13.366  1.00  0.00     0.168 C 
HETATM    2  C4  UNL     1      12.917   8.522  14.224  1.00  0.00     0.057 C 
HETATM    3  O3  UNL     1      13.969   9.719  12.417  1.00  0.00    -0.361 OA
HETATM    4  C5  UNL     1      12.694   9.692  11.895  1.00  0.00     0.182 A 
HETATM    5  C6  UNL     1      12.509  10.434  10.600  1.00  0.00     0.267 A 
HETATM    6  N1  UNL     1      12.423   9.162   9.923  1.00  0.00    -0.063 N 
ATOM      7  H11 UNL     1      13.093   8.957   9.181  1.00  0.00     0.277 HD
ATOM      8  H12 UNL     1      11.635   8.994   9.297  1.00  0.00     0.277 HD
HETATM    9  C7  UNL     1      12.501   8.407  11.155  1.00  0.00     0.260 A 
HETATM   10  C8  UNL     1      13.627   7.442  11.271  1.00  0.00     0.191 C 
HETATM   11  C9  UNL     1      14.629   7.588  10.139  1.00  0.00     0.059 C 
HETATM   12  F1  UNL     1      13.055   6.169  11.105  1.00  0.00    -0.236 F 
HETATM   13  C10 UNL     1      14.343   7.424  12.588  1.00  0.00     0.306 C 
HETATM   14  N2  UNL     1      13.994   6.267  13.392  1.00  0.00    -0.029 N 
ATOM     15  H21 UNL     1      12.995   6.061  13.389  1.00  0.00     0.281 HD
ATOM     16  H22 UNL     1      14.089   6.430  14.395  1.00  0.00     0.281 HD
HETATM   17  C11 UNL     1      14.810   5.160  12.909  1.00  0.00     0.322 C 
HETATM   18  C12 UNL     1      15.897   5.797  12.148  1.00  0.00     0.166 C 
HETATM   19  N3  UNL     1      16.787   5.237  11.437  1.00  0.00    -0.249 N 
ATOM     20  H3  UNL     1      17.483   5.813  10.963  1.00  0.00     0.196 HD
HETATM   21  O5  UNL     1      15.740   7.172  12.376  1.00  0.00    -0.291 OA
ENDROOT
BRANCH   1  22
HETATM   22  C2  UNL     1      15.305   9.100  14.193  1.00  0.00     0.295 C 
BRANCH  22  23
HETATM   23  O1  UNL     1      15.115  10.221  14.966  1.00  0.00    -0.363 OA
HETATM   24  C1  UNL     1      15.630  10.068  16.254  1.00  0.00     0.204 C 
ENDBRANCH  22  23
BRANCH  22  25
HETATM   25  O2  UNL     1      15.796   8.031  14.966  1.00  0.00    -0.368 OA
ATOM     26  H2  UNL     1      15.258   7.255  14.856  1.00  0.00     0.212 HD
ENDBRANCH  22  25
ENDBRANCH   1  22
BRANCH  19  27
HETATM   27  O4  UNL     1      16.834   3.883  11.292  1.00  0.00    -0.288 OA
ATOM     28  H4  UNL     1      17.351   3.340  11.876  1.00  0.00     0.244 HD
ENDBRANCH  19  27
TORSDOF 4
ENDMDL
MODEL 2
REMARK VINA RESULT: -6.519608921      2.465      4.151
REMARK  4 active torsions:
REMARK  status: ('A' for Active; 'I' for Inactive)
REMARK    1  A    between atoms: O1_2  and  C2_3 
REMARK    2  A    between atoms: C2_3  and  O2_4 
REMARK    3  A    between atoms: C2_3  and  C3_6 
REMARK    4  A    between atoms: N3_24  and  O4_26 
ROOT
HETATM    1  C3  UNL     1      13.797   7.446  10.703  1.00  0.00     0.168 C 
HETATM    2  C4  UNL     1      14.797   8.019   9.756  1.00  0.00     0.057 C 
HETATM    3  O3  UNL     1      12.889   8.421  11.170  1.00  0.00    -0.361 OA
HETATM    4  C5  UNL     1      13.552   9.601  11.425  1.00  0.00     0.182 A 
HETATM    5  C6  UNL     1      12.823  10.576  12.309  1.00  0.00     0.267 A 
HETATM    6  N1  UNL     1      13.745  10.250  13.370  1.00  0.00    -0.063 N 
ATOM      7  H11 UNL     1      13.372   9.880  14.245  1.00  0.00     0.277 HD
ATOM      8  H12 UNL     1      14.216  11.012  13.860  1.00  0.00     0.277 HD
HETATM    9  C7  UNL     1      14.535   9.376  12.529  1.00  0.00     0.260 A 
HETATM   10  C8  UNL     1      14.663   7.963  12.975  1.00  0.00     0.191 C 
HETATM   11  C9  UNL     1      13.744   7.643  14.141  1.00  0.00     0.059 C 
HETATM   12  F1  UNL     1      15.968   7.842  13.481  1.00  0.00    -0.236 F 
HETATM   13  C10 UNL     1      14.515   6.922  11.908  1.00  0.00     0.306 C 
HETATM   14  N2  UNL     1      15.788   6.338  11.525  1.00  0.00    -0.029 N 
ATOM     15  H21 UNL     1      16.532   7.028  11.419  1.00  0.00     0.281 HD
ATOM     16  H22 UNL     1      15.799   5.989  10.566  1.00  0.00     0.281 HD
HETATM   17  C11 UNL     1      16.092   5.311  12.514  1.00  0.00     0.322 C 
HETATM   18  C12 UNL     1      14.808   5.037  13.180  1.00  0.00     0.166 C 
HETATM   19  N3  UNL     1      14.594   4.305  14.194  1.00  0.00    -0.249 N 
ATOM     20  H3  UNL     1      13.641   4.208  14.547  1.00  0.00     0.196 HD
HETATM   21  O5  UNL     1      13.859   5.765  12.448  1.00  0.00    -0.291 OA
ENDROOT
BRANCH   1  22
HETATM   22  C2  UNL     1      12.943   6.427  10.012  1.00  0.00     0.295 C 
BRANCH  22  23
HETATM   23  O1  UNL     1      13.629   5.424   9.369  1.00  0.00    -0.363 OA
HETATM   24  C1  UNL     1      12.789   4.387   8.961  1.00  0.00     0.204 C 
ENDBRANCH  22  23
BRANCH  22  25
HETATM   25  O2  UNL     1      11.968   5.897  10.879  1.00  0.00    -0.368 OA
ATOM     26  H2  UNL     1      11.197   5.623  10.396  1.00  0.00     0.212 HD
ENDBRANCH  22  25
ENDBRANCH   1  22
BRANCH  19  27
HETATM   27  O4  UNL     1      15.606   3.645  14.822  1.00  0.00    -0.288 OA
ATOM     28  H4  UNL     1      15.946   2.824  14.486  1.00  0.00     0.244 HD
ENDBRANCH  19  27
TORSDOF 4
ENDMDL
MODEL 3
REMARK VINA RESULT: -6.439715394      2.135      4.761
REMARK  4 active torsions:
REMARK  status: ('A' for Active; 'I' for Inactive)
REMARK    1  A    between atoms: O1_2  and  C2_3 
REMARK    2  A    between atoms: C2_3  and  O2_4 
REMARK    3  A    between atoms: C2_3  and  C3_6 
REMARK    4  A    between atoms: N3_24  and  O4_26 
ROOT
HETATM    1  C3  UNL     1      13.504   6.411  10.553  1.00  0.00     0.168 C 
HETATM    2  C4  UNL     1      12.054   6.065  10.506  1.00  0.00     0.057 C 
HETATM    3  O3  UNL     1      14.306   5.422   9.942  1.00  0.00    -0.361 OA
HETATM    4  C5  UNL     1      13.838   4.168  10.265  1.00  0.00     0.182 A 
HETATM    5  C6  UNL     1      14.809   3.039  10.050  1.00  0.00     0.267 A 
HETATM    6  N1  UNL     1      14.970   2.952  11.482  1.00  0.00    -0.063 N 
ATOM      7  H11 UNL     1      15.903   3.073  11.877  1.00  0.00     0.277 HD
ATOM      8  H12 UNL     1      14.868   2.041  11.930  1.00  0.00     0.277 HD
HETATM    9  C7  UNL     1      13.971   3.966  11.740  1.00  0.00     0.260 A 
HETATM   10  C8  UNL     1      14.423   5.164  12.498  1.00  0.00     0.191 C 
HETATM   11  C9  UNL     1      15.931   5.197  12.675  1.00  0.00     0.059 C 
HETATM   12  F1  UNL     1      13.895   5.016  13.792  1.00  0.00    -0.236 F 
HETATM   13  C10 UNL     1      13.939   6.486  11.984  1.00  0.00     0.306 C 
HETATM   14  N2  UNL     1      12.883   7.047  12.806  1.00  0.00    -0.029 N 
ATOM     15  H21 UNL     1      12.184   6.359  13.086  1.00  0.00     0.281 HD
ATOM     16  H22 UNL     1      12.256   7.665  12.290  1.00  0.00     0.281 HD
HETATM   17  C11 UNL     1      13.533   7.700  13.936  1.00  0.00     0.322 C 
HETATM   18  C12 UNL     1      14.934   7.871  13.518  1.00  0.00     0.166 C 
HETATM   19  N3  UNL     1      15.913   8.280  14.213  1.00  0.00    -0.249 N 
ATOM     20  H3  UNL     1      16.836   8.348  13.783  1.00  0.00     0.196 HD
HETATM   21  O5  UNL     1      14.959   7.480  12.171  1.00  0.00    -0.291 OA
ENDROOT
BRANCH   1  22
HETATM   22  C2  UNL     1      13.771   7.660   9.769  1.00  0.00     0.295 C 
BRANCH  22  23
HETATM   23  O1  UNL     1      13.121   8.786  10.217  1.00  0.00    -0.363 OA
HETATM   24  C1  UNL     1      12.238   9.298   9.266  1.00  0.00     0.204 C 
ENDBRANCH  22  23
BRANCH  22  25
HETATM   25  O2  UNL     1      15.153   7.896   9.629  1.00  0.00    -0.368 OA
ATOM     26  H2  UNL     1      15.358   8.811   9.781  1.00  0.00     0.212 HD
ENDBRANCH  22  25
ENDBRANCH   1  22
BRANCH  19  27
HETATM   27  O4  UNL     1      15.760   8.632  15.519  1.00  0.00    -0.288 OA
ATOM     28  H4  UNL     1      16.083   8.082  16.223  1.00  0.00     0.244 HD
ENDBRANCH  19  27
TORSDOF 4
ENDMDL
MODEL 4
REMARK VINA RESULT: -6.421419369      2.314      4.431
REMARK  4 active torsions:
REMARK  status: ('A' for Active; 'I' for Inactive)
REMARK    1  A    between atoms: O1_2  and  C2_3 
REMARK    2  A    between atoms: C2_3  and  O2_4 
REMARK    3  A    between atoms: C2_3  and  C3_6 
REMARK    4  A    between atoms: N3_24  and  O4_26 
ROOT
HETATM    1  C3  UNL     1      13.798   7.564  11.955  1.00  0.00     0.168 C 
HETATM    2  C4  UNL     1      14.998   7.536  11.069  1.00  0.00     0.057 C 
HETATM    3  O3  UNL     1      12.623   7.896  11.246  1.00  0.00    -0.361 OA
HETATM    4  C5  UNL     1      12.886   8.893  10.333  1.00  0.00     0.182 A 
HETATM    5  C6  UNL     1      11.683   9.634   9.817  1.00  0.00     0.267 A 
HETATM    6  N1  UNL     1      12.079  10.765  10.622  1.00  0.00    -0.063 N 
ATOM      7  H11 UNL     1      11.426  11.118  11.323  1.00  0.00     0.277 HD
ATOM      8  H12 UNL     1      12.141  11.682  10.178  1.00  0.00     0.277 HD
HETATM    9  C7  UNL     1      13.298  10.127  11.069  1.00  0.00     0.260 A 
HETATM   10  C8  UNL     1      13.458   9.957  12.537  1.00  0.00     0.191 C 
HETATM   11  C9  UNL     1      12.188  10.298  13.297  1.00  0.00     0.059 C 
HETATM   12  F1  UNL     1      14.401  10.922  12.930  1.00  0.00    -0.236 F 
HETATM   13  C10 UNL     1      13.985   8.629  12.991  1.00  0.00     0.306 C 
HETATM   14  N2  UNL     1      15.374   8.697  13.404  1.00  0.00    -0.029 N 
ATOM     15  H21 UNL     1      15.955   9.250  12.774  1.00  0.00     0.281 HD
ATOM     16  H22 UNL     1      15.871   7.812  13.292  1.00  0.00     0.281 HD
HETATM   17  C11 UNL     1      15.381   9.191  14.775  1.00  0.00     0.322 C 
HETATM   18  C12 UNL     1      14.004   8.988  15.256  1.00  0.00     0.166 C 
HETATM   19  N3  UNL     1      13.492   9.376  16.350  1.00  0.00    -0.249 N 
ATOM     20  H3  UNL     1      12.515   9.159  16.548  1.00  0.00     0.196 HD
HETATM   21  O5  UNL     1      13.369   8.264  14.236  1.00  0.00    -0.291 OA
ENDROOT
BRANCH   1  22
HETATM   22  C2  UNL     1      13.532   6.203  12.522  1.00  0.00     0.295 C 
BRANCH  22  23
HETATM   23  O1  UNL     1      13.346   5.206  11.595  1.00  0.00    -0.363 OA
HETATM   24  C1  UNL     1      14.093   4.064  11.890  1.00  0.00     0.204 C 
ENDBRANCH  22  23
BRANCH  22  25
HETATM   25  O2  UNL     1      14.509   5.838  13.468  1.00  0.00    -0.368 OA
ATOM     26  H2  UNL     1      15.339   6.261  13.281  1.00  0.00     0.212 HD
ENDBRANCH  22  25
ENDBRANCH   1  22
BRANCH  19  27
HETATM   27  O4  UNL     1      14.218  10.076  17.266  1.00  0.00    -0.288 OA
ATOM     28  H4  UNL     1      14.059  10.999  17.424  1.00  0.00     0.244 HD
ENDBRANCH  19  27
TORSDOF 4
ENDMDL
MODEL 5
REMARK VINA RESULT: -6.255959868      3.164      6.096
REMARK  4 active torsions:
REMARK  status: ('A' for Active; 'I' for Inactive)
REMARK    1  A    between atoms: O1_2  and  C2_3 
REMARK    2  A    between atoms: C2_3  and  O2_4 
REMARK    3  A    between atoms: C2_3  and  C3_6 
REMARK    4  A    between atoms: N3_24  and  O4_26 
ROOT
HETATM    1  C3  UNL     1      18.048   4.306  12.933  1.00  0.00     0.168 C 
HETATM    2  C4  UNL     1      18.920   4.365  11.725  1.00  0.00     0.057 C 
HETATM    3  O3  UNL     1      17.985   3.006  13.481  1.00  0.00    -0.361 OA
HETATM    4  C5  UNL     1      17.908   2.072  12.472  1.00  0.00     0.182 A 
HETATM    5  C6  UNL     1      17.416   0.711  12.884  1.00  0.00     0.267 A 
HETATM    6  N1  UNL     1      16.167   1.000  12.220  1.00  0.00    -0.063 N 
ATOM      7  H11 UNL     1      15.306   0.974  12.767  1.00  0.00     0.277 HD
ATOM      8  H12 UNL     1      15.799   0.319  11.555  1.00  0.00     0.277 HD
HETATM    9  C7  UNL     1      16.631   2.275  11.719  1.00  0.00     0.260 A 
HETATM   10  C8  UNL     1      15.849   3.473  12.126  1.00  0.00     0.191 C 
HETATM   11  C9  UNL     1      14.814   3.149  13.188  1.00  0.00     0.059 C 
HETATM   12  F1  UNL     1      15.115   3.851  10.989  1.00  0.00    -0.236 F 
HETATM   13  C10 UNL     1      16.650   4.670  12.541  1.00  0.00     0.306 C 
HETATM   14  N2  UNL     1      16.662   5.706  11.524  1.00  0.00    -0.029 N 
ATOM     15  H21 UNL     1      16.800   5.343  10.581  1.00  0.00     0.281 HD
ATOM     16  H22 UNL     1      17.495   6.294  11.559  1.00  0.00     0.281 HD
HETATM   17  C11 UNL     1      15.422   6.457  11.675  1.00  0.00     0.322 C 
HETATM   18  C12 UNL     1      14.937   6.117  13.023  1.00  0.00     0.166 C 
HETATM   19  N3  UNL     1      13.830   6.430  13.558  1.00  0.00    -0.249 N 
ATOM     20  H3  UNL     1      13.631   6.121  14.510  1.00  0.00     0.196 HD
HETATM   21  O5  UNL     1      15.970   5.364  13.599  1.00  0.00    -0.291 OA
ENDROOT
BRANCH   1  22
HETATM   22  C2  UNL     1      18.613   5.157  14.030  1.00  0.00     0.295 C 
BRANCH  22  23
HETATM   23  O1  UNL     1      19.875   4.812  14.451  1.00  0.00    -0.363 OA
HETATM   24  C1  UNL     1      20.023   4.930  15.833  1.00  0.00     0.204 C 
ENDBRANCH  22  23
BRANCH  22  25
HETATM   25  O2  UNL     1      18.543   6.526  13.711  1.00  0.00    -0.368 OA
ATOM     26  H2  UNL     1      18.293   7.041  14.469  1.00  0.00     0.212 HD
ENDBRANCH  22  25
ENDBRANCH   1  22
BRANCH  19  27
HETATM   27  O4  UNL     1      12.902   7.171  12.892  1.00  0.00    -0.288 OA
ATOM     28  H4  UNL     1      12.203   6.761  12.396  1.00  0.00     0.244 HD
ENDBRANCH  19  27
TORSDOF 4
ENDMDL
