MODEL 1
REMARK VINA RESULT: -7.368859304      0.000      0.000
REMARK  4 active torsions:
REMARK  status: ('A' for Active; 'I' for Inactive)
REMARK    1  A    between atoms: C3_4  and  N2_5 
REMARK    2  A    between atoms: C9_18  and  N6_19 
REMARK    3  A    between atoms: N6_19  and  N7_21 
REMARK    4  A    between atoms: N7_21  and  N8_22 
ROOT
HETATM    1  N1  UNL     1      12.510  10.365  10.672  1.00  0.00    -0.191 NA
HETATM    2  C1  UNL     1      12.870   9.408  11.204  1.00  0.00     0.105 C 
HETATM    3  C2  UNL     1      13.303   8.212  11.835  1.00  0.00     0.116 C 
HETATM    4  C3  UNL     1      13.725   8.235  13.085  1.00  0.00     0.128 C 
HETATM    5  N4  UNL     1      14.182   7.011  13.701  1.00  0.00    -0.327 N 
ATOM      6  H4  UNL     1      14.507   7.032  14.667  1.00  0.00     0.169 HD
HETATM    7  C8  UNL     1      14.191   5.765  12.987  1.00  0.00     0.135 C 
HETATM    8  N5  UNL     1      14.153   4.646  13.561  1.00  0.00    -0.385 N 
ATOM      9  H51 UNL     1      14.159   3.760  13.055  1.00  0.00     0.157 HD
ATOM     10  H52 UNL     1      14.113   4.567  14.577  1.00  0.00     0.157 HD
HETATM   11  C9  UNL     1      14.248   5.879  11.529  1.00  0.00     0.237 A 
HETATM   12  N9  UNL     1      13.961   4.771  10.719  1.00  0.00    -0.312 N 
ATOM     13  H9  UNL     1      14.416   3.860  10.784  1.00  0.00     0.166 HD
HETATM   14  C10 UNL     1      13.035   5.081   9.880  1.00  0.00     0.264 A 
HETATM   15  F1  UNL     1      12.506   4.247   8.933  1.00  0.00    -0.165 F 
HETATM   16  N10 UNL     1      12.613   6.428  10.134  1.00  0.00    -0.316 N 
ATOM     17  H10 UNL     1      11.889   6.916   9.607  1.00  0.00     0.169 HD
HETATM   18  C11 UNL     1      13.254   6.924  11.091  1.00  0.00     0.096 A 
ENDROOT
BRANCH   4  19
HETATM   19  N2  UNL     1      13.753   9.445  13.817  1.00  0.00    -0.363 N 
HETATM   20  C4  UNL     1      12.596  10.188  14.264  1.00  0.00     0.143 C 
HETATM   21  C5  UNL     1      12.988  11.419  15.055  1.00  0.00     0.133 C 
HETATM   22  N3  UNL     1      13.993  11.209  16.022  1.00  0.00    -0.418 N 
HETATM   23  C6  UNL     1      14.995  10.223  15.682  1.00  0.00     0.133 C 
ATOM     24  H3  UNL     1      14.013  11.721  16.904  1.00  0.00     0.153 HD
HETATM   25  C7  UNL     1      15.019  10.046  14.185  1.00  0.00     0.143 C 
ENDBRANCH   4  19
BRANCH  11  26
HETATM   26  N6  UNL     1      15.605   6.348  11.133  1.00  0.00    -0.209 N 
ATOM     27  H6  UNL     1      15.732   6.963  10.329  1.00  0.00     0.201 HD
BRANCH  26  28
HETATM   28  N7  UNL     1      16.569   5.975  11.801  1.00  0.00    -0.245 NA
BRANCH  28  29
HETATM   29  N8  UNL     1      17.617   5.602  12.349  1.00  0.00    -0.261 N 
ATOM     30  H82 UNL     1      17.998   5.644  11.404  1.00  0.00     0.193 HD
ATOM     31  H81 UNL     1      18.416   5.296  12.904  1.00  0.00     0.193 HD
ENDBRANCH  28  29
ENDBRANCH  26  28
ENDBRANCH  11  26
TORSDOF 4
ENDMDL
MODEL 2
REMARK VINA RESULT: -7.165411707      2.468      3.271
REMARK  4 active torsions:
REMARK  status: ('A' for Active; 'I' for Inactive)
REMARK    1  A    between atoms: C3_4  and  N2_5 
REMARK    2  A    between atoms: C9_18  and  N6_19 
REMARK    3  A    between atoms: N6_19  and  N7_21 
REMARK    4  A    between atoms: N7_21  and  N8_22 
ROOT
HETATM    1  N1  UNL     1      14.695   7.702   9.952  1.00  0.00    -0.191 NA
HETATM    2  C1  UNL     1      15.094   7.200  10.909  1.00  0.00     0.105 C 
HETATM    3  C2  UNL     1      15.595   6.556  12.072  1.00  0.00     0.116 C 
HETATM    4  C3  UNL     1      15.343   7.054  13.268  1.00  0.00     0.128 C 
HETATM    5  N4  UNL     1      15.880   6.396  14.436  1.00  0.00    -0.327 N 
ATOM      6  H4  UNL     1      15.684   6.783  15.359  1.00  0.00     0.169 HD
HETATM    7  C8  UNL     1      16.685   5.211  14.331  1.00  0.00     0.135 C 
HETATM    8  N5  UNL     1      16.806   4.379  15.268  1.00  0.00    -0.385 N 
ATOM      9  H51 UNL     1      17.377   3.537  15.194  1.00  0.00     0.157 HD
ATOM     10  H52 UNL     1      16.331   4.507  16.161  1.00  0.00     0.157 HD
HETATM   11  C9  UNL     1      17.367   5.028  13.049  1.00  0.00     0.237 A 
HETATM   12  N9  UNL     1      17.928   3.788  12.713  1.00  0.00    -0.312 N 
ATOM     13  H9  UNL     1      18.603   3.274  13.280  1.00  0.00     0.166 HD
HETATM   14  C10 UNL     1      17.459   3.397  11.580  1.00  0.00     0.264 A 
HETATM   15  F1  UNL     1      17.788   2.232  10.941  1.00  0.00    -0.165 F 
HETATM   16  N10 UNL     1      16.500   4.358  11.121  1.00  0.00    -0.316 N 
ATOM     17  H10 UNL     1      15.981   4.285  10.245  1.00  0.00     0.169 HD
HETATM   18  C11 UNL     1      16.383   5.301  11.940  1.00  0.00     0.096 A 
ENDROOT
BRANCH   4  19
HETATM   19  N2  UNL     1      14.572   8.231  13.414  1.00  0.00    -0.363 N 
HETATM   20  C4  UNL     1      13.131   8.290  13.507  1.00  0.00     0.143 C 
HETATM   21  C5  UNL     1      12.636   9.709  13.696  1.00  0.00     0.133 C 
HETATM   22  N3  UNL     1      13.344  10.463  14.655  1.00  0.00    -0.418 N 
HETATM   23  C6  UNL     1      14.757  10.172  14.764  1.00  0.00     0.133 C 
ATOM     24  H3  UNL     1      12.889  11.168  15.235  1.00  0.00     0.153 HD
HETATM   25  C7  UNL     1      15.223   9.524  13.485  1.00  0.00     0.143 C 
ENDBRANCH   4  19
BRANCH  11  26
HETATM   26  N6  UNL     1      18.465   6.029  12.937  1.00  0.00    -0.209 N 
ATOM     27  H6  UNL     1      18.798   6.341  12.025  1.00  0.00     0.201 HD
BRANCH  26  28
HETATM   28  N7  UNL     1      18.960   6.470  13.975  1.00  0.00    -0.245 NA
BRANCH  28  29
HETATM   29  N8  UNL     1      19.418   7.046  14.973  1.00  0.00    -0.261 N 
ATOM     30  H82 UNL     1      18.884   7.842  14.623  1.00  0.00     0.193 HD
ATOM     31  H81 UNL     1      19.851   7.416  15.819  1.00  0.00     0.193 HD
ENDBRANCH  28  29
ENDBRANCH  26  28
ENDBRANCH  11  26
TORSDOF 4
ENDMDL
MODEL 3
REMARK VINA RESULT: -7.112245982      3.135      5.553
REMARK  4 active torsions:
REMARK  status: ('A' for Active; 'I' for Inactive)
REMARK    1  A    between atoms: C3_4  and  N2_5 
REMARK    2  A    between atoms: C9_18  and  N6_19 
REMARK    3  A    between atoms: N6_19  and  N7_21 
REMARK    4  A    between atoms: N7_21  and  N8_22 
ROOT
HETATM    1  N1  UNL     1      13.659   8.190  13.920  1.00  0.00    -0.191 NA
HETATM    2  C1  UNL     1      14.430   7.481  13.439  1.00  0.00     0.105 C 
HETATM    3  C2  UNL     1      15.401   6.616  12.869  1.00  0.00     0.116 C 
HETATM    4  C3  UNL     1      15.156   6.002  11.727  1.00  0.00     0.128 C 
HETATM    5  N4  UNL     1      16.148   5.110  11.175  1.00  0.00    -0.327 N 
ATOM      6  H4  UNL     1      15.956   4.637  10.292  1.00  0.00     0.169 HD
HETATM    7  C8  UNL     1      17.399   4.869  11.838  1.00  0.00     0.135 C 
HETATM    8  N5  UNL     1      18.432   4.480  11.234  1.00  0.00    -0.385 N 
ATOM      9  H51 UNL     1      19.321   4.309  11.705  1.00  0.00     0.157 HD
ATOM     10  H52 UNL     1      18.432   4.314  10.228  1.00  0.00     0.157 HD
HETATM   11  C9  UNL     1      17.398   5.109  13.283  1.00  0.00     0.237 A 
HETATM   12  N9  UNL     1      18.607   5.204  13.987  1.00  0.00    -0.312 N 
ATOM     13  H9  UNL     1      19.346   4.501  13.985  1.00  0.00     0.166 HD
HETATM   14  C10 UNL     1      18.638   6.314  14.638  1.00  0.00     0.264 A 
HETATM   15  F1  UNL     1      19.663   6.739  15.438  1.00  0.00    -0.165 F 
HETATM   16  N10 UNL     1      17.444   7.053  14.348  1.00  0.00    -0.316 N 
ATOM     17  H10 UNL     1      17.222   7.970  14.738  1.00  0.00     0.169 HD
HETATM   18  C11 UNL     1      16.710   6.423  13.550  1.00  0.00     0.096 A 
ENDROOT
BRANCH   4  19
HETATM   19  N2  UNL     1      13.928   6.195  11.051  1.00  0.00    -0.363 N 
HETATM   20  C4  UNL     1      13.559   7.365  10.287  1.00  0.00     0.143 C 
HETATM   21  C5  UNL     1      12.185   7.222   9.665  1.00  0.00     0.133 C 
HETATM   22  N3  UNL     1      11.941   5.981   9.041  1.00  0.00    -0.418 N 
HETATM   23  C6  UNL     1      12.577   4.835   9.654  1.00  0.00     0.133 C 
ATOM     24  H3  UNL     1      11.354   5.896   8.212  1.00  0.00     0.153 HD
HETATM   25  C7  UNL     1      12.907   5.167  11.088  1.00  0.00     0.143 C 
ENDBRANCH   4  19
BRANCH  11  26
HETATM   26  N6  UNL     1      16.606   4.038  13.950  1.00  0.00    -0.209 N 
ATOM     27  H6  UNL     1      16.056   4.238  14.785  1.00  0.00     0.201 HD
BRANCH  26  28
HETATM   28  N7  UNL     1      16.633   2.905  13.467  1.00  0.00    -0.245 NA
BRANCH  28  29
HETATM   29  N8  UNL     1      16.696   1.719  13.115  1.00  0.00    -0.261 N 
ATOM     30  H82 UNL     1      16.797   1.541  14.114  1.00  0.00     0.193 HD
ATOM     31  H81 UNL     1      16.735   0.783  12.712  1.00  0.00     0.193 HD
ENDBRANCH  28  29
ENDBRANCH  26  28
ENDBRANCH  11  26
TORSDOF 4
ENDMDL
MODEL 4
REMARK VINA RESULT: -7.001612117      2.441      3.480
REMARK  4 active torsions:
REMARK  status: ('A' for Active; 'I' for Inactive)
REMARK    1  A    between atoms: C3_4  and  N2_5 
REMARK    2  A    between atoms: C9_18  and  N6_19 
REMARK    3  A    between atoms: N6_19  and  N7_21 
REMARK    4  A    between atoms: N7_21  and  N8_22 
ROOT
HETATM    1  N1  UNL     1      11.787  11.975   9.088  1.00  0.00    -0.191 NA
HETATM    2  C1  UNL     1      12.012  11.274   9.975  1.00  0.00     0.105 C 
HETATM    3  C2  UNL     1      12.298  10.388  11.047  1.00  0.00     0.116 C 
HETATM    4  C3  UNL     1      11.998  10.726  12.286  1.00  0.00     0.128 C 
HETATM    5  N4  UNL     1      12.316   9.820  13.365  1.00  0.00    -0.327 N 
ATOM      6  H4  UNL     1      12.083  10.084  14.322  1.00  0.00     0.169 HD
HETATM    7  C8  UNL     1      12.954   8.556  13.124  1.00  0.00     0.135 C 
HETATM    8  N5  UNL     1      12.862   7.580  13.913  1.00  0.00    -0.385 N 
ATOM      9  H51 UNL     1      13.315   6.682  13.742  1.00  0.00     0.157 HD
ATOM     10  H52 UNL     1      12.321   7.639  14.775  1.00  0.00     0.157 HD
HETATM   11  C9  UNL     1      13.731   8.472  11.886  1.00  0.00     0.237 A 
HETATM   12  N9  UNL     1      14.144   7.227  11.390  1.00  0.00    -0.312 N 
ATOM     13  H9  UNL     1      14.680   6.534  11.913  1.00  0.00     0.166 HD
HETATM   14  C10 UNL     1      13.743   7.095  10.174  1.00  0.00     0.264 A 
HETATM   15  F1  UNL     1      13.969   6.007   9.375  1.00  0.00    -0.165 F 
HETATM   16  N10 UNL     1      12.979   8.252   9.811  1.00  0.00    -0.316 N 
ATOM     17  H10 UNL     1      12.547   8.397   8.898  1.00  0.00     0.169 HD
HETATM   18  C11 UNL     1      12.912   9.062  10.766  1.00  0.00     0.096 A 
ENDROOT
BRANCH   4  19
HETATM   19  N2  UNL     1      11.388  11.971  12.569  1.00  0.00    -0.363 N 
HETATM   20  C4  UNL     1      10.019  12.328  12.270  1.00  0.00     0.143 C 
HETATM   21  C5  UNL     1       9.685  13.727  12.744  1.00  0.00     0.133 C 
HETATM   22  N3  UNL     1      10.129  14.035  14.047  1.00  0.00    -0.418 N 
HETATM   23  C6  UNL     1      11.372  13.416  14.450  1.00  0.00     0.133 C 
ATOM     24  H3  UNL     1       9.606  14.655  14.666  1.00  0.00     0.153 HD
HETATM   25  C7  UNL     1      12.145  13.024  13.216  1.00  0.00     0.143 C 
ENDBRANCH   4  19
BRANCH  11  26
HETATM   26  N6  UNL     1      14.963   9.296  12.030  1.00  0.00    -0.209 N 
ATOM     27  H6  UNL     1      15.560   9.491  11.227  1.00  0.00     0.201 HD
BRANCH  26  28
HETATM   28  N7  UNL     1      15.242   9.738  13.146  1.00  0.00    -0.245 NA
BRANCH  28  29
HETATM   29  N8  UNL     1      15.543  10.043  14.309  1.00  0.00    -0.261 N 
ATOM     30  H82 UNL     1      16.069   9.168  14.286  1.00  0.00     0.193 HD
ATOM     31  H81 UNL     1      15.723  10.392  15.250  1.00  0.00     0.193 HD
ENDBRANCH  28  29
ENDBRANCH  26  28
ENDBRANCH  11  26
TORSDOF 4
ENDMDL
MODEL 5
REMARK VINA RESULT: -6.973747056      1.825      2.395
REMARK  4 active torsions:
REMARK  status: ('A' for Active; 'I' for Inactive)
REMARK    1  A    between atoms: C3_4  and  N2_5 
REMARK    2  A    between atoms: C9_18  and  N6_19 
REMARK    3  A    between atoms: N6_19  and  N7_21 
REMARK    4  A    between atoms: N7_21  and  N8_22 
ROOT
HETATM    1  N1  UNL     1      12.136   7.068   9.962  1.00  0.00    -0.191 NA
HETATM    2  C1  UNL     1      12.881   6.662  10.741  1.00  0.00     0.105 C 
HETATM    3  C2  UNL     1      13.797   6.132  11.688  1.00  0.00     0.116 C 
HETATM    4  C3  UNL     1      14.245   6.886  12.673  1.00  0.00     0.128 C 
HETATM    5  N4  UNL     1      15.192   6.334  13.614  1.00  0.00    -0.327 N 
ATOM      6  H4  UNL     1      15.536   6.920  14.375  1.00  0.00     0.169 HD
HETATM    7  C8  UNL     1      15.663   4.981  13.505  1.00  0.00     0.135 C 
HETATM    8  N5  UNL     1      16.113   4.331  14.483  1.00  0.00    -0.385 N 
ATOM      9  H51 UNL     1      16.448   3.370  14.406  1.00  0.00     0.157 HD
ATOM     10  H52 UNL     1      16.167   4.738  15.416  1.00  0.00     0.157 HD
HETATM   11  C9  UNL     1      15.585   4.397  12.164  1.00  0.00     0.237 A 
HETATM   12  N9  UNL     1      15.724   3.014  11.984  1.00  0.00    -0.312 N 
ATOM     13  H9  UNL     1      16.511   2.454  12.311  1.00  0.00     0.166 HD
HETATM   14  C10 UNL     1      14.705   2.561  11.341  1.00  0.00     0.264 A 
HETATM   15  F1  UNL     1      14.505   1.255  10.984  1.00  0.00    -0.165 F 
HETATM   16  N10 UNL     1      13.790   3.639  11.104  1.00  0.00    -0.316 N 
ATOM     17  H10 UNL     1      12.901   3.546  10.613  1.00  0.00     0.169 HD
HETATM   18  C11 UNL     1      14.230   4.712  11.583  1.00  0.00     0.096 A 
ENDROOT
BRANCH   4  19
HETATM   19  N2  UNL     1      13.823   8.230  12.805  1.00  0.00    -0.363 N 
HETATM   20  C4  UNL     1      12.811   8.711  13.718  1.00  0.00     0.143 C 
HETATM   21  C5  UNL     1      12.635  10.213  13.623  1.00  0.00     0.133 C 
HETATM   22  N3  UNL     1      13.837  10.952  13.595  1.00  0.00    -0.418 N 
HETATM   23  C6  UNL     1      14.950  10.314  12.927  1.00  0.00     0.133 C 
ATOM     24  H3  UNL     1      13.916  11.877  14.018  1.00  0.00     0.153 HD
HETATM   25  C7  UNL     1      14.418   9.265  11.983  1.00  0.00     0.143 C 
ENDBRANCH   4  19
BRANCH  11  26
HETATM   26  N6  UNL     1      16.611   5.040  11.296  1.00  0.00    -0.209 N 
ATOM     27  H6  UNL     1      16.426   5.212  10.308  1.00  0.00     0.201 HD
BRANCH  26  28
HETATM   28  N7  UNL     1      17.687   5.357  11.803  1.00  0.00    -0.245 NA
BRANCH  28  29
HETATM   29  N8  UNL     1      18.832   5.580  12.223  1.00  0.00    -0.261 N 
ATOM     30  H82 UNL     1      19.087   5.520  11.237  1.00  0.00     0.193 HD
ATOM     31  H81 UNL     1      19.725   5.766  12.679  1.00  0.00     0.193 HD
ENDBRANCH  28  29
ENDBRANCH  26  28
ENDBRANCH  11  26
TORSDOF 4
ENDMDL
