MODEL 1
REMARK VINA RESULT: -6.539856057      0.000      0.000
REMARK  3 active torsions:
REMARK  status: ('A' for Active; 'I' for Inactive)
REMARK    1  A    between atoms: C2_5  and  C3_6 
REMARK    2  A    between atoms: C2_5  and  C5_13 
REMARK    3  A    between atoms: C3_6  and  N4_7 
ROOT
HETATM    1  C3  UNL     1      13.200   8.594  13.011  1.00  0.00     0.322 C 
HETATM    2  C4  UNL     1      13.761   9.952  13.240  1.00  0.00     0.095 C 
HETATM    3  N5  UNL     1      14.184  11.023  13.409  1.00  0.00    -0.195 NA
ENDROOT
BRANCH   1   4
HETATM    4  C2  UNL     1      14.131   7.826  12.165  1.00  0.00     0.170 C 
HETATM    5  N3  UNL     1      14.507   8.680  11.031  1.00  0.00    -0.110 NA
HETATM    6  N2  UNL     1      14.965   7.713  10.128  1.00  0.00    -0.053 NA
HETATM    7  N1  UNL     1      13.789   6.937   9.996  1.00  0.00    -0.186 NA
HETATM    8  C1  UNL     1      14.190   5.701   9.347  1.00  0.00     0.136 C 
HETATM    9  C10 UNL     1      13.455   6.686  11.405  1.00  0.00     0.294 C 
HETATM   10  F1  UNL     1      12.113   6.617  11.602  1.00  0.00    -0.229 F 
BRANCH   4  11
HETATM   11  C5  UNL     1      15.364   7.308  12.752  1.00  0.00     0.233 C 
HETATM   12  N6  UNL     1      15.876   7.999  13.919  1.00  0.00    -0.112 NA
HETATM   13  N7  UNL     1      16.815   7.111  14.464  1.00  0.00    -0.289 N 
HETATM   14  C6  UNL     1      16.562   5.900  14.033  1.00  0.00     0.116 C 
ATOM     15  H7  UNL     1      17.574   7.367  15.096  1.00  0.00     0.183 HD
HETATM   16  C7  UNL     1      17.297   4.627  14.346  1.00  0.00     0.245 C 
HETATM   17  N8  UNL     1      15.422   5.955  13.174  1.00  0.00    -0.344 N 
HETATM   18  O1  UNL     1      16.537   3.518  13.995  1.00  0.00    -0.382 OA
HETATM   19  C8  UNL     1      15.215   3.822  14.178  1.00  0.00     0.188 C 
HETATM   20  C9  UNL     1      14.720   4.694  13.007  1.00  0.00     0.152 C 
ENDBRANCH   4  11
ENDBRANCH   1   4
BRANCH   1  21
HETATM   21  N4  UNL     1      13.186   7.996  14.341  1.00  0.00    -0.060 N 
ATOM     22  H43 UNL     1      13.508   7.029  14.339  1.00  0.00     0.276 HD
ATOM     23  H42 UNL     1      13.905   8.382  14.952  1.00  0.00     0.276 HD
ATOM     24  H41 UNL     1      12.248   8.095  14.729  1.00  0.00     0.276 HD
ENDBRANCH   1  21
TORSDOF 3
ENDMDL
MODEL 2
REMARK VINA RESULT: -6.497003583      3.586      6.243
REMARK  3 active torsions:
REMARK  status: ('A' for Active; 'I' for Inactive)
REMARK    1  A    between atoms: C2_5  and  C3_6 
REMARK    2  A    between atoms: C2_5  and  C5_13 
REMARK    3  A    between atoms: C3_6  and  N4_7 
ROOT
HETATM    1  C3  UNL     1      12.319   6.780  10.830  1.00  0.00     0.322 C 
HETATM    2  C4  UNL     1      13.157   5.656  11.328  1.00  0.00     0.095 C 
HETATM    3  N5  UNL     1      13.799   4.774  11.735  1.00  0.00    -0.195 NA
ENDROOT
BRANCH   1   4
HETATM    4  C2  UNL     1      13.129   8.011  10.813  1.00  0.00     0.170 C 
HETATM    5  N3  UNL     1      14.484   7.645  10.380  1.00  0.00    -0.110 NA
HETATM    6  N2  UNL     1      15.207   8.746  10.856  1.00  0.00    -0.053 NA
HETATM    7  N1  UNL     1      14.914   8.643  12.236  1.00  0.00    -0.186 NA
HETATM    8  C1  UNL     1      15.319   9.903  12.832  1.00  0.00     0.136 C 
HETATM    9  C10 UNL     1      13.448   8.542  12.210  1.00  0.00     0.294 C 
HETATM   10  F1  UNL     1      12.976   7.759  13.214  1.00  0.00    -0.229 F 
BRANCH   4  11
HETATM   11  C5  UNL     1      12.695   9.137   9.990  1.00  0.00     0.233 C 
HETATM   12  N6  UNL     1      11.595   8.897   9.077  1.00  0.00    -0.112 NA
HETATM   13  N7  UNL     1      11.168  10.180   8.702  1.00  0.00    -0.289 N 
HETATM   14  C6  UNL     1      11.571  11.046   9.600  1.00  0.00     0.116 C 
ATOM     15  H7  UNL     1      10.631  10.403   7.865  1.00  0.00     0.183 HD
HETATM   16  C7  UNL     1      11.352  12.533   9.623  1.00  0.00     0.245 C 
HETATM   17  N8  UNL     1      12.288  10.344  10.616  1.00  0.00    -0.344 N 
HETATM   18  O1  UNL     1      11.615  13.051  10.886  1.00  0.00    -0.382 OA
HETATM   19  C8  UNL     1      11.274  12.110  11.820  1.00  0.00     0.188 C 
HETATM   20  C9  UNL     1      12.374  11.033  11.892  1.00  0.00     0.152 C 
ENDBRANCH   4  11
ENDBRANCH   1   4
BRANCH   1  21
HETATM   21  N4  UNL     1      12.021   6.405   9.452  1.00  0.00    -0.060 N 
ATOM     22  H43 UNL     1      12.433   5.510   9.192  1.00  0.00     0.276 HD
ATOM     23  H42 UNL     1      11.042   6.153   9.318  1.00  0.00     0.276 HD
ATOM     24  H41 UNL     1      12.317   7.165   8.840  1.00  0.00     0.276 HD
ENDBRANCH   1  21
TORSDOF 3
ENDMDL
MODEL 3
REMARK VINA RESULT: -6.425373100      1.907      3.520
REMARK  3 active torsions:
REMARK  status: ('A' for Active; 'I' for Inactive)
REMARK    1  A    between atoms: C2_5  and  C3_6 
REMARK    2  A    between atoms: C2_5  and  C5_13 
REMARK    3  A    between atoms: C3_6  and  N4_7 
ROOT
HETATM    1  C3  UNL     1      14.906   7.604  11.115  1.00  0.00     0.322 C 
HETATM    2  C4  UNL     1      13.822   8.300  10.371  1.00  0.00     0.095 C 
HETATM    3  N5  UNL     1      12.987   8.860   9.784  1.00  0.00    -0.195 NA
ENDROOT
BRANCH   1   4
HETATM    4  C2  UNL     1      14.545   7.540  12.542  1.00  0.00     0.170 C 
HETATM    5  N3  UNL     1      13.091   7.724  12.641  1.00  0.00    -0.110 NA
HETATM    6  N2  UNL     1      12.976   8.106  13.982  1.00  0.00    -0.053 NA
HETATM    7  N1  UNL     1      13.779   9.271  13.966  1.00  0.00    -0.186 NA
HETATM    8  C1  UNL     1      14.032   9.608  15.356  1.00  0.00     0.136 C 
HETATM    9  C10 UNL     1      15.005   8.762  13.335  1.00  0.00     0.294 C 
HETATM   10  F1  UNL     1      15.615   9.709  12.577  1.00  0.00    -0.229 F 
BRANCH   4  11
HETATM   11  C5  UNL     1      14.890   6.346  13.310  1.00  0.00     0.233 C 
HETATM   12  N6  UNL     1      14.183   5.125  12.979  1.00  0.00    -0.112 NA
HETATM   13  N7  UNL     1      14.937   4.111  13.587  1.00  0.00    -0.289 N 
HETATM   14  C6  UNL     1      16.152   4.552  13.807  1.00  0.00     0.116 C 
ATOM     15  H7  UNL     1      14.595   3.180  13.821  1.00  0.00     0.183 HD
HETATM   16  C7  UNL     1      17.307   3.825  14.437  1.00  0.00     0.245 C 
HETATM   17  N8  UNL     1      16.236   5.898  13.337  1.00  0.00    -0.344 N 
HETATM   18  O1  UNL     1      18.503   4.483  14.181  1.00  0.00    -0.382 OA
HETATM   19  C8  UNL     1      18.419   5.074  12.949  1.00  0.00     0.188 C 
HETATM   20  C9  UNL     1      17.582   6.363  13.051  1.00  0.00     0.152 C 
ENDBRANCH   4  11
ENDBRANCH   1   4
BRANCH   1  21
HETATM   21  N4  UNL     1      14.884   6.250  10.572  1.00  0.00    -0.060 N 
ATOM     22  H43 UNL     1      15.304   6.193   9.645  1.00  0.00     0.276 HD
ATOM     23  H42 UNL     1      15.528   5.624  11.056  1.00  0.00     0.276 HD
ATOM     24  H41 UNL     1      13.922   5.912  10.588  1.00  0.00     0.276 HD
ENDBRANCH   1  21
TORSDOF 3
ENDMDL
MODEL 4
REMARK VINA RESULT: -6.323715756      1.879      3.419
REMARK  3 active torsions:
REMARK  status: ('A' for Active; 'I' for Inactive)
REMARK    1  A    between atoms: C2_5  and  C3_6 
REMARK    2  A    between atoms: C2_5  and  C5_13 
REMARK    3  A    between atoms: C3_6  and  N4_7 
ROOT
HETATM    1  C3  UNL     1      14.124   5.998  10.645  1.00  0.00     0.322 C 
HETATM    2  C4  UNL     1      13.083   6.722   9.869  1.00  0.00     0.095 C 
HETATM    3  N5  UNL     1      12.281   7.293   9.247  1.00  0.00    -0.195 NA
ENDROOT
BRANCH   1   4
HETATM    4  C2  UNL     1      14.355   6.705  11.916  1.00  0.00     0.170 C 
HETATM    5  N3  UNL     1      13.057   7.203  12.390  1.00  0.00    -0.110 NA
HETATM    6  N2  UNL     1      13.477   8.200  13.278  1.00  0.00    -0.053 NA
HETATM    7  N1  UNL     1      14.204   9.022  12.384  1.00  0.00    -0.186 NA
HETATM    8  C1  UNL     1      14.982   9.929  13.209  1.00  0.00     0.136 C 
HETATM    9  C10 UNL     1      15.084   8.036  11.742  1.00  0.00     0.294 C 
HETATM   10  F1  UNL     1      15.341   8.354  10.447  1.00  0.00    -0.229 F 
BRANCH   4  11
HETATM   11  C5  UNL     1      14.981   5.989  13.025  1.00  0.00     0.233 C 
HETATM   12  N6  UNL     1      14.278   4.831  13.540  1.00  0.00    -0.112 NA
HETATM   13  N7  UNL     1      15.236   4.157  14.312  1.00  0.00    -0.289 N 
HETATM   14  C6  UNL     1      16.433   4.530  13.932  1.00  0.00     0.116 C 
ATOM     15  H7  UNL     1      15.033   3.485  15.051  1.00  0.00     0.183 HD
HETATM   16  C7  UNL     1      17.763   4.079  14.468  1.00  0.00     0.245 C 
HETATM   17  N8  UNL     1      16.297   5.479  12.874  1.00  0.00    -0.344 N 
HETATM   18  O1  UNL     1      18.789   4.419  13.595  1.00  0.00    -0.382 OA
HETATM   19  C8  UNL     1      18.306   4.362  12.315  1.00  0.00     0.188 C 
HETATM   20  C9  UNL     1      17.467   5.621  12.024  1.00  0.00     0.152 C 
ENDBRANCH   4  11
ENDBRANCH   1   4
BRANCH   1  21
HETATM   21  N4  UNL     1      13.505   4.711  10.939  1.00  0.00    -0.060 N 
ATOM     22  H43 UNL     1      13.763   4.352  11.857  1.00  0.00     0.276 HD
ATOM     23  H42 UNL     1      12.500   4.786  11.096  1.00  0.00     0.276 HD
ATOM     24  H41 UNL     1      13.736   4.062  10.186  1.00  0.00     0.276 HD
ENDBRANCH   1  21
TORSDOF 3
ENDMDL
MODEL 5
REMARK VINA RESULT: -6.262666584      2.723      5.217
REMARK  3 active torsions:
REMARK  status: ('A' for Active; 'I' for Inactive)
REMARK    1  A    between atoms: C2_5  and  C3_6 
REMARK    2  A    between atoms: C2_5  and  C5_13 
REMARK    3  A    between atoms: C3_6  and  N4_7 
ROOT
HETATM    1  C3  UNL     1      12.131   7.157   9.932  1.00  0.00     0.322 C 
HETATM    2  C4  UNL     1      12.505   5.804   9.442  1.00  0.00     0.095 C 
HETATM    3  N5  UNL     1      12.784   4.736   9.072  1.00  0.00    -0.195 NA
ENDROOT
BRANCH   1   4
HETATM    4  C2  UNL     1      13.295   7.765  10.601  1.00  0.00     0.170 C 
HETATM    5  N3  UNL     1      14.478   7.478   9.780  1.00  0.00    -0.110 NA
HETATM    6  N2  UNL     1      15.493   7.674  10.723  1.00  0.00    -0.053 NA
HETATM    7  N1  UNL     1      15.116   6.705  11.682  1.00  0.00    -0.186 NA
HETATM    8  C1  UNL     1      15.877   7.003  12.882  1.00  0.00     0.136 C 
HETATM    9  C10 UNL     1      13.699   7.040  11.883  1.00  0.00     0.294 C 
HETATM   10  F1  UNL     1      12.950   5.938  12.149  1.00  0.00    -0.229 F 
BRANCH   4  11
HETATM   11  C5  UNL     1      13.289   9.200  10.875  1.00  0.00     0.233 C 
HETATM   12  N6  UNL     1      12.272   9.991  10.212  1.00  0.00    -0.112 NA
HETATM   13  N7  UNL     1      12.269  11.208  10.909  1.00  0.00    -0.289 N 
HETATM   14  C6  UNL     1      12.800  11.027  12.093  1.00  0.00     0.116 C 
ATOM     15  H7  UNL     1      11.911  12.094  10.551  1.00  0.00     0.183 HD
HETATM   16  C7  UNL     1      13.010  12.038  13.185  1.00  0.00     0.245 C 
HETATM   17  N8  UNL     1      13.174   9.654  12.215  1.00  0.00    -0.344 N 
HETATM   18  O1  UNL     1      13.269  11.410  14.397  1.00  0.00    -0.382 OA
HETATM   19  C8  UNL     1      12.577  10.230  14.431  1.00  0.00     0.188 C 
HETATM   20  C9  UNL     1      13.313   9.176  13.580  1.00  0.00     0.152 C 
ENDBRANCH   4  11
ENDBRANCH   1   4
BRANCH   1  21
HETATM   21  N4  UNL     1      11.859   7.905   8.710  1.00  0.00    -0.060 N 
ATOM     22  H43 UNL     1      12.547   8.638   8.537  1.00  0.00     0.276 HD
ATOM     23  H42 UNL     1      12.027   7.355   7.868  1.00  0.00     0.276 HD
ATOM     24  H41 UNL     1      10.907   8.266   8.757  1.00  0.00     0.276 HD
ENDBRANCH   1  21
TORSDOF 3
ENDMDL
