MODEL 1
REMARK VINA RESULT: -6.834794502      0.000      0.000
REMARK  3 active torsions:
REMARK  status: ('A' for Active; 'I' for Inactive)
REMARK    1  A    between atoms: S1_2  and  C2_5 
REMARK    2  A    between atoms: C4_9  and  N2_10 
REMARK    3  A    between atoms: C5_15  and  N4_16 
ROOT
HETATM    1  C2  UNL     1      48.386  45.261   5.412  1.00  0.00     0.204 A 
HETATM    2  N1  UNL     1      47.429  46.206   5.427  1.00  0.00    -0.327 N 
ATOM      3  H1  UNL     1      46.897  46.515   4.614  1.00  0.00     0.168 HD
HETATM    4  C3  UNL     1      47.281  46.683   6.674  1.00  0.00     0.131 A 
HETATM    5  C4  UNL     1      46.474  47.636   7.279  1.00  0.00     0.218 A 
HETATM    6  N3  UNL     1      46.558  47.906   8.610  1.00  0.00    -0.169 N 
ATOM      7  H3  UNL     1      45.956  48.611   9.034  1.00  0.00     0.186 HD
HETATM    8  C5  UNL     1      47.445  47.229   9.355  1.00  0.00     0.679 A 
HETATM    9  N5  UNL     1      48.223  46.315   8.792  1.00  0.00    -0.174 N 
ATOM     10  H5  UNL     1      48.890  45.814   9.379  1.00  0.00     0.186 HD
HETATM   11  C6  UNL     1      48.171  46.015   7.462  1.00  0.00     0.154 A 
HETATM   12  N6  UNL     1      48.830  45.158   6.672  1.00  0.00    -0.317 N 
ATOM     13  H6  UNL     1      49.563  44.521   6.985  1.00  0.00     0.169 HD
ENDROOT
BRANCH   1  14
HETATM   14  S1  UNL     1      48.928  44.352   3.995  1.00  0.00     0.203 S 
HETATM   15  C1  UNL     1      47.479  43.628   3.241  1.00  0.00     0.170 C 
HETATM   16  O1  UNL     1      49.561  45.260   2.980  1.00  0.00    -0.220 OA
HETATM   17  O2  UNL     1      49.885  43.252   4.427  1.00  0.00    -0.220 OA
ENDBRANCH   1  14
BRANCH   5  18
HETATM   18  N2  UNL     1      45.545  48.343   6.484  1.00  0.00    -0.095 N 
HETATM   19  O3  UNL     1      45.276  49.528   6.729  1.00  0.00    -0.530 OA
HETATM   20  O4  UNL     1      44.926  47.729   5.430  1.00  0.00    -0.530 OA
ENDBRANCH   5  18
BRANCH   8  21
HETATM   21  N4  UNL     1      47.544  47.470  10.629  1.00  0.00    -0.234 N 
ATOM     22  H42 UNL     1      47.345  48.403  10.988  1.00  0.00     0.174 HD
ATOM     23  H41 UNL     1      47.818  46.725  11.271  1.00  0.00     0.174 HD
ENDBRANCH   8  21
TORSDOF 3
ENDMDL
MODEL 2
REMARK VINA RESULT: -6.774023874      3.280      6.063
REMARK  3 active torsions:
REMARK  status: ('A' for Active; 'I' for Inactive)
REMARK    1  A    between atoms: S1_2  and  C2_5 
REMARK    2  A    between atoms: C4_9  and  N2_10 
REMARK    3  A    between atoms: C5_15  and  N4_16 
ROOT
HETATM    1  C2  UNL     1      47.235  46.989   8.318  1.00  0.00     0.204 A 
HETATM    2  N1  UNL     1      48.302  46.459   8.943  1.00  0.00    -0.327 N 
ATOM      3  H1  UNL     1      48.581  46.665   9.902  1.00  0.00     0.168 HD
HETATM    4  C3  UNL     1      48.943  45.619   8.115  1.00  0.00     0.131 A 
HETATM    5  C4  UNL     1      50.068  44.811   8.202  1.00  0.00     0.218 A 
HETATM    6  N3  UNL     1      50.484  44.046   7.157  1.00  0.00    -0.169 N 
ATOM      7  H3  UNL     1      51.313  43.459   7.242  1.00  0.00     0.186 HD
HETATM    8  C5  UNL     1      49.784  44.074   6.012  1.00  0.00     0.679 A 
HETATM    9  N5  UNL     1      48.707  44.841   5.914  1.00  0.00    -0.174 N 
ATOM     10  H5  UNL     1      48.192  44.846   5.033  1.00  0.00     0.186 HD
HETATM   11  C6  UNL     1      48.257  45.623   6.937  1.00  0.00     0.154 A 
HETATM   12  N6  UNL     1      47.225  46.463   7.085  1.00  0.00    -0.317 N 
ATOM     13  H6  UNL     1      46.533  46.672   6.365  1.00  0.00     0.169 HD
ENDROOT
BRANCH   1  14
HETATM   14  S1  UNL     1      46.093  48.147   9.010  1.00  0.00     0.203 S 
HETATM   15  C1  UNL     1      47.050  49.410   9.835  1.00  0.00     0.170 C 
HETATM   16  O1  UNL     1      45.285  48.819   7.937  1.00  0.00    -0.220 OA
HETATM   17  O2  UNL     1      45.197  47.444  10.018  1.00  0.00    -0.220 OA
ENDBRANCH   1  14
BRANCH   5  18
HETATM   18  N2  UNL     1      50.797  44.790   9.412  1.00  0.00    -0.095 N 
HETATM   19  O3  UNL     1      51.191  43.718   9.893  1.00  0.00    -0.530 OA
HETATM   20  O4  UNL     1      51.079  45.954  10.072  1.00  0.00    -0.530 OA
ENDBRANCH   5  18
BRANCH   8  21
HETATM   21  N4  UNL     1      50.162  43.351   5.000  1.00  0.00    -0.234 N 
ATOM     22  H42 UNL     1      51.144  43.335   4.723  1.00  0.00     0.174 HD
ATOM     23  H41 UNL     1      49.478  42.799   4.482  1.00  0.00     0.174 HD
ENDBRANCH   8  21
TORSDOF 3
ENDMDL
MODEL 3
REMARK VINA RESULT: -6.738418697      2.914      5.124
REMARK  3 active torsions:
REMARK  status: ('A' for Active; 'I' for Inactive)
REMARK    1  A    between atoms: S1_2  and  C2_5 
REMARK    2  A    between atoms: C4_9  and  N2_10 
REMARK    3  A    between atoms: C5_15  and  N4_16 
ROOT
HETATM    1  C2  UNL     1      47.679  46.944   8.736  1.00  0.00     0.204 A 
HETATM    2  N1  UNL     1      46.877  47.184   7.683  1.00  0.00    -0.327 N 
ATOM      3  H1  UNL     1      46.027  47.746   7.710  1.00  0.00     0.168 HD
HETATM    4  C3  UNL     1      47.364  46.572   6.591  1.00  0.00     0.131 A 
HETATM    5  C4  UNL     1      46.979  46.467   5.262  1.00  0.00     0.218 A 
HETATM    6  N3  UNL     1      47.705  45.751   4.361  1.00  0.00    -0.169 N 
ATOM      7  H3  UNL     1      47.404  45.686   3.389  1.00  0.00     0.186 HD
HETATM    8  C5  UNL     1      48.823  45.133   4.771  1.00  0.00     0.679 A 
HETATM    9  N5  UNL     1      49.203  45.225   6.037  1.00  0.00    -0.174 N 
ATOM     10  H5  UNL     1      50.057  44.746   6.325  1.00  0.00     0.186 HD
HETATM   11  C6  UNL     1      48.505  45.931   6.972  1.00  0.00     0.154 A 
HETATM   12  N6  UNL     1      48.674  46.171   8.279  1.00  0.00    -0.317 N 
ATOM     13  H6  UNL     1      49.447  45.817   8.843  1.00  0.00     0.169 HD
ENDROOT
BRANCH   1  14
HETATM   14  S1  UNL     1      47.441  47.542  10.383  1.00  0.00     0.203 S 
HETATM   15  C1  UNL     1      47.394  49.325  10.300  1.00  0.00     0.170 C 
HETATM   16  O1  UNL     1      46.125  47.079  10.941  1.00  0.00    -0.220 OA
HETATM   17  O2  UNL     1      48.601  47.099  11.261  1.00  0.00    -0.220 OA
ENDBRANCH   1  14
BRANCH   5  18
HETATM   18  N2  UNL     1      45.799  47.121   4.843  1.00  0.00    -0.095 N 
HETATM   19  O3  UNL     1      45.485  47.147   3.644  1.00  0.00    -0.530 OA
HETATM   20  O4  UNL     1      44.987  47.737   5.754  1.00  0.00    -0.530 OA
ENDBRANCH   5  18
BRANCH   8  21
HETATM   21  N4  UNL     1      49.533  44.443   3.927  1.00  0.00    -0.234 N 
ATOM     22  H42 UNL     1      50.077  44.921   3.209  1.00  0.00     0.174 HD
ATOM     23  H41 UNL     1      49.547  43.425   3.985  1.00  0.00     0.174 HD
ENDBRANCH   8  21
TORSDOF 3
ENDMDL
MODEL 4
REMARK VINA RESULT: -6.708174089      3.481      6.046
REMARK  3 active torsions:
REMARK  status: ('A' for Active; 'I' for Inactive)
REMARK    1  A    between atoms: S1_2  and  C2_5 
REMARK    2  A    between atoms: C4_9  and  N2_10 
REMARK    3  A    between atoms: C5_15  and  N4_16 
ROOT
HETATM    1  C2  UNL     1      47.386  47.080   8.264  1.00  0.00     0.204 A 
HETATM    2  N1  UNL     1      48.419  46.513   8.913  1.00  0.00    -0.327 N 
ATOM      3  H1  UNL     1      48.687  46.715   9.876  1.00  0.00     0.168 HD
HETATM    4  C3  UNL     1      49.044  45.644   8.103  1.00  0.00     0.131 A 
HETATM    5  C4  UNL     1      50.135  44.794   8.218  1.00  0.00     0.218 A 
HETATM    6  N3  UNL     1      50.540  44.006   7.185  1.00  0.00    -0.169 N 
ATOM      7  H3  UNL     1      51.345  43.389   7.290  1.00  0.00     0.186 HD
HETATM    8  C5  UNL     1      49.865  44.054   6.027  1.00  0.00     0.679 A 
HETATM    9  N5  UNL     1      48.821  44.861   5.902  1.00  0.00    -0.174 N 
ATOM     10  H5  UNL     1      48.323  44.880   5.012  1.00  0.00     0.186 HD
HETATM   11  C6  UNL     1      48.382  45.666   6.912  1.00  0.00     0.154 A 
HETATM   12  N6  UNL     1      47.380  46.547   7.035  1.00  0.00    -0.317 N 
ATOM     13  H6  UNL     1      46.711  46.777   6.300  1.00  0.00     0.169 HD
ENDROOT
BRANCH   1  14
HETATM   14  S1  UNL     1      46.276  48.286   8.927  1.00  0.00     0.203 S 
HETATM   15  C1  UNL     1      45.409  49.026   7.551  1.00  0.00     0.170 C 
HETATM   16  O1  UNL     1      45.250  47.646   9.818  1.00  0.00    -0.220 OA
HETATM   17  O2  UNL     1      47.064  49.354   9.670  1.00  0.00    -0.220 OA
ENDBRANCH   1  14
BRANCH   5  18
HETATM   18  N2  UNL     1      50.838  44.753   9.442  1.00  0.00    -0.095 N 
HETATM   19  O3  UNL     1      51.157  43.668   9.950  1.00  0.00    -0.530 OA
HETATM   20  O4  UNL     1      51.178  45.911  10.085  1.00  0.00    -0.530 OA
ENDBRANCH   5  18
BRANCH   8  21
HETATM   21  N4  UNL     1      50.235  43.311   5.026  1.00  0.00    -0.234 N 
ATOM     22  H42 UNL     1      50.784  43.714   4.267  1.00  0.00     0.174 HD
ATOM     23  H41 UNL     1      49.978  42.323   5.000  1.00  0.00     0.174 HD
ENDBRANCH   8  21
TORSDOF 3
ENDMDL
MODEL 5
REMARK VINA RESULT: -6.687714113      3.084      5.072
REMARK  3 active torsions:
REMARK  status: ('A' for Active; 'I' for Inactive)
REMARK    1  A    between atoms: S1_2  and  C2_5 
REMARK    2  A    between atoms: C4_9  and  N2_10 
REMARK    3  A    between atoms: C5_15  and  N4_16 
ROOT
HETATM    1  C2  UNL     1      49.863  45.534   8.245  1.00  0.00     0.204 A 
HETATM    2  N1  UNL     1      49.954  45.139   6.963  1.00  0.00    -0.327 N 
ATOM      3  H1  UNL     1      50.745  44.639   6.558  1.00  0.00     0.168 HD
HETATM    4  C3  UNL     1      48.847  45.503   6.295  1.00  0.00     0.131 A 
HETATM    5  C4  UNL     1      48.390  45.372   4.992  1.00  0.00     0.218 A 
HETATM    6  N3  UNL     1      47.181  45.861   4.604  1.00  0.00    -0.169 N 
ATOM      7  H3  UNL     1      46.864  45.754   3.641  1.00  0.00     0.186 HD
HETATM    8  C5  UNL     1      46.412  46.486   5.509  1.00  0.00     0.679 A 
HETATM    9  N5  UNL     1      46.835  46.619   6.758  1.00  0.00    -0.174 N 
ATOM     10  H5  UNL     1      46.233  47.098   7.428  1.00  0.00     0.186 HD
HETATM   11  C6  UNL     1      48.040  46.144   7.188  1.00  0.00     0.154 A 
HETATM   12  N6  UNL     1      48.679  46.151   8.364  1.00  0.00    -0.317 N 
ATOM     13  H6  UNL     1      48.318  46.564   9.223  1.00  0.00     0.169 HD
ENDROOT
BRANCH   1  14
HETATM   14  S1  UNL     1      51.082  45.278   9.501  1.00  0.00     0.203 S 
HETATM   15  C1  UNL     1      52.669  45.695   8.796  1.00  0.00     0.170 C 
HETATM   16  O1  UNL     1      50.852  46.189  10.672  1.00  0.00    -0.220 OA
HETATM   17  O2  UNL     1      51.078  43.818   9.928  1.00  0.00    -0.220 OA
ENDBRANCH   1  14
BRANCH   5  18
HETATM   18  N2  UNL     1      49.209  44.713   4.048  1.00  0.00    -0.095 N 
HETATM   19  O3  UNL     1      49.485  45.252   2.967  1.00  0.00    -0.530 OA
HETATM   20  O4  UNL     1      49.709  43.468   4.314  1.00  0.00    -0.530 OA
ENDBRANCH   5  18
BRANCH   8  21
HETATM   21  N4  UNL     1      45.253  46.962   5.161  1.00  0.00    -0.234 N 
ATOM     22  H42 UNL     1      45.196  47.845   4.654  1.00  0.00     0.174 HD
ATOM     23  H41 UNL     1      44.400  46.453   5.394  1.00  0.00     0.174 HD
ENDBRANCH   8  21
TORSDOF 3
ENDMDL
