MODEL 1
REMARK VINA RESULT: -7.812930659      0.000      0.000
REMARK  4 active torsions:
REMARK  status: ('A' for Active; 'I' for Inactive)
REMARK    1  A    between atoms: N1_2  and  C2_4 
REMARK    2  A    between atoms: N2_7  and  O1_8 
REMARK    3  A    between atoms: C6_11  and  O2_12 
REMARK    4  A    between atoms: O2_12  and  C7_13 
ROOT
HETATM    1  C2  UNL     1      49.233  45.404   6.993  1.00  0.00     0.112 A 
HETATM    2  C3  UNL     1      49.157  45.038   5.671  1.00  0.00     0.112 A 
HETATM    3  C4  UNL     1      48.095  45.468   4.918  1.00  0.00     0.165 A 
HETATM    4  N2  UNL     1      47.145  46.238   5.479  1.00  0.00    -0.200 N 
HETATM    5  C5  UNL     1      47.167  46.624   6.762  1.00  0.00     0.139 A 
HETATM    6  C6  UNL     1      46.194  47.375   7.227  1.00  0.00     0.182 C 
HETATM    7  C9  UNL     1      48.228  46.204   7.541  1.00  0.00     0.231 A 
HETATM    8  O4  UNL     1      48.317  46.524   8.745  1.00  0.00    -0.283 OA
HETATM    9  N3  UNL     1      48.192  45.029   3.706  1.00  0.00    -0.311 N 
ATOM     10  H3  UNL     1      47.520  45.218   2.962  1.00  0.00     0.170 HD
HETATM   11  C10 UNL     1      49.349  44.259   3.559  1.00  0.00     0.179 A 
HETATM   12  N4  UNL     1      49.723  43.682   2.459  1.00  0.00    -0.371 N 
ATOM     13  H41 UNL     1      50.568  43.119   2.352  1.00  0.00     0.159 HD
ATOM     14  H42 UNL     1      49.261  43.687   1.550  1.00  0.00     0.159 HD
HETATM   15  N5  UNL     1      49.991  44.252   4.822  1.00  0.00    -0.323 N 
ATOM     16  H5  UNL     1      50.863  43.784   5.070  1.00  0.00     0.169 HD
ENDROOT
BRANCH   4  17
HETATM   17  O1  UNL     1      46.095  46.649   4.692  1.00  0.00    -0.281 OA
ATOM     18  H1  UNL     1      45.558  45.985   4.278  1.00  0.00     0.245 HD
ENDBRANCH   4  17
BRANCH   6  19
HETATM   19  O2  UNL     1      46.085  47.847   8.520  1.00  0.00    -0.289 OA
BRANCH  19  20
HETATM   20  C7  UNL     1      46.095  49.191   8.868  1.00  0.00     0.259 C 
HETATM   21  C8  UNL     1      46.868  49.738   9.996  1.00  0.00     0.126 C 
HETATM   22  O3  UNL     1      45.401  49.976   8.174  1.00  0.00    -0.265 OA
ENDBRANCH  19  20
ENDBRANCH   6  19
BRANCH   1  23
HETATM   23  N1  UNL     1      50.340  44.949   7.755  1.00  0.00    -0.389 N 
HETATM   24  C1  UNL     1      51.596  45.668   7.824  1.00  0.00     0.146 C 
ATOM     25  H1  UNL     1      50.247  44.077   8.277  1.00  0.00     0.159 HD
ENDBRANCH   1  23
TORSDOF 4
ENDMDL
MODEL 2
REMARK VINA RESULT: -7.524459669      2.478      4.467
REMARK  4 active torsions:
REMARK  status: ('A' for Active; 'I' for Inactive)
REMARK    1  A    between atoms: N1_2  and  C2_4 
REMARK    2  A    between atoms: N2_7  and  O1_8 
REMARK    3  A    between atoms: C6_11  and  O2_12 
REMARK    4  A    between atoms: O2_12  and  C7_13 
ROOT
HETATM    1  C2  UNL     1      48.825  45.636   8.292  1.00  0.00     0.112 A 
HETATM    2  C3  UNL     1      50.065  45.147   8.622  1.00  0.00     0.112 A 
HETATM    3  C4  UNL     1      50.715  45.655   9.718  1.00  0.00     0.165 A 
HETATM    4  N2  UNL     1      50.133  46.620  10.452  1.00  0.00    -0.200 N 
HETATM    5  C5  UNL     1      48.926  47.135  10.177  1.00  0.00     0.139 A 
HETATM    6  C6  UNL     1      48.436  48.079  10.950  1.00  0.00     0.182 C 
HETATM    7  C9  UNL     1      48.252  46.639   9.079  1.00  0.00     0.231 A 
HETATM    8  O4  UNL     1      47.124  47.069   8.759  1.00  0.00    -0.283 OA
HETATM    9  N3  UNL     1      51.861  45.078   9.873  1.00  0.00    -0.311 N 
ATOM     10  H3  UNL     1      52.523  45.288  10.620  1.00  0.00     0.170 HD
HETATM   11  C10 UNL     1      52.064  44.124   8.871  1.00  0.00     0.179 A 
HETATM   12  N4  UNL     1      53.121  43.380   8.757  1.00  0.00    -0.371 N 
ATOM     13  H41 UNL     1      53.269  42.684   8.026  1.00  0.00     0.159 HD
ATOM     14  H42 UNL     1      53.951  43.360   9.350  1.00  0.00     0.159 HD
HETATM   15  N5  UNL     1      50.911  44.151   8.049  1.00  0.00    -0.323 N 
ATOM     16  H5  UNL     1      50.726  43.582   7.223  1.00  0.00     0.169 HD
ENDROOT
BRANCH   4  17
HETATM   17  O1  UNL     1      50.814  47.104  11.544  1.00  0.00    -0.281 OA
ATOM     18  H1  UNL     1      50.533  47.930  11.918  1.00  0.00     0.245 HD
ENDBRANCH   4  17
BRANCH   6  19
HETATM   19  O2  UNL     1      47.212  48.698  10.789  1.00  0.00    -0.289 OA
BRANCH  19  20
HETATM   20  C7  UNL     1      47.048  50.018  10.389  1.00  0.00     0.259 C 
HETATM   21  C8  UNL     1      46.181  50.433   9.275  1.00  0.00     0.126 C 
HETATM   22  O3  UNL     1      47.682  50.900  11.022  1.00  0.00    -0.265 OA
ENDBRANCH  19  20
ENDBRANCH   6  19
BRANCH   1  23
HETATM   23  N1  UNL     1      48.170  45.098   7.155  1.00  0.00    -0.389 N 
HETATM   24  C1  UNL     1      48.389  45.596   5.812  1.00  0.00     0.146 C 
ATOM     25  H1  UNL     1      47.516  44.326   7.288  1.00  0.00     0.159 HD
ENDBRANCH   1  23
TORSDOF 4
ENDMDL
MODEL 3
REMARK VINA RESULT: -7.513908963      1.145      1.249
REMARK  4 active torsions:
REMARK  status: ('A' for Active; 'I' for Inactive)
REMARK    1  A    between atoms: N1_2  and  C2_4 
REMARK    2  A    between atoms: N2_7  and  O1_8 
REMARK    3  A    between atoms: C6_11  and  O2_12 
REMARK    4  A    between atoms: O2_12  and  C7_13 
ROOT
HETATM    1  C2  UNL     1      48.743  45.556   7.482  1.00  0.00     0.112 A 
HETATM    2  C3  UNL     1      48.379  45.334   6.176  1.00  0.00     0.112 A 
HETATM    3  C4  UNL     1      47.311  46.017   5.653  1.00  0.00     0.165 A 
HETATM    4  N2  UNL     1      46.636  46.891   6.421  1.00  0.00    -0.200 N 
HETATM    5  C5  UNL     1      46.945  47.147   7.700  1.00  0.00     0.139 A 
HETATM    6  C6  UNL     1      46.227  48.016   8.376  1.00  0.00     0.182 C 
HETATM    7  C9  UNL     1      48.018  46.471   8.248  1.00  0.00     0.231 A 
HETATM    8  O4  UNL     1      48.365  46.657   9.434  1.00  0.00    -0.283 OA
HETATM    9  N3  UNL     1      47.119  45.682   4.420  1.00  0.00    -0.311 N 
ATOM     10  H3  UNL     1      46.382  46.058   3.822  1.00  0.00     0.170 HD
HETATM   11  C10 UNL     1      48.063  44.731   4.022  1.00  0.00     0.179 A 
HETATM   12  N4  UNL     1      48.130  44.200   2.840  1.00  0.00    -0.371 N 
ATOM     13  H41 UNL     1      48.819  43.506   2.549  1.00  0.00     0.159 HD
ATOM     14  H42 UNL     1      47.533  44.373   2.031  1.00  0.00     0.159 HD
HETATM   15  N5  UNL     1      48.891  44.491   5.145  1.00  0.00    -0.323 N 
ATOM     16  H5  UNL     1      49.684  43.851   5.204  1.00  0.00     0.169 HD
ENDROOT
BRANCH   4  17
HETATM   17  O1  UNL     1      45.571  47.558   5.862  1.00  0.00    -0.281 OA
ATOM     18  H1  UNL     1      45.474  48.484   6.050  1.00  0.00     0.245 HD
ENDBRANCH   4  17
BRANCH   6  19
HETATM   19  O2  UNL     1      46.429  48.378   9.694  1.00  0.00    -0.289 OA
BRANCH  19  20
HETATM   20  C7  UNL     1      46.836  49.640  10.107  1.00  0.00     0.259 C 
HETATM   21  C8  UNL     1      47.862  49.871  11.136  1.00  0.00     0.126 C 
HETATM   22  O3  UNL     1      46.289  50.633   9.564  1.00  0.00    -0.265 OA
ENDBRANCH  19  20
ENDBRANCH   6  19
BRANCH   1  23
HETATM   23  N1  UNL     1      49.850  44.839   8.004  1.00  0.00    -0.389 N 
HETATM   24  C1  UNL     1      51.219  45.287   7.851  1.00  0.00     0.146 C 
ATOM     25  H1  UNL     1      49.674  43.970   8.508  1.00  0.00     0.159 HD
ENDBRANCH   1  23
TORSDOF 4
ENDMDL
MODEL 4
REMARK VINA RESULT: -7.506270257      1.542      3.283
REMARK  4 active torsions:
REMARK  status: ('A' for Active; 'I' for Inactive)
REMARK    1  A    between atoms: N1_2  and  C2_4 
REMARK    2  A    between atoms: N2_7  and  O1_8 
REMARK    3  A    between atoms: C6_11  and  O2_12 
REMARK    4  A    between atoms: O2_12  and  C7_13 
ROOT
HETATM    1  C2  UNL     1      48.182  44.812   4.530  1.00  0.00     0.112 A 
HETATM    2  C3  UNL     1      49.266  44.157   5.061  1.00  0.00     0.112 A 
HETATM    3  C4  UNL     1      49.625  44.403   6.362  1.00  0.00     0.165 A 
HETATM    4  N2  UNL     1      48.916  45.279   7.097  1.00  0.00    -0.200 N 
HETATM    5  C5  UNL     1      47.851  45.946   6.631  1.00  0.00     0.139 A 
HETATM    6  C6  UNL     1      47.219  46.785   7.422  1.00  0.00     0.182 C 
HETATM    7  C9  UNL     1      47.470  45.714   5.324  1.00  0.00     0.231 A 
HETATM    8  O4  UNL     1      46.488  46.299   4.820  1.00  0.00    -0.283 OA
HETATM    9  N3  UNL     1      50.660  43.701   6.687  1.00  0.00    -0.311 N 
ATOM     10  H3  UNL     1      51.110  43.715   7.603  1.00  0.00     0.170 HD
HETATM   11  C10 UNL     1      51.076  42.919   5.605  1.00  0.00     0.179 A 
HETATM   12  N4  UNL     1      52.089  42.108   5.620  1.00  0.00    -0.371 N 
ATOM     13  H41 UNL     1      52.393  41.538   4.830  1.00  0.00     0.159 HD
ATOM     14  H42 UNL     1      52.731  41.907   6.387  1.00  0.00     0.159 HD
HETATM   15  N5  UNL     1      50.186  43.199   4.540  1.00  0.00    -0.323 N 
ATOM     16  H5  UNL     1      50.199  42.800   3.600  1.00  0.00     0.169 HD
ENDROOT
BRANCH   4  17
HETATM   17  O1  UNL     1      49.306  45.499   8.397  1.00  0.00    -0.281 OA
ATOM     18  H1  UNL     1      48.707  45.960   8.972  1.00  0.00     0.245 HD
ENDBRANCH   4  17
BRANCH   6  19
HETATM   19  O2  UNL     1      46.112  47.537   7.080  1.00  0.00    -0.289 OA
BRANCH  19  20
HETATM   20  C7  UNL     1      45.876  48.831   7.524  1.00  0.00     0.259 C 
HETATM   21  C8  UNL     1      46.168  49.291   8.892  1.00  0.00     0.126 C 
HETATM   22  O3  UNL     1      45.385  49.647   6.704  1.00  0.00    -0.265 OA
ENDBRANCH  19  20
ENDBRANCH   6  19
BRANCH   1  23
HETATM   23  N1  UNL     1      47.827  44.544   3.183  1.00  0.00    -0.389 N 
HETATM   24  C1  UNL     1      47.126  43.342   2.779  1.00  0.00     0.146 C 
ATOM     25  H1  UNL     1      48.077  45.226   2.468  1.00  0.00     0.159 HD
ENDBRANCH   1  23
TORSDOF 4
ENDMDL
MODEL 5
REMARK VINA RESULT: -7.491958470      1.130      1.192
REMARK  4 active torsions:
REMARK  status: ('A' for Active; 'I' for Inactive)
REMARK    1  A    between atoms: N1_2  and  C2_4 
REMARK    2  A    between atoms: N2_7  and  O1_8 
REMARK    3  A    between atoms: C6_11  and  O2_12 
REMARK    4  A    between atoms: O2_12  and  C7_13 
ROOT
HETATM    1  C2  UNL     1      49.389  45.482   8.248  1.00  0.00     0.112 A 
HETATM    2  C3  UNL     1      49.345  44.907   7.001  1.00  0.00     0.112 A 
HETATM    3  C4  UNL     1      48.323  45.237   6.147  1.00  0.00     0.165 A 
HETATM    4  N2  UNL     1      47.381  46.114   6.540  1.00  0.00    -0.200 N 
HETATM    5  C5  UNL     1      47.374  46.705   7.743  1.00  0.00     0.139 A 
HETATM    6  C6  UNL     1      46.411  47.548   8.042  1.00  0.00     0.182 C 
HETATM    7  C9  UNL     1      48.393  46.388   8.620  1.00  0.00     0.231 A 
HETATM    8  O4  UNL     1      48.453  46.898   9.758  1.00  0.00    -0.283 OA
HETATM    9  N3  UNL     1      48.445  44.604   5.028  1.00  0.00    -0.311 N 
ATOM     10  H3  UNL     1      47.804  44.687   4.238  1.00  0.00     0.170 HD
HETATM   11  C10 UNL     1      49.581  43.788   5.052  1.00  0.00     0.179 A 
HETATM   12  N4  UNL     1      49.971  43.029   4.075  1.00  0.00    -0.371 N 
ATOM     13  H41 UNL     1      50.800  42.434   4.093  1.00  0.00     0.159 HD
ATOM     14  H42 UNL     1      49.540  42.898   3.160  1.00  0.00     0.159 HD
HETATM   15  N5  UNL     1      50.180  43.970   6.323  1.00  0.00    -0.323 N 
ATOM     16  H5  UNL     1      51.027  43.525   6.677  1.00  0.00     0.169 HD
ENDROOT
BRANCH   4  17
HETATM   17  O1  UNL     1      46.373  46.420   5.657  1.00  0.00    -0.281 OA
ATOM     18  H1  UNL     1      46.314  45.919   4.853  1.00  0.00     0.245 HD
ENDBRANCH   4  17
BRANCH   6  19
HETATM   19  O2  UNL     1      46.276  48.227   9.237  1.00  0.00    -0.289 OA
BRANCH  19  20
HETATM   20  C7  UNL     1      46.302  49.610   9.360  1.00  0.00     0.259 C 
HETATM   21  C8  UNL     1      47.068  50.325  10.393  1.00  0.00     0.126 C 
HETATM   22  O3  UNL     1      45.628  50.279   8.536  1.00  0.00    -0.265 OA
ENDBRANCH  19  20
ENDBRANCH   6  19
BRANCH   1  23
HETATM   23  N1  UNL     1      50.454  45.127   9.115  1.00  0.00    -0.389 N 
HETATM   24  C1  UNL     1      51.734  45.806   9.106  1.00  0.00     0.146 C 
ATOM     25  H1  UNL     1      50.313  44.361   9.773  1.00  0.00     0.159 HD
ENDBRANCH   1  23
TORSDOF 4
ENDMDL
