MODEL 1
REMARK VINA RESULT: -8.018709700      0.000      0.000
REMARK  2 active torsions:
REMARK  status: ('A' for Active; 'I' for Inactive)
REMARK       I    between atoms: N1_2  and  C2_4 
REMARK    1  A    between atoms: C2_4  and  C3_6 
REMARK    2  A    between atoms: C4_9  and  N3_10 
ROOT
HETATM    1  C3  UNL     1      64.863  29.594  13.945  1.00  0.00     0.153 C 
HETATM    2  N2  UNL     1      64.768  30.774  13.272  1.00  0.00    -0.332 N 
ATOM      3  H2  UNL     1      64.349  31.534  13.808  1.00  0.00     0.168 HD
HETATM    4  C4  UNL     1      65.132  31.108  12.020  1.00  0.00     0.146 C 
HETATM    5  C9  UNL     1      65.726  30.274  11.100  1.00  0.00     0.187 C 
HETATM    6  F1  UNL     1      66.033  30.873   9.932  1.00  0.00    -0.200 F 
HETATM    7  C10 UNL     1      66.053  28.915  11.194  1.00  0.00     0.089 C 
HETATM    8  C11 UNL     1      65.847  28.061  12.261  1.00  0.00     0.051 C 
HETATM    9  C12 UNL     1      65.260  28.359  13.474  1.00  0.00     0.214 C 
HETATM   10  O2  UNL     1      65.049  27.404  14.273  1.00  0.00    -0.285 OA
HETATM   11  C13 UNL     1      66.362  26.708  11.919  1.00  0.00     0.182 C 
HETATM   12  N5  UNL     1      67.336  26.340  12.945  1.00  0.00    -0.380 N 
ATOM     13  H5  UNL     1      67.122  25.868  13.824  1.00  0.00     0.160 HD
HETATM   14  C14 UNL     1      68.649  26.752  12.512  1.00  0.00     0.002 C 
HETATM   15  C15 UNL     1      69.854  26.728  13.407  1.00  0.00     0.067 C 
HETATM   16  C16 UNL     1      68.614  27.137  11.251  1.00  0.00     0.061 C 
HETATM   17  C17 UNL     1      67.256  27.004  10.756  1.00  0.00     0.248 C 
HETATM   18  N6  UNL     1      67.022  26.368   9.507  1.00  0.00    -0.026 N 
ATOM     19  H61 UNL     1      66.178  25.821   9.333  1.00  0.00     0.282 HD
ATOM     20  H62 UNL     1      67.564  25.558   9.207  1.00  0.00     0.282 HD
HETATM   21  C18 UNL     1      67.220  27.707   8.906  1.00  0.00     0.363 C 
HETATM   22  N7  UNL     1      66.676  28.216  10.134  1.00  0.00    -0.315 N 
ENDROOT
BRANCH   4  23
HETATM   23  N3  UNL     1      64.858  32.453  11.666  1.00  0.00    -0.361 N 
HETATM   24  C5  UNL     1      65.861  33.442  11.381  1.00  0.00     0.152 C 
HETATM   25  C6  UNL     1      65.384  34.215  10.153  1.00  0.00     0.252 C 
HETATM   26  N4  UNL     1      64.215  34.986  10.522  1.00  0.00    -0.072 N 
HETATM   27  C7  UNL     1      63.477  34.413  11.614  1.00  0.00     0.252 C 
ATOM     28  H42 UNL     1      64.469  35.953  10.725  1.00  0.00     0.277 HD
ATOM     29  H41 UNL     1      63.611  35.136   9.715  1.00  0.00     0.277 HD
HETATM   30  C8  UNL     1      63.458  32.894  11.573  1.00  0.00     0.152 C 
ENDBRANCH   4  23
BRANCH   1  31
HETATM   31  C2  UNL     1      64.496  29.628  15.359  1.00  0.00     0.272 C 
HETATM   32  N1  UNL     1      63.273  29.109  15.828  1.00  0.00    -0.360 N 
HETATM   33  C1  UNL     1      62.940  29.155  17.220  1.00  0.00     0.149 C 
ATOM     34  H1  UNL     1      62.616  28.695  15.167  1.00  0.00     0.162 HD
HETATM   35  O1  UNL     1      65.291  30.136  16.187  1.00  0.00    -0.266 OA
ENDBRANCH   1  31
TORSDOF 2
ENDMDL
MODEL 2
REMARK VINA RESULT: -7.577578445      1.629      6.039
REMARK  2 active torsions:
REMARK  status: ('A' for Active; 'I' for Inactive)
REMARK       I    between atoms: N1_2  and  C2_4 
REMARK    1  A    between atoms: C2_4  and  C3_6 
REMARK    2  A    between atoms: C4_9  and  N3_10 
ROOT
HETATM    1  C3  UNL     1      65.138  29.877  13.619  1.00  0.00     0.153 C 
HETATM    2  N2  UNL     1      65.692  29.338  12.497  1.00  0.00    -0.332 N 
ATOM      3  H2  UNL     1      65.899  28.341  12.564  1.00  0.00     0.168 HD
HETATM    4  C4  UNL     1      66.011  29.896  11.316  1.00  0.00     0.146 C 
HETATM    5  C9  UNL     1      65.825  31.215  10.967  1.00  0.00     0.187 C 
HETATM    6  F1  UNL     1      66.189  31.505   9.701  1.00  0.00    -0.200 F 
HETATM    7  C10 UNL     1      65.321  32.284  11.718  1.00  0.00     0.089 C 
HETATM    8  C11 UNL     1      64.885  32.272  13.030  1.00  0.00     0.051 C 
HETATM    9  C12 UNL     1      64.858  31.199  13.896  1.00  0.00     0.214 C 
HETATM   10  O2  UNL     1      64.539  31.424  15.097  1.00  0.00    -0.285 OA
HETATM   11  C13 UNL     1      64.425  33.635  13.410  1.00  0.00     0.182 C 
HETATM   12  N5  UNL     1      63.043  33.517  13.871  1.00  0.00    -0.380 N 
ATOM     13  H5  UNL     1      62.751  33.318  14.828  1.00  0.00     0.160 HD
HETATM   14  C14 UNL     1      62.159  33.728  12.751  1.00  0.00     0.002 C 
HETATM   15  C15 UNL     1      60.681  33.468  12.811  1.00  0.00     0.067 C 
HETATM   16  C16 UNL     1      62.837  34.169  11.709  1.00  0.00     0.061 C 
HETATM   17  C17 UNL     1      64.238  34.281  12.075  1.00  0.00     0.248 C 
HETATM   18  N6  UNL     1      64.954  35.468  11.758  1.00  0.00    -0.026 N 
ATOM     19  H61 UNL     1      65.700  35.820  12.357  1.00  0.00     0.282 HD
ATOM     20  H62 UNL     1      64.520  36.389  11.820  1.00  0.00     0.282 HD
HETATM   21  C18 UNL     1      65.237  34.824  10.455  1.00  0.00     0.363 C 
HETATM   22  N7  UNL     1      65.193  33.587  11.182  1.00  0.00    -0.315 N 
ENDROOT
BRANCH   4  23
HETATM   23  N3  UNL     1      66.590  29.004  10.379  1.00  0.00    -0.361 N 
HETATM   24  C5  UNL     1      66.842  29.318   8.999  1.00  0.00     0.152 C 
HETATM   25  C6  UNL     1      68.227  28.768   8.666  1.00  0.00     0.252 C 
HETATM   26  N4  UNL     1      68.165  27.322   8.698  1.00  0.00    -0.072 N 
HETATM   27  C7  UNL     1      67.141  26.814   9.568  1.00  0.00     0.252 C 
ATOM     28  H42 UNL     1      68.061  26.943   7.756  1.00  0.00     0.277 HD
ATOM     29  H41 UNL     1      69.074  26.926   8.939  1.00  0.00     0.277 HD
HETATM   30  C8  UNL     1      66.971  27.654  10.823  1.00  0.00     0.152 C 
ENDBRANCH   4  23
BRANCH   1  31
HETATM   31  C2  UNL     1      64.789  28.934  14.681  1.00  0.00     0.272 C 
HETATM   32  N1  UNL     1      63.554  28.993  15.357  1.00  0.00    -0.360 N 
HETATM   33  C1  UNL     1      63.238  28.056  16.393  1.00  0.00     0.149 C 
ATOM     34  H1  UNL     1      62.876  29.712  15.106  1.00  0.00     0.162 HD
HETATM   35  O1  UNL     1      65.611  28.044  15.006  1.00  0.00    -0.266 OA
ENDBRANCH   1  31
TORSDOF 2
ENDMDL
MODEL 3
REMARK VINA RESULT: -7.476047845      4.422      8.469
REMARK  2 active torsions:
REMARK  status: ('A' for Active; 'I' for Inactive)
REMARK       I    between atoms: N1_2  and  C2_4 
REMARK    1  A    between atoms: C2_4  and  C3_6 
REMARK    2  A    between atoms: C4_9  and  N3_10 
ROOT
HETATM    1  C3  UNL     1      65.918  33.915   9.581  1.00  0.00     0.153 C 
HETATM    2  N2  UNL     1      66.044  34.624   8.425  1.00  0.00    -0.332 N 
ATOM      3  H2  UNL     1      66.541  34.135   7.680  1.00  0.00     0.168 HD
HETATM    4  C4  UNL     1      65.626  35.860   8.098  1.00  0.00     0.146 C 
HETATM    5  C9  UNL     1      64.927  36.720   8.915  1.00  0.00     0.187 C 
HETATM    6  F1  UNL     1      64.586  37.884   8.325  1.00  0.00    -0.200 F 
HETATM    7  C10 UNL     1      64.523  36.570  10.247  1.00  0.00     0.089 C 
HETATM    8  C11 UNL     1      64.741  35.494  11.087  1.00  0.00     0.051 C 
HETATM    9  C12 UNL     1      65.418  34.327  10.799  1.00  0.00     0.214 C 
HETATM   10  O2  UNL     1      65.617  33.516  11.746  1.00  0.00    -0.285 OA
HETATM   11  C13 UNL     1      64.123  35.768  12.413  1.00  0.00     0.182 C 
HETATM   12  N5  UNL     1      63.193  34.676  12.695  1.00  0.00    -0.380 N 
ATOM     13  H5  UNL     1      63.431  33.798  13.158  1.00  0.00     0.160 HD
HETATM   14  C14 UNL     1      61.884  35.041  12.211  1.00  0.00     0.002 C 
HETATM   15  C15 UNL     1      60.737  34.076  12.138  1.00  0.00     0.067 C 
HETATM   16  C16 UNL     1      61.865  36.313  11.859  1.00  0.00     0.061 C 
HETATM   17  C17 UNL     1      63.180  36.883  12.089  1.00  0.00     0.248 C 
HETATM   18  N6  UNL     1      63.298  38.126  12.768  1.00  0.00    -0.026 N 
ATOM     19  H61 UNL     1      64.094  38.335  13.371  1.00  0.00     0.282 HD
ATOM     20  H62 UNL     1      62.690  38.371  13.549  1.00  0.00     0.282 HD
HETATM   21  C18 UNL     1      63.146  38.751  11.433  1.00  0.00     0.363 C 
HETATM   22  N7  UNL     1      63.795  37.571  10.931  1.00  0.00    -0.315 N 
ENDROOT
BRANCH   4  23
HETATM   23  N3  UNL     1      65.959  36.267   6.782  1.00  0.00    -0.361 N 
HETATM   24  C5  UNL     1      65.092  36.138   5.643  1.00  0.00     0.152 C 
HETATM   25  C6  UNL     1      65.201  37.441   4.854  1.00  0.00     0.252 C 
HETATM   26  N4  UNL     1      66.531  37.521   4.285  1.00  0.00    -0.072 N 
HETATM   27  C7  UNL     1      67.517  36.796   5.036  1.00  0.00     0.252 C 
ATOM     28  H42 UNL     1      66.526  37.222   3.310  1.00  0.00     0.277 HD
ATOM     29  H41 UNL     1      66.813  38.494   4.160  1.00  0.00     0.277 HD
HETATM   30  C8  UNL     1      67.279  36.868   6.536  1.00  0.00     0.152 C 
ENDBRANCH   4  23
BRANCH   1  31
HETATM   31  C2  UNL     1      66.372  32.526   9.536  1.00  0.00     0.272 C 
HETATM   32  N1  UNL     1      65.522  31.450   9.867  1.00  0.00    -0.360 N 
HETATM   33  C1  UNL     1      65.993  30.099   9.813  1.00  0.00     0.149 C 
ATOM     34  H1  UNL     1      64.560  31.637  10.148  1.00  0.00     0.162 HD
HETATM   35  O1  UNL     1      67.553  32.276   9.194  1.00  0.00    -0.266 OA
ENDBRANCH   1  31
TORSDOF 2
ENDMDL
MODEL 4
REMARK VINA RESULT: -7.344741356      3.492      8.090
REMARK  2 active torsions:
REMARK  status: ('A' for Active; 'I' for Inactive)
REMARK       I    between atoms: N1_2  and  C2_4 
REMARK    1  A    between atoms: C2_4  and  C3_6 
REMARK    2  A    between atoms: C4_9  and  N3_10 
ROOT
HETATM    1  C3  UNL     1      63.118  35.189  13.002  1.00  0.00     0.153 C 
HETATM    2  N2  UNL     1      63.590  33.915  12.900  1.00  0.00    -0.332 N 
ATOM      3  H2  UNL     1      63.332  33.304  13.675  1.00  0.00     0.168 HD
HETATM    4  C4  UNL     1      64.339  33.326  11.950  1.00  0.00     0.146 C 
HETATM    5  C9  UNL     1      64.808  33.924  10.802  1.00  0.00     0.187 C 
HETATM    6  F1  UNL     1      65.496  33.094   9.992  1.00  0.00    -0.200 F 
HETATM    7  C10 UNL     1      64.678  35.245  10.356  1.00  0.00     0.089 C 
HETATM    8  C11 UNL     1      64.036  36.296  10.982  1.00  0.00     0.051 C 
HETATM    9  C12 UNL     1      63.385  36.278  12.199  1.00  0.00     0.214 C 
HETATM   10  O2  UNL     1      62.970  37.379  12.658  1.00  0.00    -0.285 OA
HETATM   11  C13 UNL     1      64.143  37.516  10.137  1.00  0.00     0.182 C 
HETATM   12  N5  UNL     1      62.784  37.989   9.880  1.00  0.00    -0.380 N 
ATOM     13  H5  UNL     1      62.257  38.632  10.472  1.00  0.00     0.160 HD
HETATM   14  C14 UNL     1      62.309  37.398   8.652  1.00  0.00     0.002 C 
HETATM   15  C15 UNL     1      60.883  37.491   8.195  1.00  0.00     0.067 C 
HETATM   16  C16 UNL     1      63.297  36.790   8.025  1.00  0.00     0.061 C 
HETATM   17  C17 UNL     1      64.512  36.938   8.807  1.00  0.00     0.248 C 
HETATM   18  N6  UNL     1      65.713  37.347   8.169  1.00  0.00    -0.026 N 
ATOM     19  H61 UNL     1      66.409  37.918   8.649  1.00  0.00     0.282 HD
ATOM     20  H62 UNL     1      65.715  38.040   7.421  1.00  0.00     0.282 HD
HETATM   21  C18 UNL     1      65.938  35.908   7.900  1.00  0.00     0.363 C 
HETATM   22  N7  UNL     1      65.227  35.682   9.128  1.00  0.00    -0.315 N 
ENDROOT
BRANCH   4  23
HETATM   23  N3  UNL     1      64.646  31.965  12.201  1.00  0.00    -0.361 N 
HETATM   24  C5  UNL     1      64.215  30.866  11.382  1.00  0.00     0.152 C 
HETATM   25  C6  UNL     1      65.412  29.929  11.233  1.00  0.00     0.252 C 
HETATM   26  N4  UNL     1      65.687  29.328  12.522  1.00  0.00    -0.072 N 
HETATM   27  C7  UNL     1      65.264  30.140  13.630  1.00  0.00     0.252 C 
ATOM     28  H42 UNL     1      65.279  28.395  12.580  1.00  0.00     0.277 HD
ATOM     29  H41 UNL     1      66.674  29.087  12.606  1.00  0.00     0.277 HD
HETATM   30  C8  UNL     1      65.463  31.625  13.376  1.00  0.00     0.152 C 
ENDBRANCH   4  23
BRANCH   1  31
HETATM   31  C2  UNL     1      62.202  35.448  14.112  1.00  0.00     0.272 C 
HETATM   32  N1  UNL     1      62.617  36.104  15.288  1.00  0.00    -0.360 N 
HETATM   33  C1  UNL     1      61.698  36.346  16.358  1.00  0.00     0.149 C 
ATOM     34  H1  UNL     1      63.586  36.411  15.377  1.00  0.00     0.162 HD
HETATM   35  O1  UNL     1      61.007  35.076  14.021  1.00  0.00    -0.266 OA
ENDBRANCH   1  31
TORSDOF 2
ENDMDL
MODEL 5
REMARK VINA RESULT: -7.311442776      4.676      9.201
REMARK  2 active torsions:
REMARK  status: ('A' for Active; 'I' for Inactive)
REMARK       I    between atoms: N1_2  and  C2_4 
REMARK    1  A    between atoms: C2_4  and  C3_6 
REMARK    2  A    between atoms: C4_9  and  N3_10 
ROOT
HETATM    1  C3  UNL     1      62.453  35.284  11.928  1.00  0.00     0.153 C 
HETATM    2  N2  UNL     1      63.189  34.156  12.129  1.00  0.00    -0.332 N 
ATOM      3  H2  UNL     1      64.043  34.103  11.573  1.00  0.00     0.168 HD
HETATM    4  C4  UNL     1      62.983  33.099  12.936  1.00  0.00     0.146 C 
HETATM    5  C9  UNL     1      61.917  32.930  13.791  1.00  0.00     0.187 C 
HETATM    6  F1  UNL     1      61.975  31.799  14.524  1.00  0.00    -0.200 F 
HETATM    7  C10 UNL     1      60.799  33.744  14.010  1.00  0.00     0.089 C 
HETATM    8  C11 UNL     1      60.485  34.942  13.398  1.00  0.00     0.051 C 
HETATM    9  C12 UNL     1      61.205  35.601  12.423  1.00  0.00     0.214 C 
HETATM   10  O2  UNL     1      60.682  36.625  11.900  1.00  0.00    -0.285 OA
HETATM   11  C13 UNL     1      59.204  35.460  13.951  1.00  0.00     0.182 C 
HETATM   12  N5  UNL     1      59.464  36.801  14.471  1.00  0.00    -0.380 N 
ATOM     13  H5  UNL     1      59.404  37.667  13.934  1.00  0.00     0.160 HD
HETATM   14  C14 UNL     1      59.817  36.701  15.866  1.00  0.00     0.002 C 
HETATM   15  C15 UNL     1      60.355  37.854  16.662  1.00  0.00     0.067 C 
HETATM   16  C16 UNL     1      59.596  35.477  16.306  1.00  0.00     0.061 C 
HETATM   17  C17 UNL     1      59.074  34.672  15.216  1.00  0.00     0.248 C 
HETATM   18  N6  UNL     1      57.927  33.861  15.428  1.00  0.00    -0.026 N 
ATOM     19  H61 UNL     1      57.250  33.685  14.686  1.00  0.00     0.282 HD
ATOM     20  H62 UNL     1      57.150  34.172  16.011  1.00  0.00     0.282 HD
HETATM   21  C18 UNL     1      58.876  32.819  15.882  1.00  0.00     0.363 C 
HETATM   22  N7  UNL     1      59.795  33.407  14.948  1.00  0.00    -0.315 N 
ENDROOT
BRANCH   4  23
HETATM   23  N3  UNL     1      63.981  32.096  12.861  1.00  0.00    -0.361 N 
HETATM   24  C5  UNL     1      65.101  31.989  13.756  1.00  0.00     0.152 C 
HETATM   25  C6  UNL     1      65.248  30.510  14.106  1.00  0.00     0.252 C 
HETATM   26  N4  UNL     1      65.671  29.798  12.918  1.00  0.00    -0.072 N 
HETATM   27  C7  UNL     1      65.263  30.435  11.697  1.00  0.00     0.252 C 
ATOM     28  H42 UNL     1      66.679  29.646  12.927  1.00  0.00     0.277 HD
ATOM     29  H41 UNL     1      65.354  28.829  12.944  1.00  0.00     0.277 HD
HETATM   30  C8  UNL     1      63.890  31.078  11.803  1.00  0.00     0.152 C 
ENDBRANCH   4  23
BRANCH   1  31
HETATM   31  C2  UNL     1      63.059  36.304  11.075  1.00  0.00     0.272 C 
HETATM   32  N1  UNL     1      62.671  36.482   9.731  1.00  0.00    -0.360 N 
HETATM   33  C1  UNL     1      63.281  37.491   8.918  1.00  0.00     0.149 C 
ATOM     34  H1  UNL     1      61.947  35.884   9.333  1.00  0.00     0.162 HD
HETATM   35  O1  UNL     1      63.953  37.048  11.546  1.00  0.00    -0.266 OA
ENDBRANCH   1  31
TORSDOF 2
ENDMDL
