MODEL 1
REMARK VINA RESULT: -7.120186144      0.000      0.000
REMARK  3 active torsions:
REMARK  status: ('A' for Active; 'I' for Inactive)
REMARK    1  A    between atoms: C4_11  and  C6_13 
REMARK    2  A    between atoms: C6_13  and  N3_14 
REMARK    3  A    between atoms: C10_25  and  N7_26 
ROOT
HETATM    1  N3  UNL     1      63.055  33.943  13.484  1.00  0.00     0.112 N 
HETATM    2  C7  UNL     1      64.386  34.625  13.536  1.00  0.00     0.397 C 
HETATM    3  N4  UNL     1      64.970  34.660  12.212  1.00  0.00    -0.350 N 
ATOM      4  H4  UNL     1      65.221  35.526  11.736  1.00  0.00     0.162 HD
HETATM    5  C8  UNL     1      65.161  33.368  11.636  1.00  0.00     0.116 A 
HETATM    6  N5  UNL     1      66.147  33.112  10.748  1.00  0.00    -0.318 N 
ATOM      7  H5  UNL     1      66.775  33.865  10.467  1.00  0.00     0.170 HD
HETATM    8  C9  UNL     1      66.313  31.886  10.231  1.00  0.00     0.182 A 
HETATM    9 CL1  UNL     1      67.584  31.534   9.101  1.00  0.00    -0.045 Cl
HETATM   10  N6  UNL     1      65.482  30.907  10.607  1.00  0.00    -0.319 N 
ATOM     11  H6  UNL     1      65.611  29.975  10.212  1.00  0.00     0.170 HD
HETATM   12  C10 UNL     1      64.467  31.106  11.501  1.00  0.00     0.112 A 
HETATM   13  C11 UNL     1      64.309  32.383  12.028  1.00  0.00     0.058 A 
HETATM   14  C12 UNL     1      63.223  32.616  12.991  1.00  0.00     0.321 C 
ENDROOT
BRANCH   1  15
HETATM   15  C6  UNL     1      62.243  34.835  12.736  1.00  0.00     0.311 C 
BRANCH  15  16
HETATM   16  C4  UNL     1      60.958  35.293  13.310  1.00  0.00     0.186 C 
HETATM   17  S1  UNL     1      59.725  35.006  12.025  1.00  0.00     0.252 S 
HETATM   18  N2  UNL     1      60.243  35.939  10.682  1.00  0.00    -0.249 N 
HETATM   19  O2  UNL     1      58.357  35.413  12.491  1.00  0.00    -0.204 OA
HETATM   20  O3  UNL     1      59.797  33.512  11.734  1.00  0.00    -0.204 OA
HETATM   21  C3  UNL     1      60.625  37.293  10.685  1.00  0.00     0.270 C 
ATOM     22  H2  UNL     1      60.279  35.459   9.783  1.00  0.00     0.182 HD
HETATM   23  C2  UNL     1      60.427  38.287  11.724  1.00  0.00     0.168 C 
HETATM   24  O1  UNL     1      61.215  37.681   9.646  1.00  0.00    -0.266 OA
HETATM   25  N1  UNL     1      60.663  37.934  13.065  1.00  0.00    -0.326 N 
HETATM   26  C1  UNL     1      60.467  39.055  14.004  1.00  0.00     0.159 C 
HETATM   27  C13 UNL     1      61.045  36.734  13.664  1.00  0.00     0.250 C 
HETATM   28  O4  UNL     1      61.616  36.892  14.798  1.00  0.00    -0.271 OA
HETATM   29  C5  UNL     1      60.427  34.595  14.525  1.00  0.00     0.046 C 
ENDBRANCH  15  16
ENDBRANCH   1  15
BRANCH  12  30
HETATM   30  N7  UNL     1      63.685  30.169  11.847  1.00  0.00    -0.385 N 
ATOM     31  H72 UNL     1      63.894  29.601  12.668  1.00  0.00     0.157 HD
ATOM     32  H71 UNL     1      62.834  29.957  11.326  1.00  0.00     0.157 HD
ENDBRANCH  12  30
TORSDOF 3
ENDMDL
MODEL 2
REMARK VINA RESULT: -7.034051059      2.583      3.143
REMARK  3 active torsions:
REMARK  status: ('A' for Active; 'I' for Inactive)
REMARK    1  A    between atoms: C4_11  and  C6_13 
REMARK    2  A    between atoms: C6_13  and  N3_14 
REMARK    3  A    between atoms: C10_25  and  N7_26 
ROOT
HETATM    1  N3  UNL     1      63.471  36.550  12.821  1.00  0.00     0.112 N 
HETATM    2  C7  UNL     1      63.638  37.809  12.030  1.00  0.00     0.397 C 
HETATM    3  N4  UNL     1      63.454  37.531  10.622  1.00  0.00    -0.350 N 
ATOM      4  H4  UNL     1      62.739  37.982  10.052  1.00  0.00     0.162 HD
HETATM    5  C8  UNL     1      64.368  36.564  10.105  1.00  0.00     0.116 A 
HETATM    6  N5  UNL     1      64.770  36.567   8.815  1.00  0.00    -0.318 N 
ATOM      7  H5  UNL     1      64.405  37.276   8.178  1.00  0.00     0.170 HD
HETATM    8  C9  UNL     1      65.640  35.654   8.357  1.00  0.00     0.182 A 
HETATM    9 CL1  UNL     1      66.180  35.652   6.707  1.00  0.00    -0.045 Cl
HETATM   10  N6  UNL     1      66.111  34.729   9.201  1.00  0.00    -0.319 N 
ATOM     11  H6  UNL     1      66.773  34.036   8.850  1.00  0.00     0.170 HD
HETATM   12  C10 UNL     1      65.741  34.676  10.516  1.00  0.00     0.112 A 
HETATM   13  C11 UNL     1      64.839  35.630  10.975  1.00  0.00     0.058 A 
HETATM   14  C12 UNL     1      64.430  35.589  12.387  1.00  0.00     0.321 C 
ENDROOT
BRANCH   1  15
HETATM   15  C6  UNL     1      62.095  36.234  12.675  1.00  0.00     0.311 C 
BRANCH  15  16
HETATM   16  C4  UNL     1      61.417  35.461  13.738  1.00  0.00     0.186 C 
HETATM   17  S1  UNL     1      60.567  34.115  12.888  1.00  0.00     0.252 S 
HETATM   18  N2  UNL     1      59.482  34.877  11.801  1.00  0.00    -0.249 N 
HETATM   19  O2  UNL     1      59.848  33.231  13.865  1.00  0.00    -0.204 OA
HETATM   20  O3  UNL     1      61.665  33.358  12.150  1.00  0.00    -0.204 OA
HETATM   21  C3  UNL     1      58.571  35.909  12.094  1.00  0.00     0.270 C 
ATOM     22  H2  UNL     1      59.499  34.547  10.837  1.00  0.00     0.182 HD
HETATM   23  C2  UNL     1      58.133  36.388  13.392  1.00  0.00     0.168 C 
HETATM   24  O1  UNL     1      58.078  36.484  11.091  1.00  0.00    -0.266 OA
HETATM   25  N1  UNL     1      59.083  36.565  14.414  1.00  0.00    -0.326 N 
HETATM   26  C1  UNL     1      58.503  37.100  15.660  1.00  0.00     0.159 C 
HETATM   27  C13 UNL     1      60.457  36.332  14.466  1.00  0.00     0.250 C 
HETATM   28  O4  UNL     1      61.058  37.033  15.351  1.00  0.00    -0.271 OA
HETATM   29  C5  UNL     1      62.255  34.795  14.785  1.00  0.00     0.046 C 
ENDBRANCH  15  16
ENDBRANCH   1  15
BRANCH  12  30
HETATM   30  N7  UNL     1      66.194  33.792  11.305  1.00  0.00    -0.385 N 
ATOM     31  H72 UNL     1      66.734  33.006  10.942  1.00  0.00     0.157 HD
ATOM     32  H71 UNL     1      66.039  33.837  12.312  1.00  0.00     0.157 HD
ENDBRANCH  12  30
TORSDOF 3
ENDMDL
MODEL 3
REMARK VINA RESULT: -6.962497279      1.117      1.233
REMARK  3 active torsions:
REMARK  status: ('A' for Active; 'I' for Inactive)
REMARK    1  A    between atoms: C4_11  and  C6_13 
REMARK    2  A    between atoms: C6_13  and  N3_14 
REMARK    3  A    between atoms: C10_25  and  N7_26 
ROOT
HETATM    1  N3  UNL     1      63.316  33.586  13.565  1.00  0.00     0.112 N 
HETATM    2  C7  UNL     1      64.531  34.426  13.331  1.00  0.00     0.397 C 
HETATM    3  N4  UNL     1      64.838  34.460  11.917  1.00  0.00    -0.350 N 
ATOM      4  H4  UNL     1      64.877  35.323  11.375  1.00  0.00     0.162 HD
HETATM    5  C8  UNL     1      65.080  33.171  11.353  1.00  0.00     0.116 A 
HETATM    6  N5  UNL     1      65.900  32.989  10.294  1.00  0.00    -0.318 N 
ATOM      7  H5  UNL     1      66.359  33.796   9.871  1.00  0.00     0.170 HD
HETATM    8  C9  UNL     1      66.121  31.766   9.790  1.00  0.00     0.182 A 
HETATM    9 CL1  UNL     1      67.184  31.510   8.441  1.00  0.00    -0.045 Cl
HETATM   10  N6  UNL     1      65.513  30.715  10.353  1.00  0.00    -0.319 N 
ATOM     11  H6  UNL     1      65.683  29.785   9.968  1.00  0.00     0.170 HD
HETATM   12  C10 UNL     1      64.673  30.838  11.425  1.00  0.00     0.112 A 
HETATM   13  C11 UNL     1      64.456  32.113  11.936  1.00  0.00     0.058 A 
HETATM   14  C12 UNL     1      63.556  32.264  13.089  1.00  0.00     0.321 C 
ENDROOT
BRANCH   1  15
HETATM   15  C6  UNL     1      62.265  34.330  12.968  1.00  0.00     0.311 C 
BRANCH  15  16
HETATM   16  C4  UNL     1      61.002  34.520  13.716  1.00  0.00     0.186 C 
HETATM   17  S1  UNL     1      59.780  35.010  12.482  1.00  0.00     0.252 S 
HETATM   18  N2  UNL     1      60.388  36.457  11.790  1.00  0.00    -0.249 N 
HETATM   19  O2  UNL     1      58.433  35.217  13.111  1.00  0.00    -0.204 OA
HETATM   20  O3  UNL     1      59.758  33.869  11.472  1.00  0.00    -0.204 OA
HETATM   21  C3  UNL     1      60.860  37.593  12.473  1.00  0.00     0.270 C 
ATOM     22  H2  UNL     1      60.411  36.498  10.771  1.00  0.00     0.182 HD
HETATM   23  C2  UNL     1      60.706  37.933  13.876  1.00  0.00     0.168 C 
HETATM   24  O1  UNL     1      61.496  38.413  11.766  1.00  0.00    -0.266 OA
HETATM   25  N1  UNL     1      60.891  36.934  14.848  1.00  0.00    -0.326 N 
HETATM   26  C1  UNL     1      60.750  37.434  16.229  1.00  0.00     0.159 C 
HETATM   27  C13 UNL     1      61.178  35.573  14.750  1.00  0.00     0.250 C 
HETATM   28  O4  UNL     1      61.734  35.095  15.799  1.00  0.00    -0.271 OA
HETATM   29  C5  UNL     1      60.400  33.341  14.416  1.00  0.00     0.046 C 
ENDBRANCH  15  16
ENDBRANCH   1  15
BRANCH  12  30
HETATM   30  N7  UNL     1      64.102  29.832  11.948  1.00  0.00    -0.385 N 
ATOM     31  H72 UNL     1      64.589  29.266  12.642  1.00  0.00     0.157 HD
ATOM     32  H71 UNL     1      63.151  29.563  11.697  1.00  0.00     0.157 HD
ENDBRANCH  12  30
TORSDOF 3
ENDMDL
MODEL 4
REMARK VINA RESULT: -6.923418997      1.923      3.001
REMARK  3 active torsions:
REMARK  status: ('A' for Active; 'I' for Inactive)
REMARK    1  A    between atoms: C4_11  and  C6_13 
REMARK    2  A    between atoms: C6_13  and  N3_14 
REMARK    3  A    between atoms: C10_25  and  N7_26 
ROOT
HETATM    1  N3  UNL     1      64.783  34.516  12.173  1.00  0.00     0.112 N 
HETATM    2  C7  UNL     1      65.876  34.829  11.200  1.00  0.00     0.397 C 
HETATM    3  N4  UNL     1      65.742  33.991  10.027  1.00  0.00    -0.350 N 
ATOM      4  H4  UNL     1      65.620  34.364   9.086  1.00  0.00     0.162 HD
HETATM    5  C8  UNL     1      65.796  32.593  10.312  1.00  0.00     0.116 A 
HETATM    6  N5  UNL     1      66.257  31.691   9.419  1.00  0.00    -0.318 N 
ATOM      7  H5  UNL     1      66.571  32.010   8.502  1.00  0.00     0.170 HD
HETATM    8  C9  UNL     1      66.310  30.384   9.716  1.00  0.00     0.182 A 
HETATM    9 CL1  UNL     1      66.914  29.212   8.587  1.00  0.00    -0.045 Cl
HETATM   10  N6  UNL     1      65.894  29.978  10.922  1.00  0.00    -0.319 N 
ATOM     11  H6  UNL     1      65.935  28.983  11.146  1.00  0.00     0.170 HD
HETATM   12  C10 UNL     1      65.418  30.844  11.866  1.00  0.00     0.112 A 
HETATM   13  C11 UNL     1      65.371  32.196  11.542  1.00  0.00     0.058 A 
HETATM   14  C12 UNL     1      64.862  33.142  12.546  1.00  0.00     0.321 C 
ENDROOT
BRANCH   1  15
HETATM   15  C6  UNL     1      63.605  34.965  11.520  1.00  0.00     0.311 C 
BRANCH  15  16
HETATM   16  C4  UNL     1      63.015  36.264  11.913  1.00  0.00     0.186 C 
HETATM   17  S1  UNL     1      62.133  35.947  13.454  1.00  0.00     0.252 S 
HETATM   18  N2  UNL     1      60.963  34.753  13.071  1.00  0.00    -0.249 N 
HETATM   19  O2  UNL     1      61.498  37.202  13.978  1.00  0.00    -0.204 OA
HETATM   20  O3  UNL     1      63.191  35.411  14.412  1.00  0.00    -0.204 OA
HETATM   21  C3  UNL     1      60.056  34.767  11.995  1.00  0.00     0.270 C 
ATOM     22  H2  UNL     1      60.920  33.944  13.691  1.00  0.00     0.182 HD
HETATM   23  C2  UNL     1      59.700  35.874  11.126  1.00  0.00     0.168 C 
HETATM   24  O1  UNL     1      59.486  33.672  11.766  1.00  0.00    -0.266 OA
HETATM   25  N1  UNL     1      60.715  36.717  10.639  1.00  0.00    -0.326 N 
HETATM   26  C1  UNL     1      60.212  37.767   9.732  1.00  0.00     0.159 C 
HETATM   27  C13 UNL     1      62.093  36.743  10.851  1.00  0.00     0.250 C 
HETATM   28  O4  UNL     1      62.741  37.316   9.907  1.00  0.00    -0.271 OA
HETATM   29  C5  UNL     1      63.935  37.406  12.216  1.00  0.00     0.046 C 
ENDBRANCH  15  16
ENDBRANCH   1  15
BRANCH  12  30
HETATM   30  N7  UNL     1      65.025  30.445  13.005  1.00  0.00    -0.385 N 
ATOM     31  H72 UNL     1      64.125  29.976  13.103  1.00  0.00     0.157 HD
ATOM     32  H71 UNL     1      65.587  30.576  13.845  1.00  0.00     0.157 HD
ENDBRANCH  12  30
TORSDOF 3
ENDMDL
MODEL 5
REMARK VINA RESULT: -6.786862334      2.575      3.983
REMARK  3 active torsions:
REMARK  status: ('A' for Active; 'I' for Inactive)
REMARK    1  A    between atoms: C4_11  and  C6_13 
REMARK    2  A    between atoms: C6_13  and  N3_14 
REMARK    3  A    between atoms: C10_25  and  N7_26 
ROOT
HETATM    1  N3  UNL     1      62.103  34.640  12.074  1.00  0.00     0.112 N 
HETATM    2  C7  UNL     1      60.961  33.751  12.454  1.00  0.00     0.397 C 
HETATM    3  N4  UNL     1      61.153  33.255  13.799  1.00  0.00    -0.350 N 
ATOM      4  H4  UNL     1      60.488  33.419  14.555  1.00  0.00     0.162 HD
HETATM    5  C8  UNL     1      62.361  32.513  13.969  1.00  0.00     0.116 A 
HETATM    6  N5  UNL     1      62.478  31.524  14.882  1.00  0.00    -0.318 N 
ATOM      7  H5  UNL     1      61.684  31.298  15.482  1.00  0.00     0.170 HD
HETATM    8  C9  UNL     1      63.621  30.833  15.013  1.00  0.00     0.182 A 
HETATM    9 CL1  UNL     1      63.786  29.548  16.169  1.00  0.00    -0.045 Cl
HETATM   10  N6  UNL     1      64.656  31.139  14.221  1.00  0.00    -0.319 N 
ATOM     11  H6  UNL     1      65.524  30.611  14.323  1.00  0.00     0.170 HD
HETATM   12  C10 UNL     1      64.596  32.129  13.281  1.00  0.00     0.112 A 
HETATM   13  C11 UNL     1      63.404  32.834  13.158  1.00  0.00     0.058 A 
HETATM   14  C12 UNL     1      63.321  33.903  12.151  1.00  0.00     0.321 C 
ENDROOT
BRANCH   1  15
HETATM   15  C6  UNL     1      61.952  35.771  12.919  1.00  0.00     0.311 C 
BRANCH  15  16
HETATM   16  C4  UNL     1      61.818  37.112  12.310  1.00  0.00     0.186 C 
HETATM   17  S1  UNL     1      60.435  37.894  13.165  1.00  0.00     0.252 S 
HETATM   18  N2  UNL     1      59.087  36.875  12.876  1.00  0.00    -0.249 N 
HETATM   19  O2  UNL     1      60.202  39.285  12.651  1.00  0.00    -0.204 OA
HETATM   20  O3  UNL     1      60.832  37.899  14.636  1.00  0.00    -0.204 OA
HETATM   21  C3  UNL     1      58.656  36.366  11.636  1.00  0.00     0.270 C 
ATOM     22  H2  UNL     1      58.536  36.607  13.692  1.00  0.00     0.182 HD
HETATM   23  C2  UNL     1      59.058  36.774  10.303  1.00  0.00     0.168 C 
HETATM   24  O1  UNL     1      57.815  35.436  11.706  1.00  0.00    -0.266 OA
HETATM   25  N1  UNL     1      60.417  37.019  10.040  1.00  0.00    -0.326 N 
HETATM   26  C1  UNL     1      60.682  37.379   8.634  1.00  0.00     0.159 C 
HETATM   27  C13 UNL     1      61.549  36.983  10.854  1.00  0.00     0.250 C 
HETATM   28  O4  UNL     1      62.635  36.790  10.204  1.00  0.00    -0.271 OA
HETATM   29  C5  UNL     1      62.956  38.077  12.442  1.00  0.00     0.046 C 
ENDBRANCH  15  16
ENDBRANCH   1  15
BRANCH  12  30
HETATM   30  N7  UNL     1      65.586  32.409  12.538  1.00  0.00    -0.385 N 
ATOM     31  H72 UNL     1      65.643  33.318  12.078  1.00  0.00     0.157 HD
ATOM     32  H71 UNL     1      66.346  31.748  12.381  1.00  0.00     0.157 HD
ENDBRANCH  12  30
TORSDOF 3
ENDMDL
