MODEL 1
REMARK VINA RESULT: -8.491985920      0.000      0.000
REMARK  5 active torsions:
REMARK  status: ('A' for Active; 'I' for Inactive)
REMARK    1  A    between atoms: O1_2  and  C2_3 
REMARK    2  A    between atoms: C2_3  and  C3_5 
REMARK    3  A    between atoms: N1_10  and  C7_11 
REMARK    4  A    between atoms: C7_11  and  C8_12 
REMARK    5  A    between atoms: N2_13  and  C9_15 
ROOT
HETATM    1  C3  UNL     1      67.455  27.799  11.089  1.00  0.00     0.103 C 
HETATM    2  C4  UNL     1      66.314  28.045  12.067  1.00  0.00     0.025 C 
HETATM    3  C5  UNL     1      66.821  28.840  13.248  1.00  0.00     0.105 C 
HETATM    4  C6  UNL     1      65.908  28.676  14.391  1.00  0.00     0.235 C 
HETATM    5  O3  UNL     1      66.104  27.692  15.177  1.00  0.00    -0.272 OA
HETATM    6  N1  UNL     1      64.824  29.524  14.690  1.00  0.00    -0.260 N 
HETATM    7  N4  UNL     1      64.211  30.254  13.651  1.00  0.00    -0.134 NA
HETATM    8  C10 UNL     1      64.599  31.627  13.816  1.00  0.00     0.161 C 
HETATM    9  C11 UNL     1      64.314  32.376  12.531  1.00  0.00     0.185 C 
HETATM   10  O4  UNL     1      65.311  32.051  11.628  1.00  0.00    -0.388 OA
HETATM   11  C12 UNL     1      64.939  32.305  10.305  1.00  0.00     0.195 C 
HETATM   12  C13 UNL     1      66.234  32.571   9.538  1.00  0.00     0.258 C 
HETATM   13  N5  UNL     1      67.061  31.396   9.713  1.00  0.00    -0.072 N 
ATOM     14  H51 UNL     1      66.890  30.952  10.616  1.00  0.00     0.277 HD
ATOM     15  H52 UNL     1      68.041  31.648   9.843  1.00  0.00     0.277 HD
HETATM   16  C14 UNL     1      66.896  30.447   8.613  1.00  0.00     0.251 C 
HETATM   17  C15 UNL     1      68.053  29.496   8.632  1.00  0.00     0.141 C 
HETATM   18  N6  UNL     1      67.719  28.125   8.681  1.00  0.00    -0.419 N 
ATOM     19  H6  UNL     1      68.109  27.460   8.013  1.00  0.00     0.153 HD
HETATM   20  C16 UNL     1      66.824  27.709   9.693  1.00  0.00     0.128 C 
ENDROOT
BRANCH   6  21
HETATM   21  C7  UNL     1      64.296  29.689  16.040  1.00  0.00     0.192 C 
BRANCH  21  22
HETATM   22  C8  UNL     1      62.958  29.095  16.184  1.00  0.00     0.086 C 
HETATM   23  N2  UNL     1      62.199  29.469  17.138  1.00  0.00    -0.331 N 
ATOM     24  H2  UNL     1      62.563  30.181  17.771  1.00  0.00     0.168 HD
BRANCH  23  25
HETATM   25  C9  UNL     1      60.906  28.988  17.392  1.00  0.00     0.259 C 
HETATM   26  N3  UNL     1      59.849  29.717  17.140  1.00  0.00    -0.361 N 
ATOM     27  H32 UNL     1      59.953  30.654  16.751  1.00  0.00     0.160 HD
ATOM     28  H31 UNL     1      58.909  29.367  17.324  1.00  0.00     0.160 HD
HETATM   29  F1  UNL     1      60.767  27.745  17.907  1.00  0.00    -0.166 F 
ENDBRANCH  23  25
ENDBRANCH  21  22
ENDBRANCH   6  21
BRANCH   1  30
HETATM   30  C2  UNL     1      68.118  26.514  11.420  1.00  0.00     0.264 C 
HETATM   31  O2  UNL     1      67.928  25.508  10.691  1.00  0.00    -0.265 OA
BRANCH  30  32
HETATM   32  O1  UNL     1      68.955  26.366  12.514  1.00  0.00    -0.326 OA
HETATM   33  C1  UNL     1      68.613  25.589  13.643  1.00  0.00     0.213 C 
ENDBRANCH  30  32
ENDBRANCH   1  30
TORSDOF 5
ENDMDL
MODEL 2
REMARK VINA RESULT: -8.294439372      0.743      1.004
REMARK  5 active torsions:
REMARK  status: ('A' for Active; 'I' for Inactive)
REMARK    1  A    between atoms: O1_2  and  C2_3 
REMARK    2  A    between atoms: C2_3  and  C3_5 
REMARK    3  A    between atoms: N1_10  and  C7_11 
REMARK    4  A    between atoms: C7_11  and  C8_12 
REMARK    5  A    between atoms: N2_13  and  C9_15 
ROOT
HETATM    1  C3  UNL     1      67.385  27.753  11.479  1.00  0.00     0.103 C 
HETATM    2  C4  UNL     1      66.214  27.936  12.433  1.00  0.00     0.025 C 
HETATM    3  C5  UNL     1      66.608  28.882  13.544  1.00  0.00     0.105 C 
HETATM    4  C6  UNL     1      65.711  28.702  14.698  1.00  0.00     0.235 C 
HETATM    5  O3  UNL     1      66.018  27.816  15.562  1.00  0.00    -0.272 OA
HETATM    6  N1  UNL     1      64.529  29.432  14.926  1.00  0.00    -0.260 N 
HETATM    7  N4  UNL     1      63.841  29.993  13.831  1.00  0.00    -0.134 NA
HETATM    8  C10 UNL     1      64.056  31.412  13.881  1.00  0.00     0.161 C 
HETATM    9  C11 UNL     1      63.695  32.013  12.539  1.00  0.00     0.185 C 
HETATM   10  O4  UNL     1      64.732  31.739  11.666  1.00  0.00    -0.388 OA
HETATM   11  C12 UNL     1      64.345  31.837  10.326  1.00  0.00     0.195 C 
HETATM   12  C13 UNL     1      65.605  32.195   9.539  1.00  0.00     0.258 C 
HETATM   13  N5  UNL     1      66.568  31.149   9.811  1.00  0.00    -0.072 N 
ATOM     14  H51 UNL     1      66.443  30.763  10.747  1.00  0.00     0.277 HD
ATOM     15  H52 UNL     1      67.509  31.529   9.919  1.00  0.00     0.277 HD
HETATM   16  C14 UNL     1      66.531  30.100   8.793  1.00  0.00     0.251 C 
HETATM   17  C15 UNL     1      67.795  29.303   8.889  1.00  0.00     0.141 C 
HETATM   18  N6  UNL     1      67.631  27.910   9.052  1.00  0.00    -0.419 N 
ATOM     19  H6  UNL     1      68.106  27.246   8.440  1.00  0.00     0.153 HD
HETATM   20  C16 UNL     1      66.783  27.472  10.095  1.00  0.00     0.128 C 
ENDROOT
BRANCH   6  21
HETATM   21  C7  UNL     1      63.971  29.641  16.258  1.00  0.00     0.192 C 
BRANCH  21  22
HETATM   22  C8  UNL     1      62.734  28.872  16.464  1.00  0.00     0.086 C 
HETATM   23  N2  UNL     1      61.842  29.311  17.262  1.00  0.00    -0.331 N 
ATOM     24  H2  UNL     1      62.032  30.197  17.731  1.00  0.00     0.168 HD
BRANCH  23  25
HETATM   25  C9  UNL     1      60.621  28.683  17.551  1.00  0.00     0.259 C 
HETATM   26  N3  UNL     1      59.486  29.179  17.130  1.00  0.00    -0.361 N 
ATOM     27  H32 UNL     1      59.475  30.038  16.581  1.00  0.00     0.160 HD
ATOM     28  H31 UNL     1      58.599  28.722  17.340  1.00  0.00     0.160 HD
HETATM   29  F1  UNL     1      60.636  27.543  18.279  1.00  0.00    -0.166 F 
ENDBRANCH  23  25
ENDBRANCH  21  22
ENDBRANCH   6  21
BRANCH   1  30
HETATM   30  C2  UNL     1      68.198  26.591  11.914  1.00  0.00     0.264 C 
HETATM   31  O2  UNL     1      68.028  26.104  13.060  1.00  0.00    -0.265 OA
BRANCH  30  32
HETATM   32  O1  UNL     1      69.154  26.003  11.102  1.00  0.00    -0.326 OA
HETATM   33  C1  UNL     1      70.336  26.666  10.702  1.00  0.00     0.213 C 
ENDBRANCH  30  32
ENDBRANCH   1  30
TORSDOF 5
ENDMDL
MODEL 3
REMARK VINA RESULT: -8.288363051      1.534      4.581
REMARK  5 active torsions:
REMARK  status: ('A' for Active; 'I' for Inactive)
REMARK    1  A    between atoms: O1_2  and  C2_3 
REMARK    2  A    between atoms: C2_3  and  C3_5 
REMARK    3  A    between atoms: N1_10  and  C7_11 
REMARK    4  A    between atoms: C7_11  and  C8_12 
REMARK    5  A    between atoms: N2_13  and  C9_15 
ROOT
HETATM    1  C3  UNL     1      65.221  31.058  10.595  1.00  0.00     0.103 C 
HETATM    2  C4  UNL     1      65.409  30.874  12.094  1.00  0.00     0.025 C 
HETATM    3  C5  UNL     1      64.325  29.970  12.634  1.00  0.00     0.105 C 
HETATM    4  C6  UNL     1      64.191  30.162  14.088  1.00  0.00     0.235 C 
HETATM    5  O3  UNL     1      63.407  31.080  14.500  1.00  0.00    -0.272 OA
HETATM    6  N1  UNL     1      64.865  29.411  15.069  1.00  0.00    -0.260 N 
HETATM    7  N4  UNL     1      66.095  28.801  14.749  1.00  0.00    -0.134 NA
HETATM    8  C10 UNL     1      65.851  27.390  14.644  1.00  0.00     0.161 C 
HETATM    9  C11 UNL     1      67.012  26.742  13.920  1.00  0.00     0.185 C 
HETATM   10  O4  UNL     1      66.869  27.015  12.571  1.00  0.00    -0.388 OA
HETATM   11  C12 UNL     1      68.067  26.870  11.865  1.00  0.00     0.195 C 
HETATM   12  C13 UNL     1      67.679  26.519  10.429  1.00  0.00     0.258 C 
HETATM   13  N5  UNL     1      66.833  27.596   9.960  1.00  0.00    -0.072 N 
ATOM     14  H51 UNL     1      66.295  28.006  10.724  1.00  0.00     0.277 HD
ATOM     15  H52 UNL     1      66.061  27.242   9.393  1.00  0.00     0.277 HD
HETATM   16  C14 UNL     1      67.598  28.614   9.241  1.00  0.00     0.251 C 
HETATM   17  C15 UNL     1      66.644  29.443   8.439  1.00  0.00     0.141 C 
HETATM   18  N6  UNL     1      66.704  30.836   8.664  1.00  0.00    -0.419 N 
ATOM     19  H6  UNL     1      66.804  31.494   7.890  1.00  0.00     0.153 HD
HETATM   20  C16 UNL     1      66.619  31.284  10.002  1.00  0.00     0.128 C 
ENDROOT
BRANCH   6  21
HETATM   21  C7  UNL     1      64.347  29.227  16.421  1.00  0.00     0.192 C 
BRANCH  21  22
HETATM   22  C8  UNL     1      62.928  28.839  16.419  1.00  0.00     0.086 C 
HETATM   23  N2  UNL     1      62.171  29.202  17.378  1.00  0.00    -0.331 N 
ATOM     24  H2  UNL     1      62.595  29.759  18.120  1.00  0.00     0.168 HD
BRANCH  23  25
HETATM   25  C9  UNL     1      60.806  28.904  17.503  1.00  0.00     0.259 C 
HETATM   26  N3  UNL     1      59.888  29.754  17.121  1.00  0.00    -0.361 N 
ATOM     27  H32 UNL     1      60.156  30.654  16.724  1.00  0.00     0.160 HD
ATOM     28  H31 UNL     1      58.895  29.537  17.211  1.00  0.00     0.160 HD
HETATM   29  F1  UNL     1      60.450  27.710  18.029  1.00  0.00    -0.166 F 
ENDBRANCH  23  25
ENDBRANCH  21  22
ENDBRANCH   6  21
BRANCH   1  30
HETATM   30  C2  UNL     1      64.377  32.252  10.347  1.00  0.00     0.264 C 
HETATM   31  O2  UNL     1      64.777  33.149   9.563  1.00  0.00    -0.265 OA
BRANCH  30  32
HETATM   32  O1  UNL     1      63.142  32.431  10.950  1.00  0.00    -0.326 OA
HETATM   33  C1  UNL     1      62.885  33.457  11.887  1.00  0.00     0.213 C 
ENDBRANCH  30  32
ENDBRANCH   1  30
TORSDOF 5
ENDMDL
MODEL 4
REMARK VINA RESULT: -8.201787575      3.123      7.100
REMARK  5 active torsions:
REMARK  status: ('A' for Active; 'I' for Inactive)
REMARK    1  A    between atoms: O1_2  and  C2_3 
REMARK    2  A    between atoms: C2_3  and  C3_5 
REMARK    3  A    between atoms: N1_10  and  C7_11 
REMARK    4  A    between atoms: C7_11  and  C8_12 
REMARK    5  A    between atoms: N2_13  and  C9_15 
ROOT
HETATM    1  C3  UNL     1      65.614  28.157  14.239  1.00  0.00     0.103 C 
HETATM    2  C4  UNL     1      66.317  28.858  13.086  1.00  0.00     0.025 C 
HETATM    3  C5  UNL     1      65.614  28.533  11.789  1.00  0.00     0.105 C 
HETATM    4  C6  UNL     1      66.518  28.781  10.653  1.00  0.00     0.235 C 
HETATM    5  O3  UNL     1      67.289  27.834  10.285  1.00  0.00    -0.272 OA
HETATM    6  N1  UNL     1      66.604  29.989   9.935  1.00  0.00    -0.260 N 
HETATM    7  N4  UNL     1      66.240  31.195  10.567  1.00  0.00    -0.134 NA
HETATM    8  C10 UNL     1      64.985  31.605  10.001  1.00  0.00     0.161 C 
HETATM    9  C11 UNL     1      64.356  32.648  10.901  1.00  0.00     0.185 C 
HETATM   10  O4  UNL     1      63.817  31.988  11.991  1.00  0.00    -0.388 OA
HETATM   11  C12 UNL     1      63.611  32.837  13.083  1.00  0.00     0.195 C 
HETATM   12  C13 UNL     1      62.462  32.232  13.887  1.00  0.00     0.258 C 
HETATM   13  N5  UNL     1      62.872  30.889  14.240  1.00  0.00    -0.072 N 
ATOM     14  H51 UNL     1      63.482  30.488  13.528  1.00  0.00     0.277 HD
ATOM     15  H52 UNL     1      62.093  30.233  14.171  1.00  0.00     0.277 HD
HETATM   16  C14 UNL     1      63.493  30.841  15.562  1.00  0.00     0.251 C 
HETATM   17  C15 UNL     1      63.499  29.419  16.030  1.00  0.00     0.141 C 
HETATM   18  N6  UNL     1      64.758  28.901  16.405  1.00  0.00    -0.419 N 
ATOM     19  H6  UNL     1      64.897  28.446  17.307  1.00  0.00     0.153 HD
HETATM   20  C16 UNL     1      65.819  29.037  15.479  1.00  0.00     0.128 C 
ENDROOT
BRANCH   6  21
HETATM   21  C7  UNL     1      67.056  30.056   8.549  1.00  0.00     0.192 C 
BRANCH  21  22
HETATM   22  C8  UNL     1      68.511  29.870   8.435  1.00  0.00     0.086 C 
HETATM   23  N2  UNL     1      68.979  28.723   8.134  1.00  0.00    -0.331 N 
ATOM     24  H2  UNL     1      68.308  27.970   7.983  1.00  0.00     0.168 HD
BRANCH  23  25
HETATM   25  C9  UNL     1      70.338  28.405   7.993  1.00  0.00     0.259 C 
HETATM   26  N3  UNL     1      70.956  28.558   6.850  1.00  0.00    -0.361 N 
ATOM     27  H32 UNL     1      70.451  28.914   6.038  1.00  0.00     0.160 HD
ATOM     28  H31 UNL     1      71.944  28.327   6.747  1.00  0.00     0.160 HD
HETATM   29  F1  UNL     1      71.008  27.933   9.069  1.00  0.00    -0.166 F 
ENDBRANCH  23  25
ENDBRANCH  21  22
ENDBRANCH   6  21
BRANCH   1  30
HETATM   30  C2  UNL     1      66.238  26.829  14.462  1.00  0.00     0.264 C 
HETATM   31  O2  UNL     1      66.132  26.270  15.582  1.00  0.00    -0.265 OA
BRANCH  30  32
HETATM   32  O1  UNL     1      66.946  26.162  13.476  1.00  0.00    -0.326 OA
HETATM   33  C1  UNL     1      68.303  25.796  13.618  1.00  0.00     0.213 C 
ENDBRANCH  30  32
ENDBRANCH   1  30
TORSDOF 5
ENDMDL
MODEL 5
REMARK VINA RESULT: -8.073654441      1.007      1.187
REMARK  5 active torsions:
REMARK  status: ('A' for Active; 'I' for Inactive)
REMARK    1  A    between atoms: O1_2  and  C2_3 
REMARK    2  A    between atoms: C2_3  and  C3_5 
REMARK    3  A    between atoms: N1_10  and  C7_11 
REMARK    4  A    between atoms: C7_11  and  C8_12 
REMARK    5  A    between atoms: N2_13  and  C9_15 
ROOT
HETATM    1  C3  UNL     1      67.473  28.156  10.669  1.00  0.00     0.103 C 
HETATM    2  C4  UNL     1      66.383  28.139  11.732  1.00  0.00     0.025 C 
HETATM    3  C5  UNL     1      66.946  28.639  13.043  1.00  0.00     0.105 C 
HETATM    4  C6  UNL     1      66.094  28.188  14.157  1.00  0.00     0.235 C 
HETATM    5  O3  UNL     1      66.338  27.048  14.673  1.00  0.00    -0.272 OA
HETATM    6  N1  UNL     1      65.022  28.919  14.703  1.00  0.00    -0.260 N 
HETATM    7  N4  UNL     1      64.350  29.865  13.901  1.00  0.00    -0.134 NA
HETATM    8  C10 UNL     1      64.737  31.165  14.371  1.00  0.00     0.161 C 
HETATM    9  C11 UNL     1      64.381  32.195  13.319  1.00  0.00     0.185 C 
HETATM   10  O4  UNL     1      65.331  32.114  12.317  1.00  0.00    -0.388 OA
HETATM   11  C12 UNL     1      64.889  32.670  11.113  1.00  0.00     0.195 C 
HETATM   12  C13 UNL     1      66.140  33.136  10.369  1.00  0.00     0.258 C 
HETATM   13  N5  UNL     1      66.983  31.969  10.217  1.00  0.00    -0.072 N 
ATOM     14  H51 UNL     1      66.862  31.319  10.994  1.00  0.00     0.277 HD
ATOM     15  H52 UNL     1      67.967  32.202  10.356  1.00  0.00     0.277 HD
HETATM   16  C14 UNL     1      66.768  31.308   8.931  1.00  0.00     0.251 C 
HETATM   17  C15 UNL     1      67.930  30.403   8.665  1.00  0.00     0.141 C 
HETATM   18  N6  UNL     1      67.609  29.054   8.399  1.00  0.00    -0.419 N 
ATOM     19  H6  UNL     1      67.968  28.576   7.573  1.00  0.00     0.153 HD
HETATM   20  C16 UNL     1      66.770  28.390   9.325  1.00  0.00     0.128 C 
ENDROOT
BRANCH   6  21
HETATM   21  C7  UNL     1      64.564  28.747  16.078  1.00  0.00     0.192 C 
BRANCH  21  22
HETATM   22  C8  UNL     1      63.098  28.647  16.161  1.00  0.00     0.086 C 
HETATM   23  N2  UNL     1      62.519  28.764  17.291  1.00  0.00    -0.331 N 
ATOM     24  H2  UNL     1      63.113  28.927  18.104  1.00  0.00     0.168 HD
BRANCH  23  25
HETATM   25  C9  UNL     1      61.136  28.690  17.513  1.00  0.00     0.259 C 
HETATM   26  N3  UNL     1      60.343  29.679  17.192  1.00  0.00    -0.361 N 
ATOM     27  H32 UNL     1      60.724  30.526  16.770  1.00  0.00     0.160 HD
ATOM     28  H31 UNL     1      59.337  29.625  17.353  1.00  0.00     0.160 HD
HETATM   29  F1  UNL     1      60.630  27.567  18.073  1.00  0.00    -0.166 F 
ENDBRANCH  23  25
ENDBRANCH  21  22
ENDBRANCH   6  21
BRANCH   1  30
HETATM   30  C2  UNL     1      68.161  26.843  10.649  1.00  0.00     0.264 C 
HETATM   31  O2  UNL     1      67.485  25.784  10.597  1.00  0.00    -0.265 OA
BRANCH  30  32
HETATM   32  O1  UNL     1      69.541  26.722  10.684  1.00  0.00    -0.326 OA
HETATM   33  C1  UNL     1      70.393  27.367   9.760  1.00  0.00     0.213 C 
ENDBRANCH  30  32
ENDBRANCH   1  30
TORSDOF 5
ENDMDL
