MODEL 1
REMARK VINA RESULT: -9.621120827      0.000      0.000
REMARK  4 active torsions:
REMARK  status: ('A' for Active; 'I' for Inactive)
REMARK    1  A    between atoms: C4_8  and  N4_9 
REMARK    2  A    between atoms: N4_9  and  N5_11 
REMARK    3  A    between atoms: N5_11  and  C5_13 
REMARK    4  A    between atoms: N8_24  and  N9_26 
ROOT
HETATM    1  N1  UNL     1      66.424  32.601   9.956  1.00  0.00    -0.191 NA
HETATM    2  C1  UNL     1      65.778  32.238  10.870  1.00  0.00     0.107 C 
HETATM    3  C2  UNL     1      64.991  31.836  11.979  1.00  0.00     0.132 A 
HETATM    4  C3  UNL     1      64.411  32.854  12.745  1.00  0.00     0.156 A 
HETATM    5  N2  UNL     1      64.625  34.216  12.394  1.00  0.00    -0.080 NA
HETATM    6  N3  UNL     1      63.648  32.532  13.819  1.00  0.00    -0.176 N 
ATOM      7  H3  UNL     1      63.225  33.271  14.380  1.00  0.00     0.185 HD
HETATM    8  C4  UNL     1      63.446  31.246  14.149  1.00  0.00     0.699 A 
HETATM    9  N7  UNL     1      64.000  30.274  13.417  1.00  0.00    -0.172 N 
ATOM     10  H7  UNL     1      63.835  29.304  13.684  1.00  0.00     0.186 HD
HETATM   11  C10 UNL     1      64.787  30.536  12.312  1.00  0.00     0.160 A 
HETATM   12  N8  UNL     1      65.280  29.573  11.664  1.00  0.00    -0.283 N 
ATOM     13  H8  UNL     1      65.070  28.630  11.993  1.00  0.00     0.188 HD
ENDROOT
BRANCH  12  14
HETATM   14  N9  UNL     1      66.072  29.690  10.560  1.00  0.00    -0.289 N 
HETATM   15  C11 UNL     1      67.066  28.976  10.226  1.00  0.00     0.131 C 
HETATM   16  S1  UNL     1      68.063  29.183   8.761  1.00  0.00    -0.107 SA
HETATM   17  C14 UNL     1      67.640  27.841  10.918  1.00  0.00     0.184 C 
HETATM   18  C12 UNL     1      69.186  27.750   9.051  1.00  0.00     0.089 C 
HETATM   19  C13 UNL     1      68.319  26.917   9.973  1.00  0.00     0.097 C 
HETATM   20  O1  UNL     1      67.566  27.666  12.187  1.00  0.00    -0.290 OA
ATOM     21  H9  UNL     1      65.834  30.448   9.920  1.00  0.00     0.188 HD
ENDBRANCH  12  14
BRANCH   8  22
HETATM   22  N4  UNL     1      62.712  30.930  15.185  1.00  0.00    -0.130 N 
ATOM     23  H4  UNL     1      61.748  31.259  15.241  1.00  0.00     0.205 HD
BRANCH  22  24
HETATM   24  N5  UNL     1      63.241  30.142  16.221  1.00  0.00    -0.271 N 
ATOM     25  H5  UNL     1      64.219  30.260  16.485  1.00  0.00     0.189 HD
BRANCH  24  26
HETATM   26  C5  UNL     1      62.520  29.271  16.851  1.00  0.00     0.120 A 
HETATM   27  C6  UNL     1      63.096  28.055  17.128  1.00  0.00     0.051 A 
HETATM   28  C7  UNL     1      62.375  27.100  17.790  1.00  0.00     0.029 A 
HETATM   29  C8  UNL     1      61.093  27.364  18.169  1.00  0.00     0.049 A 
HETATM   30 CL1  UNL     1      60.150  26.143  19.024  1.00  0.00    -0.083 Cl
HETATM   31  C9  UNL     1      60.520  28.582  17.890  1.00  0.00     0.113 A 
HETATM   32  N6  UNL     1      61.267  29.492  17.236  1.00  0.00    -0.350 N 
ATOM     33  H6  UNL     1      60.849  30.399  17.025  1.00  0.00     0.166 HD
ENDBRANCH  24  26
ENDBRANCH  22  24
ENDBRANCH   8  22
TORSDOF 4
ENDMDL
MODEL 2
REMARK VINA RESULT: -9.493277169      2.509      3.925
REMARK  4 active torsions:
REMARK  status: ('A' for Active; 'I' for Inactive)
REMARK    1  A    between atoms: C4_8  and  N4_9 
REMARK    2  A    between atoms: N4_9  and  N5_11 
REMARK    3  A    between atoms: N5_11  and  C5_13 
REMARK    4  A    between atoms: N8_24  and  N9_26 
ROOT
HETATM    1  N1  UNL     1      67.834  26.564  11.545  1.00  0.00    -0.191 NA
HETATM    2  C1  UNL     1      67.160  26.971  12.419  1.00  0.00     0.107 C 
HETATM    3  C2  UNL     1      66.360  27.434  13.495  1.00  0.00     0.132 A 
HETATM    4  C3  UNL     1      66.430  26.712  14.691  1.00  0.00     0.156 A 
HETATM    5  N2  UNL     1      67.276  25.572  14.785  1.00  0.00    -0.080 NA
HETATM    6  N3  UNL     1      65.687  27.106  15.756  1.00  0.00    -0.176 N 
ATOM      7  H3  UNL     1      65.735  26.581  16.629  1.00  0.00     0.185 HD
HETATM    8  C4  UNL     1      64.890  28.183  15.668  1.00  0.00     0.699 A 
HETATM    9  N7  UNL     1      64.823  28.872  14.525  1.00  0.00    -0.172 N 
ATOM     10  H7  UNL     1      64.211  29.686  14.477  1.00  0.00     0.186 HD
HETATM   11  C10 UNL     1      65.554  28.522  13.405  1.00  0.00     0.160 A 
HETATM   12  N8  UNL     1      65.446  29.215  12.357  1.00  0.00    -0.283 N 
ATOM     13  H8  UNL     1      64.813  30.015  12.387  1.00  0.00     0.188 HD
ENDROOT
BRANCH  12  14
HETATM   14  N9  UNL     1      66.106  28.982  11.187  1.00  0.00    -0.289 N 
HETATM   15  C11 UNL     1      66.388  29.807  10.266  1.00  0.00     0.131 C 
HETATM   16  S1  UNL     1      67.258  29.435   8.752  1.00  0.00    -0.107 SA
HETATM   17  C14 UNL     1      66.092  31.223  10.194  1.00  0.00     0.184 C 
HETATM   18  C12 UNL     1      67.266  31.149   8.072  1.00  0.00     0.089 C 
HETATM   19  C13 UNL     1      67.083  31.941   9.351  1.00  0.00     0.097 C 
HETATM   20  O1  UNL     1      65.099  31.776  10.789  1.00  0.00    -0.290 OA
ATOM     21  H9  UNL     1      66.411  28.021  11.032  1.00  0.00     0.188 HD
ENDBRANCH  12  14
BRANCH   8  22
HETATM   22  N4  UNL     1      64.171  28.566  16.691  1.00  0.00    -0.130 N 
ATOM     23  H4  UNL     1      64.557  28.504  17.633  1.00  0.00     0.205 HD
BRANCH  22  24
HETATM   24  N5  UNL     1      62.870  29.063  16.504  1.00  0.00    -0.271 N 
ATOM     25  H5  UNL     1      62.709  29.781  15.797  1.00  0.00     0.189 HD
BRANCH  24  26
HETATM   26  C5  UNL     1      61.869  28.634  17.203  1.00  0.00     0.120 A 
HETATM   27  C6  UNL     1      62.009  27.419  17.829  1.00  0.00     0.051 A 
HETATM   28  C7  UNL     1      60.980  26.921  18.578  1.00  0.00     0.029 A 
HETATM   29  C8  UNL     1      59.825  27.635  18.699  1.00  0.00     0.049 A 
HETATM   30 CL1  UNL     1      58.488  27.008  19.662  1.00  0.00    -0.083 Cl
HETATM   31  C9  UNL     1      59.689  28.851  18.071  1.00  0.00     0.113 A 
HETATM   32  N6  UNL     1      60.728  29.302  17.343  1.00  0.00    -0.350 N 
ATOM     33  H6  UNL     1      60.635  30.203  16.874  1.00  0.00     0.166 HD
ENDBRANCH  24  26
ENDBRANCH  22  24
ENDBRANCH   8  22
TORSDOF 4
ENDMDL
MODEL 3
REMARK VINA RESULT: -9.409817069      4.956      7.927
REMARK  4 active torsions:
REMARK  status: ('A' for Active; 'I' for Inactive)
REMARK    1  A    between atoms: C4_8  and  N4_9 
REMARK    2  A    between atoms: N4_9  and  N5_11 
REMARK    3  A    between atoms: N5_11  and  C5_13 
REMARK    4  A    between atoms: N8_24  and  N9_26 
ROOT
HETATM    1  N1  UNL     1      63.939  35.449  13.296  1.00  0.00    -0.191 NA
HETATM    2  C1  UNL     1      63.923  34.275  13.218  1.00  0.00     0.107 C 
HETATM    3  C2  UNL     1      63.933  32.862  13.099  1.00  0.00     0.132 A 
HETATM    4  C3  UNL     1      64.845  32.310  12.194  1.00  0.00     0.156 A 
HETATM    5  N2  UNL     1      65.707  33.160  11.446  1.00  0.00    -0.080 NA
HETATM    6  N3  UNL     1      64.900  30.963  12.035  1.00  0.00    -0.176 N 
ATOM      7  H3  UNL     1      65.564  30.558  11.375  1.00  0.00     0.185 HD
HETATM    8  C4  UNL     1      64.088  30.162  12.742  1.00  0.00     0.699 A 
HETATM    9  N7  UNL     1      63.216  30.690  13.607  1.00  0.00    -0.172 N 
ATOM     10  H7  UNL     1      62.607  30.064  14.134  1.00  0.00     0.186 HD
HETATM   11  C10 UNL     1      63.111  32.052  13.814  1.00  0.00     0.160 A 
HETATM   12  N8  UNL     1      62.268  32.486  14.645  1.00  0.00    -0.283 N 
ATOM     13  H8  UNL     1      61.694  31.798  15.134  1.00  0.00     0.188 HD
ENDROOT
BRANCH  12  14
HETATM   14  N9  UNL     1      62.060  33.800  14.944  1.00  0.00    -0.289 N 
HETATM   15  C11 UNL     1      60.969  34.378  15.234  1.00  0.00     0.131 C 
HETATM   16  S1  UNL     1      60.765  36.109  15.617  1.00  0.00    -0.107 SA
HETATM   17  C14 UNL     1      59.640  33.810  15.331  1.00  0.00     0.184 C 
HETATM   18  C12 UNL     1      58.952  36.054  15.947  1.00  0.00     0.089 C 
HETATM   19  C13 UNL     1      58.788  34.582  16.272  1.00  0.00     0.097 C 
HETATM   20  O1  UNL     1      59.259  32.771  14.683  1.00  0.00    -0.290 OA
ATOM     21  H9  UNL     1      62.889  34.395  14.932  1.00  0.00     0.188 HD
ENDBRANCH  12  14
BRANCH   8  22
HETATM   22  N4  UNL     1      64.136  28.863  12.592  1.00  0.00    -0.130 N 
ATOM     23  H4  UNL     1      63.392  28.384  12.085  1.00  0.00     0.205 HD
BRANCH  22  24
HETATM   24  N5  UNL     1      65.206  28.123  13.124  1.00  0.00    -0.271 N 
ATOM     25  H5  UNL     1      65.140  27.773  14.080  1.00  0.00     0.189 HD
BRANCH  24  26
HETATM   26  C5  UNL     1      66.271  27.872  12.434  1.00  0.00     0.120 A 
HETATM   27  C6  UNL     1      67.268  27.153  13.049  1.00  0.00     0.051 A 
HETATM   28  C7  UNL     1      68.414  26.863  12.362  1.00  0.00     0.029 A 
HETATM   29  C8  UNL     1      68.557  27.288  11.075  1.00  0.00     0.049 A 
HETATM   30 CL1  UNL     1      70.029  26.923  10.176  1.00  0.00    -0.083 Cl
HETATM   31  C9  UNL     1      67.557  28.008  10.464  1.00  0.00     0.113 A 
HETATM   32  N6  UNL     1      66.445  28.270  11.178  1.00  0.00    -0.350 N 
ATOM     33  H6  UNL     1      65.698  28.802  10.731  1.00  0.00     0.166 HD
ENDBRANCH  24  26
ENDBRANCH  22  24
ENDBRANCH   8  22
TORSDOF 4
ENDMDL
MODEL 4
REMARK VINA RESULT: -9.307798672      4.963      7.779
REMARK  4 active torsions:
REMARK  status: ('A' for Active; 'I' for Inactive)
REMARK    1  A    between atoms: C4_8  and  N4_9 
REMARK    2  A    between atoms: N4_9  and  N5_11 
REMARK    3  A    between atoms: N5_11  and  C5_13 
REMARK    4  A    between atoms: N8_24  and  N9_26 
ROOT
HETATM    1  N1  UNL     1      63.816  35.870  13.433  1.00  0.00    -0.191 NA
HETATM    2  C1  UNL     1      63.802  34.700  13.312  1.00  0.00     0.107 C 
HETATM    3  C2  UNL     1      63.814  33.292  13.140  1.00  0.00     0.132 A 
HETATM    4  C3  UNL     1      64.714  32.777  12.202  1.00  0.00     0.156 A 
HETATM    5  N2  UNL     1      65.563  33.657  11.474  1.00  0.00    -0.080 NA
HETATM    6  N3  UNL     1      64.771  31.438  11.992  1.00  0.00    -0.176 N 
ATOM      7  H3  UNL     1      65.425  31.059  11.308  1.00  0.00     0.185 HD
HETATM    8  C4  UNL     1      63.970  30.608  12.680  1.00  0.00     0.699 A 
HETATM    9  N7  UNL     1      63.110  31.101  13.577  1.00  0.00    -0.172 N 
ATOM     10  H7  UNL     1      62.510  30.454  14.088  1.00  0.00     0.186 HD
HETATM   11  C10 UNL     1      63.004  32.454  13.835  1.00  0.00     0.160 A 
HETATM   12  N8  UNL     1      62.171  32.854  14.694  1.00  0.00    -0.283 N 
ATOM     13  H8  UNL     1      61.607  32.146  15.165  1.00  0.00     0.188 HD
ENDROOT
BRANCH  12  14
HETATM   14  N9  UNL     1      61.965  34.155  15.044  1.00  0.00    -0.289 N 
HETATM   15  C11 UNL     1      60.877  34.718  15.373  1.00  0.00     0.131 C 
HETATM   16  S1  UNL     1      60.674  36.433  15.823  1.00  0.00    -0.107 SA
HETATM   17  C14 UNL     1      59.551  34.142  15.471  1.00  0.00     0.184 C 
HETATM   18  C12 UNL     1      58.867  36.359  16.180  1.00  0.00     0.089 C 
HETATM   19  C13 UNL     1      58.712  34.876  16.453  1.00  0.00     0.097 C 
HETATM   20  O1  UNL     1      59.163  33.126  14.790  1.00  0.00    -0.290 OA
ATOM     21  H9  UNL     1      62.792  34.753  15.042  1.00  0.00     0.188 HD
ENDBRANCH  12  14
BRANCH   8  22
HETATM   22  N4  UNL     1      64.020  29.316  12.481  1.00  0.00    -0.130 N 
ATOM     23  H4  UNL     1      63.570  28.913  11.659  1.00  0.00     0.205 HD
BRANCH  22  24
HETATM   24  N5  UNL     1      64.687  28.478  13.391  1.00  0.00    -0.271 N 
ATOM     25  H5  UNL     1      64.294  28.344  14.322  1.00  0.00     0.189 HD
BRANCH  24  26
HETATM   26  C5  UNL     1      65.787  27.873  13.079  1.00  0.00     0.120 A 
HETATM   27  C6  UNL     1      66.371  28.199  11.879  1.00  0.00     0.051 A 
HETATM   28  C7  UNL     1      67.533  27.586  11.504  1.00  0.00     0.029 A 
HETATM   29  C8  UNL     1      68.103  26.658  12.323  1.00  0.00     0.049 A 
HETATM   30 CL1  UNL     1      69.603  25.857  11.853  1.00  0.00    -0.083 Cl
HETATM   31  C9  UNL     1      67.516  26.333  13.523  1.00  0.00     0.113 A 
HETATM   32  N6  UNL     1      66.371  26.963  13.852  1.00  0.00    -0.350 N 
ATOM     33  H6  UNL     1      65.929  26.728  14.742  1.00  0.00     0.166 HD
ENDBRANCH  24  26
ENDBRANCH  22  24
ENDBRANCH   8  22
TORSDOF 4
ENDMDL
MODEL 5
REMARK VINA RESULT: -9.256119262      5.280      7.874
REMARK  4 active torsions:
REMARK  status: ('A' for Active; 'I' for Inactive)
REMARK    1  A    between atoms: C4_8  and  N4_9 
REMARK    2  A    between atoms: N4_9  and  N5_11 
REMARK    3  A    between atoms: N5_11  and  C5_13 
REMARK    4  A    between atoms: N8_24  and  N9_26 
ROOT
HETATM    1  N1  UNL     1      63.622  36.822  10.112  1.00  0.00    -0.191 NA
HETATM    2  C1  UNL     1      64.221  35.822   9.954  1.00  0.00     0.107 C 
HETATM    3  C2  UNL     1      64.970  34.636   9.743  1.00  0.00     0.132 A 
HETATM    4  C3  UNL     1      66.128  34.748   8.967  1.00  0.00     0.156 A 
HETATM    5  N2  UNL     1      66.505  36.011   8.432  1.00  0.00    -0.080 NA
HETATM    6  N3  UNL     1      66.885  33.648   8.730  1.00  0.00    -0.176 N 
ATOM      7  H3  UNL     1      67.730  33.726   8.164  1.00  0.00     0.185 HD
HETATM    8  C4  UNL     1      66.530  32.456   9.237  1.00  0.00     0.699 A 
HETATM    9  N7  UNL     1      65.423  32.349   9.978  1.00  0.00    -0.172 N 
ATOM     10  H7  UNL     1      65.169  31.435  10.353  1.00  0.00     0.186 HD
HETATM   11  C10 UNL     1      64.610  33.431  10.255  1.00  0.00     0.160 A 
HETATM   12  N8  UNL     1      63.578  33.263  10.962  1.00  0.00    -0.283 N 
ATOM     13  H8  UNL     1      63.392  32.319  11.301  1.00  0.00     0.188 HD
ENDROOT
BRANCH  12  14
HETATM   14  N9  UNL     1      62.693  34.240  11.309  1.00  0.00    -0.289 N 
HETATM   15  C11 UNL     1      62.096  34.402  12.417  1.00  0.00     0.131 C 
HETATM   16  S1  UNL     1      60.945  35.708  12.808  1.00  0.00    -0.107 SA
HETATM   17  C14 UNL     1      62.184  33.601  13.620  1.00  0.00     0.184 C 
HETATM   18  C12 UNL     1      60.633  35.215  14.557  1.00  0.00     0.089 C 
HETATM   19  C13 UNL     1      61.887  34.410  14.831  1.00  0.00     0.097 C 
HETATM   20  O1  UNL     1      62.481  32.354  13.627  1.00  0.00    -0.290 OA
ATOM     21  H9  UNL     1      62.485  34.929  10.586  1.00  0.00     0.188 HD
ENDBRANCH  12  14
BRANCH   8  22
HETATM   22  N4  UNL     1      67.256  31.392   9.010  1.00  0.00    -0.130 N 
ATOM     23  H4  UNL     1      68.250  31.491   8.808  1.00  0.00     0.205 HD
BRANCH  22  24
HETATM   24  N5  UNL     1      66.676  30.112   9.043  1.00  0.00    -0.271 N 
ATOM     25  H5  UNL     1      65.806  29.948   8.536  1.00  0.00     0.189 HD
BRANCH  24  26
HETATM   26  C5  UNL     1      67.217  29.135   9.698  1.00  0.00     0.120 A 
HETATM   27  C6  UNL     1      68.451  28.700   9.280  1.00  0.00     0.051 A 
HETATM   28  C7  UNL     1      69.063  27.670   9.938  1.00  0.00     0.029 A 
HETATM   29  C8  UNL     1      68.445  27.086  11.003  1.00  0.00     0.049 A 
HETATM   30 CL1  UNL     1      69.221  25.757  11.863  1.00  0.00    -0.083 Cl
HETATM   31  C9  UNL     1      67.209  27.525  11.418  1.00  0.00     0.113 A 
HETATM   32  N6  UNL     1      66.644  28.542  10.740  1.00  0.00    -0.350 N 
ATOM     33  H6  UNL     1      65.728  28.874  11.042  1.00  0.00     0.166 HD
ENDBRANCH  24  26
ENDBRANCH  22  24
ENDBRANCH   8  22
TORSDOF 4
ENDMDL
