MODEL 1
REMARK VINA RESULT: -10.808961801      0.000      0.000
REMARK  3 active torsions:
REMARK  status: ('A' for Active; 'I' for Inactive)
REMARK    1  A    between atoms: C5_9  and  N3_10 
REMARK    2  A    between atoms: N3_10  and  C6_12 
REMARK    3  A    between atoms: C8_14  and  C9_15 
ROOT
HETATM    1  N3  UNL     1      66.011  28.426  10.624  1.00  0.00    -0.189 N 
ATOM      2  H3  UNL     1      65.235  27.793  10.436  1.00  0.00     0.184 HD
ENDROOT
BRANCH   1   3
HETATM    3  C5  UNL     1      65.787  29.647  10.931  1.00  0.00     0.687 A 
HETATM    4  N2  UNL     1      66.089  30.704  10.165  1.00  0.00    -0.173 N 
HETATM    5  C4  UNL     1      65.709  31.848  10.808  1.00  0.00     0.160 A 
ATOM      6  H2  UNL     1      66.533  30.661   9.248  1.00  0.00     0.186 HD
HETATM    7  C3  UNL     1      65.159  31.412  12.005  1.00  0.00     0.164 A 
HETATM    8  N7  UNL     1      65.778  33.154  10.494  1.00  0.00    -0.287 N 
HETATM    9  C2  UNL     1      64.677  32.362  12.885  1.00  0.00     0.282 A 
HETATM   10  N6  UNL     1      65.217  30.060  12.063  1.00  0.00    -0.178 N 
HETATM   11  N1  UNL     1      64.757  33.660  12.550  1.00  0.00    -0.269 N 
HETATM   12  O1  UNL     1      64.170  32.004  13.985  1.00  0.00    -0.265 OA
HETATM   13  C1  UNL     1      64.237  34.628  13.504  1.00  0.00     0.164 C 
HETATM   14  C16 UNL     1      65.302  34.032  11.368  1.00  0.00     0.332 A 
HETATM   15  O5  UNL     1      65.359  35.271  11.090  1.00  0.00    -0.246 OA
HETATM   16  C14 UNL     1      64.717  29.314  13.197  1.00  0.00     0.176 C 
HETATM   17  C15 UNL     1      66.370  33.506   9.217  1.00  0.00     0.163 C 
ENDBRANCH   1   3
BRANCH   1  18
HETATM   18  C6  UNL     1      67.350  27.961  10.546  1.00  0.00     0.079 A 
HETATM   19  C7  UNL     1      68.191  28.303   9.508  1.00  0.00     0.054 A 
HETATM   20  C8  UNL     1      69.481  27.815   9.496  1.00  0.00     0.084 A 
HETATM   21  C10 UNL     1      69.914  27.003  10.505  1.00  0.00     0.162 A 
HETATM   22  F1  UNL     1      71.196  26.548  10.447  1.00  0.00    -0.203 F 
HETATM   23  C11 UNL     1      69.100  26.634  11.569  1.00  0.00     0.105 A 
HETATM   24  N4  UNL     1      69.287  25.865  12.657  1.00  0.00    -0.304 N 
HETATM   25  C13 UNL     1      67.797  27.138  11.564  1.00  0.00     0.094 A 
HETATM   26  C12 UNL     1      68.129  25.873  13.340  1.00  0.00     0.325 A 
ATOM     27  H4  UNL     1      70.142  25.372  12.915  1.00  0.00     0.171 HD
HETATM   28  O4  UNL     1      67.891  25.273  14.420  1.00  0.00    -0.247 OA
HETATM   29  N5  UNL     1      67.234  26.639  12.683  1.00  0.00    -0.304 N 
ATOM     30  H5  UNL     1      66.275  26.813  12.985  1.00  0.00     0.171 HD
BRANCH  20  31
HETATM   31  C9  UNL     1      70.384  28.171   8.398  1.00  0.00     0.212 C 
HETATM   32  O2  UNL     1      69.918  28.459   7.269  1.00  0.00    -0.644 OA
HETATM   33  O3  UNL     1      71.751  28.195   8.585  1.00  0.00    -0.644 OA
ENDBRANCH  20  31
ENDBRANCH   1  18
TORSDOF 3
ENDMDL
MODEL 2
REMARK VINA RESULT: -10.515066374      1.537      3.972
REMARK  3 active torsions:
REMARK  status: ('A' for Active; 'I' for Inactive)
REMARK    1  A    between atoms: C5_9  and  N3_10 
REMARK    2  A    between atoms: N3_10  and  C6_12 
REMARK    3  A    between atoms: C8_14  and  C9_15 
ROOT
HETATM    1  N3  UNL     1      66.200  29.341   9.774  1.00  0.00    -0.189 N 
ATOM      2  H3  UNL     1      65.869  29.133   8.832  1.00  0.00     0.184 HD
ENDROOT
BRANCH   1   3
HETATM    3  C5  UNL     1      65.809  30.400  10.374  1.00  0.00     0.687 A 
HETATM    4  N2  UNL     1      65.023  30.426  11.459  1.00  0.00    -0.173 N 
HETATM    5  C4  UNL     1      64.809  31.724  11.828  1.00  0.00     0.160 A 
ATOM      6  H2  UNL     1      64.645  29.607  11.935  1.00  0.00     0.186 HD
HETATM    7  C3  UNL     1      65.514  32.474  10.898  1.00  0.00     0.164 A 
HETATM    8  N7  UNL     1      64.112  32.302  12.823  1.00  0.00    -0.287 N 
HETATM    9  C2  UNL     1      65.485  33.851  11.014  1.00  0.00     0.282 A 
HETATM   10  N6  UNL     1      66.119  31.646  10.014  1.00  0.00    -0.178 N 
HETATM   11  N1  UNL     1      64.783  34.406  12.015  1.00  0.00    -0.269 N 
HETATM   12  O1  UNL     1      66.114  34.568  10.186  1.00  0.00    -0.265 OA
HETATM   13  C1  UNL     1      64.778  35.858  12.103  1.00  0.00     0.164 C 
HETATM   14  C16 UNL     1      64.112  33.627  12.897  1.00  0.00     0.332 A 
HETATM   15  O5  UNL     1      63.459  34.192  13.829  1.00  0.00    -0.246 OA
HETATM   16  C14 UNL     1      66.930  32.139   8.924  1.00  0.00     0.176 C 
HETATM   17  C15 UNL     1      63.409  31.429  13.744  1.00  0.00     0.163 C 
ENDBRANCH   1   3
BRANCH   1  18
HETATM   18  C6  UNL     1      67.099  28.459  10.428  1.00  0.00     0.079 A 
HETATM   19  C7  UNL     1      66.783  27.828  11.613  1.00  0.00     0.054 A 
HETATM   20  C8  UNL     1      67.705  26.983  12.195  1.00  0.00     0.084 A 
HETATM   21  C10 UNL     1      68.916  26.778  11.597  1.00  0.00     0.162 A 
HETATM   22  F1  UNL     1      69.791  25.935  12.211  1.00  0.00    -0.203 F 
HETATM   23  C11 UNL     1      69.275  27.394  10.404  1.00  0.00     0.105 A 
HETATM   24  N4  UNL     1      70.379  27.355   9.636  1.00  0.00    -0.304 N 
HETATM   25  C13 UNL     1      68.328  28.246   9.830  1.00  0.00     0.094 A 
HETATM   26  C12 UNL     1      70.149  28.166   8.588  1.00  0.00     0.325 A 
ATOM     27  H4  UNL     1      71.226  26.815   9.814  1.00  0.00     0.171 HD
HETATM   28  O4  UNL     1      70.939  28.405   7.638  1.00  0.00    -0.247 OA
HETATM   29  N5  UNL     1      68.916  28.701   8.705  1.00  0.00    -0.304 N 
ATOM     30  H5  UNL     1      68.493  29.351   8.043  1.00  0.00     0.171 HD
BRANCH  20  31
HETATM   31  C9  UNL     1      67.380  26.308  13.453  1.00  0.00     0.212 C 
HETATM   32  O2  UNL     1      66.261  26.483  13.991  1.00  0.00    -0.644 OA
HETATM   33  O3  UNL     1      68.294  25.475  14.065  1.00  0.00    -0.644 OA
ENDBRANCH  20  31
ENDBRANCH   1  18
TORSDOF 3
ENDMDL
MODEL 3
REMARK VINA RESULT: -10.420165750      1.214      2.342
REMARK  3 active torsions:
REMARK  status: ('A' for Active; 'I' for Inactive)
REMARK    1  A    between atoms: C5_9  and  N3_10 
REMARK    2  A    between atoms: N3_10  and  C6_12 
REMARK    3  A    between atoms: C8_14  and  C9_15 
ROOT
HETATM    1  N3  UNL     1      65.976  29.319   9.459  1.00  0.00    -0.189 N 
ATOM      2  H3  UNL     1      65.313  28.933   8.787  1.00  0.00     0.184 HD
ENDROOT
BRANCH   1   3
HETATM    3  C5  UNL     1      65.695  30.388  10.100  1.00  0.00     0.687 A 
HETATM    4  N2  UNL     1      64.977  30.443  11.231  1.00  0.00    -0.173 N 
HETATM    5  C4  UNL     1      64.875  31.744  11.635  1.00  0.00     0.160 A 
ATOM      6  H2  UNL     1      64.572  29.641  11.713  1.00  0.00     0.186 HD
HETATM    7  C3  UNL     1      65.574  32.465  10.678  1.00  0.00     0.164 A 
HETATM    8  N7  UNL     1      64.278  32.346  12.680  1.00  0.00    -0.287 N 
HETATM    9  C2  UNL     1      65.647  33.838  10.821  1.00  0.00     0.282 A 
HETATM   10  N6  UNL     1      66.069  31.617   9.745  1.00  0.00    -0.178 N 
HETATM   11  N1  UNL     1      65.045  34.417  11.871  1.00  0.00    -0.269 N 
HETATM   12  O1  UNL     1      66.275  34.529   9.969  1.00  0.00    -0.265 OA
HETATM   13  C1  UNL     1      65.145  35.864  11.985  1.00  0.00     0.164 C 
HETATM   14  C16 UNL     1      64.374  33.666  12.777  1.00  0.00     0.332 A 
HETATM   15  O5  UNL     1      63.817  34.253  13.757  1.00  0.00    -0.246 OA
HETATM   16  C14 UNL     1      66.847  32.079   8.617  1.00  0.00     0.176 C 
HETATM   17  C15 UNL     1      63.572  31.502  13.626  1.00  0.00     0.163 C 
ENDBRANCH   1   3
BRANCH   1  18
HETATM   18  C6  UNL     1      67.219  28.673   9.689  1.00  0.00     0.079 A 
HETATM   19  C7  UNL     1      68.283  28.787   8.819  1.00  0.00     0.054 A 
HETATM   20  C8  UNL     1      69.462  28.132   9.105  1.00  0.00     0.084 A 
HETATM   21  C10 UNL     1      69.569  27.381  10.242  1.00  0.00     0.162 A 
HETATM   22  F1  UNL     1      70.754  26.756  10.480  1.00  0.00    -0.203 F 
HETATM   23  C11 UNL     1      68.522  27.241  11.146  1.00  0.00     0.105 A 
HETATM   24  N4  UNL     1      68.383  26.575  12.306  1.00  0.00    -0.304 N 
HETATM   25  C13 UNL     1      67.336  27.911  10.838  1.00  0.00     0.094 A 
HETATM   26  C12 UNL     1      67.132  26.811  12.739  1.00  0.00     0.325 A 
ATOM     27  H4  UNL     1      69.089  26.002  12.769  1.00  0.00     0.171 HD
HETATM   28  O4  UNL     1      66.606  26.367  13.792  1.00  0.00    -0.247 OA
HETATM   29  N5  UNL     1      66.503  27.614  11.856  1.00  0.00    -0.304 N 
ATOM     30  H5  UNL     1      65.543  27.947  11.945  1.00  0.00     0.171 HD
BRANCH  20  31
HETATM   31  C9  UNL     1      70.599  28.244   8.187  1.00  0.00     0.212 C 
HETATM   32  O2  UNL     1      70.402  28.394   6.958  1.00  0.00    -0.644 OA
HETATM   33  O3  UNL     1      71.895  28.187   8.657  1.00  0.00    -0.644 OA
ENDBRANCH  20  31
ENDBRANCH   1  18
TORSDOF 3
ENDMDL
MODEL 4
REMARK VINA RESULT: -10.025782788      1.008      1.092
REMARK  3 active torsions:
REMARK  status: ('A' for Active; 'I' for Inactive)
REMARK    1  A    between atoms: C5_9  and  N3_10 
REMARK    2  A    between atoms: N3_10  and  C6_12 
REMARK    3  A    between atoms: C8_14  and  C9_15 
ROOT
HETATM    1  N3  UNL     1      65.394  28.916  11.614  1.00  0.00    -0.189 N 
ATOM      2  H3  UNL     1      64.675  28.270  11.938  1.00  0.00     0.184 HD
ENDROOT
BRANCH   1   3
HETATM    3  C5  UNL     1      65.172  30.175  11.602  1.00  0.00     0.687 A 
HETATM    4  N2  UNL     1      65.652  31.035  10.693  1.00  0.00    -0.173 N 
HETATM    5  C4  UNL     1      65.215  32.294  10.991  1.00  0.00     0.160 A 
ATOM      6  H2  UNL     1      66.250  30.788   9.905  1.00  0.00     0.186 HD
HETATM    7  C3  UNL     1      64.443  32.136  12.134  1.00  0.00     0.164 A 
HETATM    8  N7  UNL     1      65.396  33.498  10.419  1.00  0.00    -0.287 N 
HETATM    9  C2  UNL     1      63.854  33.260  12.682  1.00  0.00     0.282 A 
HETATM   10  N6  UNL     1      64.429  30.831  12.494  1.00  0.00    -0.178 N 
HETATM   11  N1  UNL     1      64.049  34.451  12.094  1.00  0.00    -0.269 N 
HETATM   12  O1  UNL     1      63.144  33.157  13.722  1.00  0.00    -0.265 OA
HETATM   13  C1  UNL     1      63.411  35.608  12.703  1.00  0.00     0.164 C 
HETATM   14  C16 UNL     1      64.812  34.549  10.980  1.00  0.00     0.332 A 
HETATM   15  O5  UNL     1      64.971  35.696  10.454  1.00  0.00    -0.246 OA
HETATM   16  C14 UNL     1      63.704  30.357  13.651  1.00  0.00     0.176 C 
HETATM   17  C15 UNL     1      66.220  33.556   9.226  1.00  0.00     0.163 C 
ENDBRANCH   1   3
BRANCH   1  18
HETATM   18  C6  UNL     1      66.651  28.424  11.172  1.00  0.00     0.079 A 
HETATM   19  C7  UNL     1      67.245  28.859  10.006  1.00  0.00     0.054 A 
HETATM   20  C8  UNL     1      68.467  28.338   9.637  1.00  0.00     0.084 A 
HETATM   21  C10 UNL     1      69.077  27.403  10.423  1.00  0.00     0.162 A 
HETATM   22  F1  UNL     1      70.284  26.921  10.015  1.00  0.00    -0.203 F 
HETATM   23  C11 UNL     1      68.515  26.938  11.606  1.00  0.00     0.105 A 
HETATM   24  N4  UNL     1      68.907  26.045  12.532  1.00  0.00    -0.304 N 
HETATM   25  C13 UNL     1      67.276  27.477  11.963  1.00  0.00     0.094 A 
HETATM   26  C12 UNL     1      67.942  26.007  13.467  1.00  0.00     0.325 A 
ATOM     27  H4  UNL     1      69.770  25.500  12.525  1.00  0.00     0.171 HD
HETATM   28  O4  UNL     1      67.930  25.294  14.503  1.00  0.00    -0.247 OA
HETATM   29  N5  UNL     1      66.962  26.869  13.125  1.00  0.00    -0.304 N 
ATOM     30  H5  UNL     1      66.112  27.035  13.663  1.00  0.00     0.171 HD
BRANCH  20  31
HETATM   31  C9  UNL     1      69.107  28.792   8.399  1.00  0.00     0.212 C 
HETATM   32  O2  UNL     1      68.796  29.899   7.899  1.00  0.00    -0.644 OA
HETATM   33  O3  UNL     1      70.056  28.014   7.767  1.00  0.00    -0.644 OA
ENDBRANCH  20  31
ENDBRANCH   1  18
TORSDOF 3
ENDMDL
MODEL 5
REMARK VINA RESULT: -9.854846854      1.377      3.379
REMARK  3 active torsions:
REMARK  status: ('A' for Active; 'I' for Inactive)
REMARK    1  A    between atoms: C5_9  and  N3_10 
REMARK    2  A    between atoms: N3_10  and  C6_12 
REMARK    3  A    between atoms: C8_14  and  C9_15 
ROOT
HETATM    1  N3  UNL     1      65.918  29.237   9.808  1.00  0.00    -0.189 N 
ATOM      2  H3  UNL     1      65.369  28.907   9.015  1.00  0.00     0.184 HD
ENDROOT
BRANCH   1   3
HETATM    3  C5  UNL     1      65.662  30.371  10.342  1.00  0.00     0.687 A 
HETATM    4  N2  UNL     1      66.056  31.558   9.860  1.00  0.00    -0.173 N 
HETATM    5  C4  UNL     1      65.605  32.549  10.684  1.00  0.00     0.160 A 
ATOM      6  H2  UNL     1      66.605  31.698   9.012  1.00  0.00     0.186 HD
HETATM    7  C3  UNL     1      64.916  31.885  11.688  1.00  0.00     0.164 A 
HETATM    8  N7  UNL     1      65.714  33.890  10.666  1.00  0.00    -0.287 N 
HETATM    9  C2  UNL     1      64.336  32.640  12.689  1.00  0.00     0.282 A 
HETATM   10  N6  UNL     1      64.963  30.551  11.462  1.00  0.00    -0.178 N 
HETATM   11  N1  UNL     1      64.458  33.977  12.652  1.00  0.00    -0.269 N 
HETATM   12  O1  UNL     1      63.700  32.071  13.622  1.00  0.00    -0.265 OA
HETATM   13  C1  UNL     1      63.831  34.735  13.724  1.00  0.00     0.164 C 
HETATM   14  C16 UNL     1      65.141  34.575  11.647  1.00  0.00     0.332 A 
HETATM   15  O5  UNL     1      65.233  35.843  11.649  1.00  0.00    -0.246 OA
HETATM   16  C14 UNL     1      64.331  29.595  12.344  1.00  0.00     0.176 C 
HETATM   17  C15 UNL     1      66.455  34.488   9.571  1.00  0.00     0.163 C 
ENDBRANCH   1   3
BRANCH   1  18
HETATM   18  C6  UNL     1      66.974  28.444  10.328  1.00  0.00     0.079 A 
HETATM   19  C7  UNL     1      66.863  27.757  11.519  1.00  0.00     0.054 A 
HETATM   20  C8  UNL     1      67.929  27.005  11.966  1.00  0.00     0.084 A 
HETATM   21  C10 UNL     1      69.079  26.944  11.230  1.00  0.00     0.162 A 
HETATM   22  F1  UNL     1      70.102  26.187  11.714  1.00  0.00    -0.203 F 
HETATM   23  C11 UNL     1      69.232  27.619  10.025  1.00  0.00     0.105 A 
HETATM   24  N4  UNL     1      70.238  27.716   9.138  1.00  0.00    -0.304 N 
HETATM   25  C13 UNL     1      68.142  28.377   9.589  1.00  0.00     0.094 A 
HETATM   26  C12 UNL     1      69.807  28.519   8.150  1.00  0.00     0.325 A 
ATOM     27  H4  UNL     1      71.152  27.267   9.202  1.00  0.00     0.171 HD
HETATM   28  O4  UNL     1      70.453  28.862   7.126  1.00  0.00    -0.247 OA
HETATM   29  N5  UNL     1      68.546  28.916   8.422  1.00  0.00    -0.304 N 
ATOM     30  H5  UNL     1      67.984  29.531   7.833  1.00  0.00     0.171 HD
BRANCH  20  31
HETATM   31  C9  UNL     1      67.824  26.272  13.230  1.00  0.00     0.212 C 
HETATM   32  O2  UNL     1      68.732  25.480  13.576  1.00  0.00    -0.644 OA
HETATM   33  O3  UNL     1      66.730  26.438  14.054  1.00  0.00    -0.644 OA
ENDBRANCH  20  31
ENDBRANCH   1  18
TORSDOF 3
ENDMDL
