MODEL 1
REMARK VINA RESULT: -9.479060786      0.000      0.000
REMARK  5 active torsions:
REMARK  status: ('A' for Active; 'I' for Inactive)
REMARK       I    between atoms: N2_3  and  C2_5 
REMARK       I    between atoms: C2_5  and  N3_6 
REMARK       I    between atoms: C2_5  and  N12_32 
REMARK    1  A    between atoms: N3_6  and  C3_8 
REMARK    2  A    between atoms: C4_13  and  C5_14 
REMARK    3  A    between atoms: C6_16  and  N6_17 
REMARK    4  A    between atoms: N6_17  and  N7_19 
REMARK    5  A    between atoms: C7_21  and  N8_22 
ROOT
HETATM    1  N1  UNL     1      13.626   5.760  11.424  1.00  0.00    -0.171 NA
HETATM    2  C1  UNL     1      14.025   6.283  12.384  1.00  0.00     0.196 C 
HETATM    3  N2  UNL     1      14.525   6.906  13.533  1.00  0.00    -0.125 N 
ATOM      4  H2  UNL     1      14.464   6.437  14.437  1.00  0.00     0.197 HD
HETATM    5  C2  UNL     1      15.063   8.076  13.445  1.00  0.00     0.702 C 
HETATM    6  N3  UNL     1      15.157   8.733  12.213  1.00  0.00    -0.167 N 
ATOM      7  H3  UNL     1      16.039   8.728  11.701  1.00  0.00     0.186 HD
HETATM    8  N12 UNL     1      15.573   8.712  14.611  1.00  0.00    -0.125 N 
ATOM      9  H12 UNL     1      16.567   8.921  14.703  1.00  0.00     0.197 HD
HETATM   10  C10 UNL     1      14.670   9.043  15.631  1.00  0.00     0.196 C 
HETATM   11  N13 UNL     1      13.924   9.317  16.490  1.00  0.00    -0.171 NA
ENDROOT
BRANCH   6  12
HETATM   12  C3  UNL     1      14.116   9.357  11.711  1.00  0.00     0.180 A 
HETATM   13  N4  UNL     1      13.490   9.113  10.553  1.00  0.00    -0.278 N 
HETATM   14  N5  UNL     1      12.493   9.833  10.239  1.00  0.00    -0.289 N 
ATOM     15  H4  UNL     1      13.807   8.365   9.937  1.00  0.00     0.189 HD
HETATM   16  C4  UNL     1      12.088  10.802  11.044  1.00  0.00     0.130 A 
ATOM     17  H5  UNL     1      12.002   9.663   9.362  1.00  0.00     0.188 HD
HETATM   18  S1  UNL     1      13.209  10.665  12.325  1.00  0.00    -0.030 SA
BRANCH  16  19
HETATM   19  C5  UNL     1      10.960  11.715  10.827  1.00  0.00     0.153 A 
HETATM   20  O1  UNL     1      10.142  11.747   9.813  1.00  0.00    -0.272 OA
HETATM   21  C6  UNL     1       9.254  12.707   9.969  1.00  0.00     0.245 A 
HETATM   22  N11 UNL     1       9.526  13.314  11.144  1.00  0.00    -0.309 N 
HETATM   23  C9  UNL     1      10.580  12.716  11.692  1.00  0.00     0.143 A 
ATOM     24  H11 UNL     1       9.010  14.098  11.544  1.00  0.00     0.170 HD
HETATM   25 CL1  UNL     1      11.345  13.108  13.213  1.00  0.00    -0.061 Cl
BRANCH  21  26
HETATM   26  N6  UNL     1       8.292  13.057   9.201  1.00  0.00    -0.264 N 
ATOM     27  H6  UNL     1       7.486  13.509   9.633  1.00  0.00     0.190 HD
BRANCH  26  28
HETATM   28  N7  UNL     1       8.259  12.870   7.836  1.00  0.00    -0.293 N 
HETATM   29  C7  UNL     1       7.205  12.850   7.112  1.00  0.00     0.199 C 
ATOM     30  H7  UNL     1       9.152  12.737   7.362  1.00  0.00     0.187 HD
BRANCH  29  31
HETATM   31  N8  UNL     1       7.359  12.645   5.717  1.00  0.00    -0.328 N 
HETATM   32  C8  UNL     1       7.468  11.455   5.256  1.00  0.00     0.201 C 
HETATM   33  N9  UNL     1       7.623  11.188   3.880  1.00  0.00    -0.066 NA
HETATM   34  N10 UNL     1       7.433  10.362   6.160  1.00  0.00    -0.066 NA
ATOM     35  H8  UNL     1       7.382  13.444   5.083  1.00  0.00     0.168 HD
ENDBRANCH  29  31
ENDBRANCH  26  28
ENDBRANCH  21  26
ENDBRANCH  16  19
ENDBRANCH   6  12
TORSDOF 5
ENDMDL
MODEL 2
REMARK VINA RESULT: -8.903187843      2.351      4.124
REMARK  5 active torsions:
REMARK  status: ('A' for Active; 'I' for Inactive)
REMARK       I    between atoms: N2_3  and  C2_5 
REMARK       I    between atoms: C2_5  and  N3_6 
REMARK       I    between atoms: C2_5  and  N12_32 
REMARK    1  A    between atoms: N3_6  and  C3_8 
REMARK    2  A    between atoms: C4_13  and  C5_14 
REMARK    3  A    between atoms: C6_16  and  N6_17 
REMARK    4  A    between atoms: N6_17  and  N7_19 
REMARK    5  A    between atoms: C7_21  and  N8_22 
ROOT
HETATM    1  N1  UNL     1      17.719   6.073  12.462  1.00  0.00    -0.171 NA
HETATM    2  C1  UNL     1      16.858   5.500  11.930  1.00  0.00     0.196 C 
HETATM    3  N2  UNL     1      15.826   4.793  11.303  1.00  0.00    -0.125 N 
ATOM      4  H2  UNL     1      15.997   4.315  10.418  1.00  0.00     0.197 HD
HETATM    5  C2  UNL     1      14.657   4.748  11.848  1.00  0.00     0.702 C 
HETATM    6  N3  UNL     1      14.405   5.396  13.062  1.00  0.00    -0.167 N 
ATOM      7  H3  UNL     1      14.391   4.859  13.930  1.00  0.00     0.186 HD
HETATM    8  N12 UNL     1      13.605   4.030  11.213  1.00  0.00    -0.125 N 
ATOM      9  H12 UNL     1      13.184   3.214  11.657  1.00  0.00     0.197 HD
HETATM   10  C10 UNL     1      13.164   4.475   9.959  1.00  0.00     0.196 C 
HETATM   11  N13 UNL     1      12.795   4.835   8.909  1.00  0.00    -0.171 NA
ENDROOT
BRANCH   6  12
HETATM   12  C3  UNL     1      14.186   6.691  13.093  1.00  0.00     0.180 A 
HETATM   13  N4  UNL     1      14.827   7.616  13.816  1.00  0.00    -0.278 N 
HETATM   14  N5  UNL     1      14.466   8.828  13.708  1.00  0.00    -0.289 N 
ATOM     15  H4  UNL     1      15.590   7.354  14.440  1.00  0.00     0.189 HD
HETATM   16  C4  UNL     1      13.475   9.161  12.896  1.00  0.00     0.130 A 
ATOM     17  H5  UNL     1      14.942   9.549  14.249  1.00  0.00     0.188 HD
HETATM   18  S1  UNL     1      13.042   7.639  12.254  1.00  0.00    -0.030 SA
BRANCH  16  19
HETATM   19  C5  UNL     1      12.942  10.507  12.660  1.00  0.00     0.153 A 
HETATM   20  O1  UNL     1      12.421  10.979  11.562  1.00  0.00    -0.272 OA
HETATM   21  C6  UNL     1      12.052  12.232  11.731  1.00  0.00     0.245 A 
HETATM   22  N11 UNL     1      12.356  12.570  13.002  1.00  0.00    -0.309 N 
HETATM   23  C9  UNL     1      12.909  11.516  13.595  1.00  0.00     0.143 A 
ATOM     24  H11 UNL     1      12.190  13.479  13.433  1.00  0.00     0.170 HD
HETATM   25 CL1  UNL     1      13.487  11.413  15.242  1.00  0.00    -0.061 Cl
BRANCH  21  26
HETATM   26  N6  UNL     1      11.505  13.036  10.899  1.00  0.00    -0.264 N 
ATOM     27  H6  UNL     1      12.064  13.824  10.571  1.00  0.00     0.190 HD
BRANCH  26  28
HETATM   28  N7  UNL     1      10.222  12.922  10.411  1.00  0.00    -0.293 N 
HETATM   29  C7  UNL     1       9.870  13.087   9.193  1.00  0.00     0.199 C 
ATOM     30  H7  UNL     1       9.488  12.685  11.079  1.00  0.00     0.187 HD
BRANCH  29  31
HETATM   31  N8  UNL     1       8.498  12.929   8.868  1.00  0.00    -0.328 N 
HETATM   32  C8  UNL     1       8.045  11.769   8.566  1.00  0.00     0.201 C 
HETATM   33  N9  UNL     1       6.692  11.549   8.235  1.00  0.00    -0.066 NA
HETATM   34  N10 UNL     1       8.933  10.664   8.563  1.00  0.00    -0.066 NA
ATOM     35  H8  UNL     1       7.874  13.736   8.876  1.00  0.00     0.168 HD
ENDBRANCH  29  31
ENDBRANCH  26  28
ENDBRANCH  21  26
ENDBRANCH  16  19
ENDBRANCH   6  12
TORSDOF 5
ENDMDL
MODEL 3
REMARK VINA RESULT: -8.793035094      2.083      2.943
REMARK  5 active torsions:
REMARK  status: ('A' for Active; 'I' for Inactive)
REMARK       I    between atoms: N2_3  and  C2_5 
REMARK       I    between atoms: C2_5  and  N3_6 
REMARK       I    between atoms: C2_5  and  N12_32 
REMARK    1  A    between atoms: N3_6  and  C3_8 
REMARK    2  A    between atoms: C4_13  and  C5_14 
REMARK    3  A    between atoms: C6_16  and  N6_17 
REMARK    4  A    between atoms: N6_17  and  N7_19 
REMARK    5  A    between atoms: C7_21  and  N8_22 
ROOT
HETATM    1  N1  UNL     1      12.679   4.802  10.928  1.00  0.00    -0.171 NA
HETATM    2  C1  UNL     1      13.752   4.737  11.373  1.00  0.00     0.196 C 
HETATM    3  N2  UNL     1      15.050   4.650  11.889  1.00  0.00    -0.125 N 
ATOM      4  H2  UNL     1      15.309   3.871  12.495  1.00  0.00     0.197 HD
HETATM    5  C2  UNL     1      15.918   5.559  11.596  1.00  0.00     0.702 C 
HETATM    6  N3  UNL     1      15.581   6.634  10.766  1.00  0.00    -0.167 N 
ATOM      7  H3  UNL     1      15.856   6.620   9.783  1.00  0.00     0.186 HD
HETATM    8  N12 UNL     1      17.239   5.473  12.120  1.00  0.00    -0.125 N 
ATOM      9  H12 UNL     1      18.041   5.356  11.501  1.00  0.00     0.197 HD
HETATM   10  C10 UNL     1      17.405   5.555  13.509  1.00  0.00     0.196 C 
HETATM   11  N13 UNL     1      17.553   5.614  14.668  1.00  0.00    -0.171 NA
ENDROOT
BRANCH   6  12
HETATM   12  C3  UNL     1      14.915   7.660  11.242  1.00  0.00     0.180 A 
HETATM   13  N4  UNL     1      14.867   8.094  12.508  1.00  0.00    -0.278 N 
HETATM   14  N5  UNL     1      14.159   9.113  12.773  1.00  0.00    -0.289 N 
ATOM     15  H4  UNL     1      15.389   7.617  13.243  1.00  0.00     0.189 HD
HETATM   16  C4  UNL     1      13.484   9.726  11.814  1.00  0.00     0.130 A 
ATOM     17  H5  UNL     1      14.109   9.460  13.730  1.00  0.00     0.188 HD
HETATM   18  S1  UNL     1      13.896   8.779  10.454  1.00  0.00    -0.030 SA
BRANCH  16  19
HETATM   19  C5  UNL     1      12.626  10.908  11.956  1.00  0.00     0.153 A 
HETATM   20  O1  UNL     1      11.884  11.471  11.044  1.00  0.00    -0.272 OA
HETATM   21  C6  UNL     1      11.254  12.514  11.544  1.00  0.00     0.245 A 
HETATM   22  N11 UNL     1      11.616  12.615  12.840  1.00  0.00    -0.309 N 
HETATM   23  C9  UNL     1      12.466  11.630  13.117  1.00  0.00     0.143 A 
ATOM     24  H11 UNL     1      11.292  13.326  13.496  1.00  0.00     0.170 HD
HETATM   25 CL1  UNL     1      13.239  11.301  14.650  1.00  0.00    -0.061 Cl
BRANCH  21  26
HETATM   26  N6  UNL     1      10.441  13.321  10.974  1.00  0.00    -0.264 N 
ATOM     27  H6  UNL     1      10.233  14.196  11.455  1.00  0.00     0.190 HD
BRANCH  26  28
HETATM   28  N7  UNL     1       9.824  13.101   9.761  1.00  0.00    -0.293 N 
HETATM   29  C7  UNL     1       8.695  12.524   9.593  1.00  0.00     0.199 C 
ATOM     30  H7  UNL     1      10.309  13.427   8.926  1.00  0.00     0.187 HD
BRANCH  29  31
HETATM   31  N8  UNL     1       8.210  12.383   8.267  1.00  0.00    -0.328 N 
HETATM   32  C8  UNL     1       8.493  11.330   7.594  1.00  0.00     0.201 C 
HETATM   33  N9  UNL     1       8.041  11.134   6.273  1.00  0.00    -0.066 NA
HETATM   34  N10 UNL     1       9.290  10.324   8.196  1.00  0.00    -0.066 NA
ATOM     35  H8  UNL     1       7.638  13.118   7.851  1.00  0.00     0.168 HD
ENDBRANCH  29  31
ENDBRANCH  26  28
ENDBRANCH  21  26
ENDBRANCH  16  19
ENDBRANCH   6  12
TORSDOF 5
ENDMDL
MODEL 4
REMARK VINA RESULT: -8.726942137      4.171      8.083
REMARK  5 active torsions:
REMARK  status: ('A' for Active; 'I' for Inactive)
REMARK       I    between atoms: N2_3  and  C2_5 
REMARK       I    between atoms: C2_5  and  N3_6 
REMARK       I    between atoms: C2_5  and  N12_32 
REMARK    1  A    between atoms: N3_6  and  C3_8 
REMARK    2  A    between atoms: C4_13  and  C5_14 
REMARK    3  A    between atoms: C6_16  and  N6_17 
REMARK    4  A    between atoms: N6_17  and  N7_19 
REMARK    5  A    between atoms: C7_21  and  N8_22 
ROOT
HETATM    1  N1  UNL     1      10.431  13.194  12.649  1.00  0.00    -0.171 NA
HETATM    2  C1  UNL     1       9.786  13.189  11.681  1.00  0.00     0.196 C 
HETATM    3  N2  UNL     1       9.015  13.203  10.513  1.00  0.00    -0.125 N 
ATOM      4  H2  UNL     1       8.009  13.362  10.565  1.00  0.00     0.197 HD
HETATM    5  C2  UNL     1       9.583  13.015   9.369  1.00  0.00     0.702 C 
HETATM    6  N3  UNL     1      10.962  12.797   9.278  1.00  0.00    -0.167 N 
ATOM      7  H3  UNL     1      11.579  13.564   9.009  1.00  0.00     0.186 HD
HETATM    8  N12 UNL     1       8.802  13.029   8.179  1.00  0.00    -0.125 N 
ATOM      9  H12 UNL     1       8.952  13.740   7.462  1.00  0.00     0.197 HD
HETATM   10  C10 UNL     1       7.822  12.040   8.020  1.00  0.00     0.196 C 
HETATM   11  N13 UNL     1       6.996  11.223   7.882  1.00  0.00    -0.171 NA
ENDROOT
BRANCH   6  12
HETATM   12  C3  UNL     1      11.467  11.613   9.536  1.00  0.00     0.180 A 
HETATM   13  N4  UNL     1      12.196  11.243  10.596  1.00  0.00    -0.278 N 
HETATM   14  N5  UNL     1      12.597  10.041  10.667  1.00  0.00    -0.289 N 
ATOM     15  H4  UNL     1      12.424  11.912  11.331  1.00  0.00     0.189 HD
HETATM   16  C4  UNL     1      12.298   9.179   9.708  1.00  0.00     0.130 A 
ATOM     17  H5  UNL     1      13.154   9.739  11.466  1.00  0.00     0.188 HD
HETATM   18  S1  UNL     1      11.387  10.158   8.648  1.00  0.00    -0.030 SA
BRANCH  16  19
HETATM   19  C5  UNL     1      12.684   7.765   9.642  1.00  0.00     0.153 A 
HETATM   20  O1  UNL     1      11.961   6.758   9.237  1.00  0.00    -0.272 OA
HETATM   21  C6  UNL     1      12.648   5.637   9.321  1.00  0.00     0.245 A 
HETATM   22  N11 UNL     1      13.868   5.952   9.805  1.00  0.00    -0.309 N 
HETATM   23  C9  UNL     1      13.912   7.265  10.011  1.00  0.00     0.143 A 
ATOM     24  H11 UNL     1      14.628   5.294   9.981  1.00  0.00     0.170 HD
HETATM   25 CL1  UNL     1      15.258   8.194  10.629  1.00  0.00    -0.061 Cl
BRANCH  21  26
HETATM   26  N6  UNL     1      12.295   4.444   9.021  1.00  0.00    -0.264 N 
ATOM     27  H6  UNL     1      12.333   3.743   9.762  1.00  0.00     0.190 HD
BRANCH  26  28
HETATM   28  N7  UNL     1      11.867   4.032   7.778  1.00  0.00    -0.293 N 
HETATM   29  C7  UNL     1      12.624   3.713   6.797  1.00  0.00     0.199 C 
ATOM     30  H7  UNL     1      10.860   3.977   7.626  1.00  0.00     0.187 HD
BRANCH  29  31
HETATM   31  N8  UNL     1      12.008   3.310   5.585  1.00  0.00    -0.328 N 
HETATM   32  C8  UNL     1      11.498   2.139   5.489  1.00  0.00     0.201 C 
HETATM   33  N9  UNL     1      10.872   1.681   4.311  1.00  0.00    -0.066 NA
HETATM   34  N10 UNL     1      11.562   1.267   6.606  1.00  0.00    -0.066 NA
ATOM     35  H8  UNL     1      11.971   3.951   4.792  1.00  0.00     0.168 HD
ENDBRANCH  29  31
ENDBRANCH  26  28
ENDBRANCH  21  26
ENDBRANCH  16  19
ENDBRANCH   6  12
TORSDOF 5
ENDMDL
MODEL 5
REMARK VINA RESULT: -8.703962532      2.715      9.551
REMARK  5 active torsions:
REMARK  status: ('A' for Active; 'I' for Inactive)
REMARK       I    between atoms: N2_3  and  C2_5 
REMARK       I    between atoms: C2_5  and  N3_6 
REMARK       I    between atoms: C2_5  and  N12_32 
REMARK    1  A    between atoms: N3_6  and  C3_8 
REMARK    2  A    between atoms: C4_13  and  C5_14 
REMARK    3  A    between atoms: C6_16  and  N6_17 
REMARK    4  A    between atoms: N6_17  and  N7_19 
REMARK    5  A    between atoms: C7_21  and  N8_22 
ROOT
HETATM    1  N1  UNL     1      10.080  13.366  12.503  1.00  0.00    -0.171 NA
HETATM    2  C1  UNL     1       9.570  13.302  11.459  1.00  0.00     0.196 C 
HETATM    3  N2  UNL     1       8.963  13.245  10.200  1.00  0.00    -0.125 N 
ATOM      4  H2  UNL     1       7.951  13.349  10.115  1.00  0.00     0.197 HD
HETATM    5  C2  UNL     1       9.686  13.061   9.147  1.00  0.00     0.702 C 
HETATM    6  N3  UNL     1      11.074  12.917   9.245  1.00  0.00    -0.167 N 
ATOM      7  H3  UNL     1      11.682  13.710   9.036  1.00  0.00     0.186 HD
HETATM    8  N12 UNL     1       9.071  13.002   7.865  1.00  0.00    -0.125 N 
ATOM      9  H12 UNL     1       9.278  13.702   7.152  1.00  0.00     0.197 HD
HETATM   10  C10 UNL     1       8.173  11.957   7.610  1.00  0.00     0.196 C 
HETATM   11  N13 UNL     1       7.416  11.092   7.391  1.00  0.00    -0.171 NA
ENDROOT
BRANCH   6  12
HETATM   12  C3  UNL     1      11.602  11.770   9.605  1.00  0.00     0.180 A 
HETATM   13  N4  UNL     1      11.680  10.641   8.890  1.00  0.00    -0.278 N 
HETATM   14  N5  UNL     1      12.232   9.626   9.417  1.00  0.00    -0.289 N 
ATOM     15  H4  UNL     1      11.306  10.596   7.943  1.00  0.00     0.189 HD
HETATM   16  C4  UNL     1      12.715   9.692  10.647  1.00  0.00     0.130 A 
ATOM     17  H5  UNL     1      12.302   8.757   8.890  1.00  0.00     0.188 HD
HETATM   18  S1  UNL     1      12.353  11.308  11.065  1.00  0.00    -0.030 SA
BRANCH  16  19
HETATM   19  C5  UNL     1      13.377   8.616  11.393  1.00  0.00     0.153 A 
HETATM   20  O1  UNL     1      13.085   7.345  11.390  1.00  0.00    -0.272 OA
HETATM   21  C6  UNL     1      13.902   6.685  12.186  1.00  0.00     0.245 A 
HETATM   22  N11 UNL     1      14.754   7.585  12.719  1.00  0.00    -0.309 N 
HETATM   23  C9  UNL     1      14.447   8.788  12.242  1.00  0.00     0.143 A 
ATOM     24  H11 UNL     1      15.507   7.378  13.376  1.00  0.00     0.170 HD
HETATM   25 CL1  UNL     1      15.236  10.304  12.609  1.00  0.00    -0.061 Cl
BRANCH  21  26
HETATM   26  N6  UNL     1      13.941   5.434  12.451  1.00  0.00    -0.264 N 
ATOM     27  H6  UNL     1      13.393   4.810  11.858  1.00  0.00     0.190 HD
BRANCH  26  28
HETATM   28  N7  UNL     1      14.665   4.862  13.475  1.00  0.00    -0.293 N 
HETATM   29  C7  UNL     1      14.932   3.617  13.594  1.00  0.00     0.199 C 
ATOM     30  H7  UNL     1      15.019   5.486  14.200  1.00  0.00     0.187 HD
BRANCH  29  31
HETATM   31  N8  UNL     1      15.694   3.204  14.717  1.00  0.00    -0.328 N 
HETATM   32  C8  UNL     1      16.973   3.196  14.650  1.00  0.00     0.201 C 
HETATM   33  N9  UNL     1      17.784   2.796  15.732  1.00  0.00    -0.066 NA
HETATM   34  N10 UNL     1      17.601   3.603  13.446  1.00  0.00    -0.066 NA
ATOM     35  H8  UNL     1      15.224   2.914  15.575  1.00  0.00     0.168 HD
ENDBRANCH  29  31
ENDBRANCH  26  28
ENDBRANCH  21  26
ENDBRANCH  16  19
ENDBRANCH   6  12
TORSDOF 5
ENDMDL
