MODEL 1
REMARK VINA RESULT: -6.458209488      0.000      0.000
REMARK  9 active torsions:
REMARK  status: ('A' for Active; 'I' for Inactive)
REMARK    1  A    between atoms: O1_2  and  C2_3 
REMARK    2  A    between atoms: C2_3  and  C3_4 
REMARK    3  A    between atoms: C3_4  and  C4_5 
REMARK    4  A    between atoms: C4_5  and  C5_6 
REMARK    5  A    between atoms: C5_6  and  O2_7 
REMARK    6  A    between atoms: C6_9  and  O3_10 
REMARK    7  A    between atoms: O3_10  and  C7_11 
REMARK    8  A    between atoms: C13_17  and  O4_18 
REMARK    9  A    between atoms: C14_20  and  O5_21 
ROOT
HETATM    1  C3  UNL     1      -3.743   1.160  11.337  1.00  0.00     0.038 C 
HETATM    2  C6  UNL     1      -4.361   0.831  12.666  1.00  0.00     0.137 C 
HETATM    3  C12 UNL     1      -4.019  -0.620  12.928  1.00  0.00     0.067 C 
HETATM    4  C13 UNL     1      -4.116  -1.236  11.575  1.00  0.00     0.150 C 
HETATM    5  C14 UNL     1      -4.160  -0.112  10.565  1.00  0.00     0.160 C 
ENDROOT
BRANCH   1   6
HETATM    6  C2  UNL     1      -2.286   1.300  11.314  1.00  0.00     0.181 C 
BRANCH   6   7
HETATM    7  O1  UNL     1      -1.745   1.788  10.130  1.00  0.00    -0.395 OA
HETATM    8  C1  UNL     1      -0.623   2.576  10.375  1.00  0.00     0.201 C 
ENDBRANCH   6   7
ENDBRANCH   1   6
BRANCH   1   9
HETATM    9  C4  UNL     1      -4.410   2.366  10.797  1.00  0.00     0.043 C 
BRANCH   9  10
HETATM   10  C5  UNL     1      -4.000   3.702  11.274  1.00  0.00     0.165 C 
BRANCH  10  11
HETATM   11  O2  UNL     1      -4.802   4.323  12.203  1.00  0.00    -0.401 OA
ATOM     12  H2  UNL     1      -5.159   5.174  11.977  1.00  0.00     0.209 HD
ENDBRANCH  10  11
ENDBRANCH   9  10
ENDBRANCH   1   9
BRANCH   2  13
HETATM   13  O3  UNL     1      -4.072   1.662  13.699  1.00  0.00    -0.380 OA
BRANCH  13  14
HETATM   14  C7  UNL     1      -5.030   1.569  14.690  1.00  0.00     0.122 C 
HETATM   15  C8  UNL     1      -4.352   1.134  15.996  1.00  0.00     0.032 C 
HETATM   16  C9  UNL     1      -5.198   1.713  17.106  1.00  0.00     0.002 C 
HETATM   17  C10 UNL     1      -6.330   2.453  16.431  1.00  0.00     0.002 C 
HETATM   18  C11 UNL     1      -5.661   2.850  15.107  1.00  0.00     0.032 C 
ENDBRANCH  13  14
ENDBRANCH   2  13
BRANCH   5  19
HETATM   19  O5  UNL     1      -3.272  -0.353   9.531  1.00  0.00    -0.392 OA
ATOM     20  H5  UNL     1      -3.675  -0.140   8.698  1.00  0.00     0.210 HD
ENDBRANCH   5  19
BRANCH   4  21
HETATM   21  O4  UNL     1      -3.108  -2.159  11.301  1.00  0.00    -0.393 OA
ATOM     22  H4  UNL     1      -2.839  -2.177  10.391  1.00  0.00     0.210 HD
ENDBRANCH   4  21
TORSDOF 9
ENDMDL
MODEL 2
REMARK VINA RESULT: -6.145478747      0.953      1.139
REMARK  9 active torsions:
REMARK  status: ('A' for Active; 'I' for Inactive)
REMARK    1  A    between atoms: O1_2  and  C2_3 
REMARK    2  A    between atoms: C2_3  and  C3_4 
REMARK    3  A    between atoms: C3_4  and  C4_5 
REMARK    4  A    between atoms: C4_5  and  C5_6 
REMARK    5  A    between atoms: C5_6  and  O2_7 
REMARK    6  A    between atoms: C6_9  and  O3_10 
REMARK    7  A    between atoms: O3_10  and  C7_11 
REMARK    8  A    between atoms: C13_17  and  O4_18 
REMARK    9  A    between atoms: C14_20  and  O5_21 
ROOT
HETATM    1  C3  UNL     1      -3.778   1.173  11.300  1.00  0.00     0.038 C 
HETATM    2  C6  UNL     1      -4.344   0.942  12.673  1.00  0.00     0.137 C 
HETATM    3  C12 UNL     1      -3.992  -0.487  13.024  1.00  0.00     0.067 C 
HETATM    4  C13 UNL     1      -4.142  -1.199  11.723  1.00  0.00     0.150 C 
HETATM    5  C14 UNL     1      -4.226  -0.149  10.639  1.00  0.00     0.160 C 
ENDROOT
BRANCH   1   6
HETATM    6  C2  UNL     1      -2.323   1.307  11.211  1.00  0.00     0.181 C 
BRANCH   6   7
HETATM    7  O1  UNL     1      -1.829   1.714   9.977  1.00  0.00    -0.395 OA
HETATM    8  C1  UNL     1      -0.633   2.414  10.119  1.00  0.00     0.201 C 
ENDBRANCH   6   7
ENDBRANCH   1   6
BRANCH   1   9
HETATM    9  C4  UNL     1      -4.465   2.339  10.702  1.00  0.00     0.043 C 
BRANCH   9  10
HETATM   10  C5  UNL     1      -3.804   3.660  10.712  1.00  0.00     0.165 C 
BRANCH  10  11
HETATM   11  O2  UNL     1      -3.593   4.277   9.501  1.00  0.00    -0.401 OA
ATOM     12  H2  UNL     1      -4.312   4.286   8.880  1.00  0.00     0.209 HD
ENDBRANCH  10  11
ENDBRANCH   9  10
ENDBRANCH   1   9
BRANCH   2  13
HETATM   13  O3  UNL     1      -4.014   1.844  13.631  1.00  0.00    -0.380 OA
BRANCH  13  14
HETATM   14  C7  UNL     1      -5.130   2.529  14.069  1.00  0.00     0.122 C 
HETATM   15  C8  UNL     1      -5.524   2.004  15.456  1.00  0.00     0.032 C 
HETATM   16  C9  UNL     1      -6.204   3.161  16.152  1.00  0.00     0.002 C 
HETATM   17  C10 UNL     1      -6.195   4.308  15.167  1.00  0.00     0.002 C 
HETATM   18  C11 UNL     1      -4.935   3.976  14.355  1.00  0.00     0.032 C 
ENDBRANCH  13  14
ENDBRANCH   2  13
BRANCH   5  19
HETATM   19  O5  UNL     1      -3.378  -0.467   9.590  1.00  0.00    -0.392 OA
ATOM     20  H5  UNL     1      -2.478  -0.485   9.893  1.00  0.00     0.210 HD
ENDBRANCH   5  19
BRANCH   4  21
HETATM   21  O4  UNL     1      -3.146  -2.142  11.478  1.00  0.00    -0.393 OA
ATOM     22  H4  UNL     1      -3.392  -2.805  10.843  1.00  0.00     0.210 HD
ENDBRANCH   4  21
TORSDOF 9
ENDMDL
MODEL 3
REMARK VINA RESULT: -6.090905505      1.496      2.080
REMARK  9 active torsions:
REMARK  status: ('A' for Active; 'I' for Inactive)
REMARK    1  A    between atoms: O1_2  and  C2_3 
REMARK    2  A    between atoms: C2_3  and  C3_4 
REMARK    3  A    between atoms: C3_4  and  C4_5 
REMARK    4  A    between atoms: C4_5  and  C5_6 
REMARK    5  A    between atoms: C5_6  and  O2_7 
REMARK    6  A    between atoms: C6_9  and  O3_10 
REMARK    7  A    between atoms: O3_10  and  C7_11 
REMARK    8  A    between atoms: C13_17  and  O4_18 
REMARK    9  A    between atoms: C14_20  and  O5_21 
ROOT
HETATM    1  C3  UNL     1      -4.032   3.119  12.292  1.00  0.00     0.038 C 
HETATM    2  C6  UNL     1      -4.613   2.044  13.165  1.00  0.00     0.137 C 
HETATM    3  C12 UNL     1      -4.444   0.753  12.393  1.00  0.00     0.067 C 
HETATM    4  C13 UNL     1      -4.691   1.171  10.984  1.00  0.00     0.150 C 
HETATM    5  C14 UNL     1      -4.648   2.682  10.944  1.00  0.00     0.160 C 
ENDROOT
BRANCH   1   6
HETATM    6  C2  UNL     1      -2.573   3.151  12.185  1.00  0.00     0.181 C 
BRANCH   6   7
HETATM    7  O1  UNL     1      -1.967   1.951  11.829  1.00  0.00    -0.395 OA
HETATM    8  C1  UNL     1      -0.789   2.172  11.119  1.00  0.00     0.201 C 
ENDBRANCH   6   7
ENDBRANCH   1   6
BRANCH   1   9
HETATM    9  C4  UNL     1      -4.570   4.424  12.737  1.00  0.00     0.043 C 
BRANCH   9  10
HETATM   10  C5  UNL     1      -3.731   5.315  13.564  1.00  0.00     0.165 C 
BRANCH  10  11
HETATM   11  O2  UNL     1      -3.594   5.006  14.897  1.00  0.00    -0.401 OA
ATOM     12  H2  UNL     1      -2.712   4.903  15.236  1.00  0.00     0.209 HD
ENDBRANCH  10  11
ENDBRANCH   9  10
ENDBRANCH   1   9
BRANCH   2  13
HETATM   13  O3  UNL     1      -4.166   1.985  14.445  1.00  0.00    -0.380 OA
BRANCH  13  14
HETATM   14  C7  UNL     1      -5.183   1.626  15.307  1.00  0.00     0.122 C 
HETATM   15  C8  UNL     1      -4.571   1.203  16.649  1.00  0.00     0.032 C 
HETATM   16  C9  UNL     1      -5.621   1.512  17.692  1.00  0.00     0.002 C 
HETATM   17  C10 UNL     1      -6.800   2.092  16.943  1.00  0.00     0.002 C 
HETATM   18  C11 UNL     1      -6.089   2.726  15.739  1.00  0.00     0.032 C 
ENDBRANCH  13  14
ENDBRANCH   2  13
BRANCH   5  19
HETATM   19  O5  UNL     1      -3.855   3.116   9.895  1.00  0.00    -0.392 OA
ATOM     20  H5  UNL     1      -4.226   2.835   9.068  1.00  0.00     0.210 HD
ENDBRANCH   5  19
BRANCH   4  21
HETATM   21  O4  UNL     1      -3.825   0.588  10.062  1.00  0.00    -0.393 OA
ATOM     22  H4  UNL     1      -3.900   0.944   9.185  1.00  0.00     0.210 HD
ENDBRANCH   4  21
TORSDOF 9
ENDMDL
MODEL 4
REMARK VINA RESULT: -6.072924581      1.378      1.925
REMARK  9 active torsions:
REMARK  status: ('A' for Active; 'I' for Inactive)
REMARK    1  A    between atoms: O1_2  and  C2_3 
REMARK    2  A    between atoms: C2_3  and  C3_4 
REMARK    3  A    between atoms: C3_4  and  C4_5 
REMARK    4  A    between atoms: C4_5  and  C5_6 
REMARK    5  A    between atoms: C5_6  and  O2_7 
REMARK    6  A    between atoms: C6_9  and  O3_10 
REMARK    7  A    between atoms: O3_10  and  C7_11 
REMARK    8  A    between atoms: C13_17  and  O4_18 
REMARK    9  A    between atoms: C14_20  and  O5_21 
ROOT
HETATM    1  C3  UNL     1      -4.094   2.840  12.271  1.00  0.00     0.038 C 
HETATM    2  C6  UNL     1      -4.321   2.057  13.532  1.00  0.00     0.137 C 
HETATM    3  C12 UNL     1      -4.188   0.601  13.139  1.00  0.00     0.067 C 
HETATM    4  C13 UNL     1      -4.810   0.562  11.785  1.00  0.00     0.150 C 
HETATM    5  C14 UNL     1      -4.956   1.991  11.311  1.00  0.00     0.160 C 
ENDROOT
BRANCH   1   6
HETATM    6  C2  UNL     1      -2.716   2.900  11.782  1.00  0.00     0.181 C 
BRANCH   6   7
HETATM    7  O1  UNL     1      -2.027   1.692  11.769  1.00  0.00    -0.395 OA
HETATM    8  C1  UNL     1      -1.087   1.659  10.741  1.00  0.00     0.201 C 
ENDBRANCH   6   7
ENDBRANCH   1   6
BRANCH   1   9
HETATM    9  C4  UNL     1      -4.662   4.195  12.454  1.00  0.00     0.043 C 
BRANCH   9  10
HETATM   10  C5  UNL     1      -4.410   5.236  11.437  1.00  0.00     0.165 C 
BRANCH  10  11
HETATM   11  O2  UNL     1      -5.082   5.134  10.241  1.00  0.00    -0.401 OA
ATOM     12  H2  UNL     1      -4.683   5.534   9.476  1.00  0.00     0.209 HD
ENDBRANCH  10  11
ENDBRANCH   9  10
ENDBRANCH   1   9
BRANCH   2  13
HETATM   13  O3  UNL     1      -3.580   2.407  14.613  1.00  0.00    -0.380 OA
BRANCH  13  14
HETATM   14  C7  UNL     1      -4.325   2.319  15.772  1.00  0.00     0.122 C 
HETATM   15  C8  UNL     1      -5.762   2.771  15.476  1.00  0.00     0.032 C 
HETATM   16  C9  UNL     1      -6.635   2.026  16.459  1.00  0.00     0.002 C 
HETATM   17  C10 UNL     1      -5.702   1.178  17.292  1.00  0.00     0.002 C 
HETATM   18  C11 UNL     1      -4.560   0.944  16.293  1.00  0.00     0.032 C 
ENDBRANCH  13  14
ENDBRANCH   2  13
BRANCH   5  19
HETATM   19  O5  UNL     1      -4.491   2.120  10.013  1.00  0.00    -0.392 OA
ATOM     20  H5  UNL     1      -4.901   2.867   9.593  1.00  0.00     0.210 HD
ENDBRANCH   5  19
BRANCH   4  21
HETATM   21  O4  UNL     1      -4.124  -0.236  10.872  1.00  0.00    -0.393 OA
ATOM     22  H4  UNL     1      -4.045   0.150  10.008  1.00  0.00     0.210 HD
ENDBRANCH   4  21
TORSDOF 9
ENDMDL
MODEL 5
REMARK VINA RESULT: -5.807911000      2.209      4.177
REMARK  9 active torsions:
REMARK  status: ('A' for Active; 'I' for Inactive)
REMARK    1  A    between atoms: O1_2  and  C2_3 
REMARK    2  A    between atoms: C2_3  and  C3_4 
REMARK    3  A    between atoms: C3_4  and  C4_5 
REMARK    4  A    between atoms: C4_5  and  C5_6 
REMARK    5  A    between atoms: C5_6  and  O2_7 
REMARK    6  A    between atoms: C6_9  and  O3_10 
REMARK    7  A    between atoms: O3_10  and  C7_11 
REMARK    8  A    between atoms: C13_17  and  O4_18 
REMARK    9  A    between atoms: C14_20  and  O5_21 
ROOT
HETATM    1  C3  UNL     1      -3.541   3.600  12.517  1.00  0.00     0.038 C 
HETATM    2  C6  UNL     1      -3.787   3.251  13.958  1.00  0.00     0.137 C 
HETATM    3  C12 UNL     1      -3.258   4.422  14.758  1.00  0.00     0.067 C 
HETATM    4  C13 UNL     1      -2.041   4.825  13.996  1.00  0.00     0.150 C 
HETATM    5  C14 UNL     1      -2.099   4.137  12.651  1.00  0.00     0.160 C 
ENDROOT
BRANCH   1   6
HETATM    6  C2  UNL     1      -4.405   4.631  11.941  1.00  0.00     0.181 C 
BRANCH   6   7
HETATM    7  O1  UNL     1      -4.688   4.495  10.587  1.00  0.00    -0.395 OA
HETATM    8  C1  UNL     1      -4.827   5.738   9.973  1.00  0.00     0.201 C 
ENDBRANCH   6   7
ENDBRANCH   1   6
BRANCH   1   9
HETATM    9  C4  UNL     1      -3.584   2.353  11.722  1.00  0.00     0.043 C 
BRANCH   9  10
HETATM   10  C5  UNL     1      -4.741   1.443  11.852  1.00  0.00     0.165 C 
BRANCH  10  11
HETATM   11  O2  UNL     1      -5.795   1.625  10.988  1.00  0.00    -0.401 OA
ATOM     12  H2  UNL     1      -6.673   1.567  11.346  1.00  0.00     0.209 HD
ENDBRANCH  10  11
ENDBRANCH   9  10
ENDBRANCH   1   9
BRANCH   2  13
HETATM   13  O3  UNL     1      -5.048   2.880  14.292  1.00  0.00    -0.380 OA
BRANCH  13  14
HETATM   14  C7  UNL     1      -5.102   2.435  15.598  1.00  0.00     0.122 C 
HETATM   15  C8  UNL     1      -6.466   2.810  16.195  1.00  0.00     0.032 C 
HETATM   16  C9  UNL     1      -6.751   1.765  17.249  1.00  0.00     0.002 C 
HETATM   17  C10 UNL     1      -5.565   0.827  17.243  1.00  0.00     0.002 C 
HETATM   18  C11 UNL     1      -5.104   0.959  15.785  1.00  0.00     0.032 C 
ENDBRANCH  13  14
ENDBRANCH   2  13
BRANCH   5  19
HETATM   19  O5  UNL     1      -1.831   5.039  11.634  1.00  0.00    -0.392 OA
ATOM     20  H5  UNL     1      -2.207   4.730  10.818  1.00  0.00     0.210 HD
ENDBRANCH   5  19
BRANCH   4  21
HETATM   21  O4  UNL     1      -1.877   6.204  13.884  1.00  0.00    -0.393 OA
ATOM     22  H4  UNL     1      -2.693   6.685  13.823  1.00  0.00     0.210 HD
ENDBRANCH   4  21
TORSDOF 9
ENDMDL
