MODEL 1
REMARK VINA RESULT: -7.137982476      0.000      0.000
REMARK  9 active torsions:
REMARK  status: ('A' for Active; 'I' for Inactive)
REMARK    1  A    between atoms: O1_2  and  C2_3 
REMARK    2  A    between atoms: C4_5  and  O2_7 
REMARK    3  A    between atoms: O2_7  and  C6_8 
REMARK    4  A    between atoms: C6_8  and  C7_9 
REMARK    5  A    between atoms: C7_9  and  C8_10 
REMARK    6  A    between atoms: C8_10  and  C9_11 
REMARK    7  A    between atoms: C9_11  and  O3_14 
REMARK    8  A    between atoms: C12_17  and  O5_18 
REMARK    9  A    between atoms: C13_20  and  O6_21 
ROOT
HETATM    1  C2  UNL     1      -3.629   0.096  11.805  1.00  0.00     0.159 C 
HETATM    2  C3  UNL     1      -2.844   1.395  11.871  1.00  0.00     0.102 C 
HETATM    3  C4  UNL     1      -3.641   2.361  12.694  1.00  0.00     0.166 C 
HETATM    4  C5  UNL     1      -3.188   3.767  12.332  1.00  0.00     0.079 C 
HETATM    5  O4  UNL     1      -4.995   2.335  12.336  1.00  0.00    -0.323 OA
HETATM    6  C12 UNL     1      -5.282   1.785  11.140  1.00  0.00     0.291 C 
HETATM    7  C13 UNL     1      -4.820   0.362  10.946  1.00  0.00     0.202 C 
ENDROOT
BRANCH   3   8
HETATM    8  O2  UNL     1      -3.627   2.160  14.021  1.00  0.00    -0.355 OA
BRANCH   8   9
HETATM    9  C6  UNL     1      -4.120   2.981  14.935  1.00  0.00     0.171 C 
BRANCH   9  10
HETATM   10  C7  UNL     1      -5.257   2.521  15.808  1.00  0.00     0.029 C 
BRANCH  10  11
HETATM   11  C8  UNL     1      -4.921   1.156  16.445  1.00  0.00     0.039 C 
BRANCH  11  12
HETATM   12  C9  UNL     1      -6.070   0.849  17.384  1.00  0.00     0.051 C 
HETATM   13  C10 UNL     1      -7.355   1.151  16.684  1.00  0.00     0.045 C 
HETATM   14  C11 UNL     1      -5.929   1.580  18.697  1.00  0.00     0.045 C 
BRANCH  12  15
HETATM   15  O3  UNL     1      -6.040  -0.520  17.653  1.00  0.00    -0.391 OA
ATOM     16  H3  UNL     1      -6.264  -0.637  18.569  1.00  0.00     0.210 HD
ENDBRANCH  12  15
ENDBRANCH  11  12
ENDBRANCH  10  11
ENDBRANCH   9  10
ENDBRANCH   8   9
ENDBRANCH   3   8
BRANCH   1  17
HETATM   17  O1  UNL     1      -2.809  -0.845  11.196  1.00  0.00    -0.388 OA
HETATM   18  C1  UNL     1      -3.283  -2.109  11.592  1.00  0.00     0.202 C 
ENDBRANCH   1  17
BRANCH   6  19
HETATM   19  O5  UNL     1      -4.927   2.578  10.030  1.00  0.00    -0.368 OA
ATOM     20  H5  UNL     1      -5.613   2.678   9.381  1.00  0.00     0.212 HD
ENDBRANCH   6  19
BRANCH   7  21
HETATM   21  O6  UNL     1      -4.403   0.228   9.606  1.00  0.00    -0.388 OA
ATOM     22  H6  UNL     1      -5.097   0.579   9.061  1.00  0.00     0.210 HD
ENDBRANCH   7  21
TORSDOF 9
ENDMDL
MODEL 2
REMARK VINA RESULT: -7.087315893      1.402      1.975
REMARK  9 active torsions:
REMARK  status: ('A' for Active; 'I' for Inactive)
REMARK    1  A    between atoms: O1_2  and  C2_3 
REMARK    2  A    between atoms: C4_5  and  O2_7 
REMARK    3  A    between atoms: O2_7  and  C6_8 
REMARK    4  A    between atoms: C6_8  and  C7_9 
REMARK    5  A    between atoms: C7_9  and  C8_10 
REMARK    6  A    between atoms: C8_10  and  C9_11 
REMARK    7  A    between atoms: C9_11  and  O3_14 
REMARK    8  A    between atoms: C12_17  and  O5_18 
REMARK    9  A    between atoms: C13_20  and  O6_21 
ROOT
HETATM    1  C2  UNL     1      -2.252   0.457  11.411  1.00  0.00     0.159 C 
HETATM    2  C3  UNL     1      -3.117   1.702  11.533  1.00  0.00     0.102 C 
HETATM    3  C4  UNL     1      -4.145   1.432  12.588  1.00  0.00     0.166 C 
HETATM    4  C5  UNL     1      -5.312   2.379  12.356  1.00  0.00     0.079 C 
HETATM    5  O4  UNL     1      -4.705   0.156  12.437  1.00  0.00    -0.323 OA
HETATM    6  C12 UNL     1      -4.536  -0.426  11.234  1.00  0.00     0.291 C 
HETATM    7  C13 UNL     1      -3.106  -0.593  10.783  1.00  0.00     0.202 C 
ENDROOT
BRANCH   3   8
HETATM    8  O2  UNL     1      -3.715   1.475  13.859  1.00  0.00    -0.355 OA
BRANCH   8   9
HETATM    9  C6  UNL     1      -4.192   0.758  14.864  1.00  0.00     0.171 C 
BRANCH   9  10
HETATM   10  C7  UNL     1      -4.156   1.322  16.260  1.00  0.00     0.029 C 
BRANCH  10  11
HETATM   11  C8  UNL     1      -5.435   2.140  16.537  1.00  0.00     0.039 C 
BRANCH  11  12
HETATM   12  C9  UNL     1      -6.181   1.379  17.614  1.00  0.00     0.051 C 
HETATM   13  C10 UNL     1      -7.519   0.982  17.083  1.00  0.00     0.045 C 
HETATM   14  C11 UNL     1      -6.266   2.168  18.898  1.00  0.00     0.045 C 
BRANCH  12  15
HETATM   15  O3  UNL     1      -5.463   0.211  17.879  1.00  0.00    -0.391 OA
ATOM     16  H3  UNL     1      -4.967  -0.002  17.097  1.00  0.00     0.210 HD
ENDBRANCH  12  15
ENDBRANCH  11  12
ENDBRANCH  10  11
ENDBRANCH   9  10
ENDBRANCH   8   9
ENDBRANCH   3   8
BRANCH   1  17
HETATM   17  O1  UNL     1      -1.198   0.776  10.564  1.00  0.00    -0.388 OA
HETATM   18  C1  UNL     1      -0.951   2.151  10.729  1.00  0.00     0.202 C 
ENDBRANCH   1  17
BRANCH   6  19
HETATM   19  O5  UNL     1      -5.322   0.123  10.201  1.00  0.00    -0.368 OA
ATOM     20  H5  UNL     1      -6.196  -0.241  10.134  1.00  0.00     0.212 HD
ENDBRANCH   6  19
BRANCH   7  21
HETATM   21  O6  UNL     1      -3.070  -0.379   9.390  1.00  0.00    -0.388 OA
ATOM     22  H6  UNL     1      -3.288  -1.205   8.975  1.00  0.00     0.210 HD
ENDBRANCH   7  21
TORSDOF 9
ENDMDL
MODEL 3
REMARK VINA RESULT: -6.972138108      1.505      3.192
REMARK  9 active torsions:
REMARK  status: ('A' for Active; 'I' for Inactive)
REMARK    1  A    between atoms: O1_2  and  C2_3 
REMARK    2  A    between atoms: C4_5  and  O2_7 
REMARK    3  A    between atoms: O2_7  and  C6_8 
REMARK    4  A    between atoms: C6_8  and  C7_9 
REMARK    5  A    between atoms: C7_9  and  C8_10 
REMARK    6  A    between atoms: C8_10  and  C9_11 
REMARK    7  A    between atoms: C9_11  and  O3_14 
REMARK    8  A    between atoms: C12_17  and  O5_18 
REMARK    9  A    between atoms: C13_20  and  O6_21 
ROOT
HETATM    1  C2  UNL     1      -4.108   3.269  11.198  1.00  0.00     0.159 C 
HETATM    2  C3  UNL     1      -4.672   1.909  10.820  1.00  0.00     0.102 C 
HETATM    3  C4  UNL     1      -4.235   0.934  11.869  1.00  0.00     0.166 C 
HETATM    4  C5  UNL     1      -4.296  -0.460  11.265  1.00  0.00     0.079 C 
HETATM    5  O4  UNL     1      -2.882   1.107  12.191  1.00  0.00    -0.323 OA
HETATM    6  C12 UNL     1      -2.145   1.798  11.300  1.00  0.00     0.291 C 
HETATM    7  C13 UNL     1      -2.633   3.191  10.986  1.00  0.00     0.202 C 
ENDROOT
BRANCH   3   8
HETATM    8  O2  UNL     1      -4.883   0.996  13.043  1.00  0.00    -0.355 OA
BRANCH   8   9
HETATM    9  C6  UNL     1      -4.359   1.367  14.200  1.00  0.00     0.171 C 
BRANCH   9  10
HETATM   10  C7  UNL     1      -4.731   0.623  15.455  1.00  0.00     0.029 C 
BRANCH  10  11
HETATM   11  C8  UNL     1      -4.915   1.611  16.626  1.00  0.00     0.039 C 
BRANCH  11  12
HETATM   12  C9  UNL     1      -6.054   1.054  17.456  1.00  0.00     0.051 C 
HETATM   13  C10 UNL     1      -7.338   1.294  16.731  1.00  0.00     0.045 C 
HETATM   14  C11 UNL     1      -6.052   1.618  18.856  1.00  0.00     0.045 C 
BRANCH  12  15
HETATM   15  O3  UNL     1      -5.868  -0.326  17.552  1.00  0.00    -0.391 OA
ATOM     16  H3  UNL     1      -6.707  -0.713  17.771  1.00  0.00     0.210 HD
ENDBRANCH  12  15
ENDBRANCH  11  12
ENDBRANCH  10  11
ENDBRANCH   9  10
ENDBRANCH   8   9
ENDBRANCH   3   8
BRANCH   1  17
HETATM   17  O1  UNL     1      -4.660   4.197  10.325  1.00  0.00    -0.388 OA
HETATM   18  C1  UNL     1      -4.609   5.443  10.976  1.00  0.00     0.202 C 
ENDBRANCH   1  17
BRANCH   6  19
HETATM   19  O5  UNL     1      -1.849   1.097  10.114  1.00  0.00    -0.368 OA
ATOM     20  H5  UNL     1      -1.179   1.499   9.574  1.00  0.00     0.212 HD
ENDBRANCH   6  19
BRANCH   7  21
HETATM   21  O6  UNL     1      -2.397   3.427   9.616  1.00  0.00    -0.388 OA
ATOM     22  H6  UNL     1      -2.760   4.281   9.414  1.00  0.00     0.210 HD
ENDBRANCH   7  21
TORSDOF 9
ENDMDL
MODEL 4
REMARK VINA RESULT: -6.806807258      2.077      3.793
REMARK  9 active torsions:
REMARK  status: ('A' for Active; 'I' for Inactive)
REMARK    1  A    between atoms: O1_2  and  C2_3 
REMARK    2  A    between atoms: C4_5  and  O2_7 
REMARK    3  A    between atoms: O2_7  and  C6_8 
REMARK    4  A    between atoms: C6_8  and  C7_9 
REMARK    5  A    between atoms: C7_9  and  C8_10 
REMARK    6  A    between atoms: C8_10  and  C9_11 
REMARK    7  A    between atoms: C9_11  and  O3_14 
REMARK    8  A    between atoms: C12_17  and  O5_18 
REMARK    9  A    between atoms: C13_20  and  O6_21 
ROOT
HETATM    1  C2  UNL     1      -4.080   3.241  11.264  1.00  0.00     0.159 C 
HETATM    2  C3  UNL     1      -4.674   1.895  10.884  1.00  0.00     0.102 C 
HETATM    3  C4  UNL     1      -4.235   0.902  11.916  1.00  0.00     0.166 C 
HETATM    4  C5  UNL     1      -4.331  -0.485  11.301  1.00  0.00     0.079 C 
HETATM    5  O4  UNL     1      -2.874   1.050  12.215  1.00  0.00    -0.323 OA
HETATM    6  C12 UNL     1      -2.141   1.736  11.317  1.00  0.00     0.291 C 
HETATM    7  C13 UNL     1      -2.611   3.140  11.024  1.00  0.00     0.202 C 
ENDROOT
BRANCH   3   8
HETATM    8  O2  UNL     1      -4.861   0.965  13.102  1.00  0.00    -0.355 OA
BRANCH   8   9
HETATM    9  C6  UNL     1      -4.322   0.689  14.279  1.00  0.00     0.171 C 
BRANCH   9  10
HETATM   10  C7  UNL     1      -4.507   1.652  15.422  1.00  0.00     0.029 C 
BRANCH  10  11
HETATM   11  C8  UNL     1      -4.352   3.105  14.926  1.00  0.00     0.039 C 
BRANCH  11  12
HETATM   12  C9  UNL     1      -5.736   3.716  15.014  1.00  0.00     0.051 C 
HETATM   13  C10 UNL     1      -5.601   5.203  15.067  1.00  0.00     0.045 C 
HETATM   14  C11 UNL     1      -6.522   3.154  16.173  1.00  0.00     0.045 C 
BRANCH  12  15
HETATM   15  O3  UNL     1      -6.415   3.390  13.839  1.00  0.00    -0.391 OA
ATOM     16  H3  UNL     1      -6.352   2.448  13.724  1.00  0.00     0.210 HD
ENDBRANCH  12  15
ENDBRANCH  11  12
ENDBRANCH  10  11
ENDBRANCH   9  10
ENDBRANCH   8   9
ENDBRANCH   3   8
BRANCH   1  17
HETATM   17  O1  UNL     1      -4.633   4.186  10.409  1.00  0.00    -0.388 OA
HETATM   18  C1  UNL     1      -4.607   5.413  11.095  1.00  0.00     0.202 C 
ENDBRANCH   1  17
BRANCH   6  19
HETATM   19  O5  UNL     1      -1.879   1.040  10.120  1.00  0.00    -0.368 OA
ATOM     20  H5  UNL     1      -2.308   1.399   9.352  1.00  0.00     0.212 HD
ENDBRANCH   6  19
BRANCH   7  21
HETATM   21  O6  UNL     1      -2.396   3.384   9.652  1.00  0.00    -0.388 OA
ATOM     22  H6  UNL     1      -2.185   4.305   9.563  1.00  0.00     0.210 HD
ENDBRANCH   7  21
TORSDOF 9
ENDMDL
MODEL 5
REMARK VINA RESULT: -6.790231447      1.551      1.663
REMARK  9 active torsions:
REMARK  status: ('A' for Active; 'I' for Inactive)
REMARK    1  A    between atoms: O1_2  and  C2_3 
REMARK    2  A    between atoms: C4_5  and  O2_7 
REMARK    3  A    between atoms: O2_7  and  C6_8 
REMARK    4  A    between atoms: C6_8  and  C7_9 
REMARK    5  A    between atoms: C7_9  and  C8_10 
REMARK    6  A    between atoms: C8_10  and  C9_11 
REMARK    7  A    between atoms: C9_11  and  O3_14 
REMARK    8  A    between atoms: C12_17  and  O5_18 
REMARK    9  A    between atoms: C13_20  and  O6_21 
ROOT
HETATM    1  C2  UNL     1      -4.899   1.301  12.173  1.00  0.00     0.159 C 
HETATM    2  C3  UNL     1      -3.946   2.134  13.014  1.00  0.00     0.102 C 
HETATM    3  C4  UNL     1      -4.386   3.562  12.910  1.00  0.00     0.166 C 
HETATM    4  C5  UNL     1      -3.196   4.444  13.254  1.00  0.00     0.079 C 
HETATM    5  O4  UNL     1      -4.693   3.904  11.586  1.00  0.00    -0.323 OA
HETATM    6  C12 UNL     1      -4.205   3.084  10.635  1.00  0.00     0.291 C 
HETATM    7  C13 UNL     1      -4.611   1.635  10.748  1.00  0.00     0.202 C 
ENDROOT
BRANCH   3   8
HETATM    8  O2  UNL     1      -5.476   3.899  13.618  1.00  0.00    -0.355 OA
BRANCH   8   9
HETATM    9  C6  UNL     1      -5.536   4.036  14.933  1.00  0.00     0.171 C 
BRANCH   9  10
HETATM   10  C7  UNL     1      -6.262   3.003  15.752  1.00  0.00     0.029 C 
BRANCH  10  11
HETATM   11  C8  UNL     1      -5.251   2.110  16.502  1.00  0.00     0.039 C 
BRANCH  11  12
HETATM   12  C9  UNL     1      -6.067   1.329  17.512  1.00  0.00     0.051 C 
HETATM   13  C10 UNL     1      -7.406   1.031  16.921  1.00  0.00     0.045 C 
HETATM   14  C11 UNL     1      -6.154   2.048  18.836  1.00  0.00     0.045 C 
BRANCH  12  15
HETATM   15  O3  UNL     1      -5.415   0.114  17.730  1.00  0.00    -0.391 OA
ATOM     16  H3  UNL     1      -5.647  -0.467  17.015  1.00  0.00     0.210 HD
ENDBRANCH  12  15
ENDBRANCH  11  12
ENDBRANCH  10  11
ENDBRANCH   9  10
ENDBRANCH   8   9
ENDBRANCH   3   8
BRANCH   1  17
HETATM   17  O1  UNL     1      -4.595  -0.033  12.415  1.00  0.00    -0.388 OA
HETATM   18  C1  UNL     1      -4.219  -0.121  13.768  1.00  0.00     0.202 C 
ENDBRANCH   1  17
BRANCH   6  19
HETATM   19  O5  UNL     1      -2.816   3.195  10.420  1.00  0.00    -0.368 OA
ATOM     20  H5  UNL     1      -2.570   3.415   9.530  1.00  0.00     0.212 HD
ENDBRANCH   6  19
BRANCH   7  21
HETATM   21  O6  UNL     1      -3.508   0.851  10.352  1.00  0.00    -0.388 OA
ATOM     22  H6  UNL     1      -3.849   0.008  10.077  1.00  0.00     0.210 HD
ENDBRANCH   7  21
TORSDOF 9
ENDMDL
