MODEL 1
REMARK VINA RESULT: -5.864531380      0.000      0.000
REMARK  9 active torsions:
REMARK  status: ('A' for Active; 'I' for Inactive)
REMARK    1  A    between atoms: C2_2  and  C3_3 
REMARK    2  A    between atoms: C3_3  and  N1_4 
REMARK    3  A    between atoms: C4_5  and  C5_6 
REMARK    4  A    between atoms: C5_6  and  O1_7 
REMARK    5  A    between atoms: C6_9  and  O2_10 
REMARK    6  A    between atoms: C7_12  and  O3_13 
REMARK    7  A    between atoms: C8_15  and  C9_16 
REMARK    8  A    between atoms: C9_16  and  C10_17 
REMARK    9  A    between atoms: C10_17  and  C11_18 
ROOT
HETATM    1  N1  UNL     1      -5.990   3.046  15.442  1.00  0.00     0.105 N 
HETATM    2  C4  UNL     1      -6.445   2.429  16.625  1.00  0.00     0.277 C 
HETATM    3  C6  UNL     1      -5.405   1.391  16.957  1.00  0.00     0.184 C 
HETATM    4  C7  UNL     1      -4.139   2.074  16.417  1.00  0.00     0.182 C 
HETATM    5  C8  UNL     1      -4.659   2.594  15.107  1.00  0.00     0.255 C 
ENDROOT
BRANCH   5   6
HETATM    6  C9  UNL     1      -4.835   1.498  14.108  1.00  0.00     0.040 C 
BRANCH   6   7
HETATM    7  C10 UNL     1      -4.582   1.811  12.679  1.00  0.00     0.017 C 
BRANCH   7   8
HETATM    8  C11 UNL     1      -3.936   0.529  12.096  1.00  0.00     0.048 C 
HETATM    9  C12 UNL     1      -4.632   0.009  10.886  1.00  0.00     0.025 C 
HETATM   10  C13 UNL     1      -3.306  -0.619  10.454  1.00  0.00     0.075 C 
HETATM   11  S1  UNL     1      -2.473   0.861  11.114  1.00  0.00    -0.164 SA
ENDBRANCH   7   8
ENDBRANCH   6   7
ENDBRANCH   5   6
BRANCH   1  12
HETATM   12  C3  UNL     1      -6.221   4.432  15.320  1.00  0.00     0.273 C 
BRANCH  12  13
HETATM   13  C2  UNL     1      -5.127   5.262  14.781  1.00  0.00     0.026 C 
HETATM   14  C1  UNL     1      -5.520   5.641  13.343  1.00  0.00     0.007 C 
ENDBRANCH  12  13
ENDBRANCH   1  12
BRANCH   4  15
HETATM   15  O3  UNL     1      -3.060   1.256  16.389  1.00  0.00    -0.391 OA
ATOM     16  H3  UNL     1      -2.239   1.722  16.281  1.00  0.00     0.210 HD
ENDBRANCH   4  15
BRANCH   2  17
HETATM   17  C5  UNL     1      -7.773   1.689  16.412  1.00  0.00     0.202 C 
BRANCH  17  18
HETATM   18  O1  UNL     1      -7.595   0.347  16.726  1.00  0.00    -0.399 OA
ATOM     19  H1  UNL     1      -7.154  -0.081  16.001  1.00  0.00     0.209 HD
ENDBRANCH  17  18
ENDBRANCH   2  17
BRANCH   3  20
HETATM   20  O2  UNL     1      -5.290   1.197  18.337  1.00  0.00    -0.391 OA
ATOM     21  H2  UNL     1      -5.387   2.013  18.814  1.00  0.00     0.210 HD
ENDBRANCH   3  20
TORSDOF 9
ENDMDL
MODEL 2
REMARK VINA RESULT: -5.747166504      3.815      6.174
REMARK  9 active torsions:
REMARK  status: ('A' for Active; 'I' for Inactive)
REMARK    1  A    between atoms: C2_2  and  C3_3 
REMARK    2  A    between atoms: C3_3  and  N1_4 
REMARK    3  A    between atoms: C4_5  and  C5_6 
REMARK    4  A    between atoms: C5_6  and  O1_7 
REMARK    5  A    between atoms: C6_9  and  O2_10 
REMARK    6  A    between atoms: C7_12  and  O3_13 
REMARK    7  A    between atoms: C8_15  and  C9_16 
REMARK    8  A    between atoms: C9_16  and  C10_17 
REMARK    9  A    between atoms: C10_17  and  C11_18 
ROOT
HETATM    1  N1  UNL     1      -2.546   0.788  11.443  1.00  0.00     0.105 N 
HETATM    2  C4  UNL     1      -3.079  -0.190  10.578  1.00  0.00     0.277 C 
HETATM    3  C6  UNL     1      -4.561   0.081  10.538  1.00  0.00     0.184 C 
HETATM    4  C7  UNL     1      -4.576   1.607  10.715  1.00  0.00     0.182 C 
HETATM    5  C8  UNL     1      -3.555   1.755  11.807  1.00  0.00     0.255 C 
ENDROOT
BRANCH   5   6
HETATM    6  C9  UNL     1      -4.092   1.313  13.130  1.00  0.00     0.040 C 
BRANCH   6   7
HETATM    7  C10 UNL     1      -4.430   2.358  14.128  1.00  0.00     0.017 C 
BRANCH   7   8
HETATM    8  C11 UNL     1      -5.103   1.594  15.295  1.00  0.00     0.048 C 
HETATM    9  C12 UNL     1      -4.260   1.514  16.521  1.00  0.00     0.025 C 
HETATM   10  C13 UNL     1      -5.546   1.395  17.339  1.00  0.00     0.075 C 
HETATM   11  S1  UNL     1      -6.305   2.584  16.186  1.00  0.00    -0.164 SA
ENDBRANCH   7   8
ENDBRANCH   6   7
ENDBRANCH   5   6
BRANCH   1  12
HETATM   12  C3  UNL     1      -1.281   1.310  11.105  1.00  0.00     0.273 C 
BRANCH  12  13
HETATM   13  C2  UNL     1      -1.036   2.739  11.384  1.00  0.00     0.026 C 
HETATM   14  C1  UNL     1      -0.144   3.269  10.249  1.00  0.00     0.007 C 
ENDBRANCH  12  13
ENDBRANCH   1  12
BRANCH   4  15
HETATM   15  O3  UNL     1      -5.814   2.109  10.935  1.00  0.00    -0.391 OA
ATOM     16  H3  UNL     1      -5.856   3.054  10.855  1.00  0.00     0.210 HD
ENDBRANCH   4  15
BRANCH   2  17
HETATM   17  C5  UNL     1      -2.892  -1.609  11.130  1.00  0.00     0.202 C 
BRANCH  17  18
HETATM   18  O1  UNL     1      -4.089  -2.033  11.695  1.00  0.00    -0.399 OA
ATOM     19  H1  UNL     1      -4.532  -2.608  11.081  1.00  0.00     0.209 HD
ENDBRANCH  17  18
ENDBRANCH   2  17
BRANCH   3  20
HETATM   20  O2  UNL     1      -5.115  -0.260   9.301  1.00  0.00    -0.391 OA
ATOM     21  H2  UNL     1      -6.049  -0.084   9.275  1.00  0.00     0.210 HD
ENDBRANCH   3  20
TORSDOF 9
ENDMDL
MODEL 3
REMARK VINA RESULT: -5.613754304      3.110      5.369
REMARK  9 active torsions:
REMARK  status: ('A' for Active; 'I' for Inactive)
REMARK    1  A    between atoms: C2_2  and  C3_3 
REMARK    2  A    between atoms: C3_3  and  N1_4 
REMARK    3  A    between atoms: C4_5  and  C5_6 
REMARK    4  A    between atoms: C5_6  and  O1_7 
REMARK    5  A    between atoms: C6_9  and  O2_10 
REMARK    6  A    between atoms: C7_12  and  O3_13 
REMARK    7  A    between atoms: C8_15  and  C9_16 
REMARK    8  A    between atoms: C9_16  and  C10_17 
REMARK    9  A    between atoms: C10_17  and  C11_18 
ROOT
HETATM    1  N1  UNL     1      -4.067   3.507  13.083  1.00  0.00     0.105 N 
HETATM    2  C4  UNL     1      -3.242   3.342  11.953  1.00  0.00     0.277 C 
HETATM    3  C6  UNL     1      -3.164   1.853  11.731  1.00  0.00     0.184 C 
HETATM    4  C7  UNL     1      -4.550   1.419  12.229  1.00  0.00     0.182 C 
HETATM    5  C8  UNL     1      -4.652   2.247  13.479  1.00  0.00     0.255 C 
ENDROOT
BRANCH   5   6
HETATM    6  C9  UNL     1      -3.782   1.712  14.569  1.00  0.00     0.040 C 
BRANCH   6   7
HETATM    7  C10 UNL     1      -4.183   1.978  15.973  1.00  0.00     0.017 C 
BRANCH   7   8
HETATM    8  C11 UNL     1      -5.642   1.467  16.076  1.00  0.00     0.048 C 
HETATM    9  C12 UNL     1      -5.873   0.550  17.228  1.00  0.00     0.025 C 
HETATM   10  C13 UNL     1      -7.338   0.988  17.220  1.00  0.00     0.075 C 
HETATM   11  S1  UNL     1      -6.759   2.666  16.805  1.00  0.00    -0.164 SA
ENDBRANCH   7   8
ENDBRANCH   6   7
ENDBRANCH   5   6
BRANCH   1  12
HETATM   12  C3  UNL     1      -4.936   4.618  13.077  1.00  0.00     0.273 C 
BRANCH  12  13
HETATM   13  C2  UNL     1      -5.136   5.334  14.352  1.00  0.00     0.026 C 
HETATM   14  C1  UNL     1      -3.767   5.896  14.769  1.00  0.00     0.007 C 
ENDBRANCH  12  13
ENDBRANCH   1  12
BRANCH   4  15
HETATM   15  O3  UNL     1      -4.680   0.076  12.348  1.00  0.00    -0.391 OA
ATOM     16  H3  UNL     1      -5.007  -0.341  11.560  1.00  0.00     0.210 HD
ENDBRANCH   4  15
BRANCH   2  17
HETATM   17  C5  UNL     1      -1.812   3.839  12.207  1.00  0.00     0.202 C 
BRANCH  17  18
HETATM   18  O1  UNL     1      -0.939   2.761  12.116  1.00  0.00    -0.399 OA
ATOM     19  H1  UNL     1      -1.330   2.095  11.562  1.00  0.00     0.209 HD
ENDBRANCH  17  18
ENDBRANCH   2  17
BRANCH   3  20
HETATM   20  O2  UNL     1      -3.024   1.539  10.377  1.00  0.00    -0.391 OA
ATOM     21  H2  UNL     1      -2.327   0.909  10.233  1.00  0.00     0.210 HD
ENDBRANCH   3  20
TORSDOF 9
ENDMDL
MODEL 4
REMARK VINA RESULT: -5.591196479      3.658      6.027
REMARK  9 active torsions:
REMARK  status: ('A' for Active; 'I' for Inactive)
REMARK    1  A    between atoms: C2_2  and  C3_3 
REMARK    2  A    between atoms: C3_3  and  N1_4 
REMARK    3  A    between atoms: C4_5  and  C5_6 
REMARK    4  A    between atoms: C5_6  and  O1_7 
REMARK    5  A    between atoms: C6_9  and  O2_10 
REMARK    6  A    between atoms: C7_12  and  O3_13 
REMARK    7  A    between atoms: C8_15  and  C9_16 
REMARK    8  A    between atoms: C9_16  and  C10_17 
REMARK    9  A    between atoms: C10_17  and  C11_18 
ROOT
HETATM    1  N1  UNL     1      -2.621   0.794  11.596  1.00  0.00     0.105 N 
HETATM    2  C4  UNL     1      -3.052  -0.130  10.623  1.00  0.00     0.277 C 
HETATM    3  C6  UNL     1      -4.547   0.046  10.543  1.00  0.00     0.184 C 
HETATM    4  C7  UNL     1      -4.674   1.544  10.859  1.00  0.00     0.182 C 
HETATM    5  C8  UNL     1      -3.707   1.654  12.004  1.00  0.00     0.255 C 
ENDROOT
BRANCH   5   6
HETATM    6  C9  UNL     1      -4.261   1.055  13.255  1.00  0.00     0.040 C 
BRANCH   6   7
HETATM    7  C10 UNL     1      -4.255   1.884  14.486  1.00  0.00     0.017 C 
BRANCH   7   8
HETATM    8  C11 UNL     1      -5.029   3.171  14.106  1.00  0.00     0.048 C 
HETATM    9  C12 UNL     1      -6.056   3.567  15.110  1.00  0.00     0.025 C 
HETATM   10  C13 UNL     1      -5.892   5.012  14.634  1.00  0.00     0.075 C 
HETATM   11  S1  UNL     1      -4.111   4.673  14.449  1.00  0.00    -0.164 SA
ENDBRANCH   7   8
ENDBRANCH   6   7
ENDBRANCH   5   6
BRANCH   1  12
HETATM   12  C3  UNL     1      -1.383   1.428  11.364  1.00  0.00     0.273 C 
BRANCH  12  13
HETATM   13  C2  UNL     1      -1.361   2.904  11.370  1.00  0.00     0.026 C 
HETATM   14  C1  UNL     1      -0.988   3.352   9.946  1.00  0.00     0.007 C 
ENDBRANCH  12  13
ENDBRANCH   1  12
BRANCH   4  15
HETATM   15  O3  UNL     1      -5.952   1.940  11.070  1.00  0.00    -0.391 OA
ATOM     16  H3  UNL     1      -6.408   1.412  11.714  1.00  0.00     0.210 HD
ENDBRANCH   4  15
BRANCH   2  17
HETATM   17  C5  UNL     1      -2.788  -1.580  11.049  1.00  0.00     0.202 C 
BRANCH  17  18
HETATM   18  O1  UNL     1      -3.954  -2.110  11.589  1.00  0.00    -0.399 OA
ATOM     19  H1  UNL     1      -4.651  -2.035  10.947  1.00  0.00     0.209 HD
ENDBRANCH  17  18
ENDBRANCH   2  17
BRANCH   3  20
HETATM   20  O2  UNL     1      -5.030  -0.212   9.257  1.00  0.00    -0.391 OA
ATOM     21  H2  UNL     1      -4.458   0.149   8.589  1.00  0.00     0.210 HD
ENDBRANCH   3  20
TORSDOF 9
ENDMDL
MODEL 5
REMARK VINA RESULT: -5.431525639      2.912      3.919
REMARK  9 active torsions:
REMARK  status: ('A' for Active; 'I' for Inactive)
REMARK    1  A    between atoms: C2_2  and  C3_3 
REMARK    2  A    between atoms: C3_3  and  N1_4 
REMARK    3  A    between atoms: C4_5  and  C5_6 
REMARK    4  A    between atoms: C5_6  and  O1_7 
REMARK    5  A    between atoms: C6_9  and  O2_10 
REMARK    6  A    between atoms: C7_12  and  O3_13 
REMARK    7  A    between atoms: C8_15  and  C9_16 
REMARK    8  A    between atoms: C9_16  and  C10_17 
REMARK    9  A    between atoms: C10_17  and  C11_18 
ROOT
HETATM    1  N1  UNL     1      -5.067   3.249  14.121  1.00  0.00     0.105 N 
HETATM    2  C4  UNL     1      -5.172   2.006  13.464  1.00  0.00     0.277 C 
HETATM    3  C6  UNL     1      -4.233   1.087  14.201  1.00  0.00     0.184 C 
HETATM    4  C7  UNL     1      -4.331   1.661  15.622  1.00  0.00     0.182 C 
HETATM    5  C8  UNL     1      -4.268   3.131  15.318  1.00  0.00     0.255 C 
ENDROOT
BRANCH   5   6
HETATM    6  C9  UNL     1      -2.888   3.558  14.936  1.00  0.00     0.040 C 
BRANCH   6   7
HETATM    7  C10 UNL     1      -2.633   5.009  14.758  1.00  0.00     0.017 C 
BRANCH   7   8
HETATM    8  C11 UNL     1      -1.481   5.090  13.726  1.00  0.00     0.048 C 
HETATM    9  C12 UNL     1      -1.706   4.252  12.514  1.00  0.00     0.025 C 
HETATM   10  C13 UNL     1      -0.807   5.217  11.739  1.00  0.00     0.075 C 
HETATM   11  S1  UNL     1      -1.542   6.570  12.715  1.00  0.00    -0.164 SA
ENDBRANCH   7   8
ENDBRANCH   6   7
ENDBRANCH   5   6
BRANCH   1  12
HETATM   12  C3  UNL     1      -6.251   4.005  14.239  1.00  0.00     0.273 C 
BRANCH  12  13
HETATM   13  C2  UNL     1      -6.133   5.475  14.161  1.00  0.00     0.026 C 
HETATM   14  C1  UNL     1      -5.402   5.795  12.846  1.00  0.00     0.007 C 
ENDBRANCH  12  13
ENDBRANCH   1  12
BRANCH   4  15
HETATM   15  O3  UNL     1      -3.406   1.151  16.471  1.00  0.00    -0.391 OA
ATOM     16  H3  UNL     1      -2.514   1.270  16.170  1.00  0.00     0.210 HD
ENDBRANCH   4  15
BRANCH   2  17
HETATM   17  C5  UNL     1      -4.686   2.081  12.010  1.00  0.00     0.202 C 
BRANCH  17  18
HETATM   18  O1  UNL     1      -5.694   1.613  11.175  1.00  0.00    -0.399 OA
ATOM     19  H1  UNL     1      -5.382   1.631  10.278  1.00  0.00     0.209 HD
ENDBRANCH  17  18
ENDBRANCH   2  17
BRANCH   3  20
HETATM   20  O2  UNL     1      -4.687  -0.234  14.189  1.00  0.00    -0.391 OA
ATOM     21  H2  UNL     1      -4.647  -0.627  15.053  1.00  0.00     0.210 HD
ENDBRANCH   3  20
TORSDOF 9
ENDMDL
