MODEL 1
REMARK VINA RESULT: -5.525089461      0.000      0.000
REMARK  11 active torsions:
REMARK  status: ('A' for Active; 'I' for Inactive)
REMARK    1  A    between atoms: C2_2  and  N1_4 
REMARK    2  A    between atoms: N1_4  and  C4_6 
REMARK    3  A    between atoms: C5_9  and  N3_10 
REMARK    4  A    between atoms: C6_15  and  N5_16 
REMARK    5  A    between atoms: N5_16  and  C7_18 
REMARK    6  A    between atoms: C7_18  and  C8_19 
REMARK    7  A    between atoms: C8_19  and  C9_20 
REMARK    8  A    between atoms: C9_20  and  C10_21 
REMARK    9  A    between atoms: C10_21  and  N6_22 
REMARK   10  A    between atoms: N6_22  and  C12_24 
REMARK   11  A    between atoms: C15_30  and  O1_31 
ROOT
HETATM    1  C4  UNL     1     -18.123  37.009  41.563  1.00  0.00     0.707 A 
HETATM    2  N2  UNL     1     -17.317  37.021  42.633  1.00  0.00    -0.022 N 
ATOM      3  H2  UNL     1     -16.317  36.857  42.515  1.00  0.00     0.203 HD
HETATM    4  C5  UNL     1     -17.818  37.249  43.869  1.00  0.00     0.705 A 
HETATM    5  N4  UNL     1     -19.148  37.468  44.044  1.00  0.00    -0.022 N 
ATOM      6  H4  UNL     1     -19.514  37.637  44.981  1.00  0.00     0.203 HD
HETATM    7  C6  UNL     1     -19.982  37.465  42.994  1.00  0.00     0.707 A 
HETATM    8  N8  UNL     1     -19.458  37.238  41.791  1.00  0.00    -0.022 N 
ATOM      9  H8  UNL     1     -20.087  37.234  40.988  1.00  0.00     0.203 HD
ENDROOT
BRANCH   7  10
HETATM   10  N5  UNL     1     -21.231  37.667  43.115  1.00  0.00    -0.225 N 
ATOM     11  H5  UNL     1     -21.626  38.314  42.432  1.00  0.00     0.177 HD
BRANCH  10  12
HETATM   12  C7  UNL     1     -22.159  37.146  44.037  1.00  0.00     0.138 C 
BRANCH  12  13
HETATM   13  C8  UNL     1     -22.462  38.114  45.184  1.00  0.00     0.022 C 
BRANCH  13  14
HETATM   14  C9  UNL     1     -23.079  37.258  46.280  1.00  0.00     0.032 C 
BRANCH  14  15
HETATM   15  C10 UNL     1     -22.804  35.821  45.943  1.00  0.00     0.272 C 
BRANCH  15  16
HETATM   16  N6  UNL     1     -22.203  35.064  47.005  1.00  0.00     0.093 N 
HETATM   17  C11 UNL     1     -23.212  35.060  48.084  1.00  0.00     0.310 C 
BRANCH  16  18
HETATM   18  C12 UNL     1     -21.044  35.667  47.577  1.00  0.00     0.278 C 
HETATM   19  C13 UNL     1     -20.754  35.119  48.943  1.00  0.00     0.270 C 
HETATM   20  N7  UNL     1     -19.694  34.130  48.679  1.00  0.00    -0.070 N 
HETATM   21  C14 UNL     1     -18.773  34.945  47.890  1.00  0.00     0.266 C 
ATOM     22  H72 UNL     1     -19.294  33.678  49.502  1.00  0.00     0.277 HD
ATOM     23  H71 UNL     1     -19.999  33.258  48.247  1.00  0.00     0.277 HD
HETATM   24  C15 UNL     1     -19.758  35.564  46.885  1.00  0.00     0.178 C 
BRANCH  24  25
HETATM   25  O1  UNL     1     -19.659  34.834  45.748  1.00  0.00    -0.392 OA
ATOM     26  H1  UNL     1     -19.446  35.263  44.926  1.00  0.00     0.210 HD
ENDBRANCH  24  25
ENDBRANCH  16  18
ENDBRANCH  15  16
ENDBRANCH  14  15
ENDBRANCH  13  14
ENDBRANCH  12  13
ENDBRANCH  10  12
ENDBRANCH   7  10
BRANCH   4  27
HETATM   27  N3  UNL     1     -17.009  37.254  44.877  1.00  0.00    -0.234 N 
ATOM     28  H32 UNL     1     -16.820  36.399  45.399  1.00  0.00     0.174 HD
ATOM     29  H31 UNL     1     -16.562  38.131  45.142  1.00  0.00     0.174 HD
ENDBRANCH   4  27
BRANCH   1  30
HETATM   30  N1  UNL     1     -17.727  36.807  40.396  1.00  0.00    -0.221 N 
ATOM     31  H1  UNL     1     -17.591  37.714  39.949  1.00  0.00     0.178 HD
BRANCH  30  32
HETATM   32  C2  UNL     1     -17.408  35.840  39.488  1.00  0.00     0.091 C 
HETATM   33  C1  UNL     1     -18.518  35.121  38.750  1.00  0.00     0.032 C 
HETATM   34  C3  UNL     1     -16.554  34.698  40.108  1.00  0.00     0.032 C 
ENDBRANCH  30  32
ENDBRANCH   1  30
TORSDOF 11
ENDMDL
MODEL 2
REMARK VINA RESULT: -5.466357743      2.655      7.983
REMARK  11 active torsions:
REMARK  status: ('A' for Active; 'I' for Inactive)
REMARK    1  A    between atoms: C2_2  and  N1_4 
REMARK    2  A    between atoms: N1_4  and  C4_6 
REMARK    3  A    between atoms: C5_9  and  N3_10 
REMARK    4  A    between atoms: C6_15  and  N5_16 
REMARK    5  A    between atoms: N5_16  and  C7_18 
REMARK    6  A    between atoms: C7_18  and  C8_19 
REMARK    7  A    between atoms: C8_19  and  C9_20 
REMARK    8  A    between atoms: C9_20  and  C10_21 
REMARK    9  A    between atoms: C10_21  and  N6_22 
REMARK   10  A    between atoms: N6_22  and  C12_24 
REMARK   11  A    between atoms: C15_30  and  O1_31 
ROOT
HETATM    1  C4  UNL     1     -18.594  33.263  49.438  1.00  0.00     0.707 A 
HETATM    2  N2  UNL     1     -17.571  33.636  50.219  1.00  0.00    -0.022 N 
ATOM      3  H2  UNL     1     -17.333  33.080  51.040  1.00  0.00     0.203 HD
HETATM    4  C5  UNL     1     -16.852  34.744  49.928  1.00  0.00     0.705 A 
HETATM    5  N4  UNL     1     -17.157  35.497  48.839  1.00  0.00    -0.022 N 
ATOM      6  H4  UNL     1     -16.609  36.331  48.631  1.00  0.00     0.203 HD
HETATM    7  C6  UNL     1     -18.174  35.151  48.035  1.00  0.00     0.707 A 
HETATM    8  N8  UNL     1     -18.861  34.055  48.349  1.00  0.00    -0.022 N 
ATOM      9  H8  UNL     1     -19.636  33.786  47.741  1.00  0.00     0.203 HD
ENDROOT
BRANCH   7  10
HETATM   10  N5  UNL     1     -18.489  35.827  47.006  1.00  0.00    -0.225 N 
ATOM     11  H5  UNL     1     -18.219  36.810  47.042  1.00  0.00     0.177 HD
BRANCH  10  12
HETATM   12  C7  UNL     1     -19.151  35.442  45.824  1.00  0.00     0.138 C 
BRANCH  12  13
HETATM   13  C8  UNL     1     -19.737  36.632  45.059  1.00  0.00     0.022 C 
BRANCH  13  14
HETATM   14  C9  UNL     1     -19.378  36.388  43.601  1.00  0.00     0.032 C 
BRANCH  14  15
HETATM   15  C10 UNL     1     -17.881  36.335  43.504  1.00  0.00     0.272 C 
BRANCH  15  16
HETATM   16  N6  UNL     1     -17.359  36.556  42.185  1.00  0.00     0.093 N 
HETATM   17  C11 UNL     1     -18.091  37.737  41.683  1.00  0.00     0.310 C 
BRANCH  16  18
HETATM   18  C12 UNL     1     -17.647  35.513  41.256  1.00  0.00     0.278 C 
HETATM   19  C13 UNL     1     -17.889  36.054  39.877  1.00  0.00     0.270 C 
HETATM   20  N7  UNL     1     -16.595  35.833  39.208  1.00  0.00    -0.070 N 
HETATM   21  C14 UNL     1     -16.377  34.424  39.530  1.00  0.00     0.266 C 
ATOM     22  H72 UNL     1     -16.560  36.073  38.217  1.00  0.00     0.277 HD
ATOM     23  H71 UNL     1     -15.844  36.471  39.473  1.00  0.00     0.277 HD
HETATM   24  C15 UNL     1     -16.668  34.446  41.039  1.00  0.00     0.178 C 
BRANCH  24  25
HETATM   25  O1  UNL     1     -15.466  34.495  41.663  1.00  0.00    -0.392 OA
ATOM     26  H1  UNL     1     -15.244  33.841  42.316  1.00  0.00     0.210 HD
ENDBRANCH  24  25
ENDBRANCH  16  18
ENDBRANCH  15  16
ENDBRANCH  14  15
ENDBRANCH  13  14
ENDBRANCH  12  13
ENDBRANCH  10  12
ENDBRANCH   7  10
BRANCH   4  27
HETATM   27  N3  UNL     1     -15.872  35.071  50.704  1.00  0.00    -0.234 N 
ATOM     28  H32 UNL     1     -15.835  35.994  51.138  1.00  0.00     0.174 HD
ATOM     29  H31 UNL     1     -15.134  34.389  50.876  1.00  0.00     0.174 HD
ENDBRANCH   4  27
BRANCH   1  30
HETATM   30  N1  UNL     1     -19.297  32.253  49.648  1.00  0.00    -0.221 N 
ATOM     31  H1  UNL     1     -19.117  31.584  48.898  1.00  0.00     0.178 HD
BRANCH  30  32
HETATM   32  C2  UNL     1     -20.214  31.698  50.493  1.00  0.00     0.091 C 
HETATM   33  C1  UNL     1     -20.509  30.216  50.395  1.00  0.00     0.032 C 
HETATM   34  C3  UNL     1     -21.609  32.377  50.388  1.00  0.00     0.032 C 
ENDBRANCH  30  32
ENDBRANCH   1  30
TORSDOF 11
ENDMDL
MODEL 3
REMARK VINA RESULT: -5.435569894      2.032      7.089
REMARK  11 active torsions:
REMARK  status: ('A' for Active; 'I' for Inactive)
REMARK    1  A    between atoms: C2_2  and  N1_4 
REMARK    2  A    between atoms: N1_4  and  C4_6 
REMARK    3  A    between atoms: C5_9  and  N3_10 
REMARK    4  A    between atoms: C6_15  and  N5_16 
REMARK    5  A    between atoms: N5_16  and  C7_18 
REMARK    6  A    between atoms: C7_18  and  C8_19 
REMARK    7  A    between atoms: C8_19  and  C9_20 
REMARK    8  A    between atoms: C9_20  and  C10_21 
REMARK    9  A    between atoms: C10_21  and  N6_22 
REMARK   10  A    between atoms: N6_22  and  C12_24 
REMARK   11  A    between atoms: C15_30  and  O1_31 
ROOT
HETATM    1  C4  UNL     1     -18.941  35.670  47.422  1.00  0.00     0.707 A 
HETATM    2  N2  UNL     1     -20.236  35.361  47.569  1.00  0.00    -0.022 N 
ATOM      3  H2  UNL     1     -20.566  34.971  48.452  1.00  0.00     0.203 HD
HETATM    4  C5  UNL     1     -21.111  35.564  46.557  1.00  0.00     0.705 A 
HETATM    5  N4  UNL     1     -20.688  36.082  45.374  1.00  0.00    -0.022 N 
ATOM      6  H4  UNL     1     -21.357  36.228  44.618  1.00  0.00     0.203 HD
HETATM    7  C6  UNL     1     -19.398  36.403  45.194  1.00  0.00     0.707 A 
HETATM    8  N8  UNL     1     -18.564  36.192  46.209  1.00  0.00    -0.022 N 
ATOM      9  H8  UNL     1     -17.581  36.435  46.078  1.00  0.00     0.203 HD
ENDROOT
BRANCH   7  10
HETATM   10  N5  UNL     1     -18.964  36.892  44.104  1.00  0.00    -0.225 N 
ATOM     11  H5  UNL     1     -18.891  36.225  43.336  1.00  0.00     0.177 HD
BRANCH  10  12
HETATM   12  C7  UNL     1     -18.567  38.205  43.782  1.00  0.00     0.138 C 
BRANCH  12  13
HETATM   13  C8  UNL     1     -18.149  38.354  42.317  1.00  0.00     0.022 C 
BRANCH  13  14
HETATM   14  C9  UNL     1     -19.234  37.650  41.516  1.00  0.00     0.032 C 
BRANCH  14  15
HETATM   15  C10 UNL     1     -18.617  37.178  40.231  1.00  0.00     0.272 C 
BRANCH  15  16
HETATM   16  N6  UNL     1     -17.410  36.418  40.392  1.00  0.00     0.093 N 
HETATM   17  C11 UNL     1     -16.724  36.517  39.088  1.00  0.00     0.310 C 
BRANCH  16  18
HETATM   18  C12 UNL     1     -17.616  35.023  40.602  1.00  0.00     0.278 C 
HETATM   19  C13 UNL     1     -16.771  34.195  39.678  1.00  0.00     0.270 C 
HETATM   20  N7  UNL     1     -15.633  33.812  40.533  1.00  0.00    -0.070 N 
HETATM   21  C14 UNL     1     -16.349  33.299  41.700  1.00  0.00     0.266 C 
ATOM     22  H72 UNL     1     -14.957  33.174  40.112  1.00  0.00     0.277 HD
ATOM     23  H71 UNL     1     -14.950  34.546  40.718  1.00  0.00     0.277 HD
HETATM   24  C15 UNL     1     -17.353  34.442  41.920  1.00  0.00     0.178 C 
BRANCH  24  25
HETATM   25  O1  UNL     1     -16.845  35.216  42.910  1.00  0.00    -0.392 OA
ATOM     26  H1  UNL     1     -16.215  34.851  43.522  1.00  0.00     0.210 HD
ENDBRANCH  24  25
ENDBRANCH  16  18
ENDBRANCH  15  16
ENDBRANCH  14  15
ENDBRANCH  13  14
ENDBRANCH  12  13
ENDBRANCH  10  12
ENDBRANCH   7  10
BRANCH   4  27
HETATM   27  N3  UNL     1     -22.353  35.255  46.737  1.00  0.00    -0.234 N 
ATOM     28  H32 UNL     1     -22.751  34.420  46.308  1.00  0.00     0.174 HD
ATOM     29  H31 UNL     1     -22.930  35.863  47.317  1.00  0.00     0.174 HD
ENDBRANCH   4  27
BRANCH   1  30
HETATM   30  N1  UNL     1     -18.082  35.510  48.314  1.00  0.00    -0.221 N 
ATOM     31  H1  UNL     1     -17.997  36.387  48.829  1.00  0.00     0.178 HD
BRANCH  30  32
HETATM   32  C2  UNL     1     -17.212  34.615  48.865  1.00  0.00     0.091 C 
HETATM   33  C1  UNL     1     -17.758  33.389  49.567  1.00  0.00     0.032 C 
HETATM   34  C3  UNL     1     -16.266  35.269  49.912  1.00  0.00     0.032 C 
ENDBRANCH  30  32
ENDBRANCH   1  30
TORSDOF 11
ENDMDL
MODEL 4
REMARK VINA RESULT: -5.409308169      1.544      1.967
REMARK  11 active torsions:
REMARK  status: ('A' for Active; 'I' for Inactive)
REMARK    1  A    between atoms: C2_2  and  N1_4 
REMARK    2  A    between atoms: N1_4  and  C4_6 
REMARK    3  A    between atoms: C5_9  and  N3_10 
REMARK    4  A    between atoms: C6_15  and  N5_16 
REMARK    5  A    between atoms: N5_16  and  C7_18 
REMARK    6  A    between atoms: C7_18  and  C8_19 
REMARK    7  A    between atoms: C8_19  and  C9_20 
REMARK    8  A    between atoms: C9_20  and  C10_21 
REMARK    9  A    between atoms: C10_21  and  N6_22 
REMARK   10  A    between atoms: N6_22  and  C12_24 
REMARK   11  A    between atoms: C15_30  and  O1_31 
ROOT
HETATM    1  C4  UNL     1     -18.283  37.190  42.213  1.00  0.00     0.707 A 
HETATM    2  N2  UNL     1     -17.529  37.453  43.289  1.00  0.00    -0.022 N 
ATOM      3  H2  UNL     1     -16.515  37.361  43.231  1.00  0.00     0.203 HD
HETATM    4  C5  UNL     1     -18.103  37.840  44.452  1.00  0.00     0.705 A 
HETATM    5  N4  UNL     1     -19.452  37.966  44.546  1.00  0.00    -0.022 N 
ATOM      6  H4  UNL     1     -19.873  38.257  45.429  1.00  0.00     0.203 HD
HETATM    7  C6  UNL     1     -20.236  37.712  43.487  1.00  0.00     0.707 A 
HETATM    8  N8  UNL     1     -19.641  37.334  42.358  1.00  0.00    -0.022 N 
ATOM      9  H8  UNL     1     -20.231  37.139  41.549  1.00  0.00     0.203 HD
ENDROOT
BRANCH   7  10
HETATM   10  N5  UNL     1     -21.501  37.821  43.534  1.00  0.00    -0.225 N 
ATOM     11  H5  UNL     1     -21.865  38.716  43.207  1.00  0.00     0.177 HD
BRANCH  10  12
HETATM   12  C7  UNL     1     -22.484  36.908  43.964  1.00  0.00     0.138 C 
BRANCH  12  13
HETATM   13  C8  UNL     1     -22.666  36.905  45.484  1.00  0.00     0.022 C 
BRANCH  13  14
HETATM   14  C9  UNL     1     -22.464  35.459  45.909  1.00  0.00     0.032 C 
BRANCH  14  15
HETATM   15  C10 UNL     1     -21.701  35.468  47.203  1.00  0.00     0.272 C 
BRANCH  15  16
HETATM   16  N6  UNL     1     -20.327  35.864  47.082  1.00  0.00     0.093 N 
HETATM   17  C11 UNL     1     -19.658  34.719  46.432  1.00  0.00     0.310 C 
BRANCH  16  18
HETATM   18  C12 UNL     1     -19.651  36.035  48.327  1.00  0.00     0.278 C 
HETATM   19  C13 UNL     1     -18.474  35.112  48.447  1.00  0.00     0.270 C 
HETATM   20  N7  UNL     1     -17.339  35.983  48.097  1.00  0.00    -0.070 N 
HETATM   21  C14 UNL     1     -17.606  37.120  48.976  1.00  0.00     0.266 C 
ATOM     22  H72 UNL     1     -16.413  35.563  48.183  1.00  0.00     0.277 HD
ATOM     23  H71 UNL     1     -17.237  36.202  47.106  1.00  0.00     0.277 HD
HETATM   24  C15 UNL     1     -19.097  37.344  48.676  1.00  0.00     0.178 C 
BRANCH  24  25
HETATM   25  O1  UNL     1     -19.162  38.365  47.786  1.00  0.00    -0.392 OA
ATOM     26  H1  UNL     1     -19.594  39.176  48.026  1.00  0.00     0.210 HD
ENDBRANCH  24  25
ENDBRANCH  16  18
ENDBRANCH  15  16
ENDBRANCH  14  15
ENDBRANCH  13  14
ENDBRANCH  12  13
ENDBRANCH  10  12
ENDBRANCH   7  10
BRANCH   4  27
HETATM   27  N3  UNL     1     -17.343  38.086  45.468  1.00  0.00    -0.234 N 
ATOM     28  H32 UNL     1     -17.742  38.383  46.358  1.00  0.00     0.174 HD
ATOM     29  H31 UNL     1     -16.335  37.979  45.363  1.00  0.00     0.174 HD
ENDBRANCH   4  27
BRANCH   1  30
HETATM   30  N1  UNL     1     -17.820  36.831  41.110  1.00  0.00    -0.221 N 
ATOM     31  H1  UNL     1     -17.531  37.667  40.603  1.00  0.00     0.178 HD
BRANCH  30  32
HETATM   32  C2  UNL     1     -17.551  35.749  40.322  1.00  0.00     0.091 C 
HETATM   33  C1  UNL     1     -16.948  34.508  40.948  1.00  0.00     0.032 C 
HETATM   34  C3  UNL     1     -16.593  36.092  39.146  1.00  0.00     0.032 C 
ENDBRANCH  30  32
ENDBRANCH   1  30
TORSDOF 11
ENDMDL
MODEL 5
REMARK VINA RESULT: -5.396296947      1.364      1.817
REMARK  11 active torsions:
REMARK  status: ('A' for Active; 'I' for Inactive)
REMARK    1  A    between atoms: C2_2  and  N1_4 
REMARK    2  A    between atoms: N1_4  and  C4_6 
REMARK    3  A    between atoms: C5_9  and  N3_10 
REMARK    4  A    between atoms: C6_15  and  N5_16 
REMARK    5  A    between atoms: N5_16  and  C7_18 
REMARK    6  A    between atoms: C7_18  and  C8_19 
REMARK    7  A    between atoms: C8_19  and  C9_20 
REMARK    8  A    between atoms: C9_20  and  C10_21 
REMARK    9  A    between atoms: C10_21  and  N6_22 
REMARK   10  A    between atoms: N6_22  and  C12_24 
REMARK   11  A    between atoms: C15_30  and  O1_31 
ROOT
HETATM    1  C4  UNL     1     -18.257  37.131  42.251  1.00  0.00     0.707 A 
HETATM    2  N2  UNL     1     -17.526  37.367  43.348  1.00  0.00    -0.022 N 
ATOM      3  H2  UNL     1     -16.513  37.253  43.315  1.00  0.00     0.203 HD
HETATM    4  C5  UNL     1     -18.120  37.755  44.500  1.00  0.00     0.705 A 
HETATM    5  N4  UNL     1     -19.468  37.910  44.562  1.00  0.00    -0.022 N 
ATOM      6  H4  UNL     1     -19.905  38.202  45.436  1.00  0.00     0.203 HD
HETATM    7  C6  UNL     1     -20.230  37.683  43.481  1.00  0.00     0.707 A 
HETATM    8  N8  UNL     1     -19.615  37.303  42.363  1.00  0.00    -0.022 N 
ATOM      9  H8  UNL     1     -20.189  37.129  41.537  1.00  0.00     0.203 HD
ENDROOT
BRANCH   7  10
HETATM   10  N5  UNL     1     -21.493  37.819  43.497  1.00  0.00    -0.225 N 
ATOM     11  H5  UNL     1     -21.901  38.122  42.612  1.00  0.00     0.177 HD
BRANCH  10  12
HETATM   12  C7  UNL     1     -22.423  37.621  44.536  1.00  0.00     0.138 C 
BRANCH  12  13
HETATM   13  C8  UNL     1     -22.673  36.140  44.832  1.00  0.00     0.022 C 
BRANCH  13  14
HETATM   14  C9  UNL     1     -22.494  35.996  46.336  1.00  0.00     0.032 C 
BRANCH  14  15
HETATM   15  C10 UNL     1     -21.123  35.432  46.579  1.00  0.00     0.272 C 
BRANCH  15  16
HETATM   16  N6  UNL     1     -20.522  35.836  47.818  1.00  0.00     0.093 N 
HETATM   17  C11 UNL     1     -20.788  37.287  47.911  1.00  0.00     0.310 C 
BRANCH  16  18
HETATM   18  C12 UNL     1     -19.102  35.712  47.853  1.00  0.00     0.278 C 
HETATM   19  C13 UNL     1     -18.483  36.715  48.782  1.00  0.00     0.270 C 
HETATM   20  N7  UNL     1     -18.244  35.926  50.002  1.00  0.00    -0.070 N 
HETATM   21  C14 UNL     1     -17.551  34.773  49.432  1.00  0.00     0.266 C 
ATOM     22  H72 UNL     1     -17.755  36.409  50.756  1.00  0.00     0.277 HD
ATOM     23  H71 UNL     1     -19.069  35.715  50.563  1.00  0.00     0.277 HD
HETATM   24  C15 UNL     1     -18.496  34.444  48.264  1.00  0.00     0.178 C 
BRANCH  24  25
HETATM   25  O1  UNL     1     -19.284  33.423  48.681  1.00  0.00    -0.392 OA
ATOM     26  H1  UNL     1     -18.974  32.527  48.611  1.00  0.00     0.210 HD
ENDBRANCH  24  25
ENDBRANCH  16  18
ENDBRANCH  15  16
ENDBRANCH  14  15
ENDBRANCH  13  14
ENDBRANCH  12  13
ENDBRANCH  10  12
ENDBRANCH   7  10
BRANCH   4  27
HETATM   27  N3  UNL     1     -17.381  37.975  45.537  1.00  0.00    -0.234 N 
ATOM     28  H32 UNL     1     -17.026  38.910  45.737  1.00  0.00     0.174 HD
ATOM     29  H31 UNL     1     -17.158  37.195  46.154  1.00  0.00     0.174 HD
ENDBRANCH   4  27
BRANCH   1  30
HETATM   30  N1  UNL     1     -17.774  36.772  41.156  1.00  0.00    -0.221 N 
ATOM     31  H1  UNL     1     -17.392  37.598  40.695  1.00  0.00     0.178 HD
BRANCH  30  32
HETATM   32  C2  UNL     1     -17.561  35.700  40.339  1.00  0.00     0.091 C 
HETATM   33  C1  UNL     1     -16.933  34.446  40.912  1.00  0.00     0.032 C 
HETATM   34  C3  UNL     1     -16.670  36.052  39.114  1.00  0.00     0.032 C 
ENDBRANCH  30  32
ENDBRANCH   1  30
TORSDOF 11
ENDMDL
