MODEL 1
REMARK VINA RESULT: -6.104068788      0.000      0.000
REMARK  12 active torsions:
REMARK  status: ('A' for Active; 'I' for Inactive)
REMARK    1  A    between atoms: C2_2  and  C3_3 
REMARK    2  A    between atoms: C3_3  and  N1_4 
REMARK    3  A    between atoms: N1_4  and  C4_6 
REMARK    4  A    between atoms: C5_9  and  N3_10 
REMARK    5  A    between atoms: N3_10  and  C6_12 
REMARK    6  A    between atoms: C6_12  and  N4_13 
REMARK    7  A    between atoms: C6_12  and  C7_17 
REMARK    8  A    between atoms: C7_17  and  C8_18 
REMARK    9  A    between atoms: C8_18  and  C9_19 
REMARK   10  A    between atoms: C11_23  and  N6_24 
REMARK   11  A    between atoms: N6_24  and  C12_26 
REMARK   12  A    between atoms: C15_32  and  O1_33 
ROOT
HETATM    1  C4  UNL     1     -20.572  38.410  45.300  1.00  0.00     0.707 A 
HETATM    2  N2  UNL     1     -19.819  38.038  44.259  1.00  0.00    -0.021 N 
ATOM      3  H2  UNL     1     -20.254  37.730  43.390  1.00  0.00     0.203 HD
HETATM    4  C5  UNL     1     -18.473  38.077  44.376  1.00  0.00     0.709 A 
HETATM    5  N5  UNL     1     -17.910  38.485  45.521  1.00  0.00    -0.021 N 
ATOM      6  H5  UNL     1     -16.895  38.514  45.607  1.00  0.00     0.203 HD
HETATM    7  C11 UNL     1     -18.690  38.858  46.564  1.00  0.00     0.707 A 
HETATM    8  N8  UNL     1     -20.023  38.830  46.478  1.00  0.00    -0.021 N 
ATOM      9  H8  UNL     1     -20.610  39.111  47.264  1.00  0.00     0.203 HD
ENDROOT
BRANCH   4  10
HETATM   10  N3  UNL     1     -17.753  37.719  43.375  1.00  0.00    -0.196 N 
ATOM     11  H3  UNL     1     -16.811  38.102  43.300  1.00  0.00     0.180 HD
BRANCH  10  12
HETATM   12  C6  UNL     1     -18.198  36.809  42.352  1.00  0.00     0.297 C 
BRANCH  12  13
HETATM   13  N4  UNL     1     -17.669  35.458  42.579  1.00  0.00    -0.058 N 
ATOM     14  H43 UNL     1     -17.354  35.027  41.710  1.00  0.00     0.276 HD
ATOM     15  H42 UNL     1     -16.777  35.482  43.073  1.00  0.00     0.276 HD
ATOM     16  H41 UNL     1     -18.350  34.872  43.062  1.00  0.00     0.276 HD
ENDBRANCH  12  13
BRANCH  12  17
HETATM   17  C7  UNL     1     -17.721  37.219  40.978  1.00  0.00     0.055 C 
BRANCH  17  18
HETATM   18  C8  UNL     1     -18.038  36.201  39.928  1.00  0.00     0.003 C 
BRANCH  18  19
HETATM   19  C9  UNL     1     -16.814  35.823  39.131  1.00  0.00    -0.004 C 
HETATM   20  C10 UNL     1     -16.471  34.365  39.401  1.00  0.00     0.005 C 
ENDBRANCH  18  19
ENDBRANCH  17  18
ENDBRANCH  12  17
ENDBRANCH  10  12
ENDBRANCH   4  10
BRANCH   1  21
HETATM   21  N1  UNL     1     -21.855  38.401  45.287  1.00  0.00    -0.222 N 
ATOM     22  H1  UNL     1     -22.357  39.059  44.691  1.00  0.00     0.178 HD
BRANCH  21  23
HETATM   23  C3  UNL     1     -22.593  37.477  46.100  1.00  0.00     0.164 C 
BRANCH  23  24
HETATM   24  C2  UNL     1     -22.620  36.157  45.444  1.00  0.00    -0.017 C 
HETATM   25  C1  UNL     1     -23.356  35.183  45.904  1.00  0.00     0.008 C 
ENDBRANCH  23  24
ENDBRANCH  21  23
ENDBRANCH   1  21
BRANCH   7  26
HETATM   26  N6  UNL     1     -18.146  39.249  47.663  1.00  0.00    -0.216 N 
ATOM     27  H6  UNL     1     -17.239  38.860  47.921  1.00  0.00     0.178 HD
BRANCH  26  28
HETATM   28  C12 UNL     1     -18.751  40.200  48.538  1.00  0.00     0.155 C 
HETATM   29  C13 UNL     1     -18.565  39.745  49.992  1.00  0.00     0.260 C 
HETATM   30  N7  UNL     1     -18.900  40.959  50.707  1.00  0.00    -0.071 N 
HETATM   31  C14 UNL     1     -18.179  41.986  49.998  1.00  0.00     0.266 C 
ATOM     32  H72 UNL     1     -19.901  41.133  50.795  1.00  0.00     0.277 HD
ATOM     33  H71 UNL     1     -18.708  40.925  51.708  1.00  0.00     0.277 HD
HETATM   34  C15 UNL     1     -18.044  41.526  48.563  1.00  0.00     0.168 C 
BRANCH  34  35
HETATM   35  O1  UNL     1     -16.704  41.373  48.201  1.00  0.00    -0.392 OA
ATOM     36  H1  UNL     1     -16.389  42.151  47.755  1.00  0.00     0.210 HD
ENDBRANCH  34  35
ENDBRANCH  26  28
ENDBRANCH   7  26
TORSDOF 12
ENDMDL
MODEL 2
REMARK VINA RESULT: -6.101496707      1.594      2.278
REMARK  12 active torsions:
REMARK  status: ('A' for Active; 'I' for Inactive)
REMARK    1  A    between atoms: C2_2  and  C3_3 
REMARK    2  A    between atoms: C3_3  and  N1_4 
REMARK    3  A    between atoms: N1_4  and  C4_6 
REMARK    4  A    between atoms: C5_9  and  N3_10 
REMARK    5  A    between atoms: N3_10  and  C6_12 
REMARK    6  A    between atoms: C6_12  and  N4_13 
REMARK    7  A    between atoms: C6_12  and  C7_17 
REMARK    8  A    between atoms: C7_17  and  C8_18 
REMARK    9  A    between atoms: C8_18  and  C9_19 
REMARK   10  A    between atoms: C11_23  and  N6_24 
REMARK   11  A    between atoms: N6_24  and  C12_26 
REMARK   12  A    between atoms: C15_32  and  O1_33 
ROOT
HETATM    1  C4  UNL     1     -19.672  37.471  43.424  1.00  0.00     0.707 A 
HETATM    2  N2  UNL     1     -18.843  36.596  42.843  1.00  0.00    -0.021 N 
ATOM      3  H2  UNL     1     -19.126  36.098  41.999  1.00  0.00     0.203 HD
HETATM    4  C5  UNL     1     -17.626  36.382  43.391  1.00  0.00     0.709 A 
HETATM    5  N5  UNL     1     -17.263  37.041  44.498  1.00  0.00    -0.021 N 
ATOM      6  H5  UNL     1     -16.345  36.878  44.910  1.00  0.00     0.203 HD
HETATM    7  C11 UNL     1     -18.117  37.923  45.072  1.00  0.00     0.707 A 
HETATM    8  N8  UNL     1     -19.326  38.156  44.554  1.00  0.00    -0.021 N 
ATOM      9  H8  UNL     1     -19.968  38.820  44.986  1.00  0.00     0.203 HD
ENDROOT
BRANCH   4  10
HETATM   10  N3  UNL     1     -16.833  35.541  42.831  1.00  0.00    -0.196 N 
ATOM     11  H3  UNL     1     -15.839  35.598  43.052  1.00  0.00     0.180 HD
BRANCH  10  12
HETATM   12  C6  UNL     1     -17.265  34.524  41.908  1.00  0.00     0.297 C 
BRANCH  12  13
HETATM   13  N4  UNL     1     -17.682  33.307  42.619  1.00  0.00    -0.058 N 
ATOM     14  H43 UNL     1     -18.695  33.186  42.593  1.00  0.00     0.276 HD
ATOM     15  H42 UNL     1     -17.411  32.465  42.112  1.00  0.00     0.276 HD
ATOM     16  H41 UNL     1     -17.328  33.300  43.575  1.00  0.00     0.276 HD
ENDBRANCH  12  13
BRANCH  12  17
HETATM   17  C7  UNL     1     -16.160  34.101  40.968  1.00  0.00     0.055 C 
BRANCH  17  18
HETATM   18  C8  UNL     1     -16.534  34.257  39.528  1.00  0.00     0.003 C 
BRANCH  18  19
HETATM   19  C9  UNL     1     -17.585  35.323  39.337  1.00  0.00    -0.004 C 
HETATM   20  C10 UNL     1     -16.905  36.678  39.197  1.00  0.00     0.005 C 
ENDBRANCH  18  19
ENDBRANCH  17  18
ENDBRANCH  12  17
ENDBRANCH  10  12
ENDBRANCH   4  10
BRANCH   1  21
HETATM   21  N1  UNL     1     -20.846  37.736  42.983  1.00  0.00    -0.222 N 
ATOM     22  H1  UNL     1     -21.000  37.819  41.978  1.00  0.00     0.178 HD
BRANCH  21  23
HETATM   23  C3  UNL     1     -21.948  37.916  43.885  1.00  0.00     0.164 C 
BRANCH  23  24
HETATM   24  C2  UNL     1     -22.582  36.613  44.155  1.00  0.00    -0.017 C 
HETATM   25  C1  UNL     1     -22.580  36.089  45.349  1.00  0.00     0.008 C 
ENDBRANCH  23  24
ENDBRANCH  21  23
ENDBRANCH   1  21
BRANCH   7  26
HETATM   26  N6  UNL     1     -17.764  38.555  46.137  1.00  0.00    -0.216 N 
ATOM     27  H6  UNL     1     -16.913  39.117  46.109  1.00  0.00     0.178 HD
BRANCH  26  28
HETATM   28  C12 UNL     1     -18.507  38.507  47.354  1.00  0.00     0.155 C 
HETATM   29  C13 UNL     1     -17.924  37.417  48.264  1.00  0.00     0.260 C 
HETATM   30  N7  UNL     1     -18.540  37.756  49.531  1.00  0.00    -0.071 N 
HETATM   31  C14 UNL     1     -18.363  39.183  49.629  1.00  0.00     0.266 C 
ATOM     32  H72 UNL     1     -19.506  37.445  49.625  1.00  0.00     0.277 HD
ATOM     33  H71 UNL     1     -18.178  37.232  50.328  1.00  0.00     0.277 HD
HETATM   34  C15 UNL     1     -18.323  39.725  48.217  1.00  0.00     0.168 C 
BRANCH  34  35
HETATM   35  O1  UNL     1     -17.100  40.340  47.941  1.00  0.00    -0.392 OA
ATOM     36  H1  UNL     1     -16.566  39.783  47.386  1.00  0.00     0.210 HD
ENDBRANCH  34  35
ENDBRANCH  26  28
ENDBRANCH   7  26
TORSDOF 12
ENDMDL
MODEL 3
REMARK VINA RESULT: -6.011433315      2.793      7.235
REMARK  12 active torsions:
REMARK  status: ('A' for Active; 'I' for Inactive)
REMARK    1  A    between atoms: C2_2  and  C3_3 
REMARK    2  A    between atoms: C3_3  and  N1_4 
REMARK    3  A    between atoms: N1_4  and  C4_6 
REMARK    4  A    between atoms: C5_9  and  N3_10 
REMARK    5  A    between atoms: N3_10  and  C6_12 
REMARK    6  A    between atoms: C6_12  and  N4_13 
REMARK    7  A    between atoms: C6_12  and  C7_17 
REMARK    8  A    between atoms: C7_17  and  C8_18 
REMARK    9  A    between atoms: C8_18  and  C9_19 
REMARK   10  A    between atoms: C11_23  and  N6_24 
REMARK   11  A    between atoms: N6_24  and  C12_26 
REMARK   12  A    between atoms: C15_32  and  O1_33 
ROOT
HETATM    1  C4  UNL     1     -18.079  37.710  45.650  1.00  0.00     0.707 A 
HETATM    2  N2  UNL     1     -19.074  36.939  46.100  1.00  0.00    -0.021 N 
ATOM      3  H2  UNL     1     -19.622  37.224  46.911  1.00  0.00     0.203 HD
HETATM    4  C5  UNL     1     -19.343  35.776  45.465  1.00  0.00     0.709 A 
HETATM    5  N5  UNL     1     -18.618  35.410  44.401  1.00  0.00    -0.021 N 
ATOM      6  H5  UNL     1     -18.822  34.532  43.923  1.00  0.00     0.203 HD
HETATM    7  C11 UNL     1     -17.614  36.205  43.959  1.00  0.00     0.707 A 
HETATM    8  N8  UNL     1     -17.325  37.359  44.566  1.00  0.00    -0.021 N 
ATOM      9  H8  UNL     1     -16.569  37.958  44.233  1.00  0.00     0.203 HD
ENDROOT
BRANCH   4  10
HETATM   10  N3  UNL     1     -20.299  35.038  45.901  1.00  0.00    -0.196 N 
ATOM     11  H3  UNL     1     -20.295  34.049  45.651  1.00  0.00     0.180 HD
BRANCH  10  12
HETATM   12  C6  UNL     1     -21.377  35.525  46.722  1.00  0.00     0.297 C 
BRANCH  12  13
HETATM   13  N4  UNL     1     -21.404  34.841  48.022  1.00  0.00    -0.058 N 
ATOM     14  H43 UNL     1     -20.799  35.302  48.701  1.00  0.00     0.276 HD
ATOM     15  H42 UNL     1     -22.298  34.970  48.496  1.00  0.00     0.276 HD
ATOM     16  H41 UNL     1     -21.171  33.853  47.922  1.00  0.00     0.276 HD
ENDBRANCH  12  13
BRANCH  12  17
HETATM   17  C7  UNL     1     -22.729  35.278  46.093  1.00  0.00     0.055 C 
BRANCH  17  18
HETATM   18  C8  UNL     1     -22.961  36.114  44.873  1.00  0.00     0.003 C 
BRANCH  18  19
HETATM   19  C9  UNL     1     -22.605  37.560  45.113  1.00  0.00    -0.004 C 
HETATM   20  C10 UNL     1     -21.803  38.082  43.928  1.00  0.00     0.005 C 
ENDBRANCH  18  19
ENDBRANCH  17  18
ENDBRANCH  12  17
ENDBRANCH  10  12
ENDBRANCH   4  10
BRANCH   1  21
HETATM   21  N1  UNL     1     -17.745  38.825  46.188  1.00  0.00    -0.222 N 
ATOM     22  H1  UNL     1     -16.930  39.329  45.837  1.00  0.00     0.178 HD
BRANCH  21  23
HETATM   23  C3  UNL     1     -18.502  39.373  47.277  1.00  0.00     0.164 C 
BRANCH  23  24
HETATM   24  C2  UNL     1     -19.471  40.356  46.758  1.00  0.00    -0.017 C 
HETATM   25  C1  UNL     1     -19.469  41.595  47.165  1.00  0.00     0.008 C 
ENDBRANCH  23  24
ENDBRANCH  21  23
ENDBRANCH   1  21
BRANCH   7  26
HETATM   26  N6  UNL     1     -16.919  35.850  42.935  1.00  0.00    -0.216 N 
ATOM     27  H6  UNL     1     -15.910  35.995  42.959  1.00  0.00     0.178 HD
BRANCH  26  28
HETATM   28  C12 UNL     1     -17.493  35.264  41.768  1.00  0.00     0.155 C 
HETATM   29  C13 UNL     1     -17.552  36.312  40.648  1.00  0.00     0.260 C 
HETATM   30  N7  UNL     1     -17.806  35.472  39.495  1.00  0.00    -0.071 N 
HETATM   31  C14 UNL     1     -16.870  34.386  39.648  1.00  0.00     0.266 C 
ATOM     32  H72 UNL     1     -18.777  35.178  39.394  1.00  0.00     0.277 HD
ATOM     33  H71 UNL     1     -17.745  35.956  38.600  1.00  0.00     0.277 HD
HETATM   34  C15 UNL     1     -16.622  34.217  41.131  1.00  0.00     0.168 C 
BRANCH  34  35
HETATM   35  O1  UNL     1     -15.280  34.436  41.452  1.00  0.00    -0.392 OA
ATOM     36  H1  UNL     1     -14.773  33.645  41.316  1.00  0.00     0.210 HD
ENDBRANCH  34  35
ENDBRANCH  26  28
ENDBRANCH   7  26
TORSDOF 12
ENDMDL
MODEL 4
REMARK VINA RESULT: -5.973793820      2.742      6.984
REMARK  12 active torsions:
REMARK  status: ('A' for Active; 'I' for Inactive)
REMARK    1  A    between atoms: C2_2  and  C3_3 
REMARK    2  A    between atoms: C3_3  and  N1_4 
REMARK    3  A    between atoms: N1_4  and  C4_6 
REMARK    4  A    between atoms: C5_9  and  N3_10 
REMARK    5  A    between atoms: N3_10  and  C6_12 
REMARK    6  A    between atoms: C6_12  and  N4_13 
REMARK    7  A    between atoms: C6_12  and  C7_17 
REMARK    8  A    between atoms: C7_17  and  C8_18 
REMARK    9  A    between atoms: C8_18  and  C9_19 
REMARK   10  A    between atoms: C11_23  and  N6_24 
REMARK   11  A    between atoms: N6_24  and  C12_26 
REMARK   12  A    between atoms: C15_32  and  O1_33 
ROOT
HETATM    1  C4  UNL     1     -19.845  37.511  43.660  1.00  0.00     0.707 A 
HETATM    2  N2  UNL     1     -19.432  38.156  44.756  1.00  0.00    -0.021 N 
ATOM      3  H2  UNL     1     -20.076  38.745  45.284  1.00  0.00     0.203 HD
HETATM    4  C5  UNL     1     -18.147  38.017  45.155  1.00  0.00     0.709 A 
HETATM    5  N5  UNL     1     -17.308  37.242  44.457  1.00  0.00    -0.021 N 
ATOM      6  H5  UNL     1     -16.340  37.138  44.758  1.00  0.00     0.203 HD
HETATM    7  C11 UNL     1     -17.746  36.596  43.348  1.00  0.00     0.707 A 
HETATM    8  N8  UNL     1     -19.009  36.715  42.930  1.00  0.00    -0.021 N 
ATOM      9  H8  UNL     1     -19.339  36.228  42.097  1.00  0.00     0.203 HD
ENDROOT
BRANCH   4  10
HETATM   10  N3  UNL     1     -17.754  38.638  46.207  1.00  0.00    -0.196 N 
ATOM     11  H3  UNL     1     -16.975  39.291  46.117  1.00  0.00     0.180 HD
BRANCH  10  12
HETATM   12  C6  UNL     1     -18.347  38.467  47.508  1.00  0.00     0.297 C 
BRANCH  12  13
HETATM   13  N4  UNL     1     -17.735  39.371  48.492  1.00  0.00    -0.058 N 
ATOM     14  H43 UNL     1     -17.213  38.856  49.201  1.00  0.00     0.276 HD
ATOM     15  H42 UNL     1     -16.965  39.902  48.086  1.00  0.00     0.276 HD
ATOM     16  H41 UNL     1     -18.434  39.985  48.912  1.00  0.00     0.276 HD
ENDBRANCH  12  13
BRANCH  12  17
HETATM   17  C7  UNL     1     -18.148  37.069  48.046  1.00  0.00     0.055 C 
BRANCH  17  18
HETATM   18  C8  UNL     1     -19.413  36.270  48.062  1.00  0.00     0.003 C 
BRANCH  18  19
HETATM   19  C9  UNL     1     -19.181  34.850  47.608  1.00  0.00    -0.004 C 
HETATM   20  C10 UNL     1     -19.543  34.729  46.134  1.00  0.00     0.005 C 
ENDBRANCH  18  19
ENDBRANCH  17  18
ENDBRANCH  12  17
ENDBRANCH  10  12
ENDBRANCH   4  10
BRANCH   1  21
HETATM   21  N1  UNL     1     -21.040  37.586  43.201  1.00  0.00    -0.222 N 
ATOM     22  H1  UNL     1     -21.196  37.538  42.194  1.00  0.00     0.178 HD
BRANCH  21  23
HETATM   23  C3  UNL     1     -22.161  37.735  44.085  1.00  0.00     0.164 C 
BRANCH  23  24
HETATM   24  C2  UNL     1     -22.551  36.415  44.612  1.00  0.00    -0.017 C 
HETATM   25  C1  UNL     1     -22.886  36.253  45.862  1.00  0.00     0.008 C 
ENDBRANCH  23  24
ENDBRANCH  21  23
ENDBRANCH   1  21
BRANCH   7  26
HETATM   26  N6  UNL     1     -16.937  35.851  42.679  1.00  0.00    -0.216 N 
ATOM     27  H6  UNL     1     -15.981  35.746  43.019  1.00  0.00     0.178 HD
BRANCH  26  28
HETATM   28  C12 UNL     1     -17.312  35.167  41.486  1.00  0.00     0.155 C 
HETATM   29  C13 UNL     1     -17.208  36.128  40.293  1.00  0.00     0.260 C 
HETATM   30  N7  UNL     1     -17.266  35.198  39.183  1.00  0.00    -0.071 N 
HETATM   31  C14 UNL     1     -16.352  34.150  39.563  1.00  0.00     0.266 C 
ATOM     32  H72 UNL     1     -18.205  34.874  38.955  1.00  0.00     0.277 HD
ATOM     33  H71 UNL     1     -17.071  35.616  38.274  1.00  0.00     0.277 HD
HETATM   34  C15 UNL     1     -16.338  34.098  41.075  1.00  0.00     0.168 C 
BRANCH  34  35
HETATM   35  O1  UNL     1     -15.067  34.374  41.583  1.00  0.00    -0.392 OA
ATOM     36  H1  UNL     1     -14.755  33.647  42.109  1.00  0.00     0.210 HD
ENDBRANCH  34  35
ENDBRANCH  26  28
ENDBRANCH   7  26
TORSDOF 12
ENDMDL
MODEL 5
REMARK VINA RESULT: -5.854069507      3.112      3.695
REMARK  12 active torsions:
REMARK  status: ('A' for Active; 'I' for Inactive)
REMARK    1  A    between atoms: C2_2  and  C3_3 
REMARK    2  A    between atoms: C3_3  and  N1_4 
REMARK    3  A    between atoms: N1_4  and  C4_6 
REMARK    4  A    between atoms: C5_9  and  N3_10 
REMARK    5  A    between atoms: N3_10  and  C6_12 
REMARK    6  A    between atoms: C6_12  and  N4_13 
REMARK    7  A    between atoms: C6_12  and  C7_17 
REMARK    8  A    between atoms: C7_17  and  C8_18 
REMARK    9  A    between atoms: C8_18  and  C9_19 
REMARK   10  A    between atoms: C11_23  and  N6_24 
REMARK   11  A    between atoms: N6_24  and  C12_26 
REMARK   12  A    between atoms: C15_32  and  O1_33 
ROOT
HETATM    1  C4  UNL     1     -20.685  36.758  45.391  1.00  0.00     0.707 A 
HETATM    2  N2  UNL     1     -20.173  36.573  44.169  1.00  0.00    -0.021 N 
ATOM      3  H2  UNL     1     -20.766  36.645  43.343  1.00  0.00     0.203 HD
HETATM    4  C5  UNL     1     -18.856  36.290  44.046  1.00  0.00     0.709 A 
HETATM    5  N5  UNL     1     -18.084  36.198  45.135  1.00  0.00    -0.021 N 
ATOM      6  H5  UNL     1     -17.092  35.985  45.040  1.00  0.00     0.203 HD
HETATM    7  C11 UNL     1     -18.621  36.389  46.365  1.00  0.00     0.707 A 
HETATM    8  N8  UNL     1     -19.918  36.670  46.518  1.00  0.00    -0.021 N 
ATOM      9  H8  UNL     1     -20.323  36.815  47.444  1.00  0.00     0.203 HD
ENDROOT
BRANCH   4  10
HETATM   10  N3  UNL     1     -18.368  36.112  42.871  1.00  0.00    -0.196 N 
ATOM     11  H3  UNL     1     -18.395  35.172  42.477  1.00  0.00     0.180 HD
BRANCH  10  12
HETATM   12  C6  UNL     1     -17.785  37.163  42.078  1.00  0.00     0.297 C 
BRANCH  12  13
HETATM   13  N4  UNL     1     -18.065  38.483  42.660  1.00  0.00    -0.058 N 
ATOM     14  H43 UNL     1     -17.218  39.047  42.735  1.00  0.00     0.276 HD
ATOM     15  H42 UNL     1     -18.589  39.075  42.015  1.00  0.00     0.276 HD
ATOM     16  H41 UNL     1     -18.539  38.396  43.559  1.00  0.00     0.276 HD
ENDBRANCH  12  13
BRANCH  12  17
HETATM   17  C7  UNL     1     -18.348  37.198  40.676  1.00  0.00     0.055 C 
BRANCH  17  18
HETATM   18  C8  UNL     1     -17.379  36.697  39.651  1.00  0.00     0.003 C 
BRANCH  18  19
HETATM   19  C9  UNL     1     -17.740  35.311  39.174  1.00  0.00    -0.004 C 
HETATM   20  C10 UNL     1     -16.607  34.353  39.517  1.00  0.00     0.005 C 
ENDBRANCH  18  19
ENDBRANCH  17  18
ENDBRANCH  12  17
ENDBRANCH  10  12
ENDBRANCH   4  10
BRANCH   1  21
HETATM   21  N1  UNL     1     -21.920  37.024  45.610  1.00  0.00    -0.222 N 
ATOM     22  H1  UNL     1     -22.167  37.815  46.204  1.00  0.00     0.178 HD
BRANCH  21  23
HETATM   23  C3  UNL     1     -22.960  36.224  45.029  1.00  0.00     0.164 C 
BRANCH  23  24
HETATM   24  C2  UNL     1     -23.272  35.095  45.926  1.00  0.00    -0.017 C 
HETATM   25  C1  UNL     1     -23.908  35.274  47.050  1.00  0.00     0.008 C 
ENDBRANCH  23  24
ENDBRANCH  21  23
ENDBRANCH   1  21
BRANCH   7  26
HETATM   26  N6  UNL     1     -17.876  36.301  47.410  1.00  0.00    -0.216 N 
ATOM     27  H6  UNL     1     -17.017  36.850  47.441  1.00  0.00     0.178 HD
BRANCH  26  28
HETATM   28  C12 UNL     1     -18.194  35.472  48.527  1.00  0.00     0.155 C 
HETATM   29  C13 UNL     1     -18.613  34.082  48.028  1.00  0.00     0.260 C 
HETATM   30  N7  UNL     1     -18.540  33.315  49.254  1.00  0.00    -0.071 N 
HETATM   31  C14 UNL     1     -17.280  33.708  49.833  1.00  0.00     0.266 C 
ATOM     32  H72 UNL     1     -19.342  33.433  49.873  1.00  0.00     0.277 HD
ATOM     33  H71 UNL     1     -18.648  32.308  49.127  1.00  0.00     0.277 HD
HETATM   34  C15 UNL     1     -17.001  35.122  49.373  1.00  0.00     0.168 C 
BRANCH  34  35
HETATM   35  O1  UNL     1     -15.828  35.190  48.616  1.00  0.00    -0.392 OA
ATOM     36  H1  UNL     1     -15.068  35.053  49.169  1.00  0.00     0.210 HD
ENDBRANCH  34  35
ENDBRANCH  26  28
ENDBRANCH   7  26
TORSDOF 12
ENDMDL
