MODEL 1
REMARK VINA RESULT: -4.868162043      0.000      0.000
REMARK  11 active torsions:
REMARK  status: ('A' for Active; 'I' for Inactive)
REMARK    1  A    between atoms: C2_2  and  C4_4 
REMARK       I    between atoms: C4_4  and  N1_6 
REMARK    2  A    between atoms: N1_6  and  C5_8 
REMARK    3  A    between atoms: C5_8  and  C6_9 
REMARK    4  A    between atoms: C5_8  and  C7_11 
REMARK    5  A    between atoms: C7_11  and  C8_12 
REMARK    6  A    between atoms: C8_12  and  C9_13 
REMARK    7  A    between atoms: N2_14  and  N3_16 
REMARK    8  A    between atoms: C11_20  and  O2_21 
REMARK    9  A    between atoms: C12_23  and  O3_24 
REMARK   10  A    between atoms: C13_26  and  C14_27 
REMARK   11  A    between atoms: C14_27  and  O4_28 
ROOT
HETATM    1  C7  UNL     1     -18.637  36.671  44.674  1.00  0.00     0.089 C 
HETATM    2  C10 UNL     1     -19.691  36.736  43.548  1.00  0.00     0.075 C 
HETATM    3  C11 UNL     1     -19.075  36.969  42.205  1.00  0.00     0.152 C 
HETATM    4  C12 UNL     1     -17.707  36.433  42.002  1.00  0.00     0.178 C 
HETATM    5  C13 UNL     1     -17.392  35.453  43.076  1.00  0.00     0.177 C 
HETATM    6  O5  UNL     1     -17.738  35.716  44.339  1.00  0.00    -0.367 OA
ENDROOT
BRANCH   1   7
HETATM    7  C5  UNL     1     -19.372  36.214  45.914  1.00  0.00     0.129 C 
BRANCH   7   8
HETATM    8  N1  UNL     1     -20.815  36.261  45.588  1.00  0.00    -0.352 N 
HETATM    9  C4  UNL     1     -21.767  36.888  46.391  1.00  0.00     0.221 C 
HETATM   10  O1  UNL     1     -21.339  37.445  47.459  1.00  0.00    -0.273 OA
ATOM     11  H1  UNL     1     -21.130  35.810  44.728  1.00  0.00     0.163 HD
BRANCH   9  12
HETATM   12  C2  UNL     1     -23.202  36.971  46.136  1.00  0.00     0.070 C 
HETATM   13  C1  UNL     1     -23.873  35.738  46.700  1.00  0.00     0.019 C 
HETATM   14  C3  UNL     1     -23.820  38.162  46.872  1.00  0.00     0.019 C 
ENDBRANCH   9  12
ENDBRANCH   7   8
BRANCH   7  15
HETATM   15  C6  UNL     1     -19.162  34.757  46.264  1.00  0.00     0.114 C 
HETATM   16  S1  UNL     1     -19.105  34.363  47.994  1.00  0.00    -0.095 SA
ENDBRANCH   7  15
ENDBRANCH   1   7
BRANCH   1  17
HETATM   17  C8  UNL     1     -18.110  38.065  44.780  1.00  0.00     0.086 C 
BRANCH  17  18
HETATM   18  C9  UNL     1     -18.400  38.722  46.079  1.00  0.00     0.082 C 
HETATM   19  N2  UNL     1     -19.367  39.570  46.153  1.00  0.00    -0.322 N 
ATOM     20  H2  UNL     1     -19.923  39.782  45.325  1.00  0.00     0.185 HD
BRANCH  19  21
HETATM   21  N3  UNL     1     -19.656  40.203  47.375  1.00  0.00    -0.346 N 
ATOM     22  H32 UNL     1     -18.932  40.761  47.826  1.00  0.00     0.176 HD
ATOM     23  H31 UNL     1     -20.579  40.099  47.797  1.00  0.00     0.176 HD
ENDBRANCH  19  21
ENDBRANCH  17  18
ENDBRANCH   1  17
BRANCH   3  24
HETATM   24  O2  UNL     1     -19.166  38.305  41.804  1.00  0.00    -0.393 OA
ATOM     25  H2  UNL     1     -18.315  38.724  41.751  1.00  0.00     0.210 HD
ENDBRANCH   3  24
BRANCH   5  26
HETATM   26  C14 UNL     1     -17.801  34.077  42.568  1.00  0.00     0.198 C 
BRANCH  26  27
HETATM   27  O4  UNL     1     -16.695  33.424  41.983  1.00  0.00    -0.398 OA
ATOM     28  H4  UNL     1     -16.926  32.533  41.750  1.00  0.00     0.209 HD
ENDBRANCH  26  27
ENDBRANCH   5  26
BRANCH   4  29
HETATM   29  O3  UNL     1     -17.636  35.736  40.764  1.00  0.00    -0.390 OA
ATOM     30  H3  UNL     1     -16.954  36.111  40.219  1.00  0.00     0.210 HD
ENDBRANCH   4  29
TORSDOF 11
ENDMDL
MODEL 2
REMARK VINA RESULT: -4.740202405      1.868      2.180
REMARK  11 active torsions:
REMARK  status: ('A' for Active; 'I' for Inactive)
REMARK    1  A    between atoms: C2_2  and  C4_4 
REMARK       I    between atoms: C4_4  and  N1_6 
REMARK    2  A    between atoms: N1_6  and  C5_8 
REMARK    3  A    between atoms: C5_8  and  C6_9 
REMARK    4  A    between atoms: C5_8  and  C7_11 
REMARK    5  A    between atoms: C7_11  and  C8_12 
REMARK    6  A    between atoms: C8_12  and  C9_13 
REMARK    7  A    between atoms: N2_14  and  N3_16 
REMARK    8  A    between atoms: C11_20  and  O2_21 
REMARK    9  A    between atoms: C12_23  and  O3_24 
REMARK   10  A    between atoms: C13_26  and  C14_27 
REMARK   11  A    between atoms: C14_27  and  O4_28 
ROOT
HETATM    1  C7  UNL     1     -19.941  37.054  45.804  1.00  0.00     0.089 C 
HETATM    2  C10 UNL     1     -20.349  36.292  44.525  1.00  0.00     0.075 C 
HETATM    3  C11 UNL     1     -19.980  37.034  43.279  1.00  0.00     0.152 C 
HETATM    4  C12 UNL     1     -18.778  37.900  43.355  1.00  0.00     0.178 C 
HETATM    5  C13 UNL     1     -17.989  37.550  44.566  1.00  0.00     0.177 C 
HETATM    6  O5  UNL     1     -18.614  37.310  45.722  1.00  0.00    -0.367 OA
ENDROOT
BRANCH   1   7
HETATM    7  C5  UNL     1     -20.168  36.099  46.955  1.00  0.00     0.129 C 
BRANCH   7   8
HETATM    8  N1  UNL     1     -21.509  35.508  46.751  1.00  0.00    -0.352 N 
HETATM    9  C4  UNL     1     -22.559  35.646  47.660  1.00  0.00     0.221 C 
HETATM   10  O1  UNL     1     -22.318  36.327  48.714  1.00  0.00    -0.273 OA
ATOM     11  H1  UNL     1     -21.675  34.971  45.899  1.00  0.00     0.163 HD
BRANCH   9  12
HETATM   12  C2  UNL     1     -23.902  35.089  47.528  1.00  0.00     0.070 C 
HETATM   13  C1  UNL     1     -24.249  34.339  48.794  1.00  0.00     0.019 C 
HETATM   14  C3  UNL     1     -24.943  36.202  47.397  1.00  0.00     0.019 C 
ENDBRANCH   9  12
ENDBRANCH   7   8
BRANCH   7  15
HETATM   15  C6  UNL     1     -19.268  34.883  46.944  1.00  0.00     0.114 C 
HETATM   16  S1  UNL     1     -18.660  34.339  48.522  1.00  0.00    -0.095 SA
ENDBRANCH   7  15
ENDBRANCH   1   7
BRANCH   1  17
HETATM   17  C8  UNL     1     -20.842  38.246  45.839  1.00  0.00     0.086 C 
BRANCH  17  18
HETATM   18  C9  UNL     1     -20.495  39.234  46.890  1.00  0.00     0.082 C 
HETATM   19  N2  UNL     1     -19.594  40.121  46.647  1.00  0.00    -0.322 N 
ATOM     20  H2  UNL     1     -19.129  40.139  45.739  1.00  0.00     0.185 HD
BRANCH  19  21
HETATM   21  N3  UNL     1     -19.252  41.065  47.631  1.00  0.00    -0.346 N 
ATOM     22  H32 UNL     1     -19.925  41.792  47.874  1.00  0.00     0.176 HD
ATOM     23  H31 UNL     1     -18.342  41.018  48.090  1.00  0.00     0.176 HD
ENDBRANCH  19  21
ENDBRANCH  17  18
ENDBRANCH   1  17
BRANCH   3  24
HETATM   24  O2  UNL     1     -21.067  37.715  42.725  1.00  0.00    -0.393 OA
ATOM     25  H2  UNL     1     -21.798  37.136  42.539  1.00  0.00     0.210 HD
ENDBRANCH   3  24
BRANCH   5  26
HETATM   26  C14 UNL     1     -16.969  36.497  44.154  1.00  0.00     0.198 C 
BRANCH  26  27
HETATM   27  O4  UNL     1     -15.660  36.965  44.397  1.00  0.00    -0.398 OA
ATOM     28  H4  UNL     1     -15.339  37.447  43.644  1.00  0.00     0.209 HD
ENDBRANCH  26  27
ENDBRANCH   5  26
BRANCH   4  29
HETATM   29  O3  UNL     1     -17.942  37.672  42.228  1.00  0.00    -0.390 OA
ATOM     30  H3  UNL     1     -17.538  36.814  42.292  1.00  0.00     0.210 HD
ENDBRANCH   4  29
TORSDOF 11
ENDMDL
MODEL 3
REMARK VINA RESULT: -4.697993899      2.607      5.704
REMARK  11 active torsions:
REMARK  status: ('A' for Active; 'I' for Inactive)
REMARK    1  A    between atoms: C2_2  and  C4_4 
REMARK       I    between atoms: C4_4  and  N1_6 
REMARK    2  A    between atoms: N1_6  and  C5_8 
REMARK    3  A    between atoms: C5_8  and  C6_9 
REMARK    4  A    between atoms: C5_8  and  C7_11 
REMARK    5  A    between atoms: C7_11  and  C8_12 
REMARK    6  A    between atoms: C8_12  and  C9_13 
REMARK    7  A    between atoms: N2_14  and  N3_16 
REMARK    8  A    between atoms: C11_20  and  O2_21 
REMARK    9  A    between atoms: C12_23  and  O3_24 
REMARK   10  A    between atoms: C13_26  and  C14_27 
REMARK   11  A    between atoms: C14_27  and  O4_28 
ROOT
HETATM    1  C7  UNL     1     -18.734  36.793  44.925  1.00  0.00     0.089 C 
HETATM    2  C10 UNL     1     -19.042  35.283  44.827  1.00  0.00     0.075 C 
HETATM    3  C11 UNL     1     -20.004  34.831  45.880  1.00  0.00     0.152 C 
HETATM    4  C12 UNL     1     -20.997  35.830  46.344  1.00  0.00     0.178 C 
HETATM    5  C13 UNL     1     -21.047  36.965  45.384  1.00  0.00     0.177 C 
HETATM    6  O5  UNL     1     -19.913  37.456  44.875  1.00  0.00    -0.367 OA
ENDROOT
BRANCH   1   7
HETATM    7  C5  UNL     1     -17.942  37.143  43.684  1.00  0.00     0.129 C 
BRANCH   7   8
HETATM    8  N1  UNL     1     -18.051  35.979  42.776  1.00  0.00    -0.352 N 
HETATM    9  C4  UNL     1     -16.954  35.232  42.346  1.00  0.00     0.221 C 
HETATM   10  O1  UNL     1     -15.808  35.595  42.778  1.00  0.00    -0.273 OA
ATOM     11  H1  UNL     1     -18.978  35.709  42.447  1.00  0.00     0.163 HD
BRANCH   9  12
HETATM   12  C2  UNL     1     -16.984  34.079  41.450  1.00  0.00     0.070 C 
HETATM   13  C1  UNL     1     -17.372  34.544  40.064  1.00  0.00     0.019 C 
HETATM   14  C3  UNL     1     -15.593  33.458  41.313  1.00  0.00     0.019 C 
ENDBRANCH   9  12
ENDBRANCH   7   8
BRANCH   7  15
HETATM   15  C6  UNL     1     -18.537  38.261  42.857  1.00  0.00     0.114 C 
HETATM   16  S1  UNL     1     -19.368  37.779  41.364  1.00  0.00    -0.095 SA
ENDBRANCH   7  15
ENDBRANCH   1   7
BRANCH   1  17
HETATM   17  C8  UNL     1     -17.948  36.938  46.188  1.00  0.00     0.086 C 
BRANCH  17  18
HETATM   18  C9  UNL     1     -17.901  38.325  46.712  1.00  0.00     0.082 C 
HETATM   19  N2  UNL     1     -18.795  38.710  47.556  1.00  0.00    -0.322 N 
ATOM     20  H2  UNL     1     -19.524  38.062  47.857  1.00  0.00     0.185 HD
BRANCH  19  21
HETATM   21  N3  UNL     1     -18.767  40.020  48.064  1.00  0.00    -0.346 N 
ATOM     22  H32 UNL     1     -17.958  40.609  47.868  1.00  0.00     0.176 HD
ATOM     23  H31 UNL     1     -19.548  40.369  48.620  1.00  0.00     0.176 HD
ENDBRANCH  19  21
ENDBRANCH  17  18
ENDBRANCH   1  17
BRANCH   3  24
HETATM   24  O2  UNL     1     -19.362  34.210  46.955  1.00  0.00    -0.393 OA
ATOM     25  H2  UNL     1     -19.937  34.098  47.702  1.00  0.00     0.210 HD
ENDBRANCH   3  24
BRANCH   5  26
HETATM   26  C14 UNL     1     -22.129  36.647  44.361  1.00  0.00     0.198 C 
BRANCH  26  27
HETATM   27  O4  UNL     1     -22.359  37.765  43.532  1.00  0.00    -0.398 OA
ATOM     28  H4  UNL     1     -22.237  38.569  44.023  1.00  0.00     0.209 HD
ENDBRANCH  26  27
ENDBRANCH   5  26
BRANCH   4  29
HETATM   29  O3  UNL     1     -22.295  35.249  46.375  1.00  0.00    -0.390 OA
ATOM     30  H3  UNL     1     -22.940  35.880  46.081  1.00  0.00     0.210 HD
ENDBRANCH   4  29
TORSDOF 11
ENDMDL
MODEL 4
REMARK VINA RESULT: -4.600022078      2.524      3.585
REMARK  11 active torsions:
REMARK  status: ('A' for Active; 'I' for Inactive)
REMARK    1  A    between atoms: C2_2  and  C4_4 
REMARK       I    between atoms: C4_4  and  N1_6 
REMARK    2  A    between atoms: N1_6  and  C5_8 
REMARK    3  A    between atoms: C5_8  and  C6_9 
REMARK    4  A    between atoms: C5_8  and  C7_11 
REMARK    5  A    between atoms: C7_11  and  C8_12 
REMARK    6  A    between atoms: C8_12  and  C9_13 
REMARK    7  A    between atoms: N2_14  and  N3_16 
REMARK    8  A    between atoms: C11_20  and  O2_21 
REMARK    9  A    between atoms: C12_23  and  O3_24 
REMARK   10  A    between atoms: C13_26  and  C14_27 
REMARK   11  A    between atoms: C14_27  and  O4_28 
ROOT
HETATM    1  C7  UNL     1     -20.051  36.569  45.740  1.00  0.00     0.089 C 
HETATM    2  C10 UNL     1     -19.604  37.976  45.290  1.00  0.00     0.075 C 
HETATM    3  C11 UNL     1     -18.129  38.180  45.444  1.00  0.00     0.152 C 
HETATM    4  C12 UNL     1     -17.275  36.975  45.302  1.00  0.00     0.178 C 
HETATM    5  C13 UNL     1     -18.059  35.882  44.668  1.00  0.00     0.177 C 
HETATM    6  O5  UNL     1     -19.323  35.665  45.044  1.00  0.00    -0.367 OA
ENDROOT
BRANCH   1   7
HETATM    7  C5  UNL     1     -21.498  36.433  45.322  1.00  0.00     0.129 C 
BRANCH   7   8
HETATM    8  N1  UNL     1     -22.217  37.582  45.917  1.00  0.00    -0.352 N 
HETATM    9  C4  UNL     1     -23.302  37.447  46.784  1.00  0.00     0.221 C 
HETATM   10  O1  UNL     1     -23.670  36.255  47.061  1.00  0.00    -0.273 OA
ATOM     11  H1  UNL     1     -21.901  38.523  45.682  1.00  0.00     0.163 HD
BRANCH   9  12
HETATM   12  C2  UNL     1     -24.059  38.530  47.404  1.00  0.00     0.070 C 
HETATM   13  C1  UNL     1     -25.265  37.947  48.107  1.00  0.00     0.019 C 
HETATM   14  C3  UNL     1     -23.233  39.222  48.489  1.00  0.00     0.019 C 
ENDBRANCH   9  12
ENDBRANCH   7   8
BRANCH   7  15
HETATM   15  C6  UNL     1     -21.742  36.626  43.841  1.00  0.00     0.114 C 
HETATM   16  S1  UNL     1     -22.549  38.135  43.366  1.00  0.00    -0.095 SA
ENDBRANCH   7  15
ENDBRANCH   1   7
BRANCH   1  17
HETATM   17  C8  UNL     1     -19.862  36.568  47.222  1.00  0.00     0.086 C 
BRANCH  17  18
HETATM   18  C9  UNL     1     -19.881  35.215  47.832  1.00  0.00     0.082 C 
HETATM   19  N2  UNL     1     -18.768  34.589  48.006  1.00  0.00    -0.322 N 
ATOM     20  H2  UNL     1     -17.889  35.024  47.727  1.00  0.00     0.185 HD
BRANCH  19  21
HETATM   21  N3  UNL     1     -18.766  33.306  48.581  1.00  0.00    -0.346 N 
ATOM     22  H32 UNL     1     -18.957  33.211  49.579  1.00  0.00     0.176 HD
ATOM     23  H31 UNL     1     -18.574  32.487  48.004  1.00  0.00     0.176 HD
ENDBRANCH  19  21
ENDBRANCH  17  18
ENDBRANCH   1  17
BRANCH   3  24
HETATM   24  O2  UNL     1     -17.811  38.899  46.599  1.00  0.00    -0.393 OA
ATOM     25  H2  UNL     1     -18.266  38.570  47.366  1.00  0.00     0.210 HD
ENDBRANCH   3  24
BRANCH   5  26
HETATM   26  C14 UNL     1     -17.842  35.980  43.164  1.00  0.00     0.198 C 
BRANCH  26  27
HETATM   27  O4  UNL     1     -16.828  35.086  42.759  1.00  0.00    -0.398 OA
ATOM     28  H4  UNL     1     -16.029  35.254  43.246  1.00  0.00     0.209 HD
ENDBRANCH  26  27
ENDBRANCH   5  26
BRANCH   4  29
HETATM   29  O3  UNL     1     -16.177  37.257  44.443  1.00  0.00    -0.390 OA
ATOM     30  H3  UNL     1     -15.405  37.456  44.959  1.00  0.00     0.210 HD
ENDBRANCH   4  29
TORSDOF 11
ENDMDL
MODEL 5
REMARK VINA RESULT: -4.533280574      2.900      6.118
REMARK  11 active torsions:
REMARK  status: ('A' for Active; 'I' for Inactive)
REMARK    1  A    between atoms: C2_2  and  C4_4 
REMARK       I    between atoms: C4_4  and  N1_6 
REMARK    2  A    between atoms: N1_6  and  C5_8 
REMARK    3  A    between atoms: C5_8  and  C6_9 
REMARK    4  A    between atoms: C5_8  and  C7_11 
REMARK    5  A    between atoms: C7_11  and  C8_12 
REMARK    6  A    between atoms: C8_12  and  C9_13 
REMARK    7  A    between atoms: N2_14  and  N3_16 
REMARK    8  A    between atoms: C11_20  and  O2_21 
REMARK    9  A    between atoms: C12_23  and  O3_24 
REMARK   10  A    between atoms: C13_26  and  C14_27 
REMARK   11  A    between atoms: C14_27  and  O4_28 
ROOT
HETATM    1  C7  UNL     1     -19.475  36.789  44.999  1.00  0.00     0.089 C 
HETATM    2  C10 UNL     1     -20.699  37.447  44.326  1.00  0.00     0.075 C 
HETATM    3  C11 UNL     1     -21.899  37.461  45.218  1.00  0.00     0.152 C 
HETATM    4  C12 UNL     1     -21.640  37.539  46.677  1.00  0.00     0.178 C 
HETATM    5  C13 UNL     1     -20.232  37.958  46.910  1.00  0.00     0.177 C 
HETATM    6  O5  UNL     1     -19.251  37.438  46.166  1.00  0.00    -0.367 OA
ENDROOT
BRANCH   1   7
HETATM    7  C5  UNL     1     -18.300  37.047  44.083  1.00  0.00     0.129 C 
BRANCH   7   8
HETATM    8  N1  UNL     1     -18.381  36.037  43.003  1.00  0.00    -0.352 N 
HETATM    9  C4  UNL     1     -17.283  35.305  42.549  1.00  0.00     0.221 C 
HETATM   10  O1  UNL     1     -16.163  35.540  43.116  1.00  0.00    -0.273 OA
ATOM     11  H1  UNL     1     -19.288  35.867  42.569  1.00  0.00     0.163 HD
BRANCH   9  12
HETATM   12  C2  UNL     1     -17.287  34.300  41.490  1.00  0.00     0.070 C 
HETATM   13  C1  UNL     1     -17.546  34.983  40.165  1.00  0.00     0.019 C 
HETATM   14  C3  UNL     1     -15.914  33.638  41.362  1.00  0.00     0.019 C 
ENDBRANCH   9  12
ENDBRANCH   7   8
BRANCH   7  15
HETATM   15  C6  UNL     1     -18.377  38.351  43.319  1.00  0.00     0.114 C 
HETATM   16  S1  UNL     1     -18.046  38.262  41.576  1.00  0.00    -0.095 SA
ENDBRANCH   7  15
ENDBRANCH   1   7
BRANCH   1  17
HETATM   17  C8  UNL     1     -19.835  35.343  45.107  1.00  0.00     0.086 C 
BRANCH  17  18
HETATM   18  C9  UNL     1     -19.059  34.604  46.134  1.00  0.00     0.082 C 
HETATM   19  N2  UNL     1     -19.514  34.536  47.337  1.00  0.00    -0.322 N 
ATOM     20  H2  UNL     1     -20.398  34.987  47.574  1.00  0.00     0.185 HD
BRANCH  19  21
HETATM   21  N3  UNL     1     -18.794  33.841  48.324  1.00  0.00    -0.346 N 
ATOM     22  H32 UNL     1     -18.242  34.370  48.998  1.00  0.00     0.176 HD
ATOM     23  H31 UNL     1     -18.827  32.821  48.358  1.00  0.00     0.176 HD
ENDBRANCH  19  21
ENDBRANCH  17  18
ENDBRANCH   1  17
BRANCH   3  24
HETATM   24  O2  UNL     1     -22.800  36.437  44.912  1.00  0.00    -0.393 OA
ATOM     25  H2  UNL     1     -22.383  35.584  44.895  1.00  0.00     0.210 HD
ENDBRANCH   3  24
BRANCH   5  26
HETATM   26  C14 UNL     1     -20.223  39.476  47.021  1.00  0.00     0.198 C 
BRANCH  26  27
HETATM   27  O4  UNL     1     -19.080  40.005  46.383  1.00  0.00    -0.398 OA
ATOM     28  H4  UNL     1     -19.073  39.759  45.466  1.00  0.00     0.209 HD
ENDBRANCH  26  27
ENDBRANCH   5  26
BRANCH   4  29
HETATM   29  O3  UNL     1     -22.476  38.527  47.267  1.00  0.00    -0.390 OA
ATOM     30  H3  UNL     1     -22.177  39.394  47.021  1.00  0.00     0.210 HD
ENDBRANCH   4  29
TORSDOF 11
ENDMDL
