MODEL 1
REMARK VINA RESULT: -5.625778719      0.000      0.000
REMARK  4 active torsions:
REMARK  status: ('A' for Active; 'I' for Inactive)
REMARK    1  A    between atoms: O1_3  and  N2_4 
REMARK    2  A    between atoms: C2_6  and  N3_7 
REMARK    3  A    between atoms: N3_7  and  C3_9 
REMARK    4  A    between atoms: C4_12  and  N5_13 
ROOT
HETATM    1  N1  UNL     1      54.085   6.688 119.757  1.00  0.00    -0.162 NA
HETATM    2  C1  UNL     1      54.567   6.710 120.809  1.00  0.00     0.253 C 
HETATM    3  O1  UNL     1      55.135   6.717 122.070  1.00  0.00    -0.158 OA
ENDROOT
BRANCH   3   4
HETATM    4  N2  UNL     1      54.310   6.305 123.091  1.00  0.00    -0.245 N 
HETATM    5  C2  UNL     1      54.208   7.046 124.126  1.00  0.00     0.222 C 
ATOM      6  H2  UNL     1      53.793   5.428 123.024  1.00  0.00     0.196 HD
BRANCH   5   7
HETATM    7  N3  UNL     1      54.907   8.278 124.272  1.00  0.00    -0.185 N 
ATOM      8  H3  UNL     1      55.862   8.268 124.631  1.00  0.00     0.185 HD
BRANCH   7   9
HETATM    9  C3  UNL     1      54.364   9.402 123.963  1.00  0.00     0.701 A 
HETATM   10  N4  UNL     1      54.084   9.629 122.678  1.00  0.00    -0.022 N 
HETATM   11  C4  UNL     1      53.510  10.809 122.318  1.00  0.00     0.694 A 
ATOM     12  H4  UNL     1      54.299   8.925 121.972  1.00  0.00     0.203 HD
HETATM   13  N6  UNL     1      53.241  11.716 123.281  1.00  0.00    -0.141 N 
HETATM   14  C5  UNL     1      53.513  11.508 124.579  1.00  0.00     0.352 A 
ATOM     15  H6  UNL     1      52.811  12.600 123.010  1.00  0.00     0.189 HD
HETATM   16  O2  UNL     1      53.254  12.364 125.455  1.00  0.00    -0.246 OA
HETATM   17  N7  UNL     1      54.085  10.316 124.884  1.00  0.00    -0.140 N 
ATOM     18  H7  UNL     1      54.309  10.114 125.858  1.00  0.00     0.189 HD
BRANCH  11  19
HETATM   19  N5  UNL     1      53.222  11.075 121.090  1.00  0.00    -0.234 N 
ATOM     20  H52 UNL     1      53.910  10.895 120.358  1.00  0.00     0.174 HD
ATOM     21  H51 UNL     1      52.317  11.464 120.824  1.00  0.00     0.174 HD
ENDBRANCH  11  19
ENDBRANCH   7   9
ENDBRANCH   5   7
ENDBRANCH   3   4
TORSDOF 4
ENDMDL
MODEL 2
REMARK VINA RESULT: -5.551851309      1.383      2.127
REMARK  4 active torsions:
REMARK  status: ('A' for Active; 'I' for Inactive)
REMARK    1  A    between atoms: O1_3  and  N2_4 
REMARK    2  A    between atoms: C2_6  and  N3_7 
REMARK    3  A    between atoms: N3_7  and  C3_9 
REMARK    4  A    between atoms: C4_12  and  N5_13 
ROOT
HETATM    1  N1  UNL     1      54.037   6.647 119.782  1.00  0.00    -0.162 NA
HETATM    2  C1  UNL     1      54.544   6.685 120.822  1.00  0.00     0.253 C 
HETATM    3  O1  UNL     1      55.140   6.712 122.070  1.00  0.00    -0.158 OA
ENDROOT
BRANCH   3   4
HETATM    4  N2  UNL     1      54.346   6.297 123.114  1.00  0.00    -0.245 N 
HETATM    5  C2  UNL     1      54.249   7.049 124.140  1.00  0.00     0.222 C 
ATOM      6  H2  UNL     1      53.846   5.409 123.068  1.00  0.00     0.196 HD
BRANCH   5   7
HETATM    7  N3  UNL     1      54.926   8.298 124.256  1.00  0.00    -0.185 N 
ATOM      8  H3  UNL     1      55.863   8.320 124.656  1.00  0.00     0.185 HD
BRANCH   7   9
HETATM    9  C3  UNL     1      54.382   9.397 123.867  1.00  0.00     0.701 A 
HETATM   10  N4  UNL     1      54.012  10.276 124.800  1.00  0.00    -0.022 N 
HETATM   11  C4  UNL     1      53.434  11.448 124.422  1.00  0.00     0.694 A 
ATOM     12  H4  UNL     1      54.161  10.072 125.789  1.00  0.00     0.203 HD
HETATM   13  N6  UNL     1      53.254  11.683 123.105  1.00  0.00    -0.141 N 
HETATM   14  C5  UNL     1      53.618  10.813 122.150  1.00  0.00     0.352 A 
ATOM     15  H6  UNL     1      52.820  12.561 122.823  1.00  0.00     0.189 HD
HETATM   16  O2  UNL     1      53.442  11.052 120.934  1.00  0.00    -0.246 OA
HETATM   17  N7  UNL     1      54.190   9.661 122.581  1.00  0.00    -0.140 N 
ATOM     18  H7  UNL     1      54.485   8.970 121.890  1.00  0.00     0.189 HD
BRANCH  11  19
HETATM   19  N5  UNL     1      53.059  12.328 125.286  1.00  0.00    -0.234 N 
ATOM     20  H52 UNL     1      53.443  12.306 126.231  1.00  0.00     0.174 HD
ATOM     21  H51 UNL     1      52.383  13.056 125.051  1.00  0.00     0.174 HD
ENDBRANCH  11  19
ENDBRANCH   7   9
ENDBRANCH   5   7
ENDBRANCH   3   4
TORSDOF 4
ENDMDL
MODEL 3
REMARK VINA RESULT: -5.473905304      2.303      4.228
REMARK  4 active torsions:
REMARK  status: ('A' for Active; 'I' for Inactive)
REMARK    1  A    between atoms: O1_3  and  N2_4 
REMARK    2  A    between atoms: C2_6  and  N3_7 
REMARK    3  A    between atoms: N3_7  and  C3_9 
REMARK    4  A    between atoms: C4_12  and  N5_13 
ROOT
HETATM    1  N1  UNL     1      54.849  11.536 117.988  1.00  0.00    -0.162 NA
HETATM    2  C1  UNL     1      54.178  11.014 118.773  1.00  0.00     0.253 C 
HETATM    3  O1  UNL     1      53.385  10.372 119.707  1.00  0.00    -0.158 OA
ENDROOT
BRANCH   3   4
HETATM    4  N2  UNL     1      52.931   9.126 119.341  1.00  0.00    -0.245 N 
HETATM    5  C2  UNL     1      53.562   8.101 119.766  1.00  0.00     0.222 C 
ATOM      6  H2  UNL     1      52.111   9.024 118.744  1.00  0.00     0.196 HD
BRANCH   5   7
HETATM    7  N3  UNL     1      54.713   8.186 120.600  1.00  0.00    -0.185 N 
ATOM      8  H3  UNL     1      55.636   8.248 120.170  1.00  0.00     0.185 HD
BRANCH   7   9
HETATM    9  C3  UNL     1      54.617   8.187 121.883  1.00  0.00     0.701 A 
HETATM   10  N4  UNL     1      54.426   9.356 122.496  1.00  0.00    -0.022 N 
HETATM   11  C4  UNL     1      54.320   9.390 123.851  1.00  0.00     0.694 A 
ATOM     12  H4  UNL     1      54.359  10.217 121.953  1.00  0.00     0.203 HD
HETATM   13  N6  UNL     1      54.413   8.230 124.535  1.00  0.00    -0.141 N 
HETATM   14  C5  UNL     1      54.605   7.043 123.940  1.00  0.00     0.352 A 
ATOM     15  H6  UNL     1      54.335   8.257 125.552  1.00  0.00     0.189 HD
HETATM   16  O2  UNL     1      54.688   5.979 124.594  1.00  0.00    -0.246 OA
HETATM   17  N7  UNL     1      54.703   7.065 122.587  1.00  0.00    -0.140 N 
ATOM     18  H7  UNL     1      54.848   6.185 122.091  1.00  0.00     0.189 HD
BRANCH  11  19
HETATM   19  N5  UNL     1      54.136  10.496 124.489  1.00  0.00    -0.234 N 
ATOM     20  H52 UNL     1      54.845  10.826 125.144  1.00  0.00     0.174 HD
ATOM     21  H51 UNL     1      53.294  11.057 124.358  1.00  0.00     0.174 HD
ENDBRANCH  11  19
ENDBRANCH   7   9
ENDBRANCH   5   7
ENDBRANCH   3   4
TORSDOF 4
ENDMDL
MODEL 4
REMARK VINA RESULT: -5.447004369      2.777      4.533
REMARK  4 active torsions:
REMARK  status: ('A' for Active; 'I' for Inactive)
REMARK    1  A    between atoms: O1_3  and  N2_4 
REMARK    2  A    between atoms: C2_6  and  N3_7 
REMARK    3  A    between atoms: N3_7  and  C3_9 
REMARK    4  A    between atoms: C4_12  and  N5_13 
ROOT
HETATM    1  N1  UNL     1      55.625   5.059 115.822  1.00  0.00    -0.162 NA
HETATM    2  C1  UNL     1      54.809   5.525 116.499  1.00  0.00     0.253 C 
HETATM    3  O1  UNL     1      53.831   6.095 117.293  1.00  0.00    -0.158 OA
ENDROOT
BRANCH   3   4
HETATM    4  N2  UNL     1      53.819   7.471 117.318  1.00  0.00    -0.245 N 
HETATM    5  C2  UNL     1      54.354   8.065 118.314  1.00  0.00     0.222 C 
ATOM      6  H2  UNL     1      53.392   8.003 116.560  1.00  0.00     0.196 HD
BRANCH   5   7
HETATM    7  N3  UNL     1      54.962   7.370 119.399  1.00  0.00    -0.185 N 
ATOM      8  H3  UNL     1      55.624   6.620 119.200  1.00  0.00     0.185 HD
BRANCH   7   9
HETATM    9  C3  UNL     1      54.697   7.667 120.622  1.00  0.00     0.701 A 
HETATM   10  N4  UNL     1      54.758   6.691 121.530  1.00  0.00    -0.022 N 
HETATM   11  C4  UNL     1      54.482   6.972 122.832  1.00  0.00     0.694 A 
ATOM     12  H4  UNL     1      55.009   5.743 121.250  1.00  0.00     0.203 HD
HETATM   13  N6  UNL     1      54.154   8.240 123.163  1.00  0.00    -0.141 N 
HETATM   14  C5  UNL     1      54.087   9.236 122.266  1.00  0.00     0.352 A 
ATOM     15  H6  UNL     1      53.948   8.449 124.139  1.00  0.00     0.189 HD
HETATM   16  O2  UNL     1      53.781  10.405 122.596  1.00  0.00    -0.246 OA
HETATM   17  N7  UNL     1      54.372   8.902 120.983  1.00  0.00    -0.140 N 
ATOM     18  H7  UNL     1      54.334   9.628 120.267  1.00  0.00     0.189 HD
BRANCH  11  19
HETATM   19  N5  UNL     1      54.527   6.064 123.746  1.00  0.00    -0.234 N 
ATOM     20  H52 UNL     1      53.875   6.102 124.530  1.00  0.00     0.174 HD
ATOM     21  H51 UNL     1      55.201   5.299 123.709  1.00  0.00     0.174 HD
ENDBRANCH  11  19
ENDBRANCH   7   9
ENDBRANCH   5   7
ENDBRANCH   3   4
TORSDOF 4
ENDMDL
MODEL 5
REMARK VINA RESULT: -5.433708458      2.816      4.589
REMARK  4 active torsions:
REMARK  status: ('A' for Active; 'I' for Inactive)
REMARK    1  A    between atoms: O1_3  and  N2_4 
REMARK    2  A    between atoms: C2_6  and  N3_7 
REMARK    3  A    between atoms: N3_7  and  C3_9 
REMARK    4  A    between atoms: C4_12  and  N5_13 
ROOT
HETATM    1  N1  UNL     1      55.462   6.323 123.450  1.00  0.00    -0.162 NA
HETATM    2  C1  UNL     1      54.736   7.150 123.090  1.00  0.00     0.253 C 
HETATM    3  O1  UNL     1      53.885   8.150 122.658  1.00  0.00    -0.158 OA
ENDROOT
BRANCH   3   4
HETATM    4  N2  UNL     1      54.114   9.395 123.199  1.00  0.00    -0.245 N 
HETATM    5  C2  UNL     1      53.625  10.414 122.606  1.00  0.00     0.222 C 
ATOM      6  H2  UNL     1      54.662   9.500 124.052  1.00  0.00     0.196 HD
BRANCH   5   7
HETATM    7  N3  UNL     1      52.853  10.324 121.412  1.00  0.00    -0.185 N 
ATOM      8  H3  UNL     1      51.836  10.381 121.471  1.00  0.00     0.185 HD
BRANCH   7   9
HETATM    9  C3  UNL     1      53.408  10.171 120.262  1.00  0.00     0.701 A 
HETATM   10  N4  UNL     1      53.297   8.982 119.667  1.00  0.00    -0.022 N 
HETATM   11  C4  UNL     1      53.873   8.788 118.450  1.00  0.00     0.694 A 
ATOM     12  H4  UNL     1      52.785   8.225 120.120  1.00  0.00     0.203 HD
HETATM   13  N6  UNL     1      54.541   9.814 117.881  1.00  0.00    -0.141 N 
HETATM   14  C5  UNL     1      54.665  11.017 118.462  1.00  0.00     0.352 A 
ATOM     15  H6  UNL     1      54.973   9.667 116.969  1.00  0.00     0.189 HD
HETATM   16  O2  UNL     1      55.290  11.955 117.916  1.00  0.00    -0.246 OA
HETATM   17  N7  UNL     1      54.072  11.158 119.674  1.00  0.00    -0.140 N 
ATOM     18  H7  UNL     1      54.139  12.056 120.152  1.00  0.00     0.189 HD
BRANCH  11  19
HETATM   19  N5  UNL     1      53.794   7.657 117.835  1.00  0.00    -0.234 N 
ATOM     20  H52 UNL     1      52.883   7.304 117.539  1.00  0.00     0.174 HD
ATOM     21  H51 UNL     1      54.623   7.098 117.632  1.00  0.00     0.174 HD
ENDBRANCH  11  19
ENDBRANCH   7   9
ENDBRANCH   5   7
ENDBRANCH   3   4
TORSDOF 4
ENDMDL
