MODEL 1
REMARK VINA RESULT: -5.677653498      0.000      0.000
REMARK  4 active torsions:
REMARK  status: ('A' for Active; 'I' for Inactive)
REMARK    1  A    between atoms: N1_1  and  N2_4 
REMARK    2  A    between atoms: C1_6  and  C2_7 
REMARK    3  A    between atoms: C1_6  and  C3_14 
REMARK       I    between atoms: C2_7  and  N3_9 
REMARK    4  A    between atoms: N3_9  and  N4_11 
ROOT
HETATM    1  N2  UNL     1      54.057  10.312 120.724  1.00  0.00    -0.300 N 
ATOM      2  H2  UNL     1      54.378   9.435 120.314  1.00  0.00     0.186 HD
HETATM    3  C1  UNL     1      53.914  10.218 121.963  1.00  0.00     0.151 C 
ENDROOT
BRANCH   3   4
HETATM    4  C2  UNL     1      53.470  11.293 122.830  1.00  0.00     0.290 C 
HETATM    5  O1  UNL     1      53.582  12.494 122.359  1.00  0.00    -0.264 OA
HETATM    6  N3  UNL     1      52.939  11.148 124.118  1.00  0.00    -0.271 N 
ATOM      7  H3  UNL     1      52.839  10.217 124.521  1.00  0.00     0.189 HD
BRANCH   6   8
HETATM    8  N4  UNL     1      52.543  12.280 124.861  1.00  0.00    -0.342 N 
ATOM      9  H42 UNL     1      52.343  13.148 124.364  1.00  0.00     0.176 HD
ATOM     10  H41 UNL     1      52.460  12.230 125.877  1.00  0.00     0.176 HD
ENDBRANCH   6   8
ENDBRANCH   3   4
BRANCH   3  11
HETATM   11  C3  UNL     1      54.226   8.914 122.554  1.00  0.00     0.150 A 
HETATM   12  N5  UNL     1      55.357   8.685 123.221  1.00  0.00    -0.293 N 
HETATM   13  N6  UNL     1      55.604   7.470 123.749  1.00  0.00    -0.295 N 
ATOM     14  H5  UNL     1      56.041   9.434 123.333  1.00  0.00     0.187 HD
HETATM   15  C4  UNL     1      54.739   6.448 123.631  1.00  0.00     0.200 A 
ATOM     16  H6  UNL     1      56.477   7.321 124.255  1.00  0.00     0.187 HD
HETATM   17  N7  UNL     1      53.593   6.656 122.962  1.00  0.00    -0.317 N 
HETATM   18  C5  UNL     1      53.346   7.878 122.432  1.00  0.00     0.277 A 
ATOM     19  H7  UNL     1      52.916   5.901 122.855  1.00  0.00     0.170 HD
HETATM   20  O2  UNL     1      52.247   8.040 121.803  1.00  0.00    -0.266 OA
ENDBRANCH   3  11
BRANCH   1  21
HETATM   21  N1  UNL     1      53.899  11.269 119.788  1.00  0.00    -0.344 N 
ATOM     22  H12 UNL     1      53.954  12.194 120.216  1.00  0.00     0.176 HD
ATOM     23  H11 UNL     1      53.741  11.303 118.782  1.00  0.00     0.176 HD
ENDBRANCH   1  21
TORSDOF 4
ENDMDL
MODEL 2
REMARK VINA RESULT: -5.660645990      2.607      4.173
REMARK  4 active torsions:
REMARK  status: ('A' for Active; 'I' for Inactive)
REMARK    1  A    between atoms: N1_1  and  N2_4 
REMARK    2  A    between atoms: C1_6  and  C2_7 
REMARK    3  A    between atoms: C1_6  and  C3_14 
REMARK       I    between atoms: C2_7  and  N3_9 
REMARK    4  A    between atoms: N3_9  and  N4_11 
ROOT
HETATM    1  N2  UNL     1      51.739   9.423 121.581  1.00  0.00    -0.300 N 
ATOM      2  H2  UNL     1      51.345   9.523 122.516  1.00  0.00     0.186 HD
HETATM    3  C1  UNL     1      52.793  10.084 121.450  1.00  0.00     0.151 C 
ENDROOT
BRANCH   3   4
HETATM    4  C2  UNL     1      53.588  10.147 120.238  1.00  0.00     0.290 C 
HETATM    5  O1  UNL     1      53.849   9.016 119.665  1.00  0.00    -0.264 OA
HETATM    6  N3  UNL     1      54.094  11.308 119.643  1.00  0.00    -0.271 N 
ATOM      7  H3  UNL     1      53.909  12.216 120.068  1.00  0.00     0.189 HD
BRANCH   6   8
HETATM    8  N4  UNL     1      54.857  11.232 118.458  1.00  0.00    -0.342 N 
ATOM      9  H42 UNL     1      55.705  11.794 118.384  1.00  0.00     0.176 HD
ATOM     10  H41 UNL     1      54.565  10.626 117.691  1.00  0.00     0.176 HD
ENDBRANCH   6   8
ENDBRANCH   3   4
BRANCH   3  11
HETATM   11  C3  UNL     1      53.232  10.841 122.626  1.00  0.00     0.150 A 
HETATM   12  N5  UNL     1      53.459  12.155 122.584  1.00  0.00    -0.293 N 
HETATM   13  N6  UNL     1      53.862  12.811 123.689  1.00  0.00    -0.295 N 
ATOM     14  H5  UNL     1      53.327  12.665 121.711  1.00  0.00     0.187 HD
HETATM   15  C4  UNL     1      54.051  12.189 124.865  1.00  0.00     0.200 A 
ATOM     16  H6  UNL     1      54.029  13.816 123.631  1.00  0.00     0.187 HD
HETATM   17  N7  UNL     1      53.829  10.866 124.929  1.00  0.00    -0.317 N 
HETATM   18  C5  UNL     1      53.424  10.206 123.818  1.00  0.00     0.277 A 
ATOM     19  H7  UNL     1      53.964  10.364 125.807  1.00  0.00     0.170 HD
HETATM   20  O2  UNL     1      53.222   8.949 123.915  1.00  0.00    -0.266 OA
ENDBRANCH   3  11
BRANCH   1  21
HETATM   21  N1  UNL     1      50.988   8.613 120.809  1.00  0.00    -0.344 N 
ATOM     22  H12 UNL     1      51.214   7.636 120.997  1.00  0.00     0.176 HD
ATOM     23  H11 UNL     1      50.266   8.726 120.098  1.00  0.00     0.176 HD
ENDBRANCH   1  21
TORSDOF 4
ENDMDL
MODEL 3
REMARK VINA RESULT: -5.525674171      1.378      3.058
REMARK  4 active torsions:
REMARK  status: ('A' for Active; 'I' for Inactive)
REMARK    1  A    between atoms: N1_1  and  N2_4 
REMARK    2  A    between atoms: C1_6  and  C2_7 
REMARK    3  A    between atoms: C1_6  and  C3_14 
REMARK       I    between atoms: C2_7  and  N3_9 
REMARK    4  A    between atoms: N3_9  and  N4_11 
ROOT
HETATM    1  N2  UNL     1      53.160  10.833 124.144  1.00  0.00    -0.300 N 
ATOM      2  H2  UNL     1      53.183  10.170 124.919  1.00  0.00     0.186 HD
HETATM    3  C1  UNL     1      53.576  10.317 123.083  1.00  0.00     0.151 C 
ENDROOT
BRANCH   3   4
HETATM    4  C2  UNL     1      53.667  11.001 121.807  1.00  0.00     0.290 C 
HETATM    5  O1  UNL     1      53.383  12.264 121.813  1.00  0.00    -0.264 OA
HETATM    6  N3  UNL     1      54.027  10.422 120.584  1.00  0.00    -0.271 N 
ATOM      7  H3  UNL     1      54.255   9.430 120.542  1.00  0.00     0.189 HD
BRANCH   6   8
HETATM    8  N4  UNL     1      54.077  11.203 119.409  1.00  0.00    -0.342 N 
ATOM      9  H42 UNL     1      54.277  12.199 119.490  1.00  0.00     0.176 HD
ATOM     10  H41 UNL     1      53.916  10.776 118.497  1.00  0.00     0.176 HD
ENDBRANCH   6   8
ENDBRANCH   3   4
BRANCH   3  11
HETATM   11  C3  UNL     1      53.996   8.915 123.166  1.00  0.00     0.150 A 
HETATM   12  N5  UNL     1      53.167   7.905 122.897  1.00  0.00    -0.293 N 
HETATM   13  N6  UNL     1      53.595   6.631 122.986  1.00  0.00    -0.295 N 
ATOM     14  H5  UNL     1      52.204   8.098 122.623  1.00  0.00     0.187 HD
HETATM   15  C4  UNL     1      54.853   6.319 123.343  1.00  0.00     0.200 A 
ATOM     16  H6  UNL     1      52.941   5.876 122.775  1.00  0.00     0.187 HD
HETATM   17  N7  UNL     1      55.704   7.320 123.619  1.00  0.00    -0.317 N 
HETATM   18  C5  UNL     1      55.274   8.601 123.529  1.00  0.00     0.277 A 
ATOM     19  H7  UNL     1      56.665   7.117 123.893  1.00  0.00     0.170 HD
HETATM   20  O2  UNL     1      56.110   9.528 123.798  1.00  0.00    -0.266 OA
ENDBRANCH   3  11
BRANCH   1  21
HETATM   21  N1  UNL     1      52.691  12.035 124.530  1.00  0.00    -0.344 N 
ATOM     22  H12 UNL     1      53.444  12.597 124.928  1.00  0.00     0.176 HD
ATOM     23  H11 UNL     1      51.792  12.516 124.526  1.00  0.00     0.176 HD
ENDBRANCH   1  21
TORSDOF 4
ENDMDL
MODEL 4
REMARK VINA RESULT: -5.409492495      2.927      4.737
REMARK  4 active torsions:
REMARK  status: ('A' for Active; 'I' for Inactive)
REMARK    1  A    between atoms: N1_1  and  N2_4 
REMARK    2  A    between atoms: C1_6  and  C2_7 
REMARK    3  A    between atoms: C1_6  and  C3_14 
REMARK       I    between atoms: C2_7  and  N3_9 
REMARK    4  A    between atoms: N3_9  and  N4_11 
ROOT
HETATM    1  N2  UNL     1      55.380   7.604 119.315  1.00  0.00    -0.300 N 
ATOM      2  H2  UNL     1      55.964   8.158 119.942  1.00  0.00     0.186 HD
HETATM    3  C1  UNL     1      54.526   6.942 119.945  1.00  0.00     0.151 C 
ENDROOT
BRANCH   3   4
HETATM    4  C2  UNL     1      53.549   6.058 119.337  1.00  0.00     0.290 C 
HETATM    5  O1  UNL     1      53.800   5.670 118.128  1.00  0.00    -0.264 OA
HETATM    6  N3  UNL     1      52.371   5.595 119.935  1.00  0.00    -0.271 N 
ATOM      7  H3  UNL     1      52.140   5.882 120.886  1.00  0.00     0.189 HD
BRANCH   6   8
HETATM    8  N4  UNL     1      51.500   4.735 119.233  1.00  0.00    -0.342 N 
ATOM      9  H42 UNL     1      50.674   5.132 118.785  1.00  0.00     0.176 HD
ATOM     10  H41 UNL     1      51.695   3.735 119.174  1.00  0.00     0.176 HD
ENDBRANCH   6   8
ENDBRANCH   3   4
BRANCH   3  11
HETATM   11  C3  UNL     1      54.536   7.090 121.403  1.00  0.00     0.150 A 
HETATM   12  N5  UNL     1      54.788   6.068 122.222  1.00  0.00    -0.293 N 
HETATM   13  N6  UNL     1      54.788   6.250 123.557  1.00  0.00    -0.295 N 
ATOM     14  H5  UNL     1      54.982   5.144 121.836  1.00  0.00     0.187 HD
HETATM   15  C4  UNL     1      54.539   7.445 124.119  1.00  0.00     0.200 A 
ATOM     16  H6  UNL     1      54.984   5.453 124.162  1.00  0.00     0.187 HD
HETATM   17  N7  UNL     1      54.282   8.488 123.313  1.00  0.00    -0.317 N 
HETATM   18  C5  UNL     1      54.283   8.305 121.970  1.00  0.00     0.277 A 
ATOM     19  H7  UNL     1      54.089   9.408 123.707  1.00  0.00     0.170 HD
HETATM   20  O2  UNL     1      54.035   9.318 121.233  1.00  0.00    -0.266 OA
ENDBRANCH   3  11
BRANCH   1  21
HETATM   21  N1  UNL     1      55.731   7.778 118.026  1.00  0.00    -0.344 N 
ATOM     22  H12 UNL     1      56.432   8.515 117.946  1.00  0.00     0.176 HD
ATOM     23  H11 UNL     1      55.478   7.368 117.127  1.00  0.00     0.176 HD
ENDBRANCH   1  21
TORSDOF 4
ENDMDL
MODEL 5
REMARK VINA RESULT: -5.403160634      2.259      5.132
REMARK  4 active torsions:
REMARK  status: ('A' for Active; 'I' for Inactive)
REMARK    1  A    between atoms: N1_1  and  N2_4 
REMARK    2  A    between atoms: C1_6  and  C2_7 
REMARK    3  A    between atoms: C1_6  and  C3_14 
REMARK       I    between atoms: C2_7  and  N3_9 
REMARK    4  A    between atoms: N3_9  and  N4_11 
ROOT
HETATM    1  N2  UNL     1      54.826   7.168 122.255  1.00  0.00    -0.300 N 
ATOM      2  H2  UNL     1      55.035   7.958 122.864  1.00  0.00     0.186 HD
HETATM    3  C1  UNL     1      54.191   7.523 121.238  1.00  0.00     0.151 C 
ENDROOT
BRANCH   3   4
HETATM    4  C2  UNL     1      53.749   6.632 120.183  1.00  0.00     0.290 C 
HETATM    5  O1  UNL     1      54.499   6.572 119.130  1.00  0.00    -0.264 OA
HETATM    6  N3  UNL     1      52.593   5.841 120.202  1.00  0.00    -0.271 N 
ATOM      7  H3  UNL     1      51.978   5.864 121.014  1.00  0.00     0.189 HD
BRANCH   6   8
HETATM    8  N4  UNL     1      52.275   5.011 119.105  1.00  0.00    -0.342 N 
ATOM      9  H42 UNL     1      52.811   5.110 118.243  1.00  0.00     0.176 HD
ATOM     10  H41 UNL     1      51.521   4.327 119.175  1.00  0.00     0.176 HD
ENDBRANCH   6   8
ENDBRANCH   3   4
BRANCH   3  11
HETATM   11  C3  UNL     1      53.886   8.953 121.132  1.00  0.00     0.150 A 
HETATM   12  N5  UNL     1      54.225   9.677 120.064  1.00  0.00    -0.293 N 
HETATM   13  N6  UNL     1      53.926  10.989 120.008  1.00  0.00    -0.295 N 
ATOM     14  H5  UNL     1      54.715   9.235 119.286  1.00  0.00     0.187 HD
HETATM   15  C4  UNL     1      53.283  11.622 121.005  1.00  0.00     0.200 A 
ATOM     16  H6  UNL     1      54.196  11.521 119.181  1.00  0.00     0.187 HD
HETATM   17  N7  UNL     1      52.932  10.912 122.089  1.00  0.00    -0.317 N 
HETATM   18  C5  UNL     1      53.234   9.593 122.146  1.00  0.00     0.277 A 
ATOM     19  H7  UNL     1      52.444  11.362 122.863  1.00  0.00     0.170 HD
HETATM   20  O2  UNL     1      52.886   8.948 123.191  1.00  0.00    -0.266 OA
ENDBRANCH   3  11
BRANCH   1  21
HETATM   21  N1  UNL     1      55.307   6.014 122.757  1.00  0.00    -0.344 N 
ATOM     22  H12 UNL     1      56.063   5.661 122.169  1.00  0.00     0.176 HD
ATOM     23  H11 UNL     1      55.112   5.415 123.558  1.00  0.00     0.176 HD
ENDBRANCH   1  21
TORSDOF 4
ENDMDL
