MODEL 1
REMARK VINA RESULT: -5.743813357      0.000      0.000
REMARK  4 active torsions:
REMARK  status: ('A' for Active; 'I' for Inactive)
REMARK    1  A    between atoms: C1_2  and  C2_4 
REMARK    2  A    between atoms: C5_12  and  N5_13 
REMARK    3  A    between atoms: N5_13  and  N6_15 
REMARK    4  A    between atoms: N6_15  and  O2_17 
ROOT
HETATM    1  C2  UNL     1      52.688   9.744 120.494  1.00  0.00     0.115 A 
HETATM    2  C3  UNL     1      51.560   8.959 120.427  1.00  0.00     0.136 A 
HETATM    3  N2  UNL     1      51.145   8.226 121.595  1.00  0.00    -0.082 NA
HETATM    4  N3  UNL     1      50.869   8.892 119.277  1.00  0.00    -0.340 N 
ATOM      5  H3  UNL     1      50.036   8.306 119.245  1.00  0.00     0.167 HD
HETATM    6  C4  UNL     1      51.223   9.560 118.167  1.00  0.00     0.183 A 
HETATM    7  N4  UNL     1      52.318  10.327 118.219  1.00  0.00    -0.337 N 
ATOM      8  H4  UNL     1      52.605  10.844 117.388  1.00  0.00     0.168 HD
HETATM    9  C5  UNL     1      53.056  10.432 119.359  1.00  0.00     0.141 A 
ENDROOT
BRANCH   9  10
HETATM   10  N5  UNL     1      54.114  11.167 119.423  1.00  0.00    -0.265 N 
ATOM     11  H5  UNL     1      54.329  11.712 120.259  1.00  0.00     0.190 HD
BRANCH  10  12
HETATM   12  N6  UNL     1      54.956  11.191 118.307  1.00  0.00    -0.208 N 
ATOM     13  H6  UNL     1      55.013  10.383 117.686  1.00  0.00     0.215 HD
BRANCH  12  14
HETATM   14  O2  UNL     1      55.630  12.199 118.080  1.00  0.00    -0.274 OA
ATOM     15  H2  UNL     1      56.524  12.241 118.397  1.00  0.00     0.246 HD
ENDBRANCH  12  14
ENDBRANCH  10  12
ENDBRANCH   9  10
BRANCH   1  16
HETATM   16  C1  UNL     1      53.487   9.866 121.704  1.00  0.00     0.272 C 
HETATM   17  N1  UNL     1      54.562   8.985 122.008  1.00  0.00    -0.057 NA
HETATM   18  O1  UNL     1      53.217  10.800 122.528  1.00  0.00    -0.271 OA
ENDBRANCH   1  16
TORSDOF 4
ENDMDL
MODEL 2
REMARK VINA RESULT: -5.675999172      2.774      3.783
REMARK  4 active torsions:
REMARK  status: ('A' for Active; 'I' for Inactive)
REMARK    1  A    between atoms: C1_2  and  C2_4 
REMARK    2  A    between atoms: C5_12  and  N5_13 
REMARK    3  A    between atoms: N5_13  and  N6_15 
REMARK    4  A    between atoms: N6_15  and  O2_17 
ROOT
HETATM    1  C2  UNL     1      52.796   8.545 117.761  1.00  0.00     0.115 A 
HETATM    2  C3  UNL     1      53.035   7.253 117.352  1.00  0.00     0.136 A 
HETATM    3  N2  UNL     1      51.919   6.376 117.108  1.00  0.00    -0.082 NA
HETATM    4  N3  UNL     1      54.301   6.836 117.189  1.00  0.00    -0.340 N 
ATOM      5  H3  UNL     1      54.460   5.876 116.885  1.00  0.00     0.167 HD
HETATM    6  C4  UNL     1      55.368   7.623 117.405  1.00  0.00     0.183 A 
HETATM    7  N4  UNL     1      55.148   8.881 117.803  1.00  0.00    -0.337 N 
ATOM      8  H4  UNL     1      55.944   9.497 117.974  1.00  0.00     0.168 HD
HETATM    9  C5  UNL     1      53.885   9.356 117.985  1.00  0.00     0.141 A 
ENDROOT
BRANCH   9  10
HETATM   10  N5  UNL     1      53.659  10.567 118.368  1.00  0.00    -0.265 N 
ATOM     11  H5  UNL     1      52.717  10.959 118.352  1.00  0.00     0.190 HD
BRANCH  10  12
HETATM   12  N6  UNL     1      54.751  11.323 118.808  1.00  0.00    -0.208 N 
ATOM     13  H6  UNL     1      54.979  11.370 119.801  1.00  0.00     0.215 HD
BRANCH  12  14
HETATM   14  O2  UNL     1      55.434  11.933 117.982  1.00  0.00    -0.274 OA
ATOM     15  H2  UNL     1      56.376  11.807 117.974  1.00  0.00     0.246 HD
ENDBRANCH  12  14
ENDBRANCH  10  12
ENDBRANCH   9  10
BRANCH   1  16
HETATM   16  C1  UNL     1      51.452   9.067 117.960  1.00  0.00     0.272 C 
HETATM   17  N1  UNL     1      50.712   9.703 116.924  1.00  0.00    -0.057 NA
HETATM   18  O1  UNL     1      50.911   8.953 119.108  1.00  0.00    -0.271 OA
ENDBRANCH   1  16
TORSDOF 4
ENDMDL
MODEL 3
REMARK VINA RESULT: -5.673754253      1.937      2.771
REMARK  4 active torsions:
REMARK  status: ('A' for Active; 'I' for Inactive)
REMARK    1  A    between atoms: C1_2  and  C2_4 
REMARK    2  A    between atoms: C5_12  and  N5_13 
REMARK    3  A    between atoms: N5_13  and  N6_15 
REMARK    4  A    between atoms: N6_15  and  O2_17 
ROOT
HETATM    1  C2  UNL     1      52.590   9.548 120.105  1.00  0.00     0.115 A 
HETATM    2  C3  UNL     1      52.268   9.412 121.436  1.00  0.00     0.136 A 
HETATM    3  N2  UNL     1      51.562   8.234 121.869  1.00  0.00    -0.082 NA
HETATM    4  N3  UNL     1      52.617  10.377 122.302  1.00  0.00    -0.340 N 
ATOM      5  H3  UNL     1      52.370  10.260 123.284  1.00  0.00     0.167 HD
HETATM    6  C4  UNL     1      53.275  11.489 121.937  1.00  0.00     0.183 A 
HETATM    7  N4  UNL     1      53.594  11.633 120.646  1.00  0.00    -0.337 N 
ATOM      8  H4  UNL     1      54.095  12.471 120.346  1.00  0.00     0.168 HD
HETATM    9  C5  UNL     1      53.265  10.686 119.724  1.00  0.00     0.141 A 
ENDROOT
BRANCH   9  10
HETATM   10  N5  UNL     1      53.566  10.812 118.476  1.00  0.00    -0.265 N 
ATOM     11  H5  UNL     1      52.842  10.838 117.758  1.00  0.00     0.190 HD
BRANCH  10  12
HETATM   12  N6  UNL     1      54.921  10.913 118.142  1.00  0.00    -0.208 N 
ATOM     13  H6  UNL     1      55.476  10.072 117.980  1.00  0.00     0.215 HD
BRANCH  12  14
HETATM   14  O2  UNL     1      55.438  12.029 118.046  1.00  0.00    -0.274 OA
ATOM     15  H2  UNL     1      55.801  12.441 118.821  1.00  0.00     0.246 HD
ENDBRANCH  12  14
ENDBRANCH  10  12
ENDBRANCH   9  10
BRANCH   1  16
HETATM   16  C1  UNL     1      52.245   8.545 119.108  1.00  0.00     0.272 C 
HETATM   17  N1  UNL     1      53.114   7.473 118.763  1.00  0.00    -0.057 NA
HETATM   18  O1  UNL     1      51.118   8.626 118.519  1.00  0.00    -0.271 OA
ENDBRANCH   1  16
TORSDOF 4
ENDMDL
MODEL 4
REMARK VINA RESULT: -5.670702289      2.892      5.187
REMARK  4 active torsions:
REMARK  status: ('A' for Active; 'I' for Inactive)
REMARK    1  A    between atoms: C1_2  and  C2_4 
REMARK    2  A    between atoms: C5_12  and  N5_13 
REMARK    3  A    between atoms: N5_13  and  N6_15 
REMARK    4  A    between atoms: N6_15  and  O2_17 
ROOT
HETATM    1  C2  UNL     1      53.656   8.564 121.654  1.00  0.00     0.115 A 
HETATM    2  C3  UNL     1      53.599   9.939 121.623  1.00  0.00     0.136 A 
HETATM    3  N2  UNL     1      53.710  10.618 120.358  1.00  0.00    -0.082 NA
HETATM    4  N3  UNL     1      53.441  10.619 122.770  1.00  0.00    -0.340 N 
ATOM      5  H3  UNL     1      53.400  11.636 122.730  1.00  0.00     0.167 HD
HETATM    6  C4  UNL     1      53.334  10.023 123.969  1.00  0.00     0.183 A 
HETATM    7  N4  UNL     1      53.388   8.687 124.012  1.00  0.00    -0.337 N 
ATOM      8  H4  UNL     1      53.308   8.212 124.912  1.00  0.00     0.168 HD
HETATM    9  C5  UNL     1      53.547   7.947 122.879  1.00  0.00     0.141 A 
ENDROOT
BRANCH   9  10
HETATM   10  N5  UNL     1      53.601   6.659 122.906  1.00  0.00    -0.265 N 
ATOM     11  H5  UNL     1      52.884   6.090 122.455  1.00  0.00     0.190 HD
BRANCH  10  12
HETATM   12  N6  UNL     1      54.678   6.068 123.576  1.00  0.00    -0.208 N 
ATOM     13  H6  UNL     1      55.460   5.675 123.050  1.00  0.00     0.215 HD
BRANCH  12  14
HETATM   14  O2  UNL     1      54.674   6.028 124.808  1.00  0.00    -0.274 OA
ATOM     15  H2  UNL     1      54.977   5.243 125.249  1.00  0.00     0.246 HD
ENDBRANCH  12  14
ENDBRANCH  10  12
ENDBRANCH   9  10
BRANCH   1  16
HETATM   16  C1  UNL     1      53.827   7.760 120.452  1.00  0.00     0.272 C 
HETATM   17  N1  UNL     1      52.732   7.345 119.643  1.00  0.00    -0.057 NA
HETATM   18  O1  UNL     1      55.002   7.413 120.106  1.00  0.00    -0.271 OA
ENDBRANCH   1  16
TORSDOF 4
ENDMDL
MODEL 5
REMARK VINA RESULT: -5.667330740      3.051      4.780
REMARK  4 active torsions:
REMARK  status: ('A' for Active; 'I' for Inactive)
REMARK    1  A    between atoms: C1_2  and  C2_4 
REMARK    2  A    between atoms: C5_12  and  N5_13 
REMARK    3  A    between atoms: N5_13  and  N6_15 
REMARK    4  A    between atoms: N6_15  and  O2_17 
ROOT
HETATM    1  C2  UNL     1      54.456   8.345 122.023  1.00  0.00     0.115 A 
HETATM    2  C3  UNL     1      53.965   9.106 120.988  1.00  0.00     0.136 A 
HETATM    3  N2  UNL     1      53.841  10.530 121.162  1.00  0.00    -0.082 NA
HETATM    4  N3  UNL     1      53.613   8.509 119.838  1.00  0.00    -0.340 N 
ATOM      5  H3  UNL     1      53.252   9.088 119.081  1.00  0.00     0.167 HD
HETATM    6  C4  UNL     1      53.714   7.185 119.636  1.00  0.00     0.183 A 
HETATM    7  N4  UNL     1      54.191   6.434 120.635  1.00  0.00    -0.337 N 
ATOM      8  H4  UNL     1      54.277   5.425 120.505  1.00  0.00     0.168 HD
HETATM    9  C5  UNL     1      54.563   6.987 121.823  1.00  0.00     0.141 A 
ENDROOT
BRANCH   9  10
HETATM   10  N5  UNL     1      55.023   6.274 122.795  1.00  0.00    -0.265 N 
ATOM     11  H5  UNL     1      55.969   5.893 122.769  1.00  0.00     0.190 HD
BRANCH  10  12
HETATM   12  N6  UNL     1      54.179   6.042 123.886  1.00  0.00    -0.208 N 
ATOM     13  H6  UNL     1      53.189   5.841 123.739  1.00  0.00     0.215 HD
BRANCH  12  14
HETATM   14  O2  UNL     1      54.643   6.084 125.028  1.00  0.00    -0.274 OA
ATOM     15  H2  UNL     1      55.455   6.552 125.183  1.00  0.00     0.246 HD
ENDBRANCH  12  14
ENDBRANCH  10  12
ENDBRANCH   9  10
BRANCH   1  16
HETATM   16  C1  UNL     1      54.858   8.921 123.299  1.00  0.00     0.272 C 
HETATM   17  N1  UNL     1      53.933   9.191 124.345  1.00  0.00    -0.057 NA
HETATM   18  O1  UNL     1      56.087   9.196 123.489  1.00  0.00    -0.271 OA
ENDBRANCH   1  16
TORSDOF 4
ENDMDL
