MODEL 1
REMARK VINA RESULT: -5.968464383      0.000      0.000
REMARK  2 active torsions:
REMARK  status: ('A' for Active; 'I' for Inactive)
REMARK    1  A    between atoms: C1_2  and  C2_4 
REMARK    2  A    between atoms: C3_7  and  N3_8 
ROOT
HETATM    1  C2  UNL     1      53.939  10.197 123.333  1.00  0.00     0.141 A 
HETATM    2  N2  UNL     1      54.352   9.041 123.884  1.00  0.00    -0.326 N 
ATOM      3  H2  UNL     1      54.439   8.972 124.898  1.00  0.00     0.168 HD
HETATM    4  C3  UNL     1      54.653   7.976 123.121  1.00  0.00     0.243 A 
HETATM    5  C4  UNL     1      54.526   8.097 121.750  1.00  0.00     0.297 A 
HETATM    6  O4  UNL     1      54.804   7.107 121.028  1.00  0.00    -0.264 OA
HETATM    7  N4  UNL     1      54.112   9.253 121.202  1.00  0.00    -0.306 N 
ATOM      8  H4  UNL     1      54.026   9.316 120.188  1.00  0.00     0.170 HD
HETATM    9  C5  UNL     1      53.808  10.328 121.948  1.00  0.00     0.151 A 
HETATM   10  N5  UNL     1      53.374  11.536 121.345  1.00  0.00    -0.080 NA
ENDROOT
BRANCH   1  11
HETATM   11  C1  UNL     1      53.607  11.365 124.139  1.00  0.00     0.284 C 
HETATM   12  N1  UNL     1      54.582  12.354 124.437  1.00  0.00    -0.056 NA
HETATM   13  O1  UNL     1      52.451  11.527 124.590  1.00  0.00    -0.269 OA
ENDBRANCH   1  11
BRANCH   4  14
HETATM   14  N3  UNL     1      55.091   6.743 123.683  1.00  0.00    -0.092 N 
HETATM   15  O2  UNL     1      56.028   6.071 123.227  1.00  0.00    -0.530 OA
HETATM   16  O3  UNL     1      54.433   6.282 124.789  1.00  0.00    -0.530 OA
ENDBRANCH   4  14
TORSDOF 2
ENDMDL
MODEL 2
REMARK VINA RESULT: -5.902151762      2.439      3.927
REMARK  2 active torsions:
REMARK  status: ('A' for Active; 'I' for Inactive)
REMARK    1  A    between atoms: C1_2  and  C2_4 
REMARK    2  A    between atoms: C3_7  and  N3_8 
ROOT
HETATM    1  C2  UNL     1      52.966   7.480 120.760  1.00  0.00     0.141 A 
HETATM    2  N2  UNL     1      53.491   6.709 121.729  1.00  0.00    -0.326 N 
ATOM      3  H2  UNL     1      53.165   5.748 121.837  1.00  0.00     0.168 HD
HETATM    4  C3  UNL     1      54.437   7.182 122.558  1.00  0.00     0.243 A 
HETATM    5  C4  UNL     1      54.860   8.488 122.389  1.00  0.00     0.297 A 
HETATM    6  O4  UNL     1      55.744   8.941 123.158  1.00  0.00    -0.264 OA
HETATM    7  N4  UNL     1      54.334   9.256 121.419  1.00  0.00    -0.306 N 
ATOM      8  H4  UNL     1      54.663  10.215 121.316  1.00  0.00     0.170 HD
HETATM    9  C5  UNL     1      53.387   8.800 120.583  1.00  0.00     0.151 A 
HETATM   10  N5  UNL     1      52.848   9.631 119.568  1.00  0.00    -0.080 NA
ENDROOT
BRANCH   1  11
HETATM   11  C1  UNL     1      51.939   6.988 119.849  1.00  0.00     0.284 C 
HETATM   12  N1  UNL     1      52.285   6.338 118.633  1.00  0.00    -0.056 NA
HETATM   13  O1  UNL     1      50.724   7.124 120.116  1.00  0.00    -0.269 OA
ENDBRANCH   1  11
BRANCH   4  14
HETATM   14  N3  UNL     1      55.007   6.384 123.590  1.00  0.00    -0.092 N 
HETATM   15  O2  UNL     1      54.531   6.287 124.730  1.00  0.00    -0.530 OA
HETATM   16  O3  UNL     1      56.147   5.689 123.295  1.00  0.00    -0.530 OA
ENDBRANCH   4  14
TORSDOF 2
ENDMDL
MODEL 3
REMARK VINA RESULT: -5.844712835      2.521      4.201
REMARK  2 active torsions:
REMARK  status: ('A' for Active; 'I' for Inactive)
REMARK    1  A    between atoms: C1_2  and  C2_4 
REMARK    2  A    between atoms: C3_7  and  N3_8 
ROOT
HETATM    1  C2  UNL     1      54.862   8.270 122.371  1.00  0.00     0.141 A 
HETATM    2  N2  UNL     1      54.409   8.909 121.278  1.00  0.00    -0.326 N 
ATOM      3  H2  UNL     1      54.384   9.929 121.268  1.00  0.00     0.168 HD
HETATM    4  C3  UNL     1      53.990   8.227 120.198  1.00  0.00     0.243 A 
HETATM    5  C4  UNL     1      54.036   6.846 120.239  1.00  0.00     0.297 A 
HETATM    6  O4  UNL     1      53.647   6.198 119.235  1.00  0.00    -0.264 OA
HETATM    7  N4  UNL     1      54.490   6.210 121.333  1.00  0.00    -0.306 N 
ATOM      8  H4  UNL     1      54.514   5.190 121.338  1.00  0.00     0.170 HD
HETATM    9  C5  UNL     1      54.912   6.874 122.421  1.00  0.00     0.151 A 
HETATM   10  N5  UNL     1      55.386   6.179 123.563  1.00  0.00    -0.080 NA
ENDROOT
BRANCH   1  11
HETATM   11  C1  UNL     1      55.323   8.988 123.554  1.00  0.00     0.284 C 
HETATM   12  N1  UNL     1      54.403   9.493 124.512  1.00  0.00    -0.056 NA
HETATM   13  O1  UNL     1      56.543   9.178 123.755  1.00  0.00    -0.269 OA
ENDBRANCH   1  11
BRANCH   4  14
HETATM   14  N3  UNL     1      53.507   8.882 119.030  1.00  0.00    -0.092 N 
HETATM   15  O2  UNL     1      54.223   9.188 118.065  1.00  0.00    -0.530 OA
HETATM   16  O3  UNL     1      52.175   9.187 118.980  1.00  0.00    -0.530 OA
ENDBRANCH   4  14
TORSDOF 2
ENDMDL
MODEL 4
REMARK VINA RESULT: -5.838301560      2.380      4.052
REMARK  2 active torsions:
REMARK  status: ('A' for Active; 'I' for Inactive)
REMARK    1  A    between atoms: C1_2  and  C2_4 
REMARK    2  A    between atoms: C3_7  and  N3_8 
ROOT
HETATM    1  C2  UNL     1      53.949   8.276 120.388  1.00  0.00     0.141 A 
HETATM    2  N2  UNL     1      54.443   8.925 121.457  1.00  0.00    -0.326 N 
ATOM      3  H2  UNL     1      54.426   9.945 121.475  1.00  0.00     0.168 HD
HETATM    4  C3  UNL     1      54.956   8.255 122.503  1.00  0.00     0.243 A 
HETATM    5  C4  UNL     1      54.965   6.873 122.451  1.00  0.00     0.297 A 
HETATM    6  O4  UNL     1      55.442   6.235 123.423  1.00  0.00    -0.264 OA
HETATM    7  N4  UNL     1      54.470   6.226 121.382  1.00  0.00    -0.306 N 
ATOM      8  H4  UNL     1      54.488   5.206 121.369  1.00  0.00     0.170 HD
HETATM    9  C5  UNL     1      53.954   6.880 120.328  1.00  0.00     0.151 A 
HETATM   10  N5  UNL     1      53.439   6.173 119.211  1.00  0.00    -0.080 NA
ENDROOT
BRANCH   1  11
HETATM   11  C1  UNL     1      53.387   8.982 119.243  1.00  0.00     0.284 C 
HETATM   12  N1  UNL     1      52.027   9.394 119.229  1.00  0.00    -0.056 NA
HETATM   13  O1  UNL     1      54.090   9.246 118.242  1.00  0.00    -0.269 OA
ENDBRANCH   1  11
BRANCH   4  14
HETATM   14  N3  UNL     1      55.483   8.921 123.645  1.00  0.00    -0.092 N 
HETATM   15  O2  UNL     1      56.687   9.169 123.805  1.00  0.00    -0.530 OA
HETATM   16  O3  UNL     1      54.601   9.306 124.616  1.00  0.00    -0.530 OA
ENDBRANCH   4  14
TORSDOF 2
ENDMDL
MODEL 5
REMARK VINA RESULT: -5.787827630      1.365      4.454
REMARK  2 active torsions:
REMARK  status: ('A' for Active; 'I' for Inactive)
REMARK    1  A    between atoms: C1_2  and  C2_4 
REMARK    2  A    between atoms: C3_7  and  N3_8 
ROOT
HETATM    1  C2  UNL     1      54.614   8.250 123.128  1.00  0.00     0.141 A 
HETATM    2  N2  UNL     1      54.340   9.307 123.913  1.00  0.00    -0.326 N 
ATOM      3  H2  UNL     1      54.456   9.224 124.924  1.00  0.00     0.168 HD
HETATM    4  C3  UNL     1      53.917  10.471 123.390  1.00  0.00     0.243 A 
HETATM    5  C4  UNL     1      53.770  10.555 122.018  1.00  0.00     0.297 A 
HETATM    6  O4  UNL     1      53.376  11.638 121.518  1.00  0.00    -0.264 OA
HETATM    7  N4  UNL     1      54.045   9.497 121.236  1.00  0.00    -0.306 N 
ATOM      8  H4  UNL     1      53.928   9.586 120.226  1.00  0.00     0.170 HD
HETATM    9  C5  UNL     1      54.467   8.327 121.741  1.00  0.00     0.151 A 
HETATM   10  N5  UNL     1      54.750   7.225 120.893  1.00  0.00    -0.080 NA
ENDROOT
BRANCH   1  11
HETATM   11  C1  UNL     1      55.074   6.978 123.673  1.00  0.00     0.284 C 
HETATM   12  N1  UNL     1      54.348   6.311 124.696  1.00  0.00    -0.056 NA
HETATM   13  O1  UNL     1      56.123   6.440 123.251  1.00  0.00    -0.269 OA
ENDBRANCH   1  11
BRANCH   4  14
HETATM   14  N3  UNL     1      53.623  11.603 124.202  1.00  0.00    -0.092 N 
HETATM   15  O2  UNL     1      52.505  11.833 124.686  1.00  0.00    -0.530 OA
HETATM   16  O3  UNL     1      54.640  12.481 124.456  1.00  0.00    -0.530 OA
ENDBRANCH   4  14
TORSDOF 2
ENDMDL
