MODEL 1
REMARK VINA RESULT: -6.016863207      0.000      0.000
REMARK  3 active torsions:
REMARK  status: ('A' for Active; 'I' for Inactive)
REMARK    1  A    between atoms: N1_1  and  N2_4 
REMARK       I    between atoms: N2_4  and  C1_6 
REMARK       I    between atoms: C1_6  and  N3_8 
REMARK    2  A    between atoms: N3_8  and  C2_10 
REMARK    3  A    between atoms: N7_20  and  C6_21 
ROOT
HETATM    1  C2  UNL     1      53.436   7.091 120.390  1.00  0.00     0.155 A 
HETATM    2  N4  UNL     1      52.717   5.961 120.314  1.00  0.00    -0.282 N 
ATOM      3  H4  UNL     1      52.069   5.600 121.014  1.00  0.00     0.188 HD
HETATM    4  N5  UNL     1      53.015   5.412 119.156  1.00  0.00    -0.281 N 
ATOM      5  H5  UNL     1      52.617   4.535 118.820  1.00  0.00     0.188 HD
HETATM    6  C3  UNL     1      53.906   6.147 118.471  1.00  0.00     0.161 A 
HETATM    7  C4  UNL     1      54.205   7.259 119.257  1.00  0.00     0.125 A 
HETATM    8  N6  UNL     1      55.099   7.989 118.561  1.00  0.00    -0.346 N 
ATOM      9  H6  UNL     1      55.507   8.868 118.879  1.00  0.00     0.167 HD
HETATM   10  C5  UNL     1      55.375   7.392 117.387  1.00  0.00     0.193 A 
HETATM   11  N7  UNL     1      54.648   6.285 117.349  1.00  0.00    -0.268 N 
ENDROOT
BRANCH   1  12
HETATM   12  N3  UNL     1      53.407   7.901 121.387  1.00  0.00    -0.290 N 
HETATM   13  C1  UNL     1      54.301   7.738 122.483  1.00  0.00     0.340 C 
HETATM   14  N2  UNL     1      55.197   8.775 122.850  1.00  0.00    -0.258 N 
HETATM   15  O1  UNL     1      54.299   6.673 123.128  1.00  0.00    -0.245 OA
ATOM     16  H2  UNL     1      55.206   9.650 122.327  1.00  0.00     0.191 HD
ATOM     17  H3  UNL     1      52.737   8.670 121.393  1.00  0.00     0.172 HD
BRANCH  14  18
HETATM   18  N1  UNL     1      56.060   8.594 123.923  1.00  0.00    -0.341 N 
ATOM     19  H12 UNL     1      55.750   8.041 124.722  1.00  0.00     0.177 HD
ATOM     20  H11 UNL     1      56.990   9.013 123.902  1.00  0.00     0.177 HD
ENDBRANCH  14  18
ENDBRANCH   1  12
BRANCH  11  21
HETATM   21  C6  UNL     1      54.627   5.342 116.283  1.00  0.00     0.362 C 
HETATM   22  O2  UNL     1      55.671   4.839 115.800  1.00  0.00    -0.283 OA
ENDBRANCH  11  21
TORSDOF 3
ENDMDL
MODEL 2
REMARK VINA RESULT: -6.014001104      1.085      1.919
REMARK  3 active torsions:
REMARK  status: ('A' for Active; 'I' for Inactive)
REMARK    1  A    between atoms: N1_1  and  N2_4 
REMARK       I    between atoms: N2_4  and  C1_6 
REMARK       I    between atoms: C1_6  and  N3_8 
REMARK    2  A    between atoms: N3_8  and  C2_10 
REMARK    3  A    between atoms: N7_20  and  C6_21 
ROOT
HETATM    1  C2  UNL     1      54.158   6.781 120.573  1.00  0.00     0.155 A 
HETATM    2  N4  UNL     1      55.212   7.516 120.187  1.00  0.00    -0.282 N 
ATOM      3  H4  UNL     1      55.745   8.170 120.760  1.00  0.00     0.188 HD
HETATM    4  N5  UNL     1      55.419   7.225 118.921  1.00  0.00    -0.281 N 
ATOM      5  H5  UNL     1      56.161   7.635 118.354  1.00  0.00     0.188 HD
HETATM    6  C3  UNL     1      54.535   6.323 118.466  1.00  0.00     0.161 A 
HETATM    7  C4  UNL     1      53.690   6.011 119.530  1.00  0.00     0.125 A 
HETATM    8  N6  UNL     1      52.808   5.105 119.063  1.00  0.00    -0.346 N 
ATOM      9  H6  UNL     1      52.060   4.682 119.613  1.00  0.00     0.167 HD
HETATM   10  C5  UNL     1      53.056   4.837 117.768  1.00  0.00     0.193 A 
HETATM   11  N7  UNL     1      54.099   5.578 117.425  1.00  0.00    -0.268 N 
ENDROOT
BRANCH   1  12
HETATM   12  N3  UNL     1      53.659   6.800 121.757  1.00  0.00    -0.290 N 
HETATM   13  C1  UNL     1      54.462   7.150 122.880  1.00  0.00     0.340 C 
HETATM   14  N2  UNL     1      54.108   8.244 123.711  1.00  0.00    -0.258 N 
HETATM   15  O1  UNL     1      55.486   6.491 123.137  1.00  0.00    -0.245 OA
ATOM     16  H2  UNL     1      53.271   8.791 123.508  1.00  0.00     0.191 HD
ATOM     17  H3  UNL     1      52.677   6.560 121.894  1.00  0.00     0.172 HD
BRANCH  14  18
HETATM   18  N1  UNL     1      54.905   8.569 124.801  1.00  0.00    -0.341 N 
ATOM     19  H12 UNL     1      55.902   8.733 124.656  1.00  0.00     0.177 HD
ATOM     20  H11 UNL     1      54.490   8.640 125.730  1.00  0.00     0.177 HD
ENDBRANCH  14  18
ENDBRANCH   1  12
BRANCH  11  21
HETATM   21  C6  UNL     1      54.706   5.612 116.138  1.00  0.00     0.362 C 
HETATM   22  O2  UNL     1      55.694   4.900 115.833  1.00  0.00    -0.283 OA
ENDBRANCH  11  21
TORSDOF 3
ENDMDL
MODEL 3
REMARK VINA RESULT: -5.941406052      3.725      6.794
REMARK  3 active torsions:
REMARK  status: ('A' for Active; 'I' for Inactive)
REMARK    1  A    between atoms: N1_1  and  N2_4 
REMARK       I    between atoms: N2_4  and  C1_6 
REMARK       I    between atoms: C1_6  and  N3_8 
REMARK    2  A    between atoms: N3_8  and  C2_10 
REMARK    3  A    between atoms: N7_20  and  C6_21 
ROOT
HETATM    1  C2  UNL     1      53.329  10.639 120.391  1.00  0.00     0.155 A 
HETATM    2  N4  UNL     1      53.457  11.970 120.496  1.00  0.00    -0.282 N 
ATOM      3  H4  UNL     1      53.505  12.643 119.731  1.00  0.00     0.188 HD
HETATM    4  N5  UNL     1      53.509  12.235 121.784  1.00  0.00    -0.281 N 
ATOM      5  H5  UNL     1      53.606  13.173 122.171  1.00  0.00     0.188 HD
HETATM    6  C3  UNL     1      53.418  11.119 122.525  1.00  0.00     0.161 A 
HETATM    7  C4  UNL     1      53.300  10.050 121.638  1.00  0.00     0.125 A 
HETATM    8  N6  UNL     1      53.209   8.936 122.391  1.00  0.00    -0.346 N 
ATOM      9  H6  UNL     1      53.111   7.990 122.024  1.00  0.00     0.167 HD
HETATM   10  C5  UNL     1      53.267   9.252 123.698  1.00  0.00     0.193 A 
HETATM   11  N7  UNL     1      53.392  10.570 123.761  1.00  0.00    -0.268 N 
ENDROOT
BRANCH   1  12
HETATM   12  N3  UNL     1      53.246  10.006 119.276  1.00  0.00    -0.290 N 
HETATM   13  C1  UNL     1      54.342   9.986 118.368  1.00  0.00     0.340 C 
HETATM   14  N2  UNL     1      54.927   8.759 117.962  1.00  0.00    -0.258 N 
HETATM   15  O1  UNL     1      54.796  11.057 117.923  1.00  0.00    -0.245 OA
ATOM     16  H2  UNL     1      54.563   7.876 118.322  1.00  0.00     0.191 HD
ATOM     17  H3  UNL     1      52.385   9.513 119.038  1.00  0.00     0.172 HD
BRANCH  14  18
HETATM   18  N1  UNL     1      55.996   8.762 117.076  1.00  0.00    -0.341 N 
ATOM     19  H12 UNL     1      56.344   7.873 116.715  1.00  0.00     0.177 HD
ATOM     20  H11 UNL     1      56.419   9.646 116.795  1.00  0.00     0.177 HD
ENDBRANCH  14  18
ENDBRANCH   1  12
BRANCH  11  21
HETATM   21  C6  UNL     1      53.490  11.338 124.955  1.00  0.00     0.362 C 
HETATM   22  O2  UNL     1      54.081  12.445 125.005  1.00  0.00    -0.283 OA
ENDBRANCH  11  21
TORSDOF 3
ENDMDL
MODEL 4
REMARK VINA RESULT: -5.935778283      2.003      5.874
REMARK  3 active torsions:
REMARK  status: ('A' for Active; 'I' for Inactive)
REMARK    1  A    between atoms: N1_1  and  N2_4 
REMARK       I    between atoms: N2_4  and  C1_6 
REMARK       I    between atoms: C1_6  and  N3_8 
REMARK    2  A    between atoms: N3_8  and  C2_10 
REMARK    3  A    between atoms: N7_20  and  C6_21 
ROOT
HETATM    1  C2  UNL     1      54.244   7.265 120.348  1.00  0.00     0.155 A 
HETATM    2  N4  UNL     1      54.273   8.563 120.013  1.00  0.00    -0.282 N 
ATOM      3  H4  UNL     1      54.241   8.953 119.070  1.00  0.00     0.188 HD
HETATM    4  N5  UNL     1      54.354   9.234 121.141  1.00  0.00    -0.281 N 
ATOM      5  H5  UNL     1      54.393  10.251 121.200  1.00  0.00     0.188 HD
HETATM    6  C3  UNL     1      54.377   8.415 122.206  1.00  0.00     0.161 A 
HETATM    7  C4  UNL     1      54.308   7.111 121.717  1.00  0.00     0.125 A 
HETATM    8  N6  UNL     1      54.332   6.299 122.792  1.00  0.00    -0.346 N 
ATOM      9  H6  UNL     1      54.292   5.281 122.755  1.00  0.00     0.167 HD
HETATM   10  C5  UNL     1      54.414   7.025 123.923  1.00  0.00     0.193 A 
HETATM   11  N7  UNL     1      54.441   8.296 123.551  1.00  0.00    -0.268 N 
ENDROOT
BRANCH   1  12
HETATM   12  N3  UNL     1      54.168   6.301 119.502  1.00  0.00    -0.290 N 
HETATM   13  C1  UNL     1      54.212   6.556 118.102  1.00  0.00     0.340 C 
HETATM   14  N2  UNL     1      55.213   5.966 117.288  1.00  0.00    -0.258 N 
HETATM   15  O1  UNL     1      53.363   7.305 117.583  1.00  0.00    -0.245 OA
ATOM     16  H2  UNL     1      55.913   5.352 117.704  1.00  0.00     0.191 HD
ATOM     17  H3  UNL     1      54.074   5.342 119.837  1.00  0.00     0.172 HD
BRANCH  14  18
HETATM   18  N1  UNL     1      55.238   6.229 115.925  1.00  0.00    -0.341 N 
ATOM     19  H12 UNL     1      54.490   5.863 115.335  1.00  0.00     0.177 HD
ATOM     20  H11 UNL     1      55.998   6.781 115.528  1.00  0.00     0.177 HD
ENDBRANCH  14  18
ENDBRANCH   1  12
BRANCH  11  21
HETATM   21  C6  UNL     1      54.524   9.415 124.427  1.00  0.00     0.362 C 
HETATM   22  O2  UNL     1      54.339  10.596 124.042  1.00  0.00    -0.283 OA
ENDBRANCH  11  21
TORSDOF 3
ENDMDL
MODEL 5
REMARK VINA RESULT: -5.921495169      2.881      6.434
REMARK  3 active torsions:
REMARK  status: ('A' for Active; 'I' for Inactive)
REMARK    1  A    between atoms: N1_1  and  N2_4 
REMARK       I    between atoms: N2_4  and  C1_6 
REMARK       I    between atoms: C1_6  and  N3_8 
REMARK    2  A    between atoms: N3_8  and  C2_10 
REMARK    3  A    between atoms: N7_20  and  C6_21 
ROOT
HETATM    1  C2  UNL     1      54.412   8.827 121.369  1.00  0.00     0.155 A 
HETATM    2  N4  UNL     1      53.811   9.856 120.753  1.00  0.00    -0.282 N 
ATOM      3  H4  UNL     1      53.637   9.952 119.752  1.00  0.00     0.188 HD
HETATM    4  N5  UNL     1      53.493  10.715 121.696  1.00  0.00    -0.281 N 
ATOM      5  H5  UNL     1      53.021  11.603 121.525  1.00  0.00     0.188 HD
HETATM    6  C3  UNL     1      53.866  10.282 122.911  1.00  0.00     0.161 A 
HETATM    7  C4  UNL     1      54.476   9.041 122.730  1.00  0.00     0.125 A 
HETATM    8  N6  UNL     1      54.846   8.616 123.954  1.00  0.00    -0.346 N 
ATOM      9  H6  UNL     1      55.318   7.733 124.147  1.00  0.00     0.167 HD
HETATM   10  C5  UNL     1      54.502   9.524 124.887  1.00  0.00     0.193 A 
HETATM   11  N7  UNL     1      53.913  10.520 124.241  1.00  0.00    -0.268 N 
ENDROOT
BRANCH   1  12
HETATM   12  N3  UNL     1      54.866   7.787 120.766  1.00  0.00    -0.290 N 
HETATM   13  C1  UNL     1      54.548   7.542 119.400  1.00  0.00     0.340 C 
HETATM   14  N2  UNL     1      55.573   7.418 118.427  1.00  0.00    -0.258 N 
HETATM   15  O1  UNL     1      53.356   7.435 119.053  1.00  0.00    -0.245 OA
ATOM     16  H2  UNL     1      56.551   7.505 118.702  1.00  0.00     0.191 HD
ATOM     17  H3  UNL     1      55.460   7.130 121.271  1.00  0.00     0.172 HD
BRANCH  14  18
HETATM   18  N1  UNL     1      55.240   7.179 117.100  1.00  0.00    -0.341 N 
ATOM     19  H12 UNL     1      54.641   7.844 116.611  1.00  0.00     0.177 HD
ATOM     20  H11 UNL     1      55.595   6.346 116.630  1.00  0.00     0.177 HD
ENDBRANCH  14  18
ENDBRANCH   1  12
BRANCH  11  21
HETATM   21  C6  UNL     1      53.388  11.700 124.839  1.00  0.00     0.362 C 
HETATM   22  O2  UNL     1      53.169  12.752 124.189  1.00  0.00    -0.283 OA
ENDBRANCH  11  21
TORSDOF 3
ENDMDL
