MODEL 1
REMARK VINA RESULT: -5.428381876      0.000      0.000
REMARK  4 active torsions:
REMARK  status: ('A' for Active; 'I' for Inactive)
REMARK       I    between atoms: C2_2  and  N1_4 
REMARK    1  A    between atoms: N1_4  and  N2_6 
REMARK    2  A    between atoms: C4_9  and  C5_10 
REMARK    3  A    between atoms: C5_10  and  N4_11 
REMARK    4  A    between atoms: C5_10  and  N5_15 
ROOT
HETATM    1  N2  UNL     1      54.701   8.608 122.288  1.00  0.00    -0.187 N 
HETATM    2  C3  UNL     1      54.171   9.833 122.658  1.00  0.00     0.169 A 
HETATM    3  N3  UNL     1      53.575  10.771 121.754  1.00  0.00    -0.078 NA
HETATM    4  C4  UNL     1      54.297  10.012 123.992  1.00  0.00     0.114 A 
HETATM    5  N6  UNL     1      54.900   8.914 124.452  1.00  0.00    -0.304 N 
ATOM      6  H6  UNL     1      55.139   8.740 125.429  1.00  0.00     0.170 HD
HETATM    7  C6  UNL     1      55.148   8.052 123.411  1.00  0.00     0.347 A 
HETATM    8  O2  UNL     1      55.716   6.933 123.591  1.00  0.00    -0.245 OA
ENDROOT
BRANCH   4   9
HETATM    9  C5  UNL     1      53.863  11.179 124.798  1.00  0.00     0.430 C 
BRANCH   9  10
HETATM   10  N4  UNL     1      52.478  11.483 124.581  1.00  0.00    -0.045 N 
ATOM     11  H43 UNL     1      52.249  12.424 124.899  1.00  0.00     0.277 HD
ATOM     12  H42 UNL     1      52.272  11.596 123.589  1.00  0.00     0.277 HD
ATOM     13  H41 UNL     1      51.870  10.786 125.011  1.00  0.00     0.277 HD
ENDBRANCH   9  10
BRANCH   9  14
HETATM   14  N5  UNL     1      54.643  12.345 124.484  1.00  0.00    -0.045 N 
ATOM     15  H53 UNL     1      55.204  12.647 125.280  1.00  0.00     0.277 HD
ATOM     16  H52 UNL     1      55.398  12.127 123.834  1.00  0.00     0.277 HD
ATOM     17  H51 UNL     1      54.052  13.100 124.133  1.00  0.00     0.277 HD
ENDBRANCH   9  14
ENDBRANCH   4   9
BRANCH   1  18
HETATM   18  N1  UNL     1      54.713   8.151 120.979  1.00  0.00    -0.258 N 
HETATM   19  C2  UNL     1      53.791   7.326 120.347  1.00  0.00     0.232 C 
HETATM   20  C1  UNL     1      54.028   6.962 118.884  1.00  0.00     0.119 C 
HETATM   21  O1  UNL     1      52.761   6.827 120.830  1.00  0.00    -0.272 OA
ATOM     22  H1  UNL     1      55.500   8.460 120.407  1.00  0.00     0.190 HD
ENDBRANCH   1  18
TORSDOF 4
ENDMDL
MODEL 2
REMARK VINA RESULT: -5.392193499      2.572      5.411
REMARK  4 active torsions:
REMARK  status: ('A' for Active; 'I' for Inactive)
REMARK       I    between atoms: C2_2  and  N1_4 
REMARK    1  A    between atoms: N1_4  and  N2_6 
REMARK    2  A    between atoms: C4_9  and  C5_10 
REMARK    3  A    between atoms: C5_10  and  N4_11 
REMARK    4  A    between atoms: C5_10  and  N5_15 
ROOT
HETATM    1  N2  UNL     1      53.439  10.095 122.255  1.00  0.00    -0.187 N 
HETATM    2  C3  UNL     1      53.930   8.800 122.237  1.00  0.00     0.169 A 
HETATM    3  N3  UNL     1      54.018   7.944 123.383  1.00  0.00    -0.078 NA
HETATM    4  C4  UNL     1      54.312   8.463 120.984  1.00  0.00     0.114 A 
HETATM    5  N6  UNL     1      54.064   9.534 120.227  1.00  0.00    -0.304 N 
ATOM      6  H6  UNL     1      54.244   9.600 119.225  1.00  0.00     0.170 HD
HETATM    7  C6  UNL     1      53.528  10.535 121.003  1.00  0.00     0.347 A 
HETATM    8  O2  UNL     1      53.206  11.658 120.513  1.00  0.00    -0.245 OA
ENDROOT
BRANCH   4   9
HETATM    9  C5  UNL     1      54.890   7.177 120.525  1.00  0.00     0.430 C 
BRANCH   9  10
HETATM   10  N4  UNL     1      55.436   7.287 119.203  1.00  0.00    -0.045 N 
ATOM     11  H43 UNL     1      54.727   7.113 118.491  1.00  0.00     0.277 HD
ATOM     12  H42 UNL     1      55.659   8.255 118.972  1.00  0.00     0.277 HD
ATOM     13  H41 UNL     1      56.245   6.678 119.080  1.00  0.00     0.277 HD
ENDBRANCH   9  10
BRANCH   9  14
HETATM   14  N5  UNL     1      53.900   6.134 120.527  1.00  0.00    -0.045 N 
ATOM     15  H53 UNL     1      52.958   6.511 120.427  1.00  0.00     0.277 HD
ATOM     16  H52 UNL     1      53.938   5.580 119.671  1.00  0.00     0.277 HD
ATOM     17  H51 UNL     1      53.985   5.548 121.357  1.00  0.00     0.277 HD
ENDBRANCH   9  14
ENDBRANCH   4   9
BRANCH   1  18
HETATM   18  N1  UNL     1      52.972  10.713 123.405  1.00  0.00    -0.258 N 
HETATM   19  C2  UNL     1      53.356  11.936 123.941  1.00  0.00     0.232 C 
HETATM   20  C1  UNL     1      52.687  12.404 125.231  1.00  0.00     0.119 C 
HETATM   21  O1  UNL     1      54.202  12.729 123.496  1.00  0.00    -0.272 OA
ATOM     22  H1  UNL     1      52.255  10.205 123.924  1.00  0.00     0.190 HD
ENDBRANCH   1  18
TORSDOF 4
ENDMDL
MODEL 3
REMARK VINA RESULT: -5.336371214      2.325      4.851
REMARK  4 active torsions:
REMARK  status: ('A' for Active; 'I' for Inactive)
REMARK       I    between atoms: C2_2  and  N1_4 
REMARK    1  A    between atoms: N1_4  and  N2_6 
REMARK    2  A    between atoms: C4_9  and  C5_10 
REMARK    3  A    between atoms: C5_10  and  N4_11 
REMARK    4  A    between atoms: C5_10  and  N5_15 
ROOT
HETATM    1  N2  UNL     1      53.821   9.293 122.933  1.00  0.00    -0.187 N 
HETATM    2  C3  UNL     1      53.089   8.769 121.880  1.00  0.00     0.169 A 
HETATM    3  N3  UNL     1      51.709   9.057 121.623  1.00  0.00    -0.078 NA
HETATM    4  C4  UNL     1      53.865   7.951 121.134  1.00  0.00     0.114 A 
HETATM    5  N6  UNL     1      55.068   7.962 121.712  1.00  0.00    -0.304 N 
ATOM      6  H6  UNL     1      55.882   7.440 121.386  1.00  0.00     0.170 HD
HETATM    7  C6  UNL     1      55.044   8.783 122.814  1.00  0.00     0.347 A 
HETATM    8  O2  UNL     1      56.070   8.961 123.537  1.00  0.00    -0.245 OA
ENDROOT
BRANCH   4   9
HETATM    9  C5  UNL     1      53.480   7.190 119.920  1.00  0.00     0.430 C 
BRANCH   9  10
HETATM   10  N4  UNL     1      52.944   8.052 118.907  1.00  0.00    -0.045 N 
ATOM     11  H43 UNL     1      51.995   7.779 118.650  1.00  0.00     0.277 HD
ATOM     12  H42 UNL     1      52.747   8.982 119.274  1.00  0.00     0.277 HD
ATOM     13  H41 UNL     1      53.554   8.094 118.090  1.00  0.00     0.277 HD
ENDBRANCH   9  10
BRANCH   9  14
HETATM   14  N5  UNL     1      52.504   6.182 120.229  1.00  0.00    -0.045 N 
ATOM     15  H53 UNL     1      52.866   5.244 120.060  1.00  0.00     0.277 HD
ATOM     16  H52 UNL     1      52.345   6.109 121.234  1.00  0.00     0.277 HD
ATOM     17  H51 UNL     1      51.633   6.345 119.723  1.00  0.00     0.277 HD
ENDBRANCH   9  14
ENDBRANCH   4   9
BRANCH   1  18
HETATM   18  N1  UNL     1      53.287  10.167 123.868  1.00  0.00    -0.258 N 
HETATM   19  C2  UNL     1      53.238  11.555 123.819  1.00  0.00     0.232 C 
HETATM   20  C1  UNL     1      52.590  12.298 124.984  1.00  0.00     0.119 C 
HETATM   21  O1  UNL     1      53.666  12.300 122.923  1.00  0.00    -0.272 OA
ATOM     22  H1  UNL     1      52.877   9.736 124.697  1.00  0.00     0.190 HD
ENDBRANCH   1  18
TORSDOF 4
ENDMDL
MODEL 4
REMARK VINA RESULT: -5.279863520      1.973      4.706
REMARK  4 active torsions:
REMARK  status: ('A' for Active; 'I' for Inactive)
REMARK       I    between atoms: C2_2  and  N1_4 
REMARK    1  A    between atoms: N1_4  and  N2_6 
REMARK    2  A    between atoms: C4_9  and  C5_10 
REMARK    3  A    between atoms: C5_10  and  N4_11 
REMARK    4  A    between atoms: C5_10  and  N5_15 
ROOT
HETATM    1  N2  UNL     1      54.459   8.340 123.457  1.00  0.00    -0.187 N 
HETATM    2  C3  UNL     1      54.375   8.369 122.075  1.00  0.00     0.169 A 
HETATM    3  N3  UNL     1      54.363   9.563 121.283  1.00  0.00    -0.078 NA
HETATM    4  C4  UNL     1      54.308   7.110 121.585  1.00  0.00     0.114 A 
HETATM    5  N6  UNL     1      54.349   6.303 122.647  1.00  0.00    -0.304 N 
ATOM      6  H6  UNL     1      54.316   5.284 122.613  1.00  0.00     0.170 HD
HETATM    7  C6  UNL     1      54.441   7.053 123.795  1.00  0.00     0.347 A 
HETATM    8  O2  UNL     1      54.494   6.516 124.942  1.00  0.00    -0.245 OA
ENDROOT
BRANCH   4   9
HETATM    9  C5  UNL     1      54.210   6.691 120.166  1.00  0.00     0.430 C 
BRANCH   9  10
HETATM   10  N4  UNL     1      55.306   7.196 119.391  1.00  0.00    -0.045 N 
ATOM     11  H43 UNL     1      55.530   6.575 118.614  1.00  0.00     0.277 HD
ATOM     12  H42 UNL     1      55.037   8.024 118.860  1.00  0.00     0.277 HD
ATOM     13  H41 UNL     1      56.125   7.376 119.972  1.00  0.00     0.277 HD
ENDBRANCH   9  10
BRANCH   9  14
HETATM   14  N5  UNL     1      52.982   7.147 119.575  1.00  0.00    -0.045 N 
ATOM     15  H53 UNL     1      52.574   7.918 120.104  1.00  0.00     0.277 HD
ATOM     16  H52 UNL     1      53.148   7.633 118.693  1.00  0.00     0.277 HD
ATOM     17  H51 UNL     1      52.321   6.378 119.460  1.00  0.00     0.277 HD
ENDBRANCH   9  14
ENDBRANCH   4   9
BRANCH   1  18
HETATM   18  N1  UNL     1      54.540   9.484 124.237  1.00  0.00    -0.258 N 
HETATM   19  C2  UNL     1      53.613  10.513 124.353  1.00  0.00     0.232 C 
HETATM   20  C1  UNL     1      53.936  11.677 125.286  1.00  0.00     0.119 C 
HETATM   21  O1  UNL     1      52.517  10.618 123.778  1.00  0.00    -0.272 OA
ATOM     22  H1  UNL     1      55.387   9.583 124.795  1.00  0.00     0.190 HD
ENDBRANCH   1  18
TORSDOF 4
ENDMDL
MODEL 5
REMARK VINA RESULT: -5.127282794      2.222      5.053
REMARK  4 active torsions:
REMARK  status: ('A' for Active; 'I' for Inactive)
REMARK       I    between atoms: C2_2  and  N1_4 
REMARK    1  A    between atoms: N1_4  and  N2_6 
REMARK    2  A    between atoms: C4_9  and  C5_10 
REMARK    3  A    between atoms: C5_10  and  N4_11 
REMARK    4  A    between atoms: C5_10  and  N5_15 
ROOT
HETATM    1  N2  UNL     1      52.928   9.805 122.131  1.00  0.00    -0.187 N 
HETATM    2  C3  UNL     1      53.256   9.965 120.794  1.00  0.00     0.169 A 
HETATM    3  N3  UNL     1      53.633  11.208 120.190  1.00  0.00    -0.078 NA
HETATM    4  C4  UNL     1      53.170   8.781 120.148  1.00  0.00     0.114 A 
HETATM    5  N6  UNL     1      52.791   7.890 121.067  1.00  0.00    -0.304 N 
ATOM      6  H6  UNL     1      52.636   6.897 120.894  1.00  0.00     0.170 HD
HETATM    7  C6  UNL     1      52.643   8.515 122.283  1.00  0.00     0.347 A 
HETATM    8  O2  UNL     1      52.288   7.880 123.320  1.00  0.00    -0.245 OA
ENDROOT
BRANCH   4   9
HETATM    9  C5  UNL     1      53.436   8.506 118.715  1.00  0.00     0.430 C 
BRANCH   9  10
HETATM   10  N4  UNL     1      54.803   8.770 118.373  1.00  0.00    -0.045 N 
ATOM     11  H43 UNL     1      54.972   8.630 117.377  1.00  0.00     0.277 HD
ATOM     12  H42 UNL     1      55.017   9.765 118.432  1.00  0.00     0.277 HD
ATOM     13  H41 UNL     1      55.445   8.216 118.942  1.00  0.00     0.277 HD
ENDBRANCH   9  10
BRANCH   9  14
HETATM   14  N5  UNL     1      52.590   9.302 117.869  1.00  0.00    -0.045 N 
ATOM     15  H53 UNL     1      52.584   8.954 116.910  1.00  0.00     0.277 HD
ATOM     16  H52 UNL     1      51.604   9.167 118.090  1.00  0.00     0.277 HD
ATOM     17  H51 UNL     1      52.851  10.288 117.909  1.00  0.00     0.277 HD
ENDBRANCH   9  14
ENDBRANCH   4   9
BRANCH   1  18
HETATM   18  N1  UNL     1      52.928  10.850 123.042  1.00  0.00    -0.258 N 
HETATM   19  C2  UNL     1      53.557  10.912 124.280  1.00  0.00     0.232 C 
HETATM   20  C1  UNL     1      53.406  12.187 125.106  1.00  0.00     0.119 C 
HETATM   21  O1  UNL     1      54.252  10.039 124.825  1.00  0.00    -0.272 OA
ATOM     22  H1  UNL     1      52.399  11.678 122.770  1.00  0.00     0.190 HD
ENDBRANCH   1  18
TORSDOF 4
ENDMDL
