MODEL 1
REMARK VINA RESULT: -8.331096120      0.000      0.000
REMARK  12 active torsions:
REMARK  status: ('A' for Active; 'I' for Inactive)
REMARK    1  A    between atoms: C2_2  and  C4_4 
REMARK    2  A    between atoms: C4_4  and  N1_5 
REMARK    3  A    between atoms: C4_4  and  C5_9 
REMARK    4  A    between atoms: C5_9  and  O1_10 
REMARK    5  A    between atoms: O1_10  and  C6_11 
REMARK    6  A    between atoms: C10_17  and  N3_18 
REMARK    7  A    between atoms: N3_18  and  C11_20 
REMARK    8  A    between atoms: C14_23  and  O2_24 
REMARK    9  A    between atoms: O2_24  and  C15_25 
REMARK   10  A    between atoms: C23_35  and  N5_36 
REMARK   11  A    between atoms: N5_36  and  C24_38 
REMARK   12  A    between atoms: C27_41  and  C28_42 
ROOT
HETATM    1  C6  UNL     1      18.475 -27.583 -53.850  1.00  0.00     0.069 A 
HETATM    2  C7  UNL     1      19.669 -27.589 -53.114  1.00  0.00     0.039 A 
HETATM    3  C8  UNL     1      20.164 -26.389 -52.709  1.00  0.00     0.034 A 
HETATM    4  C9  UNL     1      19.539 -25.192 -52.998  1.00  0.00     0.063 A 
HETATM    5  N2  UNL     1      20.089 -24.029 -52.575  1.00  0.00    -0.191 N 
ATOM      6  H2  UNL     1      20.959 -24.046 -52.045  1.00  0.00     0.184 HD
HETATM    7  C10 UNL     1      19.505 -22.866 -52.845  1.00  0.00     0.684 A 
HETATM    8  N4  UNL     1      18.327 -22.854 -53.560  1.00  0.00    -0.175 N 
ATOM      9  H4  UNL     1      17.893 -21.951 -53.751  1.00  0.00     0.186 HD
HETATM   10  C23 UNL     1      17.717 -23.951 -54.020  1.00  0.00     0.134 A 
HETATM   11  C31 UNL     1      18.356 -25.170 -53.723  1.00  0.00     0.038 A 
HETATM   12  C32 UNL     1      17.838 -26.385 -54.141  1.00  0.00     0.054 A 
ENDROOT
BRANCH   7  13
HETATM   13  N3  UNL     1      20.054 -21.727 -52.497  1.00  0.00    -0.192 N 
ATOM     14  H3  UNL     1      19.507 -20.977 -52.076  1.00  0.00     0.184 HD
BRANCH  13  15
HETATM   15  C11 UNL     1      21.444 -21.589 -52.734  1.00  0.00     0.049 A 
HETATM   16  C12 UNL     1      22.033 -21.702 -53.976  1.00  0.00     0.033 A 
HETATM   17  C13 UNL     1      23.401 -21.517 -54.143  1.00  0.00     0.039 A 
HETATM   18  C14 UNL     1      24.180 -21.220 -53.081  1.00  0.00     0.076 A 
HETATM   19  C21 UNL     1      23.648 -21.092 -51.826  1.00  0.00     0.039 A 
HETATM   20  C22 UNL     1      22.300 -21.276 -51.665  1.00  0.00     0.033 A 
BRANCH  18  21
HETATM   21  O2  UNL     1      25.572 -21.038 -53.214  1.00  0.00    -0.311 OA
BRANCH  21  22
HETATM   22  C15 UNL     1      26.205 -22.047 -53.912  1.00  0.00     0.076 A 
HETATM   23  C16 UNL     1      27.122 -21.615 -54.893  1.00  0.00     0.037 A 
HETATM   24  C17 UNL     1      27.750 -22.600 -55.606  1.00  0.00     0.003 A 
HETATM   25  C18 UNL     1      27.547 -23.943 -55.434  1.00  0.00     0.000 A 
HETATM   26  C19 UNL     1      26.648 -24.375 -54.473  1.00  0.00     0.003 A 
HETATM   27  C20 UNL     1      25.996 -23.376 -53.733  1.00  0.00     0.037 A 
ENDBRANCH  21  22
ENDBRANCH  18  21
ENDBRANCH  13  15
ENDBRANCH   7  13
BRANCH  10  28
HETATM   28  N5  UNL     1      16.696 -23.946 -54.680  1.00  0.00    -0.341 N 
ATOM     29  H5  UNL     1      16.030 -23.328 -54.215  1.00  0.00     0.167 HD
BRANCH  28  30
HETATM   30  C24 UNL     1      16.088 -24.443 -55.797  1.00  0.00     0.033 A 
HETATM   31  C25 UNL     1      14.898 -25.165 -55.600  1.00  0.00     0.030 A 
HETATM   32  C26 UNL     1      14.224 -25.751 -56.647  1.00  0.00     0.018 A 
HETATM   33  C27 UNL     1      14.712 -25.624 -57.916  1.00  0.00     0.048 A 
HETATM   34  C29 UNL     1      15.865 -24.926 -58.138  1.00  0.00     0.018 A 
HETATM   35  C30 UNL     1      16.522 -24.357 -57.100  1.00  0.00     0.030 A 
BRANCH  33  36
HETATM   36  C28 UNL     1      14.041 -26.272 -59.088  1.00  0.00     0.417 C 
HETATM   37  F1  UNL     1      15.020 -26.535 -60.060  1.00  0.00    -0.166 F 
HETATM   38  F2  UNL     1      13.503 -27.509 -58.762  1.00  0.00    -0.166 F 
HETATM   39  F3  UNL     1      13.049 -25.523 -59.624  1.00  0.00    -0.166 F 
ENDBRANCH  33  36
ENDBRANCH  28  30
ENDBRANCH  10  28
BRANCH   1  40
HETATM   40  O1  UNL     1      17.977 -28.793 -54.264  1.00  0.00    -0.349 OA
BRANCH  40  41
HETATM   41  C5  UNL     1      16.864 -28.874 -55.152  1.00  0.00     0.208 C 
BRANCH  41  42
HETATM   42  C4  UNL     1      17.384 -29.311 -56.515  1.00  0.00     0.211 C 
BRANCH  42  43
HETATM   43  C2  UNL     1      17.176 -28.357 -57.608  1.00  0.00     0.010 C 
HETATM   44  C1  UNL     1      17.013 -28.884 -58.989  1.00  0.00     0.011 C 
HETATM   45  C3  UNL     1      18.503 -27.500 -57.657  1.00  0.00     0.011 C 
ENDBRANCH  42  43
BRANCH  42  46
HETATM   46  N1  UNL     1      16.958 -30.664 -56.790  1.00  0.00    -0.073 N 
ATOM     47  H13 UNL     1      15.964 -30.679 -57.016  1.00  0.00     0.274 HD
ATOM     48  H12 UNL     1      17.348 -30.980 -57.679  1.00  0.00     0.274 HD
ATOM     49  H11 UNL     1      17.162 -31.341 -56.056  1.00  0.00     0.274 HD
ENDBRANCH  42  46
ENDBRANCH  41  42
ENDBRANCH  40  41
ENDBRANCH   1  40
TORSDOF 12
ENDMDL
MODEL 2
REMARK VINA RESULT: -8.243927505      2.393      3.178
REMARK  12 active torsions:
REMARK  status: ('A' for Active; 'I' for Inactive)
REMARK    1  A    between atoms: C2_2  and  C4_4 
REMARK    2  A    between atoms: C4_4  and  N1_5 
REMARK    3  A    between atoms: C4_4  and  C5_9 
REMARK    4  A    between atoms: C5_9  and  O1_10 
REMARK    5  A    between atoms: O1_10  and  C6_11 
REMARK    6  A    between atoms: C10_17  and  N3_18 
REMARK    7  A    between atoms: N3_18  and  C11_20 
REMARK    8  A    between atoms: C14_23  and  O2_24 
REMARK    9  A    between atoms: O2_24  and  C15_25 
REMARK   10  A    between atoms: C23_35  and  N5_36 
REMARK   11  A    between atoms: N5_36  and  C24_38 
REMARK   12  A    between atoms: C27_41  and  C28_42 
ROOT
HETATM    1  C6  UNL     1      18.842 -26.655 -51.992  1.00  0.00     0.069 A 
HETATM    2  C7  UNL     1      20.074 -26.647 -51.322  1.00  0.00     0.039 A 
HETATM    3  C8  UNL     1      20.896 -25.583 -51.530  1.00  0.00     0.034 A 
HETATM    4  C9  UNL     1      20.559 -24.537 -52.366  1.00  0.00     0.063 A 
HETATM    5  N2  UNL     1      21.427 -23.512 -52.539  1.00  0.00    -0.191 N 
ATOM      6  H2  UNL     1      22.321 -23.520 -52.050  1.00  0.00     0.184 HD
HETATM    7  C10 UNL     1      21.124 -22.497 -53.341  1.00  0.00     0.684 A 
HETATM    8  N4  UNL     1      19.911 -22.494 -53.995  1.00  0.00    -0.175 N 
ATOM      9  H4  UNL     1      19.696 -21.702 -54.601  1.00  0.00     0.186 HD
HETATM   10  C23 UNL     1      18.998 -23.464 -53.887  1.00  0.00     0.134 A 
HETATM   11  C31 UNL     1      19.343 -24.529 -53.033  1.00  0.00     0.038 A 
HETATM   12  C32 UNL     1      18.494 -25.604 -52.830  1.00  0.00     0.054 A 
ENDROOT
BRANCH   7  13
HETATM   13  N3  UNL     1      21.976 -21.526 -53.569  1.00  0.00    -0.192 N 
ATOM     14  H3  UNL     1      21.698 -20.676 -54.058  1.00  0.00     0.184 HD
BRANCH  13  15
HETATM   15  C11 UNL     1      23.300 -21.717 -53.105  1.00  0.00     0.049 A 
HETATM   16  C12 UNL     1      24.222 -22.546 -53.708  1.00  0.00     0.033 A 
HETATM   17  C13 UNL     1      25.519 -22.657 -53.220  1.00  0.00     0.039 A 
HETATM   18  C14 UNL     1      25.900 -21.946 -52.136  1.00  0.00     0.076 A 
HETATM   19  C21 UNL     1      25.027 -21.104 -51.500  1.00  0.00     0.039 A 
HETATM   20  C22 UNL     1      23.750 -20.998 -51.984  1.00  0.00     0.033 A 
BRANCH  18  21
HETATM   21  O2  UNL     1      27.203 -22.045 -51.609  1.00  0.00    -0.311 OA
BRANCH  21  22
HETATM   22  C15 UNL     1      27.281 -21.783 -50.255  1.00  0.00     0.076 A 
HETATM   23  C16 UNL     1      26.722 -22.772 -49.419  1.00  0.00     0.037 A 
HETATM   24  C17 UNL     1      26.777 -22.525 -48.074  1.00  0.00     0.003 A 
HETATM   25  C18 UNL     1      27.323 -21.406 -47.504  1.00  0.00     0.000 A 
HETATM   26  C19 UNL     1      27.873 -20.431 -48.319  1.00  0.00     0.003 A 
HETATM   27  C20 UNL     1      27.824 -20.670 -49.701  1.00  0.00     0.037 A 
ENDBRANCH  21  22
ENDBRANCH  18  21
ENDBRANCH  13  15
ENDBRANCH   7  13
BRANCH  10  28
HETATM   28  N5  UNL     1      17.940 -23.485 -54.486  1.00  0.00    -0.341 N 
ATOM     29  H5  UNL     1      17.303 -22.844 -54.012  1.00  0.00     0.167 HD
BRANCH  28  30
HETATM   30  C24 UNL     1      17.267 -24.029 -55.543  1.00  0.00     0.033 A 
HETATM   31  C25 UNL     1      15.865 -23.928 -55.518  1.00  0.00     0.030 A 
HETATM   32  C26 UNL     1      15.081 -24.479 -56.505  1.00  0.00     0.018 A 
HETATM   33  C27 UNL     1      15.674 -25.137 -57.545  1.00  0.00     0.048 A 
HETATM   34  C29 UNL     1      17.033 -25.249 -57.596  1.00  0.00     0.018 A 
HETATM   35  C30 UNL     1      17.795 -24.705 -56.618  1.00  0.00     0.030 A 
BRANCH  33  36
HETATM   36  C28 UNL     1      14.868 -25.789 -58.626  1.00  0.00     0.417 C 
HETATM   37  F1  UNL     1      14.928 -24.971 -59.766  1.00  0.00    -0.166 F 
HETATM   38  F2  UNL     1      15.408 -27.006 -59.017  1.00  0.00    -0.166 F 
HETATM   39  F3  UNL     1      13.576 -26.005 -58.282  1.00  0.00    -0.166 F 
ENDBRANCH  33  36
ENDBRANCH  28  30
ENDBRANCH  10  28
BRANCH   1  40
HETATM   40  O1  UNL     1      18.013 -27.730 -51.786  1.00  0.00    -0.349 OA
BRANCH  40  41
HETATM   41  C5  UNL     1      16.615 -27.653 -52.061  1.00  0.00     0.208 C 
BRANCH  41  42
HETATM   42  C4  UNL     1      16.328 -28.524 -53.277  1.00  0.00     0.211 C 
BRANCH  42  43
HETATM   43  C2  UNL     1      16.272 -27.819 -54.561  1.00  0.00     0.010 C 
HETATM   44  C1  UNL     1      15.172 -28.150 -55.504  1.00  0.00     0.011 C 
HETATM   45  C3  UNL     1      17.594 -28.245 -55.315  1.00  0.00     0.011 C 
ENDBRANCH  42  43
BRANCH  42  46
HETATM   46  N1  UNL     1      15.208 -29.393 -53.003  1.00  0.00    -0.073 N 
ATOM     47  H13 UNL     1      14.891 -29.264 -52.042  1.00  0.00     0.274 HD
ATOM     48  H12 UNL     1      14.382 -29.071 -53.508  1.00  0.00     0.274 HD
ATOM     49  H11 UNL     1      15.369 -30.382 -53.189  1.00  0.00     0.274 HD
ENDBRANCH  42  46
ENDBRANCH  41  42
ENDBRANCH  40  41
ENDBRANCH   1  40
TORSDOF 12
ENDMDL
MODEL 3
REMARK VINA RESULT: -8.210153386      1.146      1.609
REMARK  12 active torsions:
REMARK  status: ('A' for Active; 'I' for Inactive)
REMARK    1  A    between atoms: C2_2  and  C4_4 
REMARK    2  A    between atoms: C4_4  and  N1_5 
REMARK    3  A    between atoms: C4_4  and  C5_9 
REMARK    4  A    between atoms: C5_9  and  O1_10 
REMARK    5  A    between atoms: O1_10  and  C6_11 
REMARK    6  A    between atoms: C10_17  and  N3_18 
REMARK    7  A    between atoms: N3_18  and  C11_20 
REMARK    8  A    between atoms: C14_23  and  O2_24 
REMARK    9  A    between atoms: O2_24  and  C15_25 
REMARK   10  A    between atoms: C23_35  and  N5_36 
REMARK   11  A    between atoms: N5_36  and  C24_38 
REMARK   12  A    between atoms: C27_41  and  C28_42 
ROOT
HETATM    1  C6  UNL     1      18.365 -27.878 -53.869  1.00  0.00     0.069 A 
HETATM    2  C7  UNL     1      19.581 -27.814 -53.174  1.00  0.00     0.039 A 
HETATM    3  C8  UNL     1      20.019 -26.585 -52.786  1.00  0.00     0.034 A 
HETATM    4  C9  UNL     1      19.317 -25.427 -53.055  1.00  0.00     0.063 A 
HETATM    5  N2  UNL     1      19.813 -24.234 -52.651  1.00  0.00    -0.191 N 
ATOM      6  H2  UNL     1      20.700 -24.199 -52.151  1.00  0.00     0.184 HD
HETATM    7  C10 UNL     1      19.154 -23.107 -52.902  1.00  0.00     0.684 A 
HETATM    8  N4  UNL     1      17.954 -23.165 -53.577  1.00  0.00    -0.175 N 
ATOM      9  H4  UNL     1      17.462 -22.289 -53.753  1.00  0.00     0.186 HD
HETATM   10  C23 UNL     1      17.393 -24.296 -54.015  1.00  0.00     0.134 A 
HETATM   11  C31 UNL     1      18.111 -25.475 -53.739  1.00  0.00     0.038 A 
HETATM   12  C32 UNL     1      17.650 -26.719 -54.139  1.00  0.00     0.054 A 
ENDROOT
BRANCH   7  13
HETATM   13  N3  UNL     1      19.648 -21.938 -52.573  1.00  0.00    -0.192 N 
ATOM     14  H3  UNL     1      19.061 -21.201 -52.183  1.00  0.00     0.184 HD
BRANCH  13  15
HETATM   15  C11 UNL     1      21.035 -21.747 -52.786  1.00  0.00     0.049 A 
HETATM   16  C12 UNL     1      21.660 -21.897 -54.007  1.00  0.00     0.033 A 
HETATM   17  C13 UNL     1      23.021 -21.657 -54.152  1.00  0.00     0.039 A 
HETATM   18  C14 UNL     1      23.760 -21.269 -53.090  1.00  0.00     0.076 A 
HETATM   19  C21 UNL     1      23.191 -21.101 -51.856  1.00  0.00     0.039 A 
HETATM   20  C22 UNL     1      21.849 -21.339 -51.717  1.00  0.00     0.033 A 
BRANCH  18  21
HETATM   21  O2  UNL     1      25.145 -21.030 -53.201  1.00  0.00    -0.311 OA
BRANCH  21  22
HETATM   22  C15 UNL     1      25.907 -21.704 -52.268  1.00  0.00     0.076 A 
HETATM   23  C16 UNL     1      25.855 -23.112 -52.353  1.00  0.00     0.037 A 
HETATM   24  C17 UNL     1      26.592 -23.798 -51.428  1.00  0.00     0.003 A 
HETATM   25  C18 UNL     1      27.355 -23.222 -50.448  1.00  0.00     0.000 A 
HETATM   26  C19 UNL     1      27.410 -21.841 -50.358  1.00  0.00     0.003 A 
HETATM   27  C20 UNL     1      26.659 -21.122 -51.300  1.00  0.00     0.037 A 
ENDBRANCH  21  22
ENDBRANCH  18  21
ENDBRANCH  13  15
ENDBRANCH   7  13
BRANCH  10  28
HETATM   28  N5  UNL     1      16.351 -24.352 -54.639  1.00  0.00    -0.341 N 
ATOM     29  H5  UNL     1      15.619 -23.945 -54.057  1.00  0.00     0.167 HD
BRANCH  28  30
HETATM   30  C24 UNL     1      15.774 -24.746 -55.813  1.00  0.00     0.033 A 
HETATM   31  C25 UNL     1      14.574 -25.472 -55.714  1.00  0.00     0.030 A 
HETATM   32  C26 UNL     1      13.929 -25.961 -56.826  1.00  0.00     0.018 A 
HETATM   33  C27 UNL     1      14.456 -25.731 -58.065  1.00  0.00     0.048 A 
HETATM   34  C29 UNL     1      15.619 -25.026 -58.192  1.00  0.00     0.018 A 
HETATM   35  C30 UNL     1      16.248 -24.553 -57.090  1.00  0.00     0.030 A 
BRANCH  33  36
HETATM   36  C28 UNL     1      13.816 -26.271 -59.307  1.00  0.00     0.417 C 
HETATM   37  F1  UNL     1      13.596 -25.197 -60.185  1.00  0.00    -0.166 F 
HETATM   38  F2  UNL     1      14.655 -27.139 -59.990  1.00  0.00    -0.166 F 
HETATM   39  F3  UNL     1      12.652 -26.922 -59.075  1.00  0.00    -0.166 F 
ENDBRANCH  33  36
ENDBRANCH  28  30
ENDBRANCH  10  28
BRANCH   1  40
HETATM   40  O1  UNL     1      17.924 -29.116 -54.264  1.00  0.00    -0.349 OA
BRANCH  40  41
HETATM   41  C5  UNL     1      16.955 -29.263 -55.302  1.00  0.00     0.208 C 
BRANCH  41  42
HETATM   42  C4  UNL     1      17.701 -29.393 -56.624  1.00  0.00     0.211 C 
BRANCH  42  43
HETATM   43  C2  UNL     1      17.320 -28.432 -57.662  1.00  0.00     0.010 C 
HETATM   44  C1  UNL     1      17.198 -28.914 -59.064  1.00  0.00     0.011 C 
HETATM   45  C3  UNL     1      18.501 -27.382 -57.697  1.00  0.00     0.011 C 
ENDBRANCH  42  43
BRANCH  42  46
HETATM   46  N1  UNL     1      17.720 -30.776 -57.041  1.00  0.00    -0.073 N 
ATOM     47  H13 UNL     1      17.997 -31.373 -56.262  1.00  0.00     0.274 HD
ATOM     48  H12 UNL     1      16.767 -31.109 -57.192  1.00  0.00     0.274 HD
ATOM     49  H11 UNL     1      18.295 -30.975 -57.858  1.00  0.00     0.274 HD
ENDBRANCH  42  46
ENDBRANCH  41  42
ENDBRANCH  40  41
ENDBRANCH   1  40
TORSDOF 12
ENDMDL
MODEL 4
REMARK VINA RESULT: -8.061293929      1.092      1.936
REMARK  12 active torsions:
REMARK  status: ('A' for Active; 'I' for Inactive)
REMARK    1  A    between atoms: C2_2  and  C4_4 
REMARK    2  A    between atoms: C4_4  and  N1_5 
REMARK    3  A    between atoms: C4_4  and  C5_9 
REMARK    4  A    between atoms: C5_9  and  O1_10 
REMARK    5  A    between atoms: O1_10  and  C6_11 
REMARK    6  A    between atoms: C10_17  and  N3_18 
REMARK    7  A    between atoms: N3_18  and  C11_20 
REMARK    8  A    between atoms: C14_23  and  O2_24 
REMARK    9  A    between atoms: O2_24  and  C15_25 
REMARK   10  A    between atoms: C23_35  and  N5_36 
REMARK   11  A    between atoms: N5_36  and  C24_38 
REMARK   12  A    between atoms: C27_41  and  C28_42 
ROOT
HETATM    1  C6  UNL     1      17.935 -27.825 -53.966  1.00  0.00     0.069 A 
HETATM    2  C7  UNL     1      19.086 -27.870 -53.167  1.00  0.00     0.039 A 
HETATM    3  C8  UNL     1      19.569 -26.690 -52.693  1.00  0.00     0.034 A 
HETATM    4  C9  UNL     1      18.973 -25.477 -52.973  1.00  0.00     0.063 A 
HETATM    5  N2  UNL     1      19.510 -24.336 -52.480  1.00  0.00    -0.191 N 
ATOM      6  H2  UNL     1      20.349 -24.381 -51.903  1.00  0.00     0.184 HD
HETATM    7  C10 UNL     1      18.952 -23.158 -52.739  1.00  0.00     0.684 A 
HETATM    8  N4  UNL     1      17.816 -23.107 -53.518  1.00  0.00    -0.175 N 
ATOM      9  H4  UNL     1      17.401 -22.193 -53.700  1.00  0.00     0.186 HD
HETATM   10  C23 UNL     1      17.222 -24.180 -54.049  1.00  0.00     0.134 A 
HETATM   11  C31 UNL     1      17.831 -25.416 -53.761  1.00  0.00     0.038 A 
HETATM   12  C32 UNL     1      17.326 -26.609 -54.249  1.00  0.00     0.054 A 
ENDROOT
BRANCH   7  13
HETATM   13  N3  UNL     1      19.492 -22.038 -52.322  1.00  0.00    -0.192 N 
ATOM     14  H3  UNL     1      18.960 -21.358 -51.780  1.00  0.00     0.184 HD
BRANCH  13  15
HETATM   15  C11 UNL     1      20.850 -21.819 -52.659  1.00  0.00     0.049 A 
HETATM   16  C12 UNL     1      21.843 -21.547 -51.741  1.00  0.00     0.033 A 
HETATM   17  C13 UNL     1      23.165 -21.380 -52.138  1.00  0.00     0.039 A 
HETATM   18  C14 UNL     1      23.500 -21.483 -53.442  1.00  0.00     0.076 A 
HETATM   19  C21 UNL     1      22.556 -21.756 -54.396  1.00  0.00     0.039 A 
HETATM   20  C22 UNL     1      21.255 -21.920 -54.001  1.00  0.00     0.033 A 
BRANCH  18  21
HETATM   21  O2  UNL     1      24.828 -21.307 -53.880  1.00  0.00    -0.311 OA
BRANCH  21  22
HETATM   22  C15 UNL     1      25.776 -21.546 -52.905  1.00  0.00     0.076 A 
HETATM   23  C16 UNL     1      26.048 -22.907 -52.651  1.00  0.00     0.037 A 
HETATM   24  C17 UNL     1      26.974 -23.165 -51.678  1.00  0.00     0.003 A 
HETATM   25  C18 UNL     1      27.635 -22.211 -50.952  1.00  0.00     0.000 A 
HETATM   26  C19 UNL     1      27.374 -20.873 -51.195  1.00  0.00     0.003 A 
HETATM   27  C20 UNL     1      26.425 -20.592 -52.190  1.00  0.00     0.037 A 
ENDBRANCH  21  22
ENDBRANCH  18  21
ENDBRANCH  13  15
ENDBRANCH   7  13
BRANCH  10  28
HETATM   28  N5  UNL     1      16.239 -24.141 -54.763  1.00  0.00    -0.341 N 
ATOM     29  H5  UNL     1      15.670 -23.349 -54.463  1.00  0.00     0.167 HD
BRANCH  28  30
HETATM   30  C24 UNL     1      15.595 -24.739 -55.808  1.00  0.00     0.033 A 
HETATM   31  C25 UNL     1      16.125 -24.509 -57.091  1.00  0.00     0.030 A 
HETATM   32  C26 UNL     1      15.533 -25.021 -58.222  1.00  0.00     0.018 A 
HETATM   33  C27 UNL     1      14.405 -25.784 -58.104  1.00  0.00     0.048 A 
HETATM   34  C29 UNL     1      13.871 -26.026 -56.872  1.00  0.00     0.018 A 
HETATM   35  C30 UNL     1      14.459 -25.513 -55.765  1.00  0.00     0.030 A 
BRANCH  33  36
HETATM   36  C28 UNL     1      13.699 -26.335 -59.304  1.00  0.00     0.417 C 
HETATM   37  F1  UNL     1      12.618 -27.111 -58.854  1.00  0.00    -0.166 F 
HETATM   38  F2  UNL     1      13.136 -25.335 -60.083  1.00  0.00    -0.166 F 
HETATM   39  F3  UNL     1      14.496 -27.080 -60.106  1.00  0.00    -0.166 F 
ENDBRANCH  33  36
ENDBRANCH  28  30
ENDBRANCH  10  28
BRANCH   1  40
HETATM   40  O1  UNL     1      17.449 -29.014 -54.449  1.00  0.00    -0.349 OA
BRANCH  40  41
HETATM   41  C5  UNL     1      16.448 -29.049 -55.466  1.00  0.00     0.208 C 
BRANCH  41  42
HETATM   42  C4  UNL     1      17.124 -29.439 -56.774  1.00  0.00     0.211 C 
BRANCH  42  43
HETATM   43  C2  UNL     1      17.016 -28.460 -57.858  1.00  0.00     0.010 C 
HETATM   44  C1  UNL     1      17.070 -28.946 -59.262  1.00  0.00     0.011 C 
HETATM   45  C3  UNL     1      18.289 -27.537 -57.701  1.00  0.00     0.011 C 
ENDBRANCH  42  43
BRANCH  42  46
HETATM   46  N1  UNL     1      16.761 -30.792 -57.128  1.00  0.00    -0.073 N 
ATOM     47  H13 UNL     1      17.120 -31.020 -58.055  1.00  0.00     0.274 HD
ATOM     48  H12 UNL     1      17.291 -31.456 -56.563  1.00  0.00     0.274 HD
ATOM     49  H11 UNL     1      15.765 -31.002 -57.076  1.00  0.00     0.274 HD
ENDBRANCH  42  46
ENDBRANCH  41  42
ENDBRANCH  40  41
ENDBRANCH   1  40
TORSDOF 12
ENDMDL
MODEL 5
REMARK VINA RESULT: -7.937158190      3.139      4.350
REMARK  12 active torsions:
REMARK  status: ('A' for Active; 'I' for Inactive)
REMARK    1  A    between atoms: C2_2  and  C4_4 
REMARK    2  A    between atoms: C4_4  and  N1_5 
REMARK    3  A    between atoms: C4_4  and  C5_9 
REMARK    4  A    between atoms: C5_9  and  O1_10 
REMARK    5  A    between atoms: O1_10  and  C6_11 
REMARK    6  A    between atoms: C10_17  and  N3_18 
REMARK    7  A    between atoms: N3_18  and  C11_20 
REMARK    8  A    between atoms: C14_23  and  O2_24 
REMARK    9  A    between atoms: O2_24  and  C15_25 
REMARK   10  A    between atoms: C23_35  and  N5_36 
REMARK   11  A    between atoms: N5_36  and  C24_38 
REMARK   12  A    between atoms: C27_41  and  C28_42 
ROOT
HETATM    1  C6  UNL     1      14.708 -28.074 -54.140  1.00  0.00     0.069 A 
HETATM    2  C7  UNL     1      14.890 -28.744 -52.921  1.00  0.00     0.039 A 
HETATM    3  C8  UNL     1      15.997 -28.433 -52.193  1.00  0.00     0.034 A 
HETATM    4  C9  UNL     1      16.925 -27.501 -52.613  1.00  0.00     0.063 A 
HETATM    5  N2  UNL     1      18.011 -27.246 -51.846  1.00  0.00    -0.191 N 
ATOM      6  H2  UNL     1      18.135 -27.742 -50.964  1.00  0.00     0.184 HD
HETATM    7  C10 UNL     1      18.917 -26.354 -52.232  1.00  0.00     0.684 A 
HETATM    8  N4  UNL     1      18.739 -25.686 -53.425  1.00  0.00    -0.175 N 
ATOM      9  H4  UNL     1      19.444 -25.001 -53.700  1.00  0.00     0.186 HD
HETATM   10  C23 UNL     1      17.702 -25.878 -54.245  1.00  0.00     0.134 A 
HETATM   11  C31 UNL     1      16.757 -26.828 -53.815  1.00  0.00     0.038 A 
HETATM   12  C32 UNL     1      15.634 -27.132 -54.567  1.00  0.00     0.054 A 
ENDROOT
BRANCH   7  13
HETATM   13  N3  UNL     1      20.006 -26.137 -51.534  1.00  0.00    -0.192 N 
ATOM     14  H3  UNL     1      20.384 -26.843 -50.902  1.00  0.00     0.184 HD
BRANCH  13  15
HETATM   15  C11 UNL     1      20.633 -24.878 -51.701  1.00  0.00     0.049 A 
HETATM   16  C12 UNL     1      21.912 -24.707 -52.187  1.00  0.00     0.033 A 
HETATM   17  C13 UNL     1      22.452 -23.438 -52.361  1.00  0.00     0.039 A 
HETATM   18  C14 UNL     1      21.724 -22.343 -52.054  1.00  0.00     0.076 A 
HETATM   19  C21 UNL     1      20.447 -22.453 -51.572  1.00  0.00     0.039 A 
HETATM   20  C22 UNL     1      19.919 -23.706 -51.402  1.00  0.00     0.033 A 
BRANCH  18  21
HETATM   21  O2  UNL     1      22.246 -21.042 -52.207  1.00  0.00    -0.311 OA
BRANCH  21  22
HETATM   22  C15 UNL     1      23.624 -20.996 -52.280  1.00  0.00     0.076 A 
HETATM   23  C16 UNL     1      24.146 -20.560 -53.516  1.00  0.00     0.037 A 
HETATM   24  C17 UNL     1      25.510 -20.520 -53.614  1.00  0.00     0.003 A 
HETATM   25  C18 UNL     1      26.378 -20.872 -52.615  1.00  0.00     0.000 A 
HETATM   26  C19 UNL     1      25.873 -21.300 -51.399  1.00  0.00     0.003 A 
HETATM   27  C20 UNL     1      24.476 -21.346 -51.283  1.00  0.00     0.037 A 
ENDBRANCH  21  22
ENDBRANCH  18  21
ENDBRANCH  13  15
ENDBRANCH   7  13
BRANCH  10  28
HETATM   28  N5  UNL     1      17.555 -25.317 -55.314  1.00  0.00    -0.341 N 
ATOM     29  H5  UNL     1      17.237 -26.014 -55.988  1.00  0.00     0.167 HD
BRANCH  28  30
HETATM   30  C24 UNL     1      17.646 -24.122 -55.967  1.00  0.00     0.033 A 
HETATM   31  C25 UNL     1      16.635 -23.834 -56.902  1.00  0.00     0.030 A 
HETATM   32  C26 UNL     1      16.649 -22.682 -57.653  1.00  0.00     0.018 A 
HETATM   33  C27 UNL     1      17.664 -21.783 -57.487  1.00  0.00     0.048 A 
HETATM   34  C29 UNL     1      18.657 -22.034 -56.585  1.00  0.00     0.018 A 
HETATM   35  C30 UNL     1      18.636 -23.174 -55.853  1.00  0.00     0.030 A 
BRANCH  33  36
HETATM   36  C28 UNL     1      17.749 -20.531 -58.304  1.00  0.00     0.417 C 
HETATM   37  F1  UNL     1      16.831 -19.606 -57.780  1.00  0.00    -0.166 F 
HETATM   38  F2  UNL     1      18.991 -19.921 -58.196  1.00  0.00    -0.166 F 
HETATM   39  F3  UNL     1      17.503 -20.728 -59.621  1.00  0.00    -0.166 F 
ENDBRANCH  33  36
ENDBRANCH  28  30
ENDBRANCH  10  28
BRANCH   1  40
HETATM   40  O1  UNL     1      13.595 -28.390 -54.878  1.00  0.00    -0.349 OA
BRANCH  40  41
HETATM   41  C5  UNL     1      13.697 -28.783 -56.246  1.00  0.00     0.208 C 
BRANCH  41  42
HETATM   42  C4  UNL     1      12.844 -27.829 -57.072  1.00  0.00     0.211 C 
BRANCH  42  43
HETATM   43  C2  UNL     1      13.485 -26.564 -57.440  1.00  0.00     0.010 C 
HETATM   44  C1  UNL     1      13.035 -25.318 -56.766  1.00  0.00     0.011 C 
HETATM   45  C3  UNL     1      13.123 -26.354 -58.964  1.00  0.00     0.011 C 
ENDBRANCH  42  43
BRANCH  42  46
HETATM   46  N1  UNL     1      11.534 -27.705 -56.477  1.00  0.00    -0.073 N 
ATOM     47  H13 UNL     1      11.018 -26.945 -56.921  1.00  0.00     0.274 HD
ATOM     48  H12 UNL     1      10.950 -28.498 -56.745  1.00  0.00     0.274 HD
ATOM     49  H11 UNL     1      11.526 -27.590 -55.464  1.00  0.00     0.274 HD
ENDBRANCH  42  46
ENDBRANCH  41  42
ENDBRANCH  40  41
ENDBRANCH   1  40
TORSDOF 12
ENDMDL
