MODEL 1
REMARK VINA RESULT: -9.295070364      0.000      0.000
REMARK  10 active torsions:
REMARK  status: ('A' for Active; 'I' for Inactive)
REMARK    1  A    between atoms: O1_2  and  C2_3 
REMARK    2  A    between atoms: C5_6  and  O2_7 
REMARK    3  A    between atoms: O2_7  and  C6_8 
REMARK    4  A    between atoms: C8_11  and  O3_12 
REMARK    5  A    between atoms: O3_12  and  C9_13 
REMARK    6  A    between atoms: C9_13  and  C10_14 
REMARK    7  A    between atoms: C12_16  and  C13_17 
REMARK    8  A    between atoms: C17_21  and  N1_22 
REMARK    9  A    between atoms: N1_22  and  C18_24 
REMARK   10  A    between atoms: C19_27  and  N3_28 
ROOT
HETATM    1  C13 UNL     1      15.753 -24.477 -57.835  1.00  0.00    -0.024 A 
HETATM    2  C14 UNL     1      15.915 -25.484 -58.756  1.00  0.00     0.012 A 
HETATM    3  C15 UNL     1      15.147 -26.621 -58.732  1.00  0.00     0.003 A 
HETATM    4  C16 UNL     1      14.170 -26.804 -57.776  1.00  0.00     0.029 A 
HETATM    5  C17 UNL     1      13.979 -25.819 -56.840  1.00  0.00     0.034 A 
HETATM    6  C26 UNL     1      14.765 -24.693 -56.891  1.00  0.00     0.041 A 
ENDROOT
BRANCH   1   7
HETATM    7  C12 UNL     1      16.556 -23.260 -57.840  1.00  0.00    -0.025 A 
HETATM    8  C11 UNL     1      17.714 -23.191 -57.120  1.00  0.00     0.024 A 
HETATM    9  C10 UNL     1      18.515 -22.057 -57.089  1.00  0.00     0.005 A 
HETATM   10  C29 UNL     1      18.147 -20.941 -57.808  1.00  0.00     0.124 A 
HETATM   11  C28 UNL     1      16.975 -20.998 -58.542  1.00  0.00     0.044 A 
HETATM   12  F1  UNL     1      18.901 -19.795 -57.812  1.00  0.00    -0.205 F 
HETATM   13  C27 UNL     1      16.181 -22.147 -58.561  1.00  0.00     0.015 A 
BRANCH   9  14
HETATM   14  C9  UNL     1      19.767 -22.021 -56.294  1.00  0.00     0.217 C 
BRANCH  14  15
HETATM   15  O3  UNL     1      19.592 -21.393 -55.054  1.00  0.00    -0.344 OA
BRANCH  15  16
HETATM   16  C8  UNL     1      20.086 -22.031 -53.914  1.00  0.00     0.105 A 
HETATM   17  C2  UNL     1      19.151 -22.724 -53.154  1.00  0.00     0.101 A 
HETATM   18  C3  UNL     1      19.648 -23.350 -52.034  1.00  0.00     0.042 A 
HETATM   19  C4  UNL     1      20.968 -23.290 -51.694  1.00  0.00     0.040 A 
HETATM   20  C5  UNL     1      21.894 -22.583 -52.476  1.00  0.00     0.073 A 
HETATM   21  C7  UNL     1      21.417 -21.959 -53.589  1.00  0.00     0.076 A 
BRANCH  17  22
HETATM   22  O1  UNL     1      17.830 -22.758 -53.536  1.00  0.00    -0.353 OA
HETATM   23  C1  UNL     1      17.051 -23.920 -53.597  1.00  0.00     0.210 C 
ENDBRANCH  17  22
BRANCH  20  24
HETATM   24  O2  UNL     1      23.226 -22.556 -52.086  1.00  0.00    -0.337 OA
BRANCH  24  25
HETATM   25  C6  UNL     1      23.892 -21.361 -51.831  1.00  0.00     0.290 C 
HETATM   26 CL1  UNL     1      25.233 -21.663 -50.708  1.00  0.00    -0.102 Cl
ENDBRANCH  24  25
ENDBRANCH  20  24
ENDBRANCH  15  16
ENDBRANCH  14  15
ENDBRANCH   9  14
ENDBRANCH   1   7
BRANCH   5  27
HETATM   27  N1  UNL     1      12.975 -25.999 -55.850  1.00  0.00    -0.341 N 
ATOM     28  H1  UNL     1      12.036 -25.687 -56.096  1.00  0.00     0.167 HD
BRANCH  27  29
HETATM   29  C18 UNL     1      13.115 -26.499 -54.710  1.00  0.00     0.134 A 
HETATM   30  N2  UNL     1      14.304 -26.570 -54.112  1.00  0.00    -0.176 N 
HETATM   31  C19 UNL     1      14.486 -27.099 -52.888  1.00  0.00     0.677 A 
ATOM     32  H2  UNL     1      15.118 -26.203 -54.606  1.00  0.00     0.186 HD
HETATM   33  N4  UNL     1      13.450 -27.598 -52.185  1.00  0.00    -0.191 N 
HETATM   34  C20 UNL     1      12.229 -27.549 -52.747  1.00  0.00     0.063 A 
ATOM     35  H4  UNL     1      13.586 -27.999 -51.257  1.00  0.00     0.184 HD
HETATM   36  C21 UNL     1      11.180 -28.065 -52.010  1.00  0.00     0.032 A 
HETATM   37  C25 UNL     1      12.033 -26.998 -54.024  1.00  0.00     0.037 A 
HETATM   38  C22 UNL     1       9.909 -28.041 -52.536  1.00  0.00     0.026 A 
HETATM   39  C23 UNL     1       9.700 -27.505 -53.786  1.00  0.00     0.035 A 
HETATM   40 CL2  UNL     1       8.098 -27.465 -54.469  1.00  0.00    -0.084 Cl
HETATM   41  C24 UNL     1      10.755 -26.987 -54.524  1.00  0.00     0.041 A 
BRANCH  31  42
HETATM   42  N3  UNL     1      15.653 -27.161 -52.317  1.00  0.00    -0.234 N 
ATOM     43  H32 UNL     1      16.029 -26.282 -51.960  1.00  0.00     0.174 HD
ATOM     44  H31 UNL     1      16.175 -28.032 -52.226  1.00  0.00     0.174 HD
ENDBRANCH  31  42
ENDBRANCH  27  29
ENDBRANCH   5  27
TORSDOF 10
ENDMDL
MODEL 2
REMARK VINA RESULT: -9.278222486      4.085      8.139
REMARK  10 active torsions:
REMARK  status: ('A' for Active; 'I' for Inactive)
REMARK    1  A    between atoms: O1_2  and  C2_3 
REMARK    2  A    between atoms: C5_6  and  O2_7 
REMARK    3  A    between atoms: O2_7  and  C6_8 
REMARK    4  A    between atoms: C8_11  and  O3_12 
REMARK    5  A    between atoms: O3_12  and  C9_13 
REMARK    6  A    between atoms: C9_13  and  C10_14 
REMARK    7  A    between atoms: C12_16  and  C13_17 
REMARK    8  A    between atoms: C17_21  and  N1_22 
REMARK    9  A    between atoms: N1_22  and  C18_24 
REMARK   10  A    between atoms: C19_27  and  N3_28 
ROOT
HETATM    1  C13 UNL     1      17.037 -22.852 -57.447  1.00  0.00    -0.024 A 
HETATM    2  C14 UNL     1      16.866 -21.761 -58.266  1.00  0.00     0.012 A 
HETATM    3  C15 UNL     1      17.765 -20.723 -58.290  1.00  0.00     0.003 A 
HETATM    4  C16 UNL     1      18.887 -20.731 -57.490  1.00  0.00     0.029 A 
HETATM    5  C17 UNL     1      19.090 -21.804 -56.659  1.00  0.00     0.034 A 
HETATM    6  C26 UNL     1      18.172 -22.826 -56.657  1.00  0.00     0.041 A 
ENDROOT
BRANCH   1   7
HETATM    7  C12 UNL     1      16.096 -23.965 -57.403  1.00  0.00    -0.025 A 
HETATM    8  C11 UNL     1      15.694 -24.486 -56.208  1.00  0.00     0.024 A 
HETATM    9  C10 UNL     1      14.802 -25.546 -56.109  1.00  0.00     0.005 A 
HETATM   10  C29 UNL     1      14.288 -26.115 -57.254  1.00  0.00     0.124 A 
HETATM   11  C28 UNL     1      14.688 -25.596 -58.473  1.00  0.00     0.044 A 
HETATM   12  F1  UNL     1      13.405 -27.163 -57.215  1.00  0.00    -0.205 F 
HETATM   13  C27 UNL     1      15.587 -24.529 -58.553  1.00  0.00     0.015 A 
BRANCH   9  14
HETATM   14  C9  UNL     1      14.389 -26.085 -54.790  1.00  0.00     0.217 C 
BRANCH  14  15
HETATM   15  O3  UNL     1      14.978 -27.324 -54.512  1.00  0.00    -0.344 OA
BRANCH  15  16
HETATM   16  C8  UNL     1      16.349 -27.359 -54.246  1.00  0.00     0.105 A 
HETATM   17  C2  UNL     1      17.127 -28.062 -55.158  1.00  0.00     0.101 A 
HETATM   18  C3  UNL     1      18.475 -28.090 -54.887  1.00  0.00     0.042 A 
HETATM   19  C4  UNL     1      19.009 -27.470 -53.794  1.00  0.00     0.040 A 
HETATM   20  C5  UNL     1      18.203 -26.766 -52.885  1.00  0.00     0.073 A 
HETATM   21  C7  UNL     1      16.866 -26.730 -53.142  1.00  0.00     0.076 A 
BRANCH  17  22
HETATM   22  O1  UNL     1      16.545 -28.671 -56.246  1.00  0.00    -0.353 OA
HETATM   23  C1  UNL     1      17.004 -28.547 -57.564  1.00  0.00     0.210 C 
ENDBRANCH  17  22
BRANCH  20  24
HETATM   24  O2  UNL     1      18.798 -26.152 -51.791  1.00  0.00    -0.337 OA
BRANCH  24  25
HETATM   25  C6  UNL     1      19.939 -26.672 -51.188  1.00  0.00     0.290 C 
HETATM   26 CL1  UNL     1      21.369 -25.818 -51.802  1.00  0.00    -0.102 Cl
ENDBRANCH  24  25
ENDBRANCH  20  24
ENDBRANCH  15  16
ENDBRANCH  14  15
ENDBRANCH   9  14
ENDBRANCH   1   7
BRANCH   5  27
HETATM   27  N1  UNL     1      20.244 -21.820 -55.829  1.00  0.00    -0.341 N 
ATOM     28  H1  UNL     1      21.135 -21.632 -56.289  1.00  0.00     0.167 HD
BRANCH  27  29
HETATM   29  C18 UNL     1      20.288 -22.039 -54.597  1.00  0.00     0.134 A 
HETATM   30  N2  UNL     1      19.233 -22.493 -53.922  1.00  0.00    -0.176 N 
HETATM   31  C19 UNL     1      19.251 -22.739 -52.598  1.00  0.00     0.677 A 
ATOM     32  H2  UNL     1      18.368 -22.664 -54.434  1.00  0.00     0.186 HD
HETATM   33  N4  UNL     1      20.365 -22.533 -51.867  1.00  0.00    -0.191 N 
HETATM   34  C20 UNL     1      21.456 -22.075 -52.505  1.00  0.00     0.063 A 
ATOM     35  H4  UNL     1      20.379 -22.720 -50.865  1.00  0.00     0.184 HD
HETATM   36  C21 UNL     1      22.588 -21.871 -51.738  1.00  0.00     0.032 A 
HETATM   37  C25 UNL     1      21.444 -21.817 -53.885  1.00  0.00     0.037 A 
HETATM   38  C22 UNL     1      23.735 -21.403 -52.337  1.00  0.00     0.026 A 
HETATM   39  C23 UNL     1      23.739 -21.144 -53.689  1.00  0.00     0.035 A 
HETATM   40 CL2  UNL     1      25.181 -20.552 -54.465  1.00  0.00    -0.084 Cl
HETATM   41  C24 UNL     1      22.602 -21.350 -54.456  1.00  0.00     0.041 A 
BRANCH  31  42
HETATM   42  N3  UNL     1      18.212 -23.183 -51.954  1.00  0.00    -0.234 N 
ATOM     43  H32 UNL     1      17.303 -22.858 -52.283  1.00  0.00     0.174 HD
ATOM     44  H31 UNL     1      18.287 -23.820 -51.161  1.00  0.00     0.174 HD
ENDBRANCH  31  42
ENDBRANCH  27  29
ENDBRANCH   5  27
TORSDOF 10
ENDMDL
MODEL 3
REMARK VINA RESULT: -9.092493855      5.140     10.409
REMARK  10 active torsions:
REMARK  status: ('A' for Active; 'I' for Inactive)
REMARK    1  A    between atoms: O1_2  and  C2_3 
REMARK    2  A    between atoms: C5_6  and  O2_7 
REMARK    3  A    between atoms: O2_7  and  C6_8 
REMARK    4  A    between atoms: C8_11  and  O3_12 
REMARK    5  A    between atoms: O3_12  and  C9_13 
REMARK    6  A    between atoms: C9_13  and  C10_14 
REMARK    7  A    between atoms: C12_16  and  C13_17 
REMARK    8  A    between atoms: C17_21  and  N1_22 
REMARK    9  A    between atoms: N1_22  and  C18_24 
REMARK   10  A    between atoms: C19_27  and  N3_28 
ROOT
HETATM    1  C13 UNL     1      19.773 -23.113 -53.608  1.00  0.00    -0.024 A 
HETATM    2  C14 UNL     1      19.492 -24.219 -52.843  1.00  0.00     0.012 A 
HETATM    3  C15 UNL     1      20.166 -24.487 -51.678  1.00  0.00     0.003 A 
HETATM    4  C16 UNL     1      21.162 -23.652 -51.220  1.00  0.00     0.029 A 
HETATM    5  C17 UNL     1      21.471 -22.536 -51.958  1.00  0.00     0.034 A 
HETATM    6  C26 UNL     1      20.778 -22.296 -53.120  1.00  0.00     0.041 A 
ENDROOT
BRANCH   1   7
HETATM    7  C12 UNL     1      19.071 -22.807 -54.849  1.00  0.00    -0.025 A 
HETATM    8  C11 UNL     1      17.891 -23.423 -55.148  1.00  0.00     0.024 A 
HETATM    9  C10 UNL     1      17.183 -23.170 -56.315  1.00  0.00     0.005 A 
HETATM   10  C29 UNL     1      17.673 -22.261 -57.228  1.00  0.00     0.124 A 
HETATM   11  C28 UNL     1      18.870 -21.630 -56.937  1.00  0.00     0.044 A 
HETATM   12  F1  UNL     1      17.015 -21.973 -58.397  1.00  0.00    -0.205 F 
HETATM   13  C27 UNL     1      19.568 -21.897 -55.757  1.00  0.00     0.015 A 
BRANCH   9  14
HETATM   14  C9  UNL     1      15.902 -23.860 -56.604  1.00  0.00     0.217 C 
BRANCH  14  15
HETATM   15  O3  UNL     1      15.866 -24.398 -57.897  1.00  0.00    -0.344 OA
BRANCH  15  16
HETATM   16  C8  UNL     1      16.257 -25.728 -58.070  1.00  0.00     0.105 A 
HETATM   17  C2  UNL     1      15.463 -26.488 -58.921  1.00  0.00     0.101 A 
HETATM   18  C3  UNL     1      15.857 -27.796 -59.085  1.00  0.00     0.042 A 
HETATM   19  C4  UNL     1      16.953 -28.309 -58.454  1.00  0.00     0.040 A 
HETATM   20  C5  UNL     1      17.740 -27.522 -57.598  1.00  0.00     0.073 A 
HETATM   21  C7  UNL     1      17.362 -26.225 -57.427  1.00  0.00     0.076 A 
BRANCH  17  22
HETATM   22  O1  UNL     1      14.367 -25.928 -59.536  1.00  0.00    -0.353 OA
HETATM   23  C1  UNL     1      13.050 -26.374 -59.370  1.00  0.00     0.210 C 
ENDBRANCH  17  22
BRANCH  20  24
HETATM   24  O2  UNL     1      18.845 -28.094 -56.982  1.00  0.00    -0.337 OA
BRANCH  24  25
HETATM   25  C6  UNL     1      18.754 -28.715 -55.741  1.00  0.00     0.290 C 
HETATM   26 CL1  UNL     1      18.833 -27.486 -54.462  1.00  0.00    -0.102 Cl
ENDBRANCH  24  25
ENDBRANCH  20  24
ENDBRANCH  15  16
ENDBRANCH  14  15
ENDBRANCH   9  14
ENDBRANCH   1   7
BRANCH   5  27
HETATM   27  N1  UNL     1      22.497 -21.669 -51.494  1.00  0.00    -0.341 N 
ATOM     28  H1  UNL     1      22.392 -21.310 -50.546  1.00  0.00     0.167 HD
BRANCH  27  29
HETATM   29  C18 UNL     1      23.516 -21.298 -52.120  1.00  0.00     0.134 A 
HETATM   30  N2  UNL     1      23.448 -20.832 -53.367  1.00  0.00    -0.176 N 
HETATM   31  C19 UNL     1      24.524 -20.425 -54.065  1.00  0.00     0.677 A 
ATOM     32  H2  UNL     1      22.533 -20.782 -53.816  1.00  0.00     0.186 HD
HETATM   33  N4  UNL     1      25.759 -20.466 -53.526  1.00  0.00    -0.191 N 
HETATM   34  C20 UNL     1      25.879 -20.928 -52.269  1.00  0.00     0.063 A 
ATOM     35  H4  UNL     1      26.575 -20.156 -54.054  1.00  0.00     0.184 HD
HETATM   36  C21 UNL     1      27.153 -20.962 -51.735  1.00  0.00     0.032 A 
HETATM   37  C25 UNL     1      24.759 -21.355 -51.536  1.00  0.00     0.037 A 
HETATM   38  C22 UNL     1      27.336 -21.425 -50.452  1.00  0.00     0.026 A 
HETATM   39  C23 UNL     1      26.249 -21.847 -49.720  1.00  0.00     0.035 A 
HETATM   40 CL2  UNL     1      26.459 -22.436 -48.095  1.00  0.00    -0.084 Cl
HETATM   41  C24 UNL     1      24.971 -21.812 -50.259  1.00  0.00     0.041 A 
BRANCH  31  42
HETATM   42  N3  UNL     1      24.440 -19.973 -55.283  1.00  0.00    -0.234 N 
ATOM     43  H32 UNL     1      23.542 -19.576 -55.556  1.00  0.00     0.174 HD
ATOM     44  H31 UNL     1      25.222 -20.009 -55.937  1.00  0.00     0.174 HD
ENDBRANCH  31  42
ENDBRANCH  27  29
ENDBRANCH   5  27
TORSDOF 10
ENDMDL
MODEL 4
REMARK VINA RESULT: -9.060397183      4.381     10.778
REMARK  10 active torsions:
REMARK  status: ('A' for Active; 'I' for Inactive)
REMARK    1  A    between atoms: O1_2  and  C2_3 
REMARK    2  A    between atoms: C5_6  and  O2_7 
REMARK    3  A    between atoms: O2_7  and  C6_8 
REMARK    4  A    between atoms: C8_11  and  O3_12 
REMARK    5  A    between atoms: O3_12  and  C9_13 
REMARK    6  A    between atoms: C9_13  and  C10_14 
REMARK    7  A    between atoms: C12_16  and  C13_17 
REMARK    8  A    between atoms: C17_21  and  N1_22 
REMARK    9  A    between atoms: N1_22  and  C18_24 
REMARK   10  A    between atoms: C19_27  and  N3_28 
ROOT
HETATM    1  C13 UNL     1      19.877 -22.956 -53.643  1.00  0.00    -0.024 A 
HETATM    2  C14 UNL     1      19.490 -24.041 -52.895  1.00  0.00     0.012 A 
HETATM    3  C15 UNL     1      20.104 -24.363 -51.710  1.00  0.00     0.003 A 
HETATM    4  C16 UNL     1      21.144 -23.605 -51.215  1.00  0.00     0.029 A 
HETATM    5  C17 UNL     1      21.557 -22.513 -51.935  1.00  0.00     0.034 A 
HETATM    6  C26 UNL     1      20.922 -22.217 -53.118  1.00  0.00     0.041 A 
ENDROOT
BRANCH   1   7
HETATM    7  C12 UNL     1      19.240 -22.594 -54.904  1.00  0.00    -0.025 A 
HETATM    8  C11 UNL     1      18.050 -23.156 -55.266  1.00  0.00     0.024 A 
HETATM    9  C10 UNL     1      17.402 -22.848 -56.455  1.00  0.00     0.005 A 
HETATM   10  C29 UNL     1      17.965 -21.939 -57.325  1.00  0.00     0.124 A 
HETATM   11  C28 UNL     1      19.172 -21.362 -56.969  1.00  0.00     0.044 A 
HETATM   12  F1  UNL     1      17.369 -21.598 -58.512  1.00  0.00    -0.205 F 
HETATM   13  C27 UNL     1      19.810 -21.684 -55.768  1.00  0.00     0.015 A 
BRANCH   9  14
HETATM   14  C9  UNL     1      16.109 -23.480 -56.814  1.00  0.00     0.217 C 
BRANCH  14  15
HETATM   15  O3  UNL     1      15.430 -23.976 -55.694  1.00  0.00    -0.344 OA
BRANCH  15  16
HETATM   16  C8  UNL     1      14.694 -25.155 -55.835  1.00  0.00     0.105 A 
HETATM   17  C2  UNL     1      14.654 -25.983 -54.719  1.00  0.00     0.101 A 
HETATM   18  C3  UNL     1      13.926 -27.140 -54.869  1.00  0.00     0.042 A 
HETATM   19  C4  UNL     1      13.289 -27.452 -56.035  1.00  0.00     0.040 A 
HETATM   20  C5  UNL     1      13.344 -26.601 -57.150  1.00  0.00     0.073 A 
HETATM   21  C7  UNL     1      14.061 -25.451 -57.016  1.00  0.00     0.076 A 
BRANCH  17  22
HETATM   22  O1  UNL     1      15.311 -25.627 -53.564  1.00  0.00    -0.353 OA
HETATM   23  C1  UNL     1      16.480 -26.240 -53.096  1.00  0.00     0.210 C 
ENDBRANCH  17  22
BRANCH  20  24
HETATM   24  O2  UNL     1      12.676 -26.965 -58.311  1.00  0.00    -0.337 OA
BRANCH  24  25
HETATM   25  C6  UNL     1      13.095 -26.531 -59.565  1.00  0.00     0.290 C 
HETATM   26 CL1  UNL     1      14.742 -27.121 -59.870  1.00  0.00    -0.102 Cl
ENDBRANCH  24  25
ENDBRANCH  20  24
ENDBRANCH  15  16
ENDBRANCH  14  15
ENDBRANCH   9  14
ENDBRANCH   1   7
BRANCH   5  27
HETATM   27  N1  UNL     1      22.628 -21.725 -51.433  1.00  0.00    -0.341 N 
ATOM     28  H1  UNL     1      22.568 -21.452 -50.452  1.00  0.00     0.167 HD
BRANCH  27  29
HETATM   29  C18 UNL     1      23.637 -21.329 -52.060  1.00  0.00     0.134 A 
HETATM   30  N2  UNL     1      23.557 -20.870 -53.308  1.00  0.00    -0.176 N 
HETATM   31  C19 UNL     1      24.623 -20.437 -54.007  1.00  0.00     0.677 A 
ATOM     32  H2  UNL     1      22.641 -20.844 -53.757  1.00  0.00     0.186 HD
HETATM   33  N4  UNL     1      25.858 -20.444 -53.468  1.00  0.00    -0.191 N 
HETATM   34  C20 UNL     1      25.990 -20.900 -52.210  1.00  0.00     0.063 A 
ATOM     35  H4  UNL     1      26.666 -20.116 -53.997  1.00  0.00     0.184 HD
HETATM   36  C21 UNL     1      27.265 -20.899 -51.675  1.00  0.00     0.032 A 
HETATM   37  C25 UNL     1      24.882 -21.353 -51.476  1.00  0.00     0.037 A 
HETATM   38  C22 UNL     1      27.459 -21.354 -50.391  1.00  0.00     0.026 A 
HETATM   39  C23 UNL     1      26.383 -21.802 -49.658  1.00  0.00     0.035 A 
HETATM   40 CL2  UNL     1      26.609 -22.381 -48.031  1.00  0.00    -0.084 Cl
HETATM   41  C24 UNL     1      25.105 -21.800 -50.197  1.00  0.00     0.041 A 
BRANCH  31  42
HETATM   42  N3  UNL     1      24.528 -19.991 -55.226  1.00  0.00    -0.234 N 
ATOM     43  H32 UNL     1      24.112 -19.066 -55.338  1.00  0.00     0.174 HD
ATOM     44  H31 UNL     1      24.846 -20.526 -56.034  1.00  0.00     0.174 HD
ENDBRANCH  31  42
ENDBRANCH  27  29
ENDBRANCH   5  27
TORSDOF 10
ENDMDL
MODEL 5
REMARK VINA RESULT: -9.046653912      2.721      3.746
REMARK  10 active torsions:
REMARK  status: ('A' for Active; 'I' for Inactive)
REMARK    1  A    between atoms: O1_2  and  C2_3 
REMARK    2  A    between atoms: C5_6  and  O2_7 
REMARK    3  A    between atoms: O2_7  and  C6_8 
REMARK    4  A    between atoms: C8_11  and  O3_12 
REMARK    5  A    between atoms: O3_12  and  C9_13 
REMARK    6  A    between atoms: C9_13  and  C10_14 
REMARK    7  A    between atoms: C12_16  and  C13_17 
REMARK    8  A    between atoms: C17_21  and  N1_22 
REMARK    9  A    between atoms: N1_22  and  C18_24 
REMARK   10  A    between atoms: C19_27  and  N3_28 
ROOT
HETATM    1  C13 UNL     1      16.128 -24.530 -57.849  1.00  0.00    -0.024 A 
HETATM    2  C14 UNL     1      15.153 -24.867 -58.757  1.00  0.00     0.012 A 
HETATM    3  C15 UNL     1      14.520 -26.085 -58.726  1.00  0.00     0.003 A 
HETATM    4  C16 UNL     1      14.837 -27.030 -57.774  1.00  0.00     0.029 A 
HETATM    5  C17 UNL     1      15.806 -26.729 -56.849  1.00  0.00     0.034 A 
HETATM    6  C26 UNL     1      16.421 -25.501 -56.908  1.00  0.00     0.041 A 
ENDROOT
BRANCH   1   7
HETATM    7  C12 UNL     1      16.814 -23.243 -57.862  1.00  0.00    -0.025 A 
HETATM    8  C11 UNL     1      17.956 -23.059 -57.138  1.00  0.00     0.024 A 
HETATM    9  C10 UNL     1      18.648 -21.855 -57.115  1.00  0.00     0.005 A 
HETATM   10  C29 UNL     1      18.180 -20.784 -57.846  1.00  0.00     0.124 A 
HETATM   11  C28 UNL     1      17.022 -20.958 -58.584  1.00  0.00     0.044 A 
HETATM   12  F1  UNL     1      18.823 -19.573 -57.858  1.00  0.00    -0.205 F 
HETATM   13  C27 UNL     1      16.340 -22.177 -58.595  1.00  0.00     0.015 A 
BRANCH   9  14
HETATM   14  C9  UNL     1      19.887 -21.694 -56.315  1.00  0.00     0.217 C 
BRANCH  14  15
HETATM   15  O3  UNL     1      19.624 -21.292 -55.000  1.00  0.00    -0.344 OA
BRANCH  15  16
HETATM   16  C8  UNL     1      20.111 -22.082 -53.956  1.00  0.00     0.105 A 
HETATM   17  C2  UNL     1      19.169 -22.857 -53.290  1.00  0.00     0.101 A 
HETATM   18  C3  UNL     1      19.660 -23.631 -52.265  1.00  0.00     0.042 A 
HETATM   19  C4  UNL     1      20.982 -23.634 -51.926  1.00  0.00     0.040 A 
HETATM   20  C5  UNL     1      21.916 -22.842 -52.612  1.00  0.00     0.073 A 
HETATM   21  C7  UNL     1      21.444 -22.071 -53.630  1.00  0.00     0.076 A 
BRANCH  17  22
HETATM   22  O1  UNL     1      17.847 -22.822 -53.668  1.00  0.00    -0.353 OA
HETATM   23  C1  UNL     1      16.991 -23.931 -53.662  1.00  0.00     0.210 C 
ENDBRANCH  17  22
BRANCH  20  24
HETATM   24  O2  UNL     1      23.249 -22.884 -52.228  1.00  0.00    -0.337 OA
BRANCH  24  25
HETATM   25  C6  UNL     1      24.235 -22.193 -52.924  1.00  0.00     0.290 C 
HETATM   26 CL1  UNL     1      24.945 -20.957 -51.866  1.00  0.00    -0.102 Cl
ENDBRANCH  24  25
ENDBRANCH  20  24
ENDBRANCH  15  16
ENDBRANCH  14  15
ENDBRANCH   9  14
ENDBRANCH   1   7
BRANCH   5  27
HETATM   27  N1  UNL     1      16.139 -27.697 -55.865  1.00  0.00    -0.341 N 
ATOM     28  H1  UNL     1      16.554 -28.565 -56.204  1.00  0.00     0.167 HD
BRANCH  27  29
HETATM   29  C18 UNL     1      15.979 -27.605 -54.626  1.00  0.00     0.134 A 
HETATM   30  N2  UNL     1      14.774 -27.449 -54.079  1.00  0.00    -0.176 N 
HETATM   31  C19 UNL     1      14.571 -27.347 -52.752  1.00  0.00     0.677 A 
ATOM     32  H2  UNL     1      13.964 -27.406 -54.697  1.00  0.00     0.186 HD
HETATM   33  N4  UNL     1      15.601 -27.399 -51.884  1.00  0.00    -0.191 N 
HETATM   34  C20 UNL     1      16.838 -27.555 -52.389  1.00  0.00     0.063 A 
ATOM     35  H4  UNL     1      15.448 -27.323 -50.879  1.00  0.00     0.184 HD
HETATM   36  C21 UNL     1      17.880 -27.606 -51.483  1.00  0.00     0.032 A 
HETATM   37  C25 UNL     1      17.056 -27.662 -53.772  1.00  0.00     0.037 A 
HETATM   38  C22 UNL     1      19.168 -27.765 -51.943  1.00  0.00     0.026 A 
HETATM   39  C23 UNL     1      19.398 -27.870 -53.296  1.00  0.00     0.035 A 
HETATM   40 CL2  UNL     1      21.021 -28.072 -53.897  1.00  0.00    -0.084 Cl
HETATM   41  C24 UNL     1      18.350 -27.820 -54.203  1.00  0.00     0.041 A 
BRANCH  31  42
HETATM   42  N3  UNL     1      13.387 -27.196 -52.234  1.00  0.00    -0.234 N 
ATOM     43  H32 UNL     1      13.308 -26.516 -51.477  1.00  0.00     0.174 HD
ATOM     44  H31 UNL     1      12.575 -27.722 -52.555  1.00  0.00     0.174 HD
ENDBRANCH  31  42
ENDBRANCH  27  29
ENDBRANCH   5  27
TORSDOF 10
ENDMDL
