MODEL 1
REMARK VINA RESULT: -5.911658790      0.000      0.000
REMARK  5 active torsions:
REMARK  status: ('A' for Active; 'I' for Inactive)
REMARK    1  A    between atoms: C2_2  and  N1_3 
REMARK    2  A    between atoms: C5_6  and  C6_7 
REMARK    3  A    between atoms: C7_8  and  C8_9 
REMARK       I    between atoms: C8_9  and  N2_11 
REMARK    4  A    between atoms: N2_11  and  C9_13 
REMARK    5  A    between atoms: C10_15  and  C11_16 
ROOT
HETATM    1  C6  UNL     1     -46.433  14.094  -7.466  1.00  0.00    -0.011 C 
HETATM    2  C7  UNL     1     -46.333  13.578  -6.276  1.00  0.00     0.071 C 
ENDROOT
BRANCH   2   3
HETATM    3  C8  UNL     1     -47.265  12.591  -5.795  1.00  0.00     0.246 C 
HETATM    4  O1  UNL     1     -48.084  12.012  -6.598  1.00  0.00    -0.268 OA
HETATM    5  N2  UNL     1     -47.321  12.221  -4.442  1.00  0.00    -0.314 N 
ATOM      6  H2  UNL     1     -46.693  12.653  -3.765  1.00  0.00     0.170 HD
BRANCH   5   7
HETATM    7  C9  UNL     1     -48.262  11.240  -4.025  1.00  0.00     0.103 C 
HETATM    8 CL1  UNL     1     -47.915   9.579  -4.347  1.00  0.00    -0.065 Cl
HETATM    9  C10 UNL     1     -49.360  11.656  -3.408  1.00  0.00     0.024 C 
BRANCH   9  10
HETATM   10  C11 UNL     1     -50.334  10.621  -2.978  1.00  0.00    -0.031 C 
HETATM   11  C12 UNL     1     -49.607   9.603  -2.147  1.00  0.00     0.019 C 
HETATM   12  C13 UNL     1     -50.926   9.995  -4.217  1.00  0.00     0.019 C 
HETATM   13  C14 UNL     1     -51.414  11.292  -2.143  1.00  0.00     0.019 C 
ENDBRANCH   9  10
ENDBRANCH   5   7
ENDBRANCH   2   3
BRANCH   1  14
HETATM   14  C5  UNL     1     -45.436  15.113  -7.904  1.00  0.00    -0.018 C 
HETATM   15  C4  UNL     1     -44.363  14.542  -8.773  1.00  0.00     0.041 C 
HETATM   16  C3  UNL     1     -43.208  15.552  -8.782  1.00  0.00     0.238 C 
HETATM   17  N1  UNL     1     -43.757  16.853  -8.556  1.00  0.00    -0.067 N 
HETATM   18  C16 UNL     1     -44.054  16.971  -7.125  1.00  0.00     0.238 C 
HETATM   19  C18 UNL     1     -45.005  17.063  -9.294  1.00  0.00     0.238 C 
HETATM   20  C15 UNL     1     -44.841  15.766  -6.677  1.00  0.00     0.041 C 
HETATM   21  C17 UNL     1     -46.118  16.225  -8.696  1.00  0.00     0.041 C 
BRANCH  17  22
HETATM   22  C2  UNL     1     -42.849  17.889  -8.977  1.00  0.00     0.233 C 
HETATM   23  C1  UNL     1     -43.506  19.202  -9.247  1.00  0.00     0.035 C 
ENDBRANCH  17  22
ENDBRANCH   1  14
TORSDOF 5
ENDMDL
MODEL 2
REMARK VINA RESULT: -5.892297244      0.831      1.819
REMARK  5 active torsions:
REMARK  status: ('A' for Active; 'I' for Inactive)
REMARK    1  A    between atoms: C2_2  and  N1_3 
REMARK    2  A    between atoms: C5_6  and  C6_7 
REMARK    3  A    between atoms: C7_8  and  C8_9 
REMARK       I    between atoms: C8_9  and  N2_11 
REMARK    4  A    between atoms: N2_11  and  C9_13 
REMARK    5  A    between atoms: C10_15  and  C11_16 
ROOT
HETATM    1  C6  UNL     1     -45.464  14.156  -6.229  1.00  0.00    -0.011 C 
HETATM    2  C7  UNL     1     -46.451  13.666  -6.920  1.00  0.00     0.071 C 
ENDROOT
BRANCH   2   3
HETATM    3  C8  UNL     1     -47.353  12.688  -6.367  1.00  0.00     0.246 C 
HETATM    4  O1  UNL     1     -48.291  12.179  -7.082  1.00  0.00    -0.268 OA
HETATM    5  N2  UNL     1     -47.250  12.252  -5.037  1.00  0.00    -0.314 N 
ATOM      6  H2  UNL     1     -46.522  12.626  -4.428  1.00  0.00     0.170 HD
BRANCH   5   7
HETATM    7  C9  UNL     1     -48.169  11.284  -4.546  1.00  0.00     0.103 C 
HETATM    8 CL1  UNL     1     -48.018   9.654  -5.097  1.00  0.00    -0.065 Cl
HETATM    9  C10 UNL     1     -49.096  11.687  -3.688  1.00  0.00     0.024 C 
BRANCH   9  10
HETATM   10  C11 UNL     1     -50.049  10.666  -3.183  1.00  0.00    -0.031 C 
HETATM   11  C12 UNL     1     -51.023  11.343  -2.261  1.00  0.00     0.019 C 
HETATM   12  C13 UNL     1     -49.255   9.607  -2.459  1.00  0.00     0.019 C 
HETATM   13  C14 UNL     1     -50.790  10.070  -4.370  1.00  0.00     0.019 C 
ENDBRANCH   9  10
ENDBRANCH   5   7
ENDBRANCH   2   3
BRANCH   1  14
HETATM   14  C5  UNL     1     -44.565  15.166  -6.860  1.00  0.00    -0.018 C 
HETATM   15  C4  UNL     1     -45.311  16.266  -7.541  1.00  0.00     0.041 C 
HETATM   16  C3  UNL     1     -44.323  16.958  -8.489  1.00  0.00     0.238 C 
HETATM   17  N1  UNL     1     -43.008  16.794  -7.953  1.00  0.00    -0.067 N 
HETATM   18  C16 UNL     1     -42.572  15.426  -8.249  1.00  0.00     0.238 C 
HETATM   19  C18 UNL     1     -42.976  16.973  -6.500  1.00  0.00     0.238 C 
HETATM   20  C15 UNL     1     -43.649  14.456  -7.832  1.00  0.00     0.041 C 
HETATM   21  C17 UNL     1     -43.663  15.810  -5.810  1.00  0.00     0.041 C 
BRANCH  17  22
HETATM   22  C2  UNL     1     -42.089  17.755  -8.508  1.00  0.00     0.233 C 
HETATM   23  C1  UNL     1     -42.733  19.026  -8.952  1.00  0.00     0.035 C 
ENDBRANCH  17  22
ENDBRANCH   1  14
TORSDOF 5
ENDMDL
MODEL 3
REMARK VINA RESULT: -5.847723506      0.125      1.233
REMARK  5 active torsions:
REMARK  status: ('A' for Active; 'I' for Inactive)
REMARK    1  A    between atoms: C2_2  and  N1_3 
REMARK    2  A    between atoms: C5_6  and  C6_7 
REMARK    3  A    between atoms: C7_8  and  C8_9 
REMARK       I    between atoms: C8_9  and  N2_11 
REMARK    4  A    between atoms: N2_11  and  C9_13 
REMARK    5  A    between atoms: C10_15  and  C11_16 
ROOT
HETATM    1  C6  UNL     1     -46.406  14.168  -7.419  1.00  0.00    -0.011 C 
HETATM    2  C7  UNL     1     -46.334  13.665  -6.221  1.00  0.00     0.071 C 
ENDROOT
BRANCH   2   3
HETATM    3  C8  UNL     1     -47.259  12.660  -5.762  1.00  0.00     0.246 C 
HETATM    4  O1  UNL     1     -48.056  12.075  -6.582  1.00  0.00    -0.268 OA
HETATM    5  N2  UNL     1     -47.331  12.280  -4.413  1.00  0.00    -0.314 N 
ATOM      6  H2  UNL     1     -46.720  12.716  -3.723  1.00  0.00     0.170 HD
BRANCH   5   7
HETATM    7  C9  UNL     1     -48.263  11.281  -4.018  1.00  0.00     0.103 C 
HETATM    8 CL1  UNL     1     -47.892   9.630  -4.360  1.00  0.00    -0.065 Cl
HETATM    9  C10 UNL     1     -49.371  11.675  -3.405  1.00  0.00     0.024 C 
BRANCH   9  10
HETATM   10  C11 UNL     1     -50.336  10.622  -2.998  1.00  0.00    -0.031 C 
HETATM   11  C12 UNL     1     -49.597   9.586  -2.199  1.00  0.00     0.019 C 
HETATM   12  C13 UNL     1     -50.931  10.026  -4.250  1.00  0.00     0.019 C 
HETATM   13  C14 UNL     1     -51.415  11.262  -2.139  1.00  0.00     0.019 C 
ENDBRANCH   9  10
ENDBRANCH   5   7
ENDBRANCH   2   3
BRANCH   1  14
HETATM   14  C5  UNL     1     -45.419  15.206  -7.833  1.00  0.00    -0.018 C 
HETATM   15  C4  UNL     1     -46.017  16.267  -8.699  1.00  0.00     0.041 C 
HETATM   16  C3  UNL     1     -44.854  16.988  -9.392  1.00  0.00     0.238 C 
HETATM   17  N1  UNL     1     -43.703  16.884  -8.549  1.00  0.00    -0.067 N 
HETATM   18  C16 UNL     1     -43.158  15.532  -8.700  1.00  0.00     0.238 C 
HETATM   19  C18 UNL     1     -44.034  17.081  -7.135  1.00  0.00     0.238 C 
HETATM   20  C15 UNL     1     -44.268  14.524  -8.539  1.00  0.00     0.041 C 
HETATM   21  C17 UNL     1     -44.825  15.898  -6.610  1.00  0.00     0.041 C 
BRANCH  17  22
HETATM   22  C2  UNL     1     -42.713  17.876  -8.884  1.00  0.00     0.233 C 
HETATM   23  C1  UNL     1     -43.265  19.252  -9.058  1.00  0.00     0.035 C 
ENDBRANCH  17  22
ENDBRANCH   1  14
TORSDOF 5
ENDMDL
MODEL 4
REMARK VINA RESULT: -5.844051875      0.867      1.537
REMARK  5 active torsions:
REMARK  status: ('A' for Active; 'I' for Inactive)
REMARK    1  A    between atoms: C2_2  and  N1_3 
REMARK    2  A    between atoms: C5_6  and  C6_7 
REMARK    3  A    between atoms: C7_8  and  C8_9 
REMARK       I    between atoms: C8_9  and  N2_11 
REMARK    4  A    between atoms: N2_11  and  C9_13 
REMARK    5  A    between atoms: C10_15  and  C11_16 
ROOT
HETATM    1  C6  UNL     1     -45.422  14.152  -6.118  1.00  0.00    -0.011 C 
HETATM    2  C7  UNL     1     -46.292  13.539  -6.866  1.00  0.00     0.071 C 
ENDROOT
BRANCH   2   3
HETATM    3  C8  UNL     1     -47.238  12.600  -6.318  1.00  0.00     0.246 C 
HETATM    4  O1  UNL     1     -48.194  12.133  -7.037  1.00  0.00    -0.268 OA
HETATM    5  N2  UNL     1     -47.159  12.159  -4.988  1.00  0.00    -0.314 N 
ATOM      6  H2  UNL     1     -46.418  12.501  -4.376  1.00  0.00     0.170 HD
BRANCH   5   7
HETATM    7  C9  UNL     1     -48.120  11.231  -4.502  1.00  0.00     0.103 C 
HETATM    8 CL1  UNL     1     -48.026   9.593  -5.041  1.00  0.00    -0.065 Cl
HETATM    9  C10 UNL     1     -49.041  11.676  -3.657  1.00  0.00     0.024 C 
BRANCH   9  10
HETATM   10  C11 UNL     1     -50.039  10.696  -3.158  1.00  0.00    -0.031 C 
HETATM   11  C12 UNL     1     -49.313   9.635  -2.381  1.00  0.00     0.019 C 
HETATM   12  C13 UNL     1     -50.753  10.109  -4.351  1.00  0.00     0.019 C 
HETATM   13  C14 UNL     1     -51.016  11.424  -2.248  1.00  0.00     0.019 C 
ENDBRANCH   9  10
ENDBRANCH   5   7
ENDBRANCH   2   3
BRANCH   1  14
HETATM   14  C5  UNL     1     -44.470  15.113  -6.747  1.00  0.00    -0.018 C 
HETATM   15  C4  UNL     1     -43.508  15.705  -5.770  1.00  0.00     0.041 C 
HETATM   16  C3  UNL     1     -42.909  16.953  -6.430  1.00  0.00     0.238 C 
HETATM   17  N1  UNL     1     -42.941  16.763  -7.847  1.00  0.00    -0.067 N 
HETATM   18  C16 UNL     1     -44.316  16.993  -8.299  1.00  0.00     0.238 C 
HETATM   19  C18 UNL     1     -42.563  15.400  -8.230  1.00  0.00     0.238 C 
HETATM   20  C15 UNL     1     -45.265  16.197  -7.440  1.00  0.00     0.041 C 
HETATM   21  C17 UNL     1     -43.650  14.420  -7.832  1.00  0.00     0.041 C 
BRANCH  17  22
HETATM   22  C2  UNL     1     -42.025  17.650  -8.518  1.00  0.00     0.233 C 
HETATM   23  C1  UNL     1     -42.576  19.014  -8.773  1.00  0.00     0.035 C 
ENDBRANCH  17  22
ENDBRANCH   1  14
TORSDOF 5
ENDMDL
MODEL 5
REMARK VINA RESULT: -5.830696586      1.250      2.048
REMARK  5 active torsions:
REMARK  status: ('A' for Active; 'I' for Inactive)
REMARK    1  A    between atoms: C2_2  and  N1_3 
REMARK    2  A    between atoms: C5_6  and  C6_7 
REMARK    3  A    between atoms: C7_8  and  C8_9 
REMARK       I    between atoms: C8_9  and  N2_11 
REMARK    4  A    between atoms: N2_11  and  C9_13 
REMARK    5  A    between atoms: C10_15  and  C11_16 
ROOT
HETATM    1  C6  UNL     1     -45.554  14.075  -6.363  1.00  0.00    -0.011 C 
HETATM    2  C7  UNL     1     -45.318  13.539  -5.202  1.00  0.00     0.071 C 
ENDROOT
BRANCH   2   3
HETATM    3  C8  UNL     1     -46.196  12.551  -4.628  1.00  0.00     0.246 C 
HETATM    4  O1  UNL     1     -45.866  11.917  -3.561  1.00  0.00    -0.268 OA
HETATM    5  N2  UNL     1     -47.438  12.239  -5.204  1.00  0.00    -0.314 N 
ATOM      6  H2  UNL     1     -47.745  12.714  -6.053  1.00  0.00     0.170 HD
BRANCH   5   7
HETATM    7  C9  UNL     1     -48.263  11.256  -4.593  1.00  0.00     0.103 C 
HETATM    8 CL1  UNL     1     -47.971   9.594  -4.963  1.00  0.00    -0.065 Cl
HETATM    9  C10 UNL     1     -49.216  11.669  -3.769  1.00  0.00     0.024 C 
BRANCH   9  10
HETATM   10  C11 UNL     1     -50.070  10.632  -3.138  1.00  0.00    -0.031 C 
HETATM   11  C12 UNL     1     -51.035  11.313  -2.210  1.00  0.00     0.019 C 
HETATM   12  C13 UNL     1     -49.170   9.679  -2.390  1.00  0.00     0.019 C 
HETATM   13  C14 UNL     1     -50.835   9.905  -4.233  1.00  0.00     0.019 C 
ENDBRANCH   9  10
ENDBRANCH   5   7
ENDBRANCH   2   3
BRANCH   1  14
HETATM   14  C5  UNL     1     -44.605  15.093  -6.901  1.00  0.00    -0.018 C 
HETATM   15  C4  UNL     1     -45.295  16.251  -7.544  1.00  0.00     0.041 C 
HETATM   16  C3  UNL     1     -44.253  16.968  -8.413  1.00  0.00     0.238 C 
HETATM   17  N1  UNL     1     -42.964  16.735  -7.840  1.00  0.00    -0.067 N 
HETATM   18  C16 UNL     1     -42.554  15.374  -8.198  1.00  0.00     0.238 C 
HETATM   19  C18 UNL     1     -42.983  16.830  -6.378  1.00  0.00     0.238 C 
HETATM   20  C15 UNL     1     -43.672  14.414  -7.879  1.00  0.00     0.041 C 
HETATM   21  C17 UNL     1     -43.727  15.649  -5.783  1.00  0.00     0.041 C 
BRANCH  17  22
HETATM   22  C2  UNL     1     -41.999  17.699  -8.304  1.00  0.00     0.233 C 
HETATM   23  C1  UNL     1     -42.567  19.057  -8.551  1.00  0.00     0.035 C 
ENDBRANCH  17  22
ENDBRANCH   1  14
TORSDOF 5
ENDMDL
