MODEL 1
REMARK VINA RESULT: -5.498074615      0.000      0.000
REMARK  3 active torsions:
REMARK  status: ('A' for Active; 'I' for Inactive)
REMARK    1  A    between atoms: N1_2  and  C3_5 
REMARK    2  A    between atoms: C3_5  and  C4_6 
REMARK    3  A    between atoms: C6_8  and  C7_9 
ROOT
HETATM    1  C4  UNL     1     -42.879  16.510  -6.860  1.00  0.00     0.024 C 
HETATM    2  C5  UNL     1     -42.354  17.150  -8.120  1.00  0.00     0.021 C 
HETATM    3  C6  UNL     1     -43.573  16.713  -8.840  1.00  0.00     0.085 C 
HETATM    4  C8  UNL     1     -43.981  15.887  -7.660  1.00  0.00    -0.016 C 
HETATM    5  C9  UNL     1     -43.857  14.426  -7.985  1.00  0.00    -0.004 C 
HETATM    6  C10 UNL     1     -44.157  13.471  -6.890  1.00  0.00     0.010 C 
HETATM    7  C11 UNL     1     -45.503  13.799  -6.306  1.00  0.00    -0.013 C 
HETATM    8  C12 UNL     1     -46.545  13.489  -7.350  1.00  0.00     0.009 C 
HETATM    9  C13 UNL     1     -46.297  14.421  -8.527  1.00  0.00    -0.013 C 
HETATM   10  C14 UNL     1     -44.922  14.153  -9.064  1.00  0.00     0.010 C 
HETATM   11  C15 UNL     1     -46.474  15.826  -8.004  1.00  0.00     0.010 C 
HETATM   12  C16 UNL     1     -45.325  16.148  -7.084  1.00  0.00    -0.004 C 
HETATM   13  C17 UNL     1     -45.520  15.243  -5.882  1.00  0.00     0.010 C 
ENDROOT
BRANCH   1  14
HETATM   14  C3  UNL     1     -41.918  15.619  -6.139  1.00  0.00     0.263 C 
BRANCH  14  15
HETATM   15  N1  UNL     1     -41.928  15.779  -4.707  1.00  0.00     0.007 N 
HETATM   16  C1  UNL     1     -40.558  16.152  -4.308  1.00  0.00     0.294 C 
HETATM   17  C2  UNL     1     -42.228  14.560  -3.991  1.00  0.00     0.294 C 
HETATM   18 CL1  UNL     1     -42.911  17.107  -4.165  1.00  0.00     0.117 Cl
ENDBRANCH  14  15
ENDBRANCH   1  14
BRANCH   3  19
HETATM   19  C7  UNL     1     -44.377  17.830  -9.289  1.00  0.00     0.236 C 
HETATM   20  N2  UNL     1     -44.217  19.158  -8.818  1.00  0.00    -0.062 NA
HETATM   21  O1  UNL     1     -45.293  17.668 -10.153  1.00  0.00    -0.276 OA
ENDBRANCH   3  19
TORSDOF 3
ENDMDL
MODEL 2
REMARK VINA RESULT: -5.456743114      3.655      5.249
REMARK  3 active torsions:
REMARK  status: ('A' for Active; 'I' for Inactive)
REMARK    1  A    between atoms: N1_2  and  C3_5 
REMARK    2  A    between atoms: C3_5  and  C4_6 
REMARK    3  A    between atoms: C6_8  and  C7_9 
ROOT
HETATM    1  C4  UNL     1     -46.996  12.476  -6.846  1.00  0.00     0.024 C 
HETATM    2  C5  UNL     1     -47.927  11.996  -7.931  1.00  0.00     0.021 C 
HETATM    3  C6  UNL     1     -47.304  12.950  -8.877  1.00  0.00     0.085 C 
HETATM    4  C8  UNL     1     -46.546  13.582  -7.750  1.00  0.00    -0.016 C 
HETATM    5  C9  UNL     1     -47.080  14.958  -7.477  1.00  0.00    -0.004 C 
HETATM    6  C10 UNL     1     -46.480  15.693  -6.336  1.00  0.00     0.010 C 
HETATM    7  C11 UNL     1     -44.984  15.696  -6.484  1.00  0.00    -0.013 C 
HETATM    8  C12 UNL     1     -44.643  16.547  -7.681  1.00  0.00     0.009 C 
HETATM    9  C13 UNL     1     -45.242  15.869  -8.904  1.00  0.00    -0.013 C 
HETATM   10  C14 UNL     1     -46.729  15.791  -8.724  1.00  0.00     0.010 C 
HETATM   11  C15 UNL     1     -44.578  14.518  -9.010  1.00  0.00     0.010 C 
HETATM   12  C16 UNL     1     -45.068  13.647  -7.882  1.00  0.00    -0.004 C 
HETATM   13  C17 UNL     1     -44.498  14.279  -6.625  1.00  0.00     0.010 C 
ENDROOT
BRANCH   1  14
HETATM   14  C3  UNL     1     -47.646  12.828  -5.546  1.00  0.00     0.263 C 
BRANCH  14  15
HETATM   15  N1  UNL     1     -47.352  11.911  -4.474  1.00  0.00     0.007 N 
HETATM   16  C1  UNL     1     -48.273  12.235  -3.368  1.00  0.00     0.294 C 
HETATM   17  C2  UNL     1     -46.020  12.062  -3.933  1.00  0.00     0.294 C 
HETATM   18 CL1  UNL     1     -47.710  10.254  -4.862  1.00  0.00     0.117 Cl
ENDBRANCH  14  15
ENDBRANCH   1  14
BRANCH   3  19
HETATM   19  C7  UNL     1     -46.617  12.280  -9.961  1.00  0.00     0.236 C 
HETATM   20  N2  UNL     1     -46.626  12.736 -11.303  1.00  0.00    -0.062 NA
HETATM   21  O1  UNL     1     -45.951  11.219  -9.753  1.00  0.00    -0.276 OA
ENDBRANCH   3  19
TORSDOF 3
ENDMDL
MODEL 3
REMARK VINA RESULT: -5.428613808      2.313      3.511
REMARK  3 active torsions:
REMARK  status: ('A' for Active; 'I' for Inactive)
REMARK    1  A    between atoms: N1_2  and  C3_5 
REMARK    2  A    between atoms: C3_5  and  C4_6 
REMARK    3  A    between atoms: C6_8  and  C7_9 
ROOT
HETATM    1  C4  UNL     1     -44.086  13.863  -5.192  1.00  0.00     0.024 C 
HETATM    2  C5  UNL     1     -42.706  13.393  -5.578  1.00  0.00     0.021 C 
HETATM    3  C6  UNL     1     -42.833  14.108  -6.869  1.00  0.00     0.085 C 
HETATM    4  C8  UNL     1     -44.279  14.377  -6.585  1.00  0.00    -0.016 C 
HETATM    5  C9  UNL     1     -45.145  13.569  -7.506  1.00  0.00    -0.004 C 
HETATM    6  C10 UNL     1     -46.612  13.669  -7.303  1.00  0.00     0.010 C 
HETATM    7  C11 UNL     1     -47.009  15.119  -7.294  1.00  0.00    -0.013 C 
HETATM    8  C12 UNL     1     -46.800  15.661  -8.685  1.00  0.00     0.009 C 
HETATM    9  C13 UNL     1     -45.312  15.576  -8.985  1.00  0.00    -0.013 C 
HETATM   10  C14 UNL     1     -44.893  14.138  -8.915  1.00  0.00     0.010 C 
HETATM   11  C15 UNL     1     -44.622  16.453  -7.967  1.00  0.00     0.010 C 
HETATM   12  C16 UNL     1     -44.721  15.795  -6.615  1.00  0.00    -0.004 C 
HETATM   13  C17 UNL     1     -46.196  15.850  -6.261  1.00  0.00     0.010 C 
ENDROOT
BRANCH   1  14
HETATM   14  C3  UNL     1     -45.010  12.803  -4.681  1.00  0.00     0.263 C 
BRANCH  14  15
HETATM   15  N1  UNL     1     -45.295  12.901  -3.272  1.00  0.00     0.007 N 
HETATM   16  C1  UNL     1     -44.388  11.963  -2.584  1.00  0.00     0.294 C 
HETATM   17  C2  UNL     1     -46.633  12.481  -2.922  1.00  0.00     0.294 C 
HETATM   18 CL1  UNL     1     -44.905  14.454  -2.592  1.00  0.00     0.117 Cl
ENDBRANCH  14  15
ENDBRANCH   1  14
BRANCH   3  19
HETATM   19  C7  UNL     1     -41.879  15.189  -6.996  1.00  0.00     0.236 C 
HETATM   20  N2  UNL     1     -41.487  16.027  -5.921  1.00  0.00    -0.062 NA
HETATM   21  O1  UNL     1     -41.329  15.446  -8.112  1.00  0.00    -0.276 OA
ENDBRANCH   3  19
TORSDOF 3
ENDMDL
MODEL 4
REMARK VINA RESULT: -5.322326515      2.963      4.691
REMARK  3 active torsions:
REMARK  status: ('A' for Active; 'I' for Inactive)
REMARK    1  A    between atoms: N1_2  and  C3_5 
REMARK    2  A    between atoms: C3_5  and  C4_6 
REMARK    3  A    between atoms: C6_8  and  C7_9 
ROOT
HETATM    1  C4  UNL     1     -45.887  13.086  -5.092  1.00  0.00     0.024 C 
HETATM    2  C5  UNL     1     -47.289  12.567  -4.898  1.00  0.00     0.021 C 
HETATM    3  C6  UNL     1     -47.606  12.925  -6.300  1.00  0.00     0.085 C 
HETATM    4  C8  UNL     1     -46.298  13.644  -6.419  1.00  0.00    -0.016 C 
HETATM    5  C9  UNL     1     -46.529  15.125  -6.504  1.00  0.00    -0.004 C 
HETATM    6  C10 UNL     1     -45.323  15.988  -6.553  1.00  0.00     0.010 C 
HETATM    7  C11 UNL     1     -44.416  15.502  -7.650  1.00  0.00    -0.013 C 
HETATM    8  C12 UNL     1     -45.103  15.767  -8.966  1.00  0.00     0.009 C 
HETATM    9  C13 UNL     1     -46.372  14.928  -8.990  1.00  0.00    -0.013 C 
HETATM   10  C14 UNL     1     -47.246  15.354  -7.848  1.00  0.00     0.010 C 
HETATM   11  C15 UNL     1     -45.931  13.486  -8.904  1.00  0.00     0.010 C 
HETATM   12  C16 UNL     1     -45.394  13.226  -7.520  1.00  0.00    -0.004 C 
HETATM   13  C17 UNL     1     -44.118  14.043  -7.436  1.00  0.00     0.010 C 
ENDROOT
BRANCH   1  14
HETATM   14  C3  UNL     1     -45.393  14.024  -4.037  1.00  0.00     0.263 C 
BRANCH  14  15
HETATM   15  N1  UNL     1     -44.039  13.775  -3.614  1.00  0.00     0.007 N 
HETATM   16  C1  UNL     1     -44.097  13.397  -2.189  1.00  0.00     0.294 C 
HETATM   17  C2  UNL     1     -43.188  14.942  -3.676  1.00  0.00     0.294 C 
HETATM   18 CL1  UNL     1     -43.311  12.401  -4.395  1.00  0.00     0.117 Cl
ENDBRANCH  14  15
ENDBRANCH   1  14
BRANCH   3  19
HETATM   19  C7  UNL     1     -47.900  11.762  -7.111  1.00  0.00     0.236 C 
HETATM   20  N2  UNL     1     -47.662  10.428  -6.694  1.00  0.00    -0.062 NA
HETATM   21  O1  UNL     1     -48.401  11.887  -8.271  1.00  0.00    -0.276 OA
ENDBRANCH   3  19
TORSDOF 3
ENDMDL
MODEL 5
REMARK VINA RESULT: -5.303008193      1.989      2.904
REMARK  3 active torsions:
REMARK  status: ('A' for Active; 'I' for Inactive)
REMARK    1  A    between atoms: N1_2  and  C3_5 
REMARK    2  A    between atoms: C3_5  and  C4_6 
REMARK    3  A    between atoms: C6_8  and  C7_9 
ROOT
HETATM    1  C4  UNL     1     -43.233  14.442  -5.691  1.00  0.00     0.024 C 
HETATM    2  C5  UNL     1     -41.824  14.384  -6.226  1.00  0.00     0.021 C 
HETATM    3  C6  UNL     1     -42.257  15.143  -7.422  1.00  0.00     0.085 C 
HETATM    4  C8  UNL     1     -43.688  15.000  -7.003  1.00  0.00    -0.016 C 
HETATM    5  C9  UNL     1     -44.407  14.070  -7.937  1.00  0.00    -0.004 C 
HETATM    6  C10 UNL     1     -45.823  13.765  -7.615  1.00  0.00     0.010 C 
HETATM    7  C11 UNL     1     -46.573  15.054  -7.424  1.00  0.00    -0.013 C 
HETATM    8  C12 UNL     1     -46.649  15.744  -8.763  1.00  0.00     0.009 C 
HETATM    9  C13 UNL     1     -45.225  16.078  -9.180  1.00  0.00    -0.013 C 
HETATM   10  C14 UNL     1     -44.449  14.799  -9.293  1.00  0.00     0.010 C 
HETATM   11  C15 UNL     1     -44.683  17.018  -8.130  1.00  0.00     0.010 C 
HETATM   12  C16 UNL     1     -44.476  16.249  -6.851  1.00  0.00    -0.004 C 
HETATM   13  C17 UNL     1     -45.874  15.885  -6.384  1.00  0.00     0.010 C 
ENDROOT
BRANCH   1  14
HETATM   14  C3  UNL     1     -43.801  13.139  -5.225  1.00  0.00     0.263 C 
BRANCH  14  15
HETATM   15  N1  UNL     1     -44.511  13.219  -3.975  1.00  0.00     0.007 N 
HETATM   16  C1  UNL     1     -43.851  12.284  -3.045  1.00  0.00     0.294 C 
HETATM   17  C2  UNL     1     -45.886  12.782  -4.060  1.00  0.00     0.294 C 
HETATM   18 CL1  UNL     1     -44.373  14.769  -3.198  1.00  0.00     0.117 Cl
ENDBRANCH  14  15
ENDBRANCH   1  14
BRANCH   3  19
HETATM   19  C7  UNL     1     -41.626  16.444  -7.505  1.00  0.00     0.236 C 
HETATM   20  N2  UNL     1     -41.269  17.222  -6.375  1.00  0.00    -0.062 NA
HETATM   21  O1  UNL     1     -41.353  16.965  -8.631  1.00  0.00    -0.276 OA
ENDBRANCH   3  19
TORSDOF 3
ENDMDL
