MODEL 1
REMARK VINA RESULT: -6.240554439      0.000      0.000
REMARK  4 active torsions:
REMARK  status: ('A' for Active; 'I' for Inactive)
REMARK    1  A    between atoms: C2_2  and  C3_4 
REMARK    2  A    between atoms: C4_5  and  C5_6 
REMARK    3  A    between atoms: C5_6  and  N1_7 
REMARK       I    between atoms: N1_7  and  C6_9 
REMARK       I    between atoms: C6_9  and  N2_11 
REMARK    4  A    between atoms: N2_11  and  C8_13 
ROOT
HETATM    1  N1  UNL     1     -47.486  12.420  -6.276  1.00  0.00    -0.343 N 
ATOM      2  H1  UNL     1     -47.249  12.934  -5.428  1.00  0.00     0.164 HD
HETATM    3  C6  UNL     1     -47.110  13.036  -7.479  1.00  0.00     0.318 C 
HETATM    4  O1  UNL     1     -47.342  12.509  -8.579  1.00  0.00    -0.247 OA
HETATM    5  N2  UNL     1     -46.442  14.298  -7.490  1.00  0.00    -0.334 N 
HETATM    6  C7  UNL     1     -46.153  14.943  -6.223  1.00  0.00     0.154 C 
ENDROOT
BRANCH   1   7
HETATM    7  C5  UNL     1     -48.157  11.167  -6.072  1.00  0.00     0.130 C 
BRANCH   7   8
HETATM    8  C4  UNL     1     -47.648  10.471  -4.878  1.00  0.00     0.018 A 
HETATM    9  C3  UNL     1     -48.405  10.262  -3.632  1.00  0.00     0.014 A 
HETATM   10  C12 UNL     1     -48.165   9.098  -4.476  1.00  0.00    -0.037 A 
HETATM   11  C13 UNL     1     -49.282   8.410  -5.182  1.00  0.00     0.015 C 
HETATM   12  C14 UNL     1     -47.066   8.116  -4.019  1.00  0.00     0.015 C 
BRANCH   9  13
HETATM   13  C2  UNL     1     -49.709  10.903  -3.329  1.00  0.00     0.059 C 
HETATM   14  C1  UNL     1     -49.446  12.216  -2.614  1.00  0.00     0.022 C 
HETATM   15 BR1  UNL     1     -51.009   9.951  -2.387  1.00  0.00    -0.091 Br
ENDBRANCH   9  13
ENDBRANCH   7   8
ENDBRANCH   1   7
BRANCH   5  16
HETATM   16  C8  UNL     1     -46.053  14.936  -8.702  1.00  0.00     0.088 C 
HETATM   17  C9  UNL     1     -45.501  16.339  -8.461  1.00  0.00     0.025 C 
HETATM   18  C10 UNL     1     -44.314  15.968  -9.294  1.00  0.00     0.004 C 
HETATM   19  C11 UNL     1     -44.708  14.506  -9.275  1.00  0.00     0.025 C 
ENDBRANCH   5  16
TORSDOF 4
ENDMDL
MODEL 2
REMARK VINA RESULT: -5.972233186      1.590      2.003
REMARK  4 active torsions:
REMARK  status: ('A' for Active; 'I' for Inactive)
REMARK    1  A    between atoms: C2_2  and  C3_4 
REMARK    2  A    between atoms: C4_5  and  C5_6 
REMARK    3  A    between atoms: C5_6  and  N1_7 
REMARK       I    between atoms: N1_7  and  C6_9 
REMARK       I    between atoms: C6_9  and  N2_11 
REMARK    4  A    between atoms: N2_11  and  C8_13 
ROOT
HETATM    1  N1  UNL     1     -47.548  12.311  -7.768  1.00  0.00    -0.343 N 
ATOM      2  H1  UNL     1     -46.937  11.811  -8.414  1.00  0.00     0.164 HD
HETATM    3  C6  UNL     1     -47.276  13.678  -7.616  1.00  0.00     0.318 C 
HETATM    4  O1  UNL     1     -47.951  14.394  -6.858  1.00  0.00    -0.247 OA
HETATM    5  N2  UNL     1     -46.210  14.307  -8.327  1.00  0.00    -0.334 N 
HETATM    6  C7  UNL     1     -45.400  13.501  -9.221  1.00  0.00     0.154 C 
ENDROOT
BRANCH   1   7
HETATM    7  C5  UNL     1     -48.568  11.515  -7.143  1.00  0.00     0.130 C 
BRANCH   7   8
HETATM    8  C4  UNL     1     -47.987  10.509  -6.238  1.00  0.00     0.018 A 
HETATM    9  C3  UNL     1     -47.744  10.704  -4.798  1.00  0.00     0.014 A 
HETATM   10  C12 UNL     1     -48.829   9.809  -5.181  1.00  0.00    -0.037 A 
HETATM   11  C13 UNL     1     -50.252  10.159  -4.912  1.00  0.00     0.015 C 
HETATM   12  C14 UNL     1     -48.564   8.295  -5.060  1.00  0.00     0.015 C 
BRANCH   9  13
HETATM   13  C2  UNL     1     -47.854  12.011  -4.102  1.00  0.00     0.059 C 
HETATM   14  C1  UNL     1     -46.495  12.686  -4.123  1.00  0.00     0.022 C 
HETATM   15 BR1  UNL     1     -48.535  12.076  -2.366  1.00  0.00    -0.091 Br
ENDBRANCH   9  13
ENDBRANCH   7   8
ENDBRANCH   1   7
BRANCH   5  16
HETATM   16  C8  UNL     1     -45.921  15.694  -8.184  1.00  0.00     0.088 C 
HETATM   17  C9  UNL     1     -44.934  15.961  -7.049  1.00  0.00     0.025 C 
HETATM   18  C10 UNL     1     -44.125  16.781  -8.005  1.00  0.00     0.004 C 
HETATM   19  C11 UNL     1     -44.926  16.270  -9.184  1.00  0.00     0.025 C 
ENDBRANCH   5  16
TORSDOF 4
ENDMDL
MODEL 3
REMARK VINA RESULT: -5.963996411      0.895      1.007
REMARK  4 active torsions:
REMARK  status: ('A' for Active; 'I' for Inactive)
REMARK    1  A    between atoms: C2_2  and  C3_4 
REMARK    2  A    between atoms: C4_5  and  C5_6 
REMARK    3  A    between atoms: C5_6  and  N1_7 
REMARK       I    between atoms: N1_7  and  C6_9 
REMARK       I    between atoms: C6_9  and  N2_11 
REMARK    4  A    between atoms: N2_11  and  C8_13 
ROOT
HETATM    1  N1  UNL     1     -47.006  12.917  -5.664  1.00  0.00    -0.343 N 
ATOM      2  H1  UNL     1     -46.560  13.450  -4.917  1.00  0.00     0.164 HD
HETATM    3  C6  UNL     1     -46.839  13.434  -6.957  1.00  0.00     0.318 C 
HETATM    4  O1  UNL     1     -47.334  12.874  -7.949  1.00  0.00    -0.247 OA
HETATM    5  N2  UNL     1     -46.088  14.626  -7.189  1.00  0.00    -0.334 N 
HETATM    6  C7  UNL     1     -45.494  15.306  -6.054  1.00  0.00     0.154 C 
ENDROOT
BRANCH   1   7
HETATM    7  C5  UNL     1     -47.719  11.744  -5.243  1.00  0.00     0.130 C 
BRANCH   7   8
HETATM    8  C4  UNL     1     -47.366  11.364  -3.864  1.00  0.00     0.018 A 
HETATM    9  C3  UNL     1     -48.326  10.945  -2.828  1.00  0.00     0.014 A 
HETATM   10  C12 UNL     1     -47.453   9.921  -3.389  1.00  0.00    -0.037 A 
HETATM   11  C13 UNL     1     -47.995   8.818  -4.231  1.00  0.00     0.015 C 
HETATM   12  C14 UNL     1     -46.260   9.467  -2.523  1.00  0.00     0.015 C 
BRANCH   9  13
HETATM   13  C2  UNL     1     -49.801  11.048  -2.965  1.00  0.00     0.059 C 
HETATM   14  C1  UNL     1     -50.268  12.294  -2.235  1.00  0.00     0.022 C 
HETATM   15 BR1  UNL     1     -50.876   9.610  -2.457  1.00  0.00    -0.091 Br
ENDBRANCH   9  13
ENDBRANCH   7   8
ENDBRANCH   1   7
BRANCH   5  16
HETATM   16  C8  UNL     1     -45.908  15.162  -8.496  1.00  0.00     0.088 C 
HETATM   17  C9  UNL     1     -45.203  16.518  -8.468  1.00  0.00     0.025 C 
HETATM   18  C10 UNL     1     -44.250  15.994  -9.496  1.00  0.00     0.004 C 
HETATM   19  C11 UNL     1     -44.750  14.578  -9.297  1.00  0.00     0.025 C 
ENDBRANCH   5  16
TORSDOF 4
ENDMDL
MODEL 4
REMARK VINA RESULT: -5.947325449      2.877      7.055
REMARK  4 active torsions:
REMARK  status: ('A' for Active; 'I' for Inactive)
REMARK    1  A    between atoms: C2_2  and  C3_4 
REMARK    2  A    between atoms: C4_5  and  C5_6 
REMARK    3  A    between atoms: C5_6  and  N1_7 
REMARK       I    between atoms: N1_7  and  C6_9 
REMARK       I    between atoms: C6_9  and  N2_11 
REMARK    4  A    between atoms: N2_11  and  C8_13 
ROOT
HETATM    1  N1  UNL     1     -47.560  12.536  -5.950  1.00  0.00    -0.343 N 
ATOM      2  H1  UNL     1     -47.529  13.232  -5.205  1.00  0.00     0.164 HD
HETATM    3  C6  UNL     1     -48.125  11.302  -5.598  1.00  0.00     0.318 C 
HETATM    4  O1  UNL     1     -48.221  10.374  -6.418  1.00  0.00    -0.247 OA
HETATM    5  N2  UNL     1     -48.619  11.059  -4.280  1.00  0.00    -0.334 N 
HETATM    6  C7  UNL     1     -48.525  12.121  -3.296  1.00  0.00     0.154 C 
ENDROOT
BRANCH   1   7
HETATM    7  C5  UNL     1     -47.019  12.957  -7.211  1.00  0.00     0.130 C 
BRANCH   7   8
HETATM    8  C4  UNL     1     -46.690  14.393  -7.205  1.00  0.00     0.018 A 
HETATM    9  C3  UNL     1     -45.433  14.973  -6.701  1.00  0.00     0.014 A 
HETATM   10  C12 UNL     1     -45.644  14.975  -8.144  1.00  0.00    -0.037 A 
HETATM   11  C13 UNL     1     -44.809  14.137  -9.050  1.00  0.00     0.015 C 
HETATM   12  C14 UNL     1     -46.049  16.315  -8.791  1.00  0.00     0.015 C 
BRANCH   9  13
HETATM   13  C2  UNL     1     -44.408  14.214  -5.940  1.00  0.00     0.059 C 
HETATM   14  C1  UNL     1     -44.750  14.291  -4.463  1.00  0.00     0.022 C 
HETATM   15 BR1  UNL     1     -42.602  14.621  -6.166  1.00  0.00    -0.091 Br
ENDBRANCH   9  13
ENDBRANCH   7   8
ENDBRANCH   1   7
BRANCH   5  16
HETATM   16  C8  UNL     1     -49.197   9.812  -3.908  1.00  0.00     0.088 C 
HETATM   17  C9  UNL     1     -49.757   9.840  -2.487  1.00  0.00     0.025 C 
HETATM   18  C10 UNL     1     -51.036   9.282  -3.027  1.00  0.00     0.004 C 
HETATM   19  C11 UNL     1     -50.594   9.541  -4.452  1.00  0.00     0.025 C 
ENDBRANCH   5  16
TORSDOF 4
ENDMDL
MODEL 5
REMARK VINA RESULT: -5.869422383      3.314      7.269
REMARK  4 active torsions:
REMARK  status: ('A' for Active; 'I' for Inactive)
REMARK    1  A    between atoms: C2_2  and  C3_4 
REMARK    2  A    between atoms: C4_5  and  C5_6 
REMARK    3  A    between atoms: C5_6  and  N1_7 
REMARK       I    between atoms: N1_7  and  C6_9 
REMARK       I    between atoms: C6_9  and  N2_11 
REMARK    4  A    between atoms: N2_11  and  C8_13 
ROOT
HETATM    1  N1  UNL     1     -46.859  12.773  -4.831  1.00  0.00    -0.343 N 
ATOM      2  H1  UNL     1     -47.070  13.400  -4.054  1.00  0.00     0.164 HD
HETATM    3  C6  UNL     1     -47.547  11.551  -4.823  1.00  0.00     0.318 C 
HETATM    4  O1  UNL     1     -47.376  10.704  -5.715  1.00  0.00    -0.247 OA
HETATM    5  N2  UNL     1     -48.476  11.228  -3.789  1.00  0.00    -0.334 N 
HETATM    6  C7  UNL     1     -48.702  12.195  -2.730  1.00  0.00     0.154 C 
ENDROOT
BRANCH   1   7
HETATM    7  C5  UNL     1     -45.899  13.265  -5.778  1.00  0.00     0.130 C 
BRANCH   7   8
HETATM    8  C4  UNL     1     -46.321  14.554  -6.354  1.00  0.00     0.018 A 
HETATM    9  C3  UNL     1     -45.409  15.608  -6.832  1.00  0.00     0.014 A 
HETATM   10  C12 UNL     1     -46.154  14.857  -7.835  1.00  0.00    -0.037 A 
HETATM   11  C13 UNL     1     -45.464  13.935  -8.782  1.00  0.00     0.015 C 
HETATM   12  C14 UNL     1     -47.367  15.559  -8.479  1.00  0.00     0.015 C 
BRANCH   9  13
HETATM   13  C2  UNL     1     -43.941  15.608  -6.609  1.00  0.00     0.059 C 
HETATM   14  C1  UNL     1     -43.666  16.129  -5.210  1.00  0.00     0.022 C 
HETATM   15 BR1  UNL     1     -42.825  16.491  -7.815  1.00  0.00    -0.091 Br
ENDBRANCH   9  13
ENDBRANCH   7   8
ENDBRANCH   1   7
BRANCH   5  16
HETATM   16  C8  UNL     1     -49.184   9.992  -3.767  1.00  0.00     0.088 C 
HETATM   17  C9  UNL     1     -50.126   9.891  -2.569  1.00  0.00     0.025 C 
HETATM   18  C10 UNL     1     -51.217   9.500  -3.516  1.00  0.00     0.004 C 
HETATM   19  C11 UNL     1     -50.376   9.895  -4.711  1.00  0.00     0.025 C 
ENDBRANCH   5  16
TORSDOF 4
ENDMDL
