MODEL 1
REMARK VINA RESULT: -4.729134523      0.000      0.000
REMARK  1 active torsions:
REMARK  status: ('A' for Active; 'I' for Inactive)
REMARK    1  A    between atoms: O1_1  and  N1_3 
ROOT
HETATM    1  N1  UNL     1      11.155  50.620  53.284  1.00  0.00    -0.246 N 
HETATM    2  C1  UNL     1       9.795  50.986  53.108  1.00  0.00     0.142 A 
HETATM    3  C2  UNL     1       9.179  51.860  53.874  1.00  0.00     0.053 A 
HETATM    4 CL1  UNL     1       7.485  52.276  53.608  1.00  0.00    -0.083 Cl
HETATM    5  C3  UNL     1       9.924  52.483  54.953  1.00  0.00     0.048 A 
HETATM    6  C4  UNL     1      11.180  52.186  55.165  1.00  0.00     0.053 A 
HETATM    7 CL2  UNL     1      12.058  52.964  56.488  1.00  0.00    -0.085 Cl
HETATM    8  C5  UNL     1      11.913  51.222  54.345  1.00  0.00     0.254 A 
HETATM    9 CL3  UNL     1      12.528  49.897  55.381  1.00  0.00    -0.094 Cl
ENDROOT
BRANCH   1  10
HETATM   10  O1  UNL     1      11.700  49.749  52.491  1.00  0.00    -0.286 OA
ATOM     11  H1  UNL     1      12.628  49.802  52.293  1.00  0.00     0.244 HD
ENDBRANCH   1  10
TORSDOF 1
ENDMDL
MODEL 2
REMARK VINA RESULT: -4.583907598      2.417      3.076
REMARK  1 active torsions:
REMARK  status: ('A' for Active; 'I' for Inactive)
REMARK    1  A    between atoms: O1_1  and  N1_3 
ROOT
HETATM    1  N1  UNL     1      10.192  51.862  54.961  1.00  0.00    -0.246 N 
HETATM    2  C1  UNL     1      10.064  51.261  53.683  1.00  0.00     0.142 A 
HETATM    3  C2  UNL     1      10.954  50.430  53.185  1.00  0.00     0.053 A 
HETATM    4 CL1  UNL     1      10.742  49.711  51.588  1.00  0.00    -0.083 Cl
HETATM    5  C3  UNL     1      12.126  50.111  53.980  1.00  0.00     0.048 A 
HETATM    6  C4  UNL     1      12.300  50.634  55.166  1.00  0.00     0.053 A 
HETATM    7 CL2  UNL     1      13.738  50.224  56.108  1.00  0.00    -0.085 Cl
HETATM    8  C5  UNL     1      11.343  51.563  55.768  1.00  0.00     0.254 A 
HETATM    9 CL3  UNL     1      12.159  53.114  56.131  1.00  0.00    -0.094 Cl
ENDROOT
BRANCH   1  10
HETATM   10  O1  UNL     1       9.275  52.675  55.392  1.00  0.00    -0.286 OA
ATOM     11  H1  UNL     1       9.513  53.545  55.688  1.00  0.00     0.244 HD
ENDBRANCH   1  10
TORSDOF 1
ENDMDL
MODEL 3
REMARK VINA RESULT: -4.534219330      3.753      4.783
REMARK  1 active torsions:
REMARK  status: ('A' for Active; 'I' for Inactive)
REMARK    1  A    between atoms: O1_1  and  N1_3 
ROOT
HETATM    1  N1  UNL     1      14.727  51.601  56.532  1.00  0.00    -0.246 N 
HETATM    2  C1  UNL     1      13.375  51.861  56.190  1.00  0.00     0.142 A 
HETATM    3  C2  UNL     1      12.573  50.953  55.676  1.00  0.00     0.053 A 
HETATM    4 CL1  UNL     1      10.900  51.334  55.268  1.00  0.00    -0.083 Cl
HETATM    5  C3  UNL     1      13.096  49.618  55.446  1.00  0.00     0.048 A 
HETATM    6  C4  UNL     1      14.334  49.318  55.742  1.00  0.00     0.053 A 
HETATM    7 CL2  UNL     1      14.937  47.682  55.451  1.00  0.00    -0.085 Cl
HETATM    8  C5  UNL     1      15.267  50.288  56.315  1.00  0.00     0.254 A 
HETATM    9 CL3  UNL     1      16.686  50.465  55.238  1.00  0.00    -0.094 Cl
ENDROOT
BRANCH   1  10
HETATM   10  O1  UNL     1      15.462  52.545  57.036  1.00  0.00    -0.286 OA
ATOM     11  H1  UNL     1      16.292  52.768  56.630  1.00  0.00     0.244 HD
ENDBRANCH   1  10
TORSDOF 1
ENDMDL
MODEL 4
REMARK VINA RESULT: -4.493124860      2.645      4.396
REMARK  1 active torsions:
REMARK  status: ('A' for Active; 'I' for Inactive)
REMARK    1  A    between atoms: O1_1  and  N1_3 
ROOT
HETATM    1  N1  UNL     1      12.021  52.478  55.719  1.00  0.00    -0.246 N 
HETATM    2  C1  UNL     1      12.939  51.448  56.050  1.00  0.00     0.142 A 
HETATM    3  C2  UNL     1      12.937  50.267  55.471  1.00  0.00     0.053 A 
HETATM    4 CL1  UNL     1      14.103  49.023  55.924  1.00  0.00    -0.083 Cl
HETATM    5  C3  UNL     1      11.948  50.002  54.441  1.00  0.00     0.048 A 
HETATM    6  C4  UNL     1      11.075  50.912  54.093  1.00  0.00     0.053 A 
HETATM    7 CL2  UNL     1       9.886  50.555  52.835  1.00  0.00    -0.085 Cl
HETATM    8  C5  UNL     1      11.033  52.240  54.704  1.00  0.00     0.254 A 
HETATM    9 CL3  UNL     1       9.427  52.508  55.448  1.00  0.00    -0.094 Cl
ENDROOT
BRANCH   1  10
HETATM   10  O1  UNL     1      12.079  53.622  56.332  1.00  0.00    -0.286 OA
ATOM     11  H1  UNL     1      12.732  53.766  57.007  1.00  0.00     0.244 HD
ENDBRANCH   1  10
TORSDOF 1
ENDMDL
MODEL 5
REMARK VINA RESULT: -4.409416281      3.520      4.200
REMARK  1 active torsions:
REMARK  status: ('A' for Active; 'I' for Inactive)
REMARK    1  A    between atoms: O1_1  and  N1_3 
ROOT
HETATM    1  N1  UNL     1      14.603  49.175  55.589  1.00  0.00    -0.246 N 
HETATM    2  C1  UNL     1      13.253  49.514  55.318  1.00  0.00     0.142 A 
HETATM    3  C2  UNL     1      12.720  50.672  55.645  1.00  0.00     0.053 A 
HETATM    4 CL1  UNL     1      11.033  51.039  55.282  1.00  0.00    -0.083 Cl
HETATM    5  C3  UNL     1      13.553  51.652  56.319  1.00  0.00     0.048 A 
HETATM    6  C4  UNL     1      14.806  51.397  56.596  1.00  0.00     0.053 A 
HETATM    7 CL2  UNL     1      15.792  52.614  57.416  1.00  0.00    -0.085 Cl
HETATM    8  C5  UNL     1      15.448  50.128  56.254  1.00  0.00     0.254 A 
HETATM    9 CL3  UNL     1      16.065  49.347  57.743  1.00  0.00    -0.094 Cl
ENDROOT
BRANCH   1  10
HETATM   10  O1  UNL     1      15.064  48.013  55.238  1.00  0.00    -0.286 OA
ATOM     11  H1  UNL     1      15.940  47.939  54.877  1.00  0.00     0.244 HD
ENDBRANCH   1  10
TORSDOF 1
ENDMDL
