MODEL 1
REMARK VINA RESULT: -4.604617239      0.000      0.000
REMARK  0 active torsions:
REMARK  status: ('A' for Active; 'I' for Inactive)
ROOT
HETATM    1  C1  UNL     1       8.194  52.273  53.808  1.00  0.00     0.152 C 
HETATM    2  N1  UNL     1       9.519  51.964  54.257  1.00  0.00    -0.360 N 
HETATM    3  C2  UNL     1      10.152  52.329  55.530  1.00  0.00     0.173 C 
HETATM    4  C3  UNL     1      11.587  52.522  55.066  1.00  0.00     0.244 C 
HETATM    5 CL1  UNL     1      12.718  52.204  56.388  1.00  0.00    -0.093 Cl
HETATM    6  O1  UNL     1      11.755  51.625  53.987  1.00  0.00    -0.311 OA
HETATM    7  C4  UNL     1      10.502  51.228  53.538  1.00  0.00     0.175 C 
HETATM    8  C5  UNL     1      10.247  50.327  52.607  1.00  0.00     0.154 C 
HETATM    9 CL2  UNL     1      11.582  49.515  51.824  1.00  0.00    -0.066 Cl
HETATM   10 CL3  UNL     1       8.635  49.913  52.130  1.00  0.00    -0.066 Cl
ENDROOT
TORSDOF 0
ENDMDL
MODEL 2
REMARK VINA RESULT: -4.349188963      2.065      4.070
REMARK  0 active torsions:
REMARK  status: ('A' for Active; 'I' for Inactive)
ROOT
HETATM    1  C1  UNL     1      12.068  53.382  56.412  1.00  0.00     0.152 C 
HETATM    2  N1  UNL     1      11.551  52.339  55.576  1.00  0.00    -0.360 N 
HETATM    3  C2  UNL     1      10.453  52.415  54.606  1.00  0.00     0.173 C 
HETATM    4  C3  UNL     1       9.871  51.019  54.756  1.00  0.00     0.244 C 
HETATM    5 CL1  UNL     1       9.081  50.509  53.257  1.00  0.00    -0.093 Cl
HETATM    6  O1  UNL     1      10.966  50.192  55.094  1.00  0.00    -0.311 OA
HETATM    7  C4  UNL     1      12.014  50.994  55.526  1.00  0.00     0.175 C 
HETATM    8  C5  UNL     1      13.233  50.597  55.840  1.00  0.00     0.154 C 
HETATM    9 CL2  UNL     1      13.630  48.899  55.719  1.00  0.00    -0.066 Cl
HETATM   10 CL3  UNL     1      14.462  51.696  56.369  1.00  0.00    -0.066 Cl
ENDROOT
TORSDOF 0
ENDMDL
MODEL 3
REMARK VINA RESULT: -4.337715768      3.750      5.700
REMARK  0 active torsions:
REMARK  status: ('A' for Active; 'I' for Inactive)
ROOT
HETATM    1  C1  UNL     1      14.453  48.818  55.203  1.00  0.00     0.152 C 
HETATM    2  N1  UNL     1      13.778  49.989  55.677  1.00  0.00    -0.360 N 
HETATM    3  C2  UNL     1      12.386  50.390  55.441  1.00  0.00     0.173 C 
HETATM    4  C3  UNL     1      12.551  51.901  55.390  1.00  0.00     0.244 C 
HETATM    5 CL1  UNL     1      11.060  52.709  55.891  1.00  0.00    -0.093 Cl
HETATM    6  O1  UNL     1      13.633  52.188  56.252  1.00  0.00    -0.311 OA
HETATM    7  C4  UNL     1      14.340  51.016  56.487  1.00  0.00     0.175 C 
HETATM    8  C5  UNL     1      15.359  50.861  57.312  1.00  0.00     0.154 C 
HETATM    9 CL2  UNL     1      15.921  52.235  58.233  1.00  0.00    -0.066 Cl
HETATM   10 CL3  UNL     1      16.164  49.342  57.522  1.00  0.00    -0.066 Cl
ENDROOT
TORSDOF 0
ENDMDL
MODEL 4
REMARK VINA RESULT: -4.223481236      2.973      3.975
REMARK  0 active torsions:
REMARK  status: ('A' for Active; 'I' for Inactive)
ROOT
HETATM    1  C1  UNL     1      13.254  53.169  55.874  1.00  0.00     0.152 C 
HETATM    2  N1  UNL     1      13.135  51.742  55.921  1.00  0.00    -0.360 N 
HETATM    3  C2  UNL     1      14.095  50.771  56.458  1.00  0.00     0.173 C 
HETATM    4  C3  UNL     1      13.864  49.614  55.499  1.00  0.00     0.244 C 
HETATM    5 CL1  UNL     1      14.245  48.072  56.278  1.00  0.00    -0.093 Cl
HETATM    6  O1  UNL     1      12.504  49.705  55.124  1.00  0.00    -0.311 OA
HETATM    7  C4  UNL     1      12.037  50.973  55.444  1.00  0.00     0.175 C 
HETATM    8  C5  UNL     1      10.795  51.408  55.331  1.00  0.00     0.154 C 
HETATM    9 CL2  UNL     1       9.568  50.322  54.724  1.00  0.00    -0.066 Cl
HETATM   10 CL3  UNL     1      10.331  53.018  55.764  1.00  0.00    -0.066 Cl
ENDROOT
TORSDOF 0
ENDMDL
MODEL 5
REMARK VINA RESULT: -4.054997369      1.795      2.732
REMARK  0 active torsions:
REMARK  status: ('A' for Active; 'I' for Inactive)
ROOT
HETATM    1  C1  UNL     1      10.570  49.724  52.342  1.00  0.00     0.152 C 
HETATM    2  N1  UNL     1      10.571  50.805  53.283  1.00  0.00    -0.360 N 
HETATM    3  C2  UNL     1      11.681  51.276  54.119  1.00  0.00     0.173 C 
HETATM    4  C3  UNL     1      10.913  51.710  55.358  1.00  0.00     0.244 C 
HETATM    5 CL1  UNL     1      11.780  52.993  56.212  1.00  0.00    -0.093 Cl
HETATM    6  O1  UNL     1       9.651  52.137  54.885  1.00  0.00    -0.311 OA
HETATM    7  C4  UNL     1       9.469  51.649  53.597  1.00  0.00     0.175 C 
HETATM    8  C5  UNL     1       8.457  51.911  52.790  1.00  0.00     0.154 C 
HETATM    9 CL2  UNL     1       7.185  52.974  53.342  1.00  0.00    -0.066 Cl
HETATM   10 CL3  UNL     1       8.339  51.240  51.199  1.00  0.00    -0.066 Cl
ENDROOT
TORSDOF 0
ENDMDL
