MODEL 1
REMARK VINA RESULT: -4.745715694      0.000      0.000
REMARK  0 active torsions:
REMARK  status: ('A' for Active; 'I' for Inactive)
ROOT
HETATM    1  N1  UNL     1       9.837  50.705  54.637  1.00  0.00    -0.192 NA
HETATM    2  C1  UNL     1      10.920  50.803  54.995  1.00  0.00     0.099 C 
HETATM    3  C2  UNL     1      12.278  50.913  55.446  1.00  0.00     0.067 C 
HETATM    4  C3  UNL     1      13.092  49.965  55.817  1.00  0.00     0.067 C 
HETATM    5  C4  UNL     1      14.390  50.575  56.199  1.00  0.00     0.238 C 
HETATM    6 CL1  UNL     1      14.769  50.299  57.894  1.00  0.00    -0.066 Cl
HETATM    7 CL2  UNL     1      15.683  49.830  55.218  1.00  0.00    -0.066 Cl
HETATM    8  O1  UNL     1      14.301  51.916  55.883  1.00  0.00    -0.322 OA
HETATM    9  C5  UNL     1      13.000  52.209  55.563  1.00  0.00     0.265 C 
HETATM   10 CL3  UNL     1      12.196  53.195  56.798  1.00  0.00    -0.089 Cl
ENDROOT
TORSDOF 0
ENDMDL
MODEL 2
REMARK VINA RESULT: -4.742794928      2.290      2.812
REMARK  0 active torsions:
REMARK  status: ('A' for Active; 'I' for Inactive)
ROOT
HETATM    1  N1  UNL     1      11.936  53.279  56.184  1.00  0.00    -0.192 NA
HETATM    2  C1  UNL     1      12.585  52.337  56.138  1.00  0.00     0.099 C 
HETATM    3  C2  UNL     1      13.409  51.165  56.082  1.00  0.00     0.067 C 
HETATM    4  C3  UNL     1      14.669  51.039  56.394  1.00  0.00     0.067 C 
HETATM    5  C4  UNL     1      15.076  49.629  56.168  1.00  0.00     0.238 C 
HETATM    6 CL1  UNL     1      16.321  49.498  54.933  1.00  0.00    -0.066 Cl
HETATM    7 CL2  UNL     1      15.742  48.976  57.691  1.00  0.00    -0.066 Cl
HETATM    8  O1  UNL     1      13.927  48.936  55.844  1.00  0.00    -0.322 OA
HETATM    9  C5  UNL     1      12.914  49.836  55.632  1.00  0.00     0.265 C 
HETATM   10 CL3  UNL     1      12.450  49.954  53.925  1.00  0.00    -0.089 Cl
ENDROOT
TORSDOF 0
ENDMDL
MODEL 3
REMARK VINA RESULT: -4.681966936      3.683      5.051
REMARK  0 active torsions:
REMARK  status: ('A' for Active; 'I' for Inactive)
ROOT
HETATM    1  N1  UNL     1      12.569  53.306  56.659  1.00  0.00    -0.192 NA
HETATM    2  C1  UNL     1      11.818  52.803  55.958  1.00  0.00     0.099 C 
HETATM    3  C2  UNL     1      10.867  52.174  55.086  1.00  0.00     0.067 C 
HETATM    4  C3  UNL     1       9.565  52.212  55.140  1.00  0.00     0.067 C 
HETATM    5  C4  UNL     1       9.020  51.405  54.019  1.00  0.00     0.238 C 
HETATM    6 CL1  UNL     1       8.083  50.034  54.597  1.00  0.00    -0.066 Cl
HETATM    7 CL2  UNL     1       7.938  52.438  53.045  1.00  0.00    -0.066 Cl
HETATM    8  O1  UNL     1      10.099  51.027  53.246  1.00  0.00    -0.322 OA
HETATM    9  C5  UNL     1      11.254  51.336  53.919  1.00  0.00     0.265 C 
HETATM   10 CL3  UNL     1      12.106  49.899  54.513  1.00  0.00    -0.089 Cl
ENDROOT
TORSDOF 0
ENDMDL
MODEL 4
REMARK VINA RESULT: -4.593931932      2.333      2.925
REMARK  0 active torsions:
REMARK  status: ('A' for Active; 'I' for Inactive)
ROOT
HETATM    1  N1  UNL     1      12.111  50.201  55.350  1.00  0.00    -0.192 NA
HETATM    2  C1  UNL     1      13.203  49.935  55.565  1.00  0.00     0.099 C 
HETATM    3  C2  UNL     1      14.568  49.591  55.839  1.00  0.00     0.067 C 
HETATM    4  C3  UNL     1      15.074  48.420  56.110  1.00  0.00     0.067 C 
HETATM    5  C4  UNL     1      16.536  48.571  56.319  1.00  0.00     0.238 C 
HETATM    6 CL1  UNL     1      17.012  48.131  57.954  1.00  0.00    -0.066 Cl
HETATM    7 CL2  UNL     1      17.389  47.484  55.187  1.00  0.00    -0.066 Cl
HETATM    8  O1  UNL     1      16.845  49.880  56.007  1.00  0.00    -0.322 OA
HETATM    9  C5  UNL     1      15.677  50.583  55.853  1.00  0.00     0.265 C 
HETATM   10 CL3  UNL     1      15.391  51.733  57.172  1.00  0.00    -0.089 Cl
ENDROOT
TORSDOF 0
ENDMDL
MODEL 5
REMARK VINA RESULT: -4.562936354      4.195      5.677
REMARK  0 active torsions:
REMARK  status: ('A' for Active; 'I' for Inactive)
ROOT
HETATM    1  N1  UNL     1      18.531  47.432  58.678  1.00  0.00    -0.192 NA
HETATM    2  C1  UNL     1      17.864  48.047  57.981  1.00  0.00     0.099 C 
HETATM    3  C2  UNL     1      17.018  48.816  57.114  1.00  0.00     0.067 C 
HETATM    4  C3  UNL     1      15.788  49.202  57.308  1.00  0.00     0.067 C 
HETATM    5  C4  UNL     1      15.340  49.975  56.123  1.00  0.00     0.238 C 
HETATM    6 CL1  UNL     1      13.992  49.196  55.306  1.00  0.00    -0.066 Cl
HETATM    7 CL2  UNL     1      14.795  51.587  56.666  1.00  0.00    -0.066 Cl
HETATM    8  O1  UNL     1      16.444  50.123  55.309  1.00  0.00    -0.322 OA
HETATM    9  C5  UNL     1      17.451  49.319  55.782  1.00  0.00     0.265 C 
HETATM   10 CL3  UNL     1      17.769  47.929  54.728  1.00  0.00    -0.089 Cl
ENDROOT
TORSDOF 0
ENDMDL
