MODEL 1
REMARK VINA RESULT: -5.682776558      0.000      0.000
REMARK  8 active torsions:
REMARK  status: ('A' for Active; 'I' for Inactive)
REMARK    1  A    between atoms: C2_2  and  C3_3 
REMARK    2  A    between atoms: C3_3  and  C4_4 
REMARK    3  A    between atoms: C4_4  and  C5_5 
REMARK    4  A    between atoms: C5_5  and  C6_6 
REMARK    5  A    between atoms: C6_6  and  C7_7 
REMARK    6  A    between atoms: C6_6  and  C10_10 
REMARK    7  A    between atoms: C7_7  and  C8_8 
REMARK    8  A    between atoms: C11_11  and  O1_12 
ROOT
HETATM    1  C10 UNL     1      20.274  45.997  55.336  1.00  0.00     0.038 A 
HETATM    2  C11 UNL     1      21.589  46.263  55.773  1.00  0.00     0.079 A 
HETATM    3  C12 UNL     1      21.979  47.527  56.212  1.00  0.00     0.045 A 
HETATM    4  C13 UNL     1      21.110  48.553  56.246  1.00  0.00    -0.046 A 
HETATM    5  C14 UNL     1      21.506  49.929  56.650  1.00  0.00     0.049 C 
HETATM    6  C15 UNL     1      19.798  48.310  55.832  1.00  0.00     0.007 A 
HETATM    7  C16 UNL     1      18.723  49.161  55.805  1.00  0.00     0.047 A 
HETATM    8  C17 UNL     1      17.662  48.377  55.330  1.00  0.00     0.051 A 
HETATM    9  C18 UNL     1      16.269  48.854  55.133  1.00  0.00     0.077 C 
HETATM   10  O2  UNL     1      18.104  47.180  55.101  1.00  0.00    -0.314 OA
HETATM   11  C19 UNL     1      19.402  47.074  55.393  1.00  0.00     0.100 A 
ENDROOT
BRANCH   1  12
HETATM   12  C6  UNL     1      19.880  44.624  54.902  1.00  0.00    -0.046 C 
BRANCH  12  13
HETATM   13  C5  UNL     1      19.220  43.827  55.932  1.00  0.00    -0.019 C 
BRANCH  13  14
HETATM   14  C4  UNL     1      19.362  43.719  57.352  1.00  0.00     0.027 C 
BRANCH  14  15
HETATM   15  C3  UNL     1      20.273  42.493  57.699  1.00  0.00     0.003 C 
BRANCH  15  16
HETATM   16  C2  UNL     1      21.649  42.854  58.116  1.00  0.00    -0.004 C 
HETATM   17  C1  UNL     1      21.574  44.178  58.933  1.00  0.00     0.005 C 
ENDBRANCH  15  16
ENDBRANCH  14  15
ENDBRANCH  13  14
ENDBRANCH  12  13
BRANCH  12  18
HETATM   18  C7  UNL     1      20.795  43.946  53.932  1.00  0.00     0.039 C 
BRANCH  18  19
HETATM   19  C8  UNL     1      20.939  42.476  53.960  1.00  0.00     0.000 C 
HETATM   20  C9  UNL     1      22.359  42.182  54.514  1.00  0.00     0.005 C 
ENDBRANCH  18  19
ENDBRANCH  12  18
ENDBRANCH   1  12
BRANCH   2  21
HETATM   21  O1  UNL     1      22.590  45.334  55.803  1.00  0.00    -0.360 OA
ATOM     22  H1  UNL     1      22.784  44.783  56.552  1.00  0.00     0.217 HD
ENDBRANCH   2  21
TORSDOF 8
ENDMDL
MODEL 2
REMARK VINA RESULT: -5.606957212      2.119      5.444
REMARK  8 active torsions:
REMARK  status: ('A' for Active; 'I' for Inactive)
REMARK    1  A    between atoms: C2_2  and  C3_3 
REMARK    2  A    between atoms: C3_3  and  C4_4 
REMARK    3  A    between atoms: C4_4  and  C5_5 
REMARK    4  A    between atoms: C5_5  and  C6_6 
REMARK    5  A    between atoms: C6_6  and  C7_7 
REMARK    6  A    between atoms: C6_6  and  C10_10 
REMARK    7  A    between atoms: C7_7  and  C8_8 
REMARK    8  A    between atoms: C11_11  and  O1_12 
ROOT
HETATM    1  C10 UNL     1      21.028  48.482  56.940  1.00  0.00     0.038 A 
HETATM    2  C11 UNL     1      21.922  49.542  56.677  1.00  0.00     0.079 A 
HETATM    3  C12 UNL     1      23.254  49.502  57.084  1.00  0.00     0.045 A 
HETATM    4  C13 UNL     1      23.751  48.440  57.744  1.00  0.00    -0.046 A 
HETATM    5  C14 UNL     1      25.150  48.389  58.249  1.00  0.00     0.049 C 
HETATM    6  C15 UNL     1      22.888  47.372  58.004  1.00  0.00     0.007 A 
HETATM    7  C16 UNL     1      23.149  46.173  58.617  1.00  0.00     0.047 A 
HETATM    8  C17 UNL     1      21.931  45.481  58.575  1.00  0.00     0.051 A 
HETATM    9  C18 UNL     1      21.705  44.114  59.112  1.00  0.00     0.077 C 
HETATM   10  O2  UNL     1      21.050  46.232  57.989  1.00  0.00    -0.314 OA
HETATM   11  C19 UNL     1      21.576  47.399  57.613  1.00  0.00     0.100 A 
ENDROOT
BRANCH   1  12
HETATM   12  C6  UNL     1      19.616  48.541  56.461  1.00  0.00    -0.046 C 
BRANCH  12  13
HETATM   13  C5  UNL     1      18.624  48.732  57.516  1.00  0.00    -0.019 C 
BRANCH  13  14
HETATM   14  C4  UNL     1      17.198  48.623  57.575  1.00  0.00     0.027 C 
BRANCH  14  15
HETATM   15  C3  UNL     1      16.546  49.863  56.877  1.00  0.00     0.003 C 
BRANCH  15  16
HETATM   16  C2  UNL     1      16.136  49.627  55.471  1.00  0.00    -0.004 C 
HETATM   17  C1  UNL     1      15.295  48.317  55.427  1.00  0.00     0.005 C 
ENDBRANCH  15  16
ENDBRANCH  14  15
ENDBRANCH  13  14
ENDBRANCH  12  13
BRANCH  12  18
HETATM   18  C7  UNL     1      19.275  47.676  55.290  1.00  0.00     0.039 C 
BRANCH  18  19
HETATM   19  C8  UNL     1      18.563  46.398  55.500  1.00  0.00     0.000 C 
HETATM   20  C9  UNL     1      19.578  45.269  55.175  1.00  0.00     0.005 C 
ENDBRANCH  18  19
ENDBRANCH  12  18
ENDBRANCH   1  12
BRANCH   2  21
HETATM   21  O1  UNL     1      21.580  50.687  56.018  1.00  0.00    -0.360 OA
ATOM     22  H1  UNL     1      21.603  51.554  56.407  1.00  0.00     0.217 HD
ENDBRANCH   2  21
TORSDOF 8
ENDMDL
MODEL 3
REMARK VINA RESULT: -5.594883200      2.166      5.927
REMARK  8 active torsions:
REMARK  status: ('A' for Active; 'I' for Inactive)
REMARK    1  A    between atoms: C2_2  and  C3_3 
REMARK    2  A    between atoms: C3_3  and  C4_4 
REMARK    3  A    between atoms: C4_4  and  C5_5 
REMARK    4  A    between atoms: C5_5  and  C6_6 
REMARK    5  A    between atoms: C6_6  and  C7_7 
REMARK    6  A    between atoms: C6_6  and  C10_10 
REMARK    7  A    between atoms: C7_7  and  C8_8 
REMARK    8  A    between atoms: C11_11  and  O1_12 
ROOT
HETATM    1  C10 UNL     1      21.003  47.381  56.944  1.00  0.00     0.038 A 
HETATM    2  C11 UNL     1      20.692  46.667  58.121  1.00  0.00     0.079 A 
HETATM    3  C12 UNL     1      21.190  45.388  58.362  1.00  0.00     0.045 A 
HETATM    4  C13 UNL     1      22.001  44.777  57.479  1.00  0.00    -0.046 A 
HETATM    5  C14 UNL     1      22.501  43.390  57.673  1.00  0.00     0.049 C 
HETATM    6  C15 UNL     1      22.335  45.470  56.313  1.00  0.00     0.007 A 
HETATM    7  C16 UNL     1      23.162  45.095  55.285  1.00  0.00     0.047 A 
HETATM    8  C17 UNL     1      23.150  46.185  54.404  1.00  0.00     0.051 A 
HETATM    9  C18 UNL     1      23.911  46.263  53.130  1.00  0.00     0.077 C 
HETATM   10  O2  UNL     1      22.374  47.102  54.893  1.00  0.00    -0.314 OA
HETATM   11  C19 UNL     1      21.850  46.726  56.060  1.00  0.00     0.100 A 
ENDROOT
BRANCH   1  12
HETATM   12  C6  UNL     1      20.480  48.762  56.731  1.00  0.00    -0.046 C 
BRANCH  12  13
HETATM   13  C5  UNL     1      19.322  48.844  55.845  1.00  0.00    -0.019 C 
BRANCH  13  14
HETATM   14  C4  UNL     1      18.626  47.900  55.024  1.00  0.00     0.027 C 
BRANCH  14  15
HETATM   15  C3  UNL     1      17.101  47.916  55.378  1.00  0.00     0.003 C 
BRANCH  15  16
HETATM   16  C2  UNL     1      16.420  49.200  55.084  1.00  0.00    -0.004 C 
HETATM   17  C1  UNL     1      14.905  49.027  55.404  1.00  0.00     0.005 C 
ENDBRANCH  15  16
ENDBRANCH  14  15
ENDBRANCH  13  14
ENDBRANCH  12  13
BRANCH  12  18
HETATM   18  C7  UNL     1      21.495  49.860  56.704  1.00  0.00     0.039 C 
BRANCH  18  19
HETATM   19  C8  UNL     1      22.437  50.021  57.831  1.00  0.00     0.000 C 
HETATM   20  C9  UNL     1      23.812  49.497  57.335  1.00  0.00     0.005 C 
ENDBRANCH  18  19
ENDBRANCH  12  18
ENDBRANCH   1  12
BRANCH   2  21
HETATM   21  O1  UNL     1      19.887  47.143  59.115  1.00  0.00    -0.360 OA
ATOM     22  H1  UNL     1      18.946  47.254  59.033  1.00  0.00     0.217 HD
ENDBRANCH   2  21
TORSDOF 8
ENDMDL
MODEL 4
REMARK VINA RESULT: -5.583847275      1.931      5.248
REMARK  8 active torsions:
REMARK  status: ('A' for Active; 'I' for Inactive)
REMARK    1  A    between atoms: C2_2  and  C3_3 
REMARK    2  A    between atoms: C3_3  and  C4_4 
REMARK    3  A    between atoms: C4_4  and  C5_5 
REMARK    4  A    between atoms: C5_5  and  C6_6 
REMARK    5  A    between atoms: C6_6  and  C7_7 
REMARK    6  A    between atoms: C6_6  and  C10_10 
REMARK    7  A    between atoms: C7_7  and  C8_8 
REMARK    8  A    between atoms: C11_11  and  O1_12 
ROOT
HETATM    1  C10 UNL     1      20.266  47.635  55.924  1.00  0.00     0.038 A 
HETATM    2  C11 UNL     1      20.175  48.620  56.930  1.00  0.00     0.079 A 
HETATM    3  C12 UNL     1      21.304  49.253  57.448  1.00  0.00     0.045 A 
HETATM    4  C13 UNL     1      22.538  48.955  57.001  1.00  0.00    -0.046 A 
HETATM    5  C14 UNL     1      23.769  49.565  57.572  1.00  0.00     0.049 C 
HETATM    6  C15 UNL     1      22.652  47.993  55.994  1.00  0.00     0.007 A 
HETATM    7  C16 UNL     1      23.773  47.542  55.346  1.00  0.00     0.047 A 
HETATM    8  C17 UNL     1      23.294  46.607  54.417  1.00  0.00     0.051 A 
HETATM    9  C18 UNL     1      24.137  45.843  53.462  1.00  0.00     0.077 C 
HETATM   10  O2  UNL     1      22.004  46.533  54.535  1.00  0.00    -0.314 OA
HETATM   11  C19 UNL     1      21.552  47.360  55.479  1.00  0.00     0.100 A 
ENDROOT
BRANCH   1  12
HETATM   12  C6  UNL     1      19.036  47.000  55.368  1.00  0.00    -0.046 C 
BRANCH  12  13
HETATM   13  C5  UNL     1      18.033  47.942  54.878  1.00  0.00    -0.019 C 
BRANCH  13  14
HETATM   14  C4  UNL     1      16.676  48.228  55.234  1.00  0.00     0.027 C 
BRANCH  14  15
HETATM   15  C3  UNL     1      16.440  49.776  55.210  1.00  0.00     0.003 C 
BRANCH  15  16
HETATM   16  C2  UNL     1      15.365  50.243  56.118  1.00  0.00    -0.004 C 
HETATM   17  C1  UNL     1      14.085  49.407  55.821  1.00  0.00     0.005 C 
ENDBRANCH  15  16
ENDBRANCH  14  15
ENDBRANCH  13  14
ENDBRANCH  12  13
BRANCH  12  18
HETATM   18  C7  UNL     1      18.585  45.736  56.027  1.00  0.00     0.039 C 
BRANCH  18  19
HETATM   19  C8  UNL     1      18.607  44.463  55.276  1.00  0.00     0.000 C 
HETATM   20  C9  UNL     1      19.916  43.733  55.683  1.00  0.00     0.005 C 
ENDBRANCH  18  19
ENDBRANCH  12  18
ENDBRANCH   1  12
BRANCH   2  21
HETATM   21  O1  UNL     1      19.002  49.038  57.490  1.00  0.00    -0.360 OA
ATOM     22  H1  UNL     1      18.216  49.237  56.994  1.00  0.00     0.217 HD
ENDBRANCH   2  21
TORSDOF 8
ENDMDL
MODEL 5
REMARK VINA RESULT: -5.582225244      1.854      5.813
REMARK  8 active torsions:
REMARK  status: ('A' for Active; 'I' for Inactive)
REMARK    1  A    between atoms: C2_2  and  C3_3 
REMARK    2  A    between atoms: C3_3  and  C4_4 
REMARK    3  A    between atoms: C4_4  and  C5_5 
REMARK    4  A    between atoms: C5_5  and  C6_6 
REMARK    5  A    between atoms: C6_6  and  C7_7 
REMARK    6  A    between atoms: C6_6  and  C10_10 
REMARK    7  A    between atoms: C7_7  and  C8_8 
REMARK    8  A    between atoms: C11_11  and  O1_12 
ROOT
HETATM    1  C10 UNL     1      20.312  46.229  55.113  1.00  0.00     0.038 A 
HETATM    2  C11 UNL     1      19.498  45.078  55.170  1.00  0.00     0.079 A 
HETATM    3  C12 UNL     1      19.988  43.811  54.861  1.00  0.00     0.045 A 
HETATM    4  C13 UNL     1      21.271  43.628  54.498  1.00  0.00    -0.046 A 
HETATM    5  C14 UNL     1      21.813  42.301  54.101  1.00  0.00     0.049 C 
HETATM    6  C15 UNL     1      22.101  44.751  54.448  1.00  0.00     0.007 A 
HETATM    7  C16 UNL     1      23.437  44.833  54.150  1.00  0.00     0.047 A 
HETATM    8  C17 UNL     1      23.748  46.193  54.283  1.00  0.00     0.051 A 
HETATM    9  C18 UNL     1      25.093  46.787  54.071  1.00  0.00     0.077 C 
HETATM   10  O2  UNL     1      22.671  46.831  54.624  1.00  0.00    -0.314 OA
HETATM   11  C19 UNL     1      21.631  46.004  54.746  1.00  0.00     0.100 A 
ENDROOT
BRANCH   1  12
HETATM   12  C6  UNL     1      19.765  47.567  55.482  1.00  0.00    -0.046 C 
BRANCH  12  13
HETATM   13  C5  UNL     1      20.022  47.970  56.863  1.00  0.00    -0.019 C 
BRANCH  13  14
HETATM   14  C4  UNL     1      21.034  48.758  57.499  1.00  0.00     0.027 C 
BRANCH  14  15
HETATM   15  C3  UNL     1      21.488  49.908  56.538  1.00  0.00     0.003 C 
BRANCH  15  16
HETATM   16  C2  UNL     1      22.942  49.922  56.248  1.00  0.00    -0.004 C 
HETATM   17  C1  UNL     1      23.680  49.256  57.447  1.00  0.00     0.005 C 
ENDBRANCH  15  16
ENDBRANCH  14  15
ENDBRANCH  13  14
ENDBRANCH  12  13
BRANCH  12  18
HETATM   18  C7  UNL     1      18.472  47.956  54.841  1.00  0.00     0.039 C 
BRANCH  18  19
HETATM   19  C8  UNL     1      17.548  48.874  55.540  1.00  0.00     0.000 C 
HETATM   20  C9  UNL     1      16.143  48.215  55.482  1.00  0.00     0.005 C 
ENDBRANCH  18  19
ENDBRANCH  12  18
ENDBRANCH   1  12
BRANCH   2  21
HETATM   21  O1  UNL     1      18.179  45.089  55.521  1.00  0.00    -0.360 OA
ATOM     22  H1  UNL     1      17.852  45.390  56.361  1.00  0.00     0.217 HD
ENDBRANCH   2  21
TORSDOF 8
ENDMDL
