MODEL 1
REMARK VINA RESULT: -4.951808271      0.000      0.000
REMARK  1 active torsions:
REMARK  status: ('A' for Active; 'I' for Inactive)
REMARK    1  A    between atoms: C1_2  and  C2_3 
ROOT
HETATM    1  C2  UNL     1      12.555  51.291  55.724  1.00  0.00     0.052 C 
HETATM    2 CL2  UNL     1      10.972  50.690  55.245  1.00  0.00    -0.086 Cl
HETATM    3  C3  UNL     1      13.600  50.513  55.841  1.00  0.00     0.074 C 
HETATM    4  N1  UNL     1      13.691  49.110  55.626  1.00  0.00    -0.346 N 
ATOM      5  H1  UNL     1      12.900  48.471  55.552  1.00  0.00     0.167 HD
HETATM    6  C4  UNL     1      14.934  48.774  55.539  1.00  0.00     0.229 C 
HETATM    7  O1  UNL     1      15.755  49.875  55.682  1.00  0.00    -0.320 OA
HETATM    8  C5  UNL     1      14.969  50.911  56.233  1.00  0.00     0.276 C 
HETATM    9 CL3  UNL     1      15.153  50.826  58.013  1.00  0.00    -0.088 Cl
ENDROOT
BRANCH   1  10
HETATM   10  C1  UNL     1      12.622  52.776  55.992  1.00  0.00     0.168 C 
HETATM   11 CL1  UNL     1      11.783  53.216  56.294  1.00  0.00    -0.125 Cl
ENDBRANCH   1  10
TORSDOF 1
ENDMDL
MODEL 2
REMARK VINA RESULT: -4.731822089      1.834      2.443
REMARK  1 active torsions:
REMARK  status: ('A' for Active; 'I' for Inactive)
REMARK    1  A    between atoms: C1_2  and  C2_3 
ROOT
HETATM    1  C2  UNL     1      12.888  51.360  55.906  1.00  0.00     0.052 C 
HETATM    2 CL2  UNL     1      12.665  53.106  55.942  1.00  0.00    -0.086 Cl
HETATM    3  C3  UNL     1      13.968  50.777  56.358  1.00  0.00     0.074 C 
HETATM    4  N1  UNL     1      15.123  51.373  56.937  1.00  0.00    -0.346 N 
ATOM      5  H1  UNL     1      15.364  52.363  56.889  1.00  0.00     0.167 HD
HETATM    6  C4  UNL     1      15.818  50.463  57.530  1.00  0.00     0.229 C 
HETATM    7  O1  UNL     1      15.218  49.224  57.409  1.00  0.00    -0.320 OA
HETATM    8  C5  UNL     1      14.257  49.328  56.379  1.00  0.00     0.276 C 
HETATM    9 CL3  UNL     1      15.060  48.835  54.856  1.00  0.00    -0.088 Cl
ENDROOT
BRANCH   1  10
HETATM   10  C1  UNL     1      11.738  50.580  55.315  1.00  0.00     0.168 C 
HETATM   11 CL1  UNL     1      10.872  51.059  55.220  1.00  0.00    -0.125 Cl
ENDBRANCH   1  10
TORSDOF 1
ENDMDL
MODEL 3
REMARK VINA RESULT: -4.026748455      3.062      5.204
REMARK  1 active torsions:
REMARK  status: ('A' for Active; 'I' for Inactive)
REMARK    1  A    between atoms: C1_2  and  C2_3 
ROOT
HETATM    1  C2  UNL     1      17.439  48.808  56.354  1.00  0.00     0.052 C 
HETATM    2 CL2  UNL     1      18.830  48.957  57.421  1.00  0.00    -0.086 Cl
HETATM    3  C3  UNL     1      16.342  49.501  56.523  1.00  0.00     0.074 C 
HETATM    4  N1  UNL     1      16.043  50.458  57.532  1.00  0.00    -0.346 N 
ATOM      5  H1  UNL     1      16.568  50.588  58.397  1.00  0.00     0.167 HD
HETATM    6  C4  UNL     1      15.003  51.134  57.181  1.00  0.00     0.229 C 
HETATM    7  O1  UNL     1      14.528  50.710  55.954  1.00  0.00    -0.320 OA
HETATM    8  C5  UNL     1      15.121  49.456  55.691  1.00  0.00     0.276 C 
HETATM    9 CL3  UNL     1      13.999  48.201  56.304  1.00  0.00    -0.088 Cl
ENDROOT
BRANCH   1  10
HETATM   10  C1  UNL     1      17.602  47.821  55.222  1.00  0.00     0.168 C 
HETATM   11 CL1  UNL     1      18.493  47.782  54.786  1.00  0.00    -0.125 Cl
ENDBRANCH   1  10
TORSDOF 1
ENDMDL
MODEL 4
REMARK VINA RESULT: -4.019894309      3.307      5.229
REMARK  1 active torsions:
REMARK  status: ('A' for Active; 'I' for Inactive)
REMARK    1  A    between atoms: C1_2  and  C2_3 
ROOT
HETATM    1  C2  UNL     1      17.873  48.372  56.239  1.00  0.00     0.052 C 
HETATM    2 CL2  UNL     1      18.582  47.741  54.757  1.00  0.00    -0.086 Cl
HETATM    3  C3  UNL     1      16.586  48.561  56.382  1.00  0.00     0.074 C 
HETATM    4  N1  UNL     1      15.544  48.321  55.443  1.00  0.00    -0.346 N 
ATOM      5  H1  UNL     1      15.674  48.163  54.444  1.00  0.00     0.167 HD
HETATM    6  C4  UNL     1      14.410  48.336  56.056  1.00  0.00     0.229 C 
HETATM    7  O1  UNL     1      14.579  48.577  57.406  1.00  0.00    -0.320 OA
HETATM    8  C5  UNL     1      15.888  49.081  57.576  1.00  0.00     0.276 C 
HETATM    9 CL3  UNL     1      15.781  50.868  57.502  1.00  0.00    -0.088 Cl
ENDROOT
BRANCH   1  10
HETATM   10  C1  UNL     1      18.859  48.680  57.341  1.00  0.00     0.168 C 
HETATM   11 CL1  UNL     1      19.746  49.032  57.063  1.00  0.00    -0.125 Cl
ENDBRANCH   1  10
TORSDOF 1
ENDMDL
MODEL 5
REMARK VINA RESULT: -4.002455696      3.025      3.710
REMARK  1 active torsions:
REMARK  status: ('A' for Active; 'I' for Inactive)
REMARK    1  A    between atoms: C1_2  and  C2_3 
ROOT
HETATM    1  C2  UNL     1      15.496  49.388  56.504  1.00  0.00     0.052 C 
HETATM    2 CL2  UNL     1      14.107  49.148  55.450  1.00  0.00    -0.086 Cl
HETATM    3  C3  UNL     1      16.658  48.830  56.279  1.00  0.00     0.074 C 
HETATM    4  N1  UNL     1      17.037  47.967  55.214  1.00  0.00    -0.346 N 
ATOM      5  H1  UNL     1      16.393  47.488  54.583  1.00  0.00     0.167 HD
HETATM    6  C4  UNL     1      18.323  47.885  55.172  1.00  0.00     0.229 C 
HETATM    7  O1  UNL     1      18.901  48.654  56.164  1.00  0.00    -0.320 OA
HETATM    8  C5  UNL     1      17.883  48.964  57.094  1.00  0.00     0.276 C 
HETATM    9 CL3  UNL     1      17.925  47.701  58.363  1.00  0.00    -0.088 Cl
ENDROOT
BRANCH   1  10
HETATM   10  C1  UNL     1      15.250  50.287  57.692  1.00  0.00     0.168 C 
HETATM   11 CL1  UNL     1      15.182  51.262  57.511  1.00  0.00    -0.125 Cl
ENDBRANCH   1  10
TORSDOF 1
ENDMDL
