MODEL 1
REMARK VINA RESULT: -6.989093121      0.000      0.000
REMARK  9 active torsions:
REMARK  status: ('A' for Active; 'I' for Inactive)
REMARK    1  A    between atoms: C2_2  and  C3_3 
REMARK    2  A    between atoms: C3_3  and  C6_6 
REMARK    3  A    between atoms: C6_6  and  C7_7 
REMARK    4  A    between atoms: C7_7  and  C8_8 
REMARK    5  A    between atoms: C8_8  and  O1_9 
REMARK    6  A    between atoms: C8_8  and  C9_11 
REMARK    7  A    between atoms: C9_11  and  O2_12 
REMARK    8  A    between atoms: O2_12  and  C10_13 
REMARK    9  A    between atoms: C16_19  and  C17_20 
ROOT
HETATM    1  C9  UNL     1      12.882  50.139  55.178  1.00  0.00     0.207 C 
ENDROOT
BRANCH   1   2
HETATM    2  C8  UNL     1      12.391  51.358  55.873  1.00  0.00     0.142 C 
BRANCH   2   3
HETATM    3  C7  UNL     1      11.284  51.992  55.008  1.00  0.00     0.038 C 
BRANCH   3   4
HETATM    4  C6  UNL     1      10.199  50.978  54.826  1.00  0.00     0.041 C 
BRANCH   4   5
HETATM    5  C3  UNL     1       9.301  51.240  53.697  1.00  0.00    -0.063 C 
HETATM    6  C4  UNL     1       8.557  52.355  53.696  1.00  0.00    -0.024 C 
HETATM    7  C5  UNL     1       7.638  52.627  52.591  1.00  0.00     0.036 C 
BRANCH   5   8
HETATM    8  C2  UNL     1       9.160  50.340  52.589  1.00  0.00    -0.004 C 
HETATM    9  C1  UNL     1      10.159  49.875  51.891  1.00  0.00     0.012 C 
ENDBRANCH   5   8
ENDBRANCH   4   5
ENDBRANCH   3   4
ENDBRANCH   2   3
BRANCH   2  10
HETATM   10  O1  UNL     1      13.475  52.282  55.879  1.00  0.00    -0.393 OA
ATOM     11  H1  UNL     1      13.241  52.965  56.496  1.00  0.00     0.210 HD
ENDBRANCH   2  10
ENDBRANCH   1   2
BRANCH   1  12
HETATM   12  O2  UNL     1      13.729  49.306  55.873  1.00  0.00    -0.348 OA
BRANCH  12  13
HETATM   13  C10 UNL     1      15.079  49.163  55.903  1.00  0.00     0.075 A 
HETATM   14  C11 UNL     1      15.835  48.847  54.795  1.00  0.00     0.038 A 
HETATM   15  C12 UNL     1      17.192  48.727  54.936  1.00  0.00     0.009 A 
HETATM   16  C13 UNL     1      17.812  48.916  56.147  1.00  0.00    -0.061 A 
HETATM   17  C14 UNL     1      19.272  48.780  56.262  1.00  0.00     0.048 C 
HETATM   18  C15 UNL     1      17.031  49.233  57.241  1.00  0.00     0.017 A 
HETATM   19  C16 UNL     1      15.668  49.365  57.160  1.00  0.00    -0.021 A 
BRANCH  19  20
HETATM   20  C17 UNL     1      14.841  49.707  58.346  1.00  0.00     0.013 C 
HETATM   21  C18 UNL     1      15.056  51.145  58.768  1.00  0.00     0.015 C 
HETATM   22  C19 UNL     1      15.058  48.758  59.489  1.00  0.00     0.015 C 
ENDBRANCH  19  20
ENDBRANCH  12  13
ENDBRANCH   1  12
TORSDOF 9
ENDMDL
MODEL 2
REMARK VINA RESULT: -6.943402712      2.207      8.127
REMARK  9 active torsions:
REMARK  status: ('A' for Active; 'I' for Inactive)
REMARK    1  A    between atoms: C2_2  and  C3_3 
REMARK    2  A    between atoms: C3_3  and  C6_6 
REMARK    3  A    between atoms: C6_6  and  C7_7 
REMARK    4  A    between atoms: C7_7  and  C8_8 
REMARK    5  A    between atoms: C8_8  and  O1_9 
REMARK    6  A    between atoms: C8_8  and  C9_11 
REMARK    7  A    between atoms: C9_11  and  O2_12 
REMARK    8  A    between atoms: O2_12  and  C10_13 
REMARK    9  A    between atoms: C16_19  and  C17_20 
ROOT
HETATM    1  C9  UNL     1      16.137  48.498  55.408  1.00  0.00     0.207 C 
ENDROOT
BRANCH   1   2
HETATM    2  C8  UNL     1      17.255  47.821  56.116  1.00  0.00     0.142 C 
BRANCH   2   3
HETATM    3  C7  UNL     1      18.154  48.905  56.742  1.00  0.00     0.038 C 
BRANCH   3   4
HETATM    4  C6  UNL     1      19.474  48.879  56.037  1.00  0.00     0.041 C 
BRANCH   4   5
HETATM    5  C3  UNL     1      20.642  48.940  56.922  1.00  0.00    -0.063 C 
HETATM    6  C4  UNL     1      21.546  49.915  56.745  1.00  0.00    -0.024 C 
HETATM    7  C5  UNL     1      22.730  49.984  57.602  1.00  0.00     0.036 C 
BRANCH   5   8
HETATM    8  C2  UNL     1      20.880  47.985  57.965  1.00  0.00    -0.004 C 
HETATM    9  C1  UNL     1      20.878  46.693  57.789  1.00  0.00     0.012 C 
ENDBRANCH   5   8
ENDBRANCH   4   5
ENDBRANCH   3   4
ENDBRANCH   2   3
BRANCH   2  10
HETATM   10  O1  UNL     1      18.038  47.180  55.114  1.00  0.00    -0.393 OA
ATOM     11  H1  UNL     1      17.434  46.674  54.585  1.00  0.00     0.210 HD
ENDBRANCH   2  10
ENDBRANCH   1   2
BRANCH   1  12
HETATM   12  O2  UNL     1      15.042  48.869  56.154  1.00  0.00    -0.348 OA
BRANCH  12  13
HETATM   13  C10 UNL     1      14.034  49.757  55.952  1.00  0.00     0.075 A 
HETATM   14  C11 UNL     1      12.944  49.500  55.149  1.00  0.00     0.038 A 
HETATM   15  C12 UNL     1      11.983  50.466  55.014  1.00  0.00     0.009 A 
HETATM   16  C13 UNL     1      12.079  51.675  55.658  1.00  0.00    -0.061 A 
HETATM   17  C14 UNL     1      11.028  52.690  55.491  1.00  0.00     0.048 C 
HETATM   18  C15 UNL     1      13.181  51.907  56.457  1.00  0.00     0.017 A 
HETATM   19  C16 UNL     1      14.175  50.977  56.629  1.00  0.00    -0.021 A 
BRANCH  19  20
HETATM   20  C17 UNL     1      15.356  51.241  57.492  1.00  0.00     0.013 C 
HETATM   21  C18 UNL     1      15.057  50.916  58.941  1.00  0.00     0.015 C 
HETATM   22  C19 UNL     1      15.879  52.639  57.337  1.00  0.00     0.015 C 
ENDBRANCH  19  20
ENDBRANCH  12  13
ENDBRANCH   1  12
TORSDOF 9
ENDMDL
MODEL 3
REMARK VINA RESULT: -6.934888466      2.436      4.818
REMARK  9 active torsions:
REMARK  status: ('A' for Active; 'I' for Inactive)
REMARK    1  A    between atoms: C2_2  and  C3_3 
REMARK    2  A    between atoms: C3_3  and  C6_6 
REMARK    3  A    between atoms: C6_6  and  C7_7 
REMARK    4  A    between atoms: C7_7  and  C8_8 
REMARK    5  A    between atoms: C8_8  and  O1_9 
REMARK    6  A    between atoms: C8_8  and  C9_11 
REMARK    7  A    between atoms: C9_11  and  O2_12 
REMARK    8  A    between atoms: O2_12  and  C10_13 
REMARK    9  A    between atoms: C16_19  and  C17_20 
ROOT
HETATM    1  C9  UNL     1      17.097  49.162  56.915  1.00  0.00     0.207 C 
ENDROOT
BRANCH   1   2
HETATM    2  C8  UNL     1      16.310  49.813  55.835  1.00  0.00     0.142 C 
BRANCH   2   3
HETATM    3  C7  UNL     1      15.102  50.521  56.481  1.00  0.00     0.038 C 
BRANCH   3   4
HETATM    4  C6  UNL     1      13.861  50.043  55.794  1.00  0.00     0.041 C 
BRANCH   4   5
HETATM    5  C3  UNL     1      12.781  51.031  55.723  1.00  0.00    -0.063 C 
HETATM    6  C4  UNL     1      12.960  52.237  56.283  1.00  0.00    -0.024 C 
HETATM    7  C5  UNL     1      11.888  53.233  56.243  1.00  0.00     0.036 C 
BRANCH   5   8
HETATM    8  C2  UNL     1      11.520  50.763  55.096  1.00  0.00    -0.004 C 
HETATM    9  C1  UNL     1      11.331  50.749  53.806  1.00  0.00     0.012 C 
ENDBRANCH   5   8
ENDBRANCH   4   5
ENDBRANCH   3   4
ENDBRANCH   2   3
BRANCH   2  10
HETATM   10  O1  UNL     1      15.778  48.762  55.035  1.00  0.00    -0.393 OA
ATOM     11  H1  UNL     1      16.517  48.362  54.593  1.00  0.00     0.210 HD
ENDBRANCH   2  10
ENDBRANCH   1   2
BRANCH   1  12
HETATM   12  O2  UNL     1      18.451  49.017  56.719  1.00  0.00    -0.348 OA
BRANCH  12  13
HETATM   13  C10 UNL     1      19.210  48.061  56.123  1.00  0.00     0.075 A 
HETATM   14  C11 UNL     1      18.684  47.015  55.399  1.00  0.00     0.038 A 
HETATM   15  C12 UNL     1      19.540  46.105  54.838  1.00  0.00     0.009 A 
HETATM   16  C13 UNL     1      20.902  46.213  54.979  1.00  0.00    -0.061 A 
HETATM   17  C14 UNL     1      21.793  45.218  54.363  1.00  0.00     0.048 C 
HETATM   18  C15 UNL     1      21.404  47.271  55.710  1.00  0.00     0.017 A 
HETATM   19  C16 UNL     1      20.594  48.213  56.295  1.00  0.00    -0.021 A 
BRANCH  19  20
HETATM   20  C17 UNL     1      21.149  49.347  57.078  1.00  0.00     0.013 C 
HETATM   21  C18 UNL     1      21.917  50.303  56.190  1.00  0.00     0.015 C 
HETATM   22  C19 UNL     1      21.978  48.888  58.242  1.00  0.00     0.015 C 
ENDBRANCH  19  20
ENDBRANCH  12  13
ENDBRANCH   1  12
TORSDOF 9
ENDMDL
MODEL 4
REMARK VINA RESULT: -6.846980066      2.402      4.763
REMARK  9 active torsions:
REMARK  status: ('A' for Active; 'I' for Inactive)
REMARK    1  A    between atoms: C2_2  and  C3_3 
REMARK    2  A    between atoms: C3_3  and  C6_6 
REMARK    3  A    between atoms: C6_6  and  C7_7 
REMARK    4  A    between atoms: C7_7  and  C8_8 
REMARK    5  A    between atoms: C8_8  and  O1_9 
REMARK    6  A    between atoms: C8_8  and  C9_11 
REMARK    7  A    between atoms: C9_11  and  O2_12 
REMARK    8  A    between atoms: O2_12  and  C10_13 
REMARK    9  A    between atoms: C16_19  and  C17_20 
ROOT
HETATM    1  C9  UNL     1      16.373  48.061  55.508  1.00  0.00     0.207 C 
ENDROOT
BRANCH   1   2
HETATM    2  C8  UNL     1      15.240  48.469  56.381  1.00  0.00     0.142 C 
BRANCH   2   3
HETATM    3  C7  UNL     1      14.691  49.811  55.860  1.00  0.00     0.038 C 
BRANCH   3   4
HETATM    4  C6  UNL     1      13.253  49.614  55.493  1.00  0.00     0.041 C 
BRANCH   4   5
HETATM    5  C3  UNL     1      12.438  50.832  55.537  1.00  0.00    -0.063 C 
HETATM    6  C4  UNL     1      12.918  51.919  56.158  1.00  0.00    -0.024 C 
HETATM    7  C5  UNL     1      12.113  53.139  56.234  1.00  0.00     0.036 C 
BRANCH   5   8
HETATM    8  C2  UNL     1      11.127  50.912  54.961  1.00  0.00    -0.004 C 
HETATM    9  C1  UNL     1      10.889  50.924  53.679  1.00  0.00     0.012 C 
ENDBRANCH   5   8
ENDBRANCH   4   5
ENDBRANCH   3   4
ENDBRANCH   2   3
BRANCH   2  10
HETATM   10  O1  UNL     1      15.796  48.734  57.665  1.00  0.00    -0.393 OA
ATOM     11  H1  UNL     1      15.201  49.337  58.094  1.00  0.00     0.210 HD
ENDBRANCH   2  10
ENDBRANCH   1   2
BRANCH   1  12
HETATM   12  O2  UNL     1      17.454  47.457  56.107  1.00  0.00    -0.348 OA
BRANCH  12  13
HETATM   13  C10 UNL     1      18.779  47.754  56.158  1.00  0.00     0.075 A 
HETATM   14  C11 UNL     1      19.265  49.027  56.361  1.00  0.00     0.038 A 
HETATM   15  C12 UNL     1      20.621  49.216  56.394  1.00  0.00     0.009 A 
HETATM   16  C13 UNL     1      21.500  48.174  56.233  1.00  0.00    -0.061 A 
HETATM   17  C14 UNL     1      22.951  48.412  56.275  1.00  0.00     0.048 C 
HETATM   18  C15 UNL     1      20.986  46.908  56.031  1.00  0.00     0.017 A 
HETATM   19  C16 UNL     1      19.637  46.658  55.987  1.00  0.00    -0.021 A 
BRANCH  19  20
HETATM   20  C17 UNL     1      19.099  45.291  55.769  1.00  0.00     0.013 C 
HETATM   21  C18 UNL     1      18.979  44.535  57.076  1.00  0.00     0.015 C 
HETATM   22  C19 UNL     1      19.891  44.518  54.756  1.00  0.00     0.015 C 
ENDBRANCH  19  20
ENDBRANCH  12  13
ENDBRANCH   1  12
TORSDOF 9
ENDMDL
MODEL 5
REMARK VINA RESULT: -6.809944403      2.680      5.777
REMARK  9 active torsions:
REMARK  status: ('A' for Active; 'I' for Inactive)
REMARK    1  A    between atoms: C2_2  and  C3_3 
REMARK    2  A    between atoms: C3_3  and  C6_6 
REMARK    3  A    between atoms: C6_6  and  C7_7 
REMARK    4  A    between atoms: C7_7  and  C8_8 
REMARK    5  A    between atoms: C8_8  and  O1_9 
REMARK    6  A    between atoms: C8_8  and  C9_11 
REMARK    7  A    between atoms: C9_11  and  O2_12 
REMARK    8  A    between atoms: O2_12  and  C10_13 
REMARK    9  A    between atoms: C16_19  and  C17_20 
ROOT
HETATM    1  C9  UNL     1      17.512  48.059  55.058  1.00  0.00     0.207 C 
ENDROOT
BRANCH   1   2
HETATM    2  C8  UNL     1      16.194  48.024  55.745  1.00  0.00     0.142 C 
BRANCH   2   3
HETATM    3  C7  UNL     1      15.253  49.013  55.031  1.00  0.00     0.038 C 
BRANCH   3   4
HETATM    4  C6  UNL     1      13.977  49.085  55.809  1.00  0.00     0.041 C 
BRANCH   4   5
HETATM    5  C3  UNL     1      13.358  50.414  55.847  1.00  0.00    -0.063 C 
HETATM    6  C4  UNL     1      12.105  50.565  55.395  1.00  0.00    -0.024 C 
HETATM    7  C5  UNL     1      11.474  51.886  55.403  1.00  0.00     0.036 C 
BRANCH   5   8
HETATM    8  C2  UNL     1      14.042  51.578  56.330  1.00  0.00    -0.004 C 
HETATM    9  C1  UNL     1      14.885  51.573  57.326  1.00  0.00     0.012 C 
ENDBRANCH   5   8
ENDBRANCH   4   5
ENDBRANCH   3   4
ENDBRANCH   2   3
BRANCH   2  10
HETATM   10  O1  UNL     1      16.407  48.546  57.053  1.00  0.00    -0.393 OA
ATOM     11  H1  UNL     1      16.921  47.898  57.520  1.00  0.00     0.210 HD
ENDBRANCH   2  10
ENDBRANCH   1   2
BRANCH   1  12
HETATM   12  O2  UNL     1      18.596  47.544  55.731  1.00  0.00    -0.348 OA
BRANCH  12  13
HETATM   13  C10 UNL     1      19.824  48.037  56.038  1.00  0.00     0.075 A 
HETATM   14  C11 UNL     1      20.021  49.247  56.666  1.00  0.00     0.038 A 
HETATM   15  C12 UNL     1      21.303  49.650  56.930  1.00  0.00     0.009 A 
HETATM   16  C13 UNL     1      22.388  48.881  56.586  1.00  0.00    -0.061 A 
HETATM   17  C14 UNL     1      23.752  49.344  56.885  1.00  0.00     0.048 C 
HETATM   18  C15 UNL     1      22.162  47.672  55.958  1.00  0.00     0.017 A 
HETATM   19  C16 UNL     1      20.900  47.217  55.668  1.00  0.00    -0.021 A 
BRANCH  19  20
HETATM   20  C17 UNL     1      20.673  45.914  54.992  1.00  0.00     0.013 C 
HETATM   21  C18 UNL     1      20.709  44.769  55.982  1.00  0.00     0.015 C 
HETATM   22  C19 UNL     1      21.622  45.686  53.851  1.00  0.00     0.015 C 
ENDBRANCH  19  20
ENDBRANCH  12  13
ENDBRANCH   1  12
TORSDOF 9
ENDMDL
