MODEL 1
REMARK VINA RESULT: -4.678007761      0.000      0.000
REMARK  5 active torsions:
REMARK  status: ('A' for Active; 'I' for Inactive)
REMARK    1  A    between atoms: N1_1  and  N2_4 
REMARK    2  A    between atoms: C1_6  and  C2_7 
REMARK    3  A    between atoms: C1_6  and  C7_22 
REMARK    4  A    between atoms: C7_22  and  N7_23 
REMARK    5  A    between atoms: C7_22  and  C8_27 
ROOT
HETATM    1  C2  UNL     1      61.773 -42.960 -13.807  1.00  0.00     0.094 A 
HETATM    2  N3  UNL     1      62.521 -43.905 -13.133  1.00  0.00    -0.296 N 
ATOM      3  H3  UNL     1      63.236 -43.697 -12.436  1.00  0.00     0.187 HD
HETATM    4  N4  UNL     1      62.179 -45.103 -13.518  1.00  0.00    -0.284 N 
ATOM      5  H4  UNL     1      62.578 -45.977 -13.175  1.00  0.00     0.188 HD
HETATM    6  C3  UNL     1      61.212 -44.993 -14.443  1.00  0.00     0.142 A 
HETATM    7  N5  UNL     1      60.496 -45.873 -15.172  1.00  0.00    -0.292 N 
ATOM      8  H5  UNL     1      60.683 -46.866 -15.038  1.00  0.00     0.172 HD
HETATM    9  C4  UNL     1      59.551 -45.525 -16.064  1.00  0.00     0.328 A 
HETATM   10  O1  UNL     1      58.911 -46.389 -16.720  1.00  0.00    -0.247 OA
HETATM   11  N6  UNL     1      59.259 -44.231 -16.283  1.00  0.00    -0.275 N 
ATOM     12  H6  UNL     1      58.545 -43.950 -16.955  1.00  0.00     0.173 HD
HETATM   13  C5  UNL     1      59.961 -43.314 -15.566  1.00  0.00     0.265 A 
HETATM   14  O2  UNL     1      59.662 -42.121 -15.798  1.00  0.00    -0.267 OA
HETATM   15  C6  UNL     1      60.932 -43.647 -14.649  1.00  0.00     0.107 A 
ENDROOT
BRANCH   1  16
HETATM   16  C1  UNL     1      61.893 -41.532 -13.625  1.00  0.00     0.095 C 
HETATM   17  N2  UNL     1      62.336 -40.719 -14.466  1.00  0.00    -0.306 N 
ATOM     18  H2  UNL     1      62.638 -41.109 -15.359  1.00  0.00     0.186 HD
BRANCH  17  19
HETATM   19  N1  UNL     1      62.460 -39.354 -14.319  1.00  0.00    -0.345 N 
ATOM     20  H12 UNL     1      61.589 -38.854 -14.142  1.00  0.00     0.176 HD
ATOM     21  H11 UNL     1      63.318 -38.805 -14.369  1.00  0.00     0.176 HD
ENDBRANCH  17  19
BRANCH  16  22
HETATM   22  C7  UNL     1      61.440 -40.986 -12.295  1.00  0.00     0.336 C 
BRANCH  22  23
HETATM   23  N7  UNL     1      60.313 -41.720 -11.793  1.00  0.00    -0.059 N 
ATOM     24  H73 UNL     1      59.434 -41.238 -11.985  1.00  0.00     0.275 HD
ATOM     25  H72 UNL     1      60.145 -42.569 -12.335  1.00  0.00     0.275 HD
ATOM     26  H71 UNL     1      60.422 -41.924 -10.800  1.00  0.00     0.275 HD
ENDBRANCH  22  23
BRANCH  22  27
HETATM   27  C8  UNL     1      62.560 -40.977 -11.323  1.00  0.00     0.211 C 
HETATM   28  O3  UNL     1      63.416 -40.060 -11.276  1.00  0.00    -0.646 OA
HETATM   29  O4  UNL     1      62.705 -42.010 -10.407  1.00  0.00    -0.646 OA
ENDBRANCH  22  27
ENDBRANCH  16  22
ENDBRANCH   1  16
TORSDOF 5
ENDMDL
MODEL 2
REMARK VINA RESULT: -4.594464763      8.698     10.621
REMARK  5 active torsions:
REMARK  status: ('A' for Active; 'I' for Inactive)
REMARK    1  A    between atoms: N1_1  and  N2_4 
REMARK    2  A    between atoms: C1_6  and  C2_7 
REMARK    3  A    between atoms: C1_6  and  C7_22 
REMARK    4  A    between atoms: C7_22  and  N7_23 
REMARK    5  A    between atoms: C7_22  and  C8_27 
ROOT
HETATM    1  C2  UNL     1      59.287 -51.135  -9.998  1.00  0.00     0.094 A 
HETATM    2  N3  UNL     1      58.069 -50.909 -10.610  1.00  0.00    -0.296 N 
ATOM      3  H3  UNL     1      57.865 -50.131 -11.238  1.00  0.00     0.187 HD
HETATM    4  N4  UNL     1      57.218 -51.836 -10.268  1.00  0.00    -0.284 N 
ATOM      5  H4  UNL     1      56.249 -51.901 -10.581  1.00  0.00     0.188 HD
HETATM    6  C3  UNL     1      57.832 -52.689  -9.432  1.00  0.00     0.142 A 
HETATM    7  N5  UNL     1      57.456 -53.807  -8.778  1.00  0.00    -0.292 N 
ATOM      8  H5  UNL     1      56.498 -54.133  -8.903  1.00  0.00     0.172 HD
HETATM    9  C4  UNL     1      58.263 -54.520  -7.972  1.00  0.00     0.328 A 
HETATM   10  O1  UNL     1      57.860 -55.558  -7.383  1.00  0.00    -0.247 OA
HETATM   11  N6  UNL     1      59.538 -54.140  -7.769  1.00  0.00    -0.275 N 
ATOM     12  H6  UNL     1      60.163 -54.670  -7.162  1.00  0.00     0.173 HD
HETATM   13  C5  UNL     1      59.953 -53.018  -8.413  1.00  0.00     0.265 A 
HETATM   14  O2  UNL     1      61.143 -52.697  -8.198  1.00  0.00    -0.267 OA
HETATM   15  C6  UNL     1      59.145 -52.273  -9.242  1.00  0.00     0.107 A 
ENDROOT
BRANCH   1  16
HETATM   16  C1  UNL     1      60.455 -50.301 -10.157  1.00  0.00     0.095 C 
HETATM   17  N2  UNL     1      60.673 -49.221  -9.566  1.00  0.00    -0.306 N 
ATOM     18  H2  UNL     1      59.954 -48.907  -8.914  1.00  0.00     0.186 HD
BRANCH  17  19
HETATM   19  N1  UNL     1      61.778 -48.407  -9.697  1.00  0.00    -0.345 N 
ATOM     20  H12 UNL     1      61.634 -47.432  -9.435  1.00  0.00     0.176 HD
ATOM     21  H11 UNL     1      62.705 -48.676 -10.025  1.00  0.00     0.176 HD
ENDBRANCH  17  19
BRANCH  16  22
HETATM   22  C7  UNL     1      61.500 -50.790 -11.128  1.00  0.00     0.336 C 
BRANCH  22  23
HETATM   23  N7  UNL     1      61.564 -52.224 -11.138  1.00  0.00    -0.059 N 
ATOM     24  H73 UNL     1      62.438 -52.564 -10.736  1.00  0.00     0.275 HD
ATOM     25  H72 UNL     1      60.914 -52.634 -10.467  1.00  0.00     0.275 HD
ATOM     26  H71 UNL     1      61.414 -52.591 -12.078  1.00  0.00     0.275 HD
ENDBRANCH  22  23
BRANCH  22  27
HETATM   27  C8  UNL     1      61.248 -50.247 -12.486  1.00  0.00     0.211 C 
HETATM   28  O3  UNL     1      60.620 -49.179 -12.689  1.00  0.00    -0.646 OA
HETATM   29  O4  UNL     1      61.711 -50.919 -13.609  1.00  0.00    -0.646 OA
ENDBRANCH  22  27
ENDBRANCH  16  22
ENDBRANCH   1  16
TORSDOF 5
ENDMDL
MODEL 3
REMARK VINA RESULT: -4.402571920      2.621      4.136
REMARK  5 active torsions:
REMARK  status: ('A' for Active; 'I' for Inactive)
REMARK    1  A    between atoms: N1_1  and  N2_4 
REMARK    2  A    between atoms: C1_6  and  C2_7 
REMARK    3  A    between atoms: C1_6  and  C7_22 
REMARK    4  A    between atoms: C7_22  and  N7_23 
REMARK    5  A    between atoms: C7_22  and  C8_27 
ROOT
HETATM    1  C2  UNL     1      61.048 -43.630 -11.648  1.00  0.00     0.094 A 
HETATM    2  N3  UNL     1      60.875 -42.325 -11.228  1.00  0.00    -0.296 N 
ATOM      3  H3  UNL     1      60.992 -42.000 -10.269  1.00  0.00     0.187 HD
HETATM    4  N4  UNL     1      60.540 -41.571 -12.238  1.00  0.00    -0.284 N 
ATOM      5  H4  UNL     1      60.354 -40.569 -12.198  1.00  0.00     0.188 HD
HETATM    6  C3  UNL     1      60.481 -42.338 -13.340  1.00  0.00     0.142 A 
HETATM    7  N5  UNL     1      60.193 -42.107 -14.637  1.00  0.00    -0.292 N 
ATOM      8  H5  UNL     1      59.958 -41.153 -14.911  1.00  0.00     0.172 HD
HETATM    9  C4  UNL     1      60.196 -43.054 -15.592  1.00  0.00     0.328 A 
HETATM   10  O1  UNL     1      59.919 -42.784 -16.791  1.00  0.00    -0.247 OA
HETATM   11  N6  UNL     1      60.500 -44.329 -15.292  1.00  0.00    -0.275 N 
ATOM     12  H6  UNL     1      60.508 -45.059 -16.004  1.00  0.00     0.173 HD
HETATM   13  C5  UNL     1      60.796 -44.599 -13.993  1.00  0.00     0.265 A 
HETATM   14  O2  UNL     1      61.071 -45.796 -13.754  1.00  0.00    -0.267 OA
HETATM   15  C6  UNL     1      60.798 -43.647 -12.999  1.00  0.00     0.107 A 
ENDROOT
BRANCH   1  16
HETATM   16  C1  UNL     1      61.422 -44.729 -10.790  1.00  0.00     0.095 C 
HETATM   17  N2  UNL     1      60.707 -45.716 -10.506  1.00  0.00    -0.306 N 
ATOM     18  H2  UNL     1      59.777 -45.738 -10.924  1.00  0.00     0.186 HD
BRANCH  17  19
HETATM   19  N1  UNL     1      61.038 -46.777  -9.692  1.00  0.00    -0.345 N 
ATOM     20  H12 UNL     1      60.384 -46.965  -8.933  1.00  0.00     0.176 HD
ATOM     21  H11 UNL     1      61.856 -47.383  -9.770  1.00  0.00     0.176 HD
ENDBRANCH  17  19
BRANCH  16  22
HETATM   22  C7  UNL     1      62.802 -44.668 -10.185  1.00  0.00     0.336 C 
BRANCH  22  23
HETATM   23  N7  UNL     1      63.746 -44.111 -11.111  1.00  0.00    -0.059 N 
ATOM     24  H73 UNL     1      63.547 -44.399 -12.070  1.00  0.00     0.275 HD
ATOM     25  H72 UNL     1      63.617 -43.105 -11.221  1.00  0.00     0.275 HD
ATOM     26  H71 UNL     1      64.703 -44.340 -10.841  1.00  0.00     0.275 HD
ENDBRANCH  22  23
BRANCH  22  27
HETATM   27  C8  UNL     1      62.782 -43.912  -8.908  1.00  0.00     0.211 C 
HETATM   28  O3  UNL     1      63.598 -42.995  -8.645  1.00  0.00    -0.646 OA
HETATM   29  O4  UNL     1      61.836 -44.201  -7.935  1.00  0.00    -0.646 OA
ENDBRANCH  22  27
ENDBRANCH  16  22
ENDBRANCH   1  16
TORSDOF 5
ENDMDL
MODEL 4
REMARK VINA RESULT: -4.382004370      2.354      5.502
REMARK  5 active torsions:
REMARK  status: ('A' for Active; 'I' for Inactive)
REMARK    1  A    between atoms: N1_1  and  N2_4 
REMARK    2  A    between atoms: C1_6  and  C2_7 
REMARK    3  A    between atoms: C1_6  and  C7_22 
REMARK    4  A    between atoms: C7_22  and  N7_23 
REMARK    5  A    between atoms: C7_22  and  C8_27 
ROOT
HETATM    1  C2  UNL     1      60.385 -43.436 -14.400  1.00  0.00     0.094 A 
HETATM    2  N3  UNL     1      60.194 -42.070 -14.476  1.00  0.00    -0.296 N 
ATOM      3  H3  UNL     1      59.831 -41.574 -15.290  1.00  0.00     0.187 HD
HETATM    4  N4  UNL     1      60.547 -41.506 -13.354  1.00  0.00    -0.284 N 
ATOM      5  H4  UNL     1      60.505 -40.508 -13.149  1.00  0.00     0.188 HD
HETATM    6  C3  UNL     1      60.976 -42.463 -12.514  1.00  0.00     0.142 A 
HETATM    7  N5  UNL     1      61.449 -42.470 -11.251  1.00  0.00    -0.292 N 
ATOM      8  H5  UNL     1      61.523 -41.576 -10.766  1.00  0.00     0.172 HD
HETATM    9  C4  UNL     1      61.828 -43.579 -10.591  1.00  0.00     0.328 A 
HETATM   10  O1  UNL     1      62.263 -43.528  -9.410  1.00  0.00    -0.247 OA
HETATM   11  N6  UNL     1      61.750 -44.786 -11.179  1.00  0.00    -0.275 N 
ATOM     12  H6  UNL     1      62.033 -45.636 -10.692  1.00  0.00     0.173 HD
HETATM   13  C5  UNL     1      61.278 -44.818 -12.452  1.00  0.00     0.265 A 
HETATM   14  O2  UNL     1      61.222 -45.959 -12.965  1.00  0.00    -0.267 OA
HETATM   15  C6  UNL     1      60.885 -43.697 -13.147  1.00  0.00     0.107 A 
ENDROOT
BRANCH   1  16
HETATM   16  C1  UNL     1      60.097 -44.368 -15.465  1.00  0.00     0.095 C 
HETATM   17  N2  UNL     1      59.038 -45.018 -15.605  1.00  0.00    -0.306 N 
ATOM     18  H2  UNL     1      58.317 -44.870 -14.899  1.00  0.00     0.186 HD
BRANCH  17  19
HETATM   19  N1  UNL     1      58.737 -45.912 -16.611  1.00  0.00    -0.345 N 
ATOM     20  H12 UNL     1      59.538 -46.266 -17.133  1.00  0.00     0.176 HD
ATOM     21  H11 UNL     1      57.812 -46.248 -16.880  1.00  0.00     0.176 HD
ENDBRANCH  17  19
BRANCH  16  22
HETATM   22  C7  UNL     1      61.182 -44.567 -16.493  1.00  0.00     0.336 C 
BRANCH  22  23
HETATM   23  N7  UNL     1      61.946 -43.365 -16.675  1.00  0.00    -0.059 N 
ATOM     24  H73 UNL     1      62.948 -43.556 -16.696  1.00  0.00     0.275 HD
ATOM     25  H72 UNL     1      61.839 -42.992 -17.619  1.00  0.00     0.275 HD
ATOM     26  H71 UNL     1      61.709 -42.670 -15.967  1.00  0.00     0.275 HD
ENDBRANCH  22  23
BRANCH  22  27
HETATM   27  C8  UNL     1      62.050 -45.712 -16.125  1.00  0.00     0.211 C 
HETATM   28  O3  UNL     1      63.253 -45.578 -15.791  1.00  0.00    -0.646 OA
HETATM   29  O4  UNL     1      61.549 -47.006 -16.137  1.00  0.00    -0.646 OA
ENDBRANCH  22  27
ENDBRANCH  16  22
ENDBRANCH   1  16
TORSDOF 5
ENDMDL
MODEL 5
REMARK VINA RESULT: -4.266452398      2.227      5.335
REMARK  5 active torsions:
REMARK  status: ('A' for Active; 'I' for Inactive)
REMARK    1  A    between atoms: N1_1  and  N2_4 
REMARK    2  A    between atoms: C1_6  and  C2_7 
REMARK    3  A    between atoms: C1_6  and  C7_22 
REMARK    4  A    between atoms: C7_22  and  N7_23 
REMARK    5  A    between atoms: C7_22  and  C8_27 
ROOT
HETATM    1  C2  UNL     1      60.905 -43.793 -15.193  1.00  0.00     0.094 A 
HETATM    2  N3  UNL     1      61.810 -43.359 -16.143  1.00  0.00    -0.296 N 
ATOM      3  H3  UNL     1      62.010 -43.837 -17.022  1.00  0.00     0.187 HD
HETATM    4  N4  UNL     1      62.372 -42.249 -15.752  1.00  0.00    -0.284 N 
ATOM      5  H4  UNL     1      63.075 -41.722 -16.269  1.00  0.00     0.188 HD
HETATM    6  C3  UNL     1      61.867 -41.917 -14.552  1.00  0.00     0.142 A 
HETATM    7  N5  UNL     1      62.068 -40.900 -13.691  1.00  0.00    -0.292 N 
ATOM      8  H5  UNL     1      62.747 -40.183 -13.950  1.00  0.00     0.172 HD
HETATM    9  C4  UNL     1      61.431 -40.768 -12.513  1.00  0.00     0.328 A 
HETATM   10  O1  UNL     1      61.658 -39.796 -11.745  1.00  0.00    -0.247 OA
HETATM   11  N6  UNL     1      60.525 -41.679 -12.119  1.00  0.00    -0.275 N 
ATOM     12  H6  UNL     1      60.032 -41.594 -11.230  1.00  0.00     0.173 HD
HETATM   13  C5  UNL     1      60.295 -42.720 -12.963  1.00  0.00     0.265 A 
HETATM   14  O2  UNL     1      59.446 -43.547 -12.560  1.00  0.00    -0.267 OA
HETATM   15  C6  UNL     1      60.935 -42.876 -14.171  1.00  0.00     0.107 A 
ENDROOT
BRANCH   1  16
HETATM   16  C1  UNL     1      60.106 -44.990 -15.304  1.00  0.00     0.095 C 
HETATM   17  N2  UNL     1      58.870 -45.033 -15.491  1.00  0.00    -0.306 N 
ATOM     18  H2  UNL     1      58.391 -44.136 -15.571  1.00  0.00     0.186 HD
BRANCH  17  19
HETATM   19  N1  UNL     1      58.083 -46.160 -15.601  1.00  0.00    -0.345 N 
ATOM     20  H12 UNL     1      57.151 -46.004 -15.985  1.00  0.00     0.176 HD
ATOM     21  H11 UNL     1      58.334 -47.114 -15.343  1.00  0.00     0.176 HD
ENDBRANCH  17  19
BRANCH  16  22
HETATM   22  C7  UNL     1      60.841 -46.300 -15.179  1.00  0.00     0.336 C 
BRANCH  22  23
HETATM   23  N7  UNL     1      61.615 -46.571 -16.356  1.00  0.00    -0.059 N 
ATOM     24  H73 UNL     1      62.531 -46.122 -16.316  1.00  0.00     0.275 HD
ATOM     25  H72 UNL     1      61.921 -47.544 -16.390  1.00  0.00     0.275 HD
ATOM     26  H71 UNL     1      61.104 -46.310 -17.199  1.00  0.00     0.275 HD
ENDBRANCH  22  23
BRANCH  22  27
HETATM   27  C8  UNL     1      61.684 -46.315 -13.958  1.00  0.00     0.211 C 
HETATM   28  O3  UNL     1      61.206 -46.380 -12.799  1.00  0.00    -0.646 OA
HETATM   29  O4  UNL     1      63.066 -46.254 -14.057  1.00  0.00    -0.646 OA
ENDBRANCH  22  27
ENDBRANCH  16  22
ENDBRANCH   1  16
TORSDOF 5
ENDMDL
