MODEL 1
REMARK VINA RESULT: -4.745548823      0.000      0.000
REMARK  4 active torsions:
REMARK  status: ('A' for Active; 'I' for Inactive)
REMARK    1  A    between atoms: C1_4  and  C2_6 
REMARK    2  A    between atoms: C3_9  and  N4_10 
REMARK    3  A    between atoms: N6_18  and  C6_19 
REMARK    4  A    between atoms: C6_19  and  C7_20 
ROOT
HETATM    1  C2  UNL     1      59.994 -44.669 -15.542  1.00  0.00     0.150 A 
HETATM    2  N3  UNL     1      60.704 -43.905 -16.409  1.00  0.00    -0.324 N 
ATOM      3  H3  UNL     1      60.800 -44.215 -17.376  1.00  0.00     0.169 HD
HETATM    4  C3  UNL     1      61.285 -42.756 -16.034  1.00  0.00     0.131 A 
HETATM    5  C4  UNL     1      61.126 -42.379 -14.715  1.00  0.00     0.125 A 
HETATM    6  N5  UNL     1      61.568 -41.299 -14.008  1.00  0.00    -0.302 N 
ATOM      7  H5  UNL     1      62.134 -40.532 -14.371  1.00  0.00     0.171 HD
HETATM    8  C5  UNL     1      61.121 -41.428 -12.741  1.00  0.00     0.329 A 
HETATM    9  O1  UNL     1      61.359 -40.588 -11.827  1.00  0.00    -0.246 OA
HETATM   10  N6  UNL     1      60.408 -42.553 -12.609  1.00  0.00    -0.275 N 
HETATM   11  C8  UNL     1      60.411 -43.142 -13.833  1.00  0.00     0.144 A 
HETATM   12  N8  UNL     1      59.857 -44.284 -14.283  1.00  0.00    -0.324 N 
ATOM     13  H8  UNL     1      59.319 -44.866 -13.640  1.00  0.00     0.169 HD
ENDROOT
BRANCH   1  14
HETATM   14  C1  UNL     1      59.383 -45.910 -16.002  1.00  0.00     0.154 C 
HETATM   15  N1  UNL     1      58.168 -46.183 -15.705  1.00  0.00    -0.385 N 
ATOM     16  H12 UNL     1      57.740 -47.051 -16.027  1.00  0.00     0.157 HD
ATOM     17  H11 UNL     1      57.657 -45.503 -15.143  1.00  0.00     0.157 HD
HETATM   18  N2  UNL     1      60.093 -46.858 -16.786  1.00  0.00    -0.079 NA
ENDBRANCH   1  14
BRANCH   4  19
HETATM   19  N4  UNL     1      61.969 -42.003 -16.830  1.00  0.00    -0.383 N 
ATOM     20  H42 UNL     1      61.999 -42.224 -17.825  1.00  0.00     0.157 HD
ATOM     21  H41 UNL     1      62.494 -41.183 -16.525  1.00  0.00     0.157 HD
ENDBRANCH   4  19
BRANCH  10  22
HETATM   22  C6  UNL     1      59.747 -43.083 -11.433  1.00  0.00     0.235 C 
BRANCH  22  23
HETATM   23  C7  UNL     1      60.644 -44.008 -10.678  1.00  0.00     0.249 C 
HETATM   24  N7  UNL     1      60.790 -45.337 -11.129  1.00  0.00    -0.061 NA
HETATM   25  O2  UNL     1      61.229 -43.558  -9.671  1.00  0.00    -0.275 OA
ENDBRANCH  22  23
ENDBRANCH  10  22
TORSDOF 4
ENDMDL
MODEL 2
REMARK VINA RESULT: -4.533106448      2.078      2.559
REMARK  4 active torsions:
REMARK  status: ('A' for Active; 'I' for Inactive)
REMARK    1  A    between atoms: C1_4  and  C2_6 
REMARK    2  A    between atoms: C3_9  and  N4_10 
REMARK    3  A    between atoms: N6_18  and  C6_19 
REMARK    4  A    between atoms: C6_19  and  C7_20 
ROOT
HETATM    1  C2  UNL     1      61.208 -46.471 -14.497  1.00  0.00     0.150 A 
HETATM    2  N3  UNL     1      60.486 -46.114 -15.587  1.00  0.00    -0.324 N 
ATOM      3  H3  UNL     1      60.302 -46.811 -16.309  1.00  0.00     0.169 HD
HETATM    4  C3  UNL     1      60.006 -44.871 -15.747  1.00  0.00     0.131 A 
HETATM    5  C4  UNL     1      60.280 -43.964 -14.743  1.00  0.00     0.125 A 
HETATM    6  N5  UNL     1      59.957 -42.648 -14.580  1.00  0.00    -0.302 N 
ATOM      7  H5  UNL     1      59.415 -42.077 -15.228  1.00  0.00     0.171 HD
HETATM    8  C5  UNL     1      60.483 -42.240 -13.406  1.00  0.00     0.329 A 
HETATM    9  O1  UNL     1      60.363 -41.064 -12.958  1.00  0.00    -0.246 OA
HETATM   10  N6  UNL     1      61.134 -43.247 -12.809  1.00  0.00    -0.275 N 
HETATM   11  C8  UNL     1      61.007 -44.315 -13.639  1.00  0.00     0.144 A 
HETATM   12  N8  UNL     1      61.456 -45.582 -13.548  1.00  0.00    -0.324 N 
ATOM     13  H8  UNL     1      62.000 -45.862 -12.732  1.00  0.00     0.169 HD
ENDROOT
BRANCH   1  14
HETATM   14  C1  UNL     1      61.706 -47.836 -14.372  1.00  0.00     0.154 C 
HETATM   15  N1  UNL     1      62.739 -48.211 -15.028  1.00  0.00    -0.385 N 
ATOM     16  H12 UNL     1      63.088 -49.166 -14.940  1.00  0.00     0.157 HD
ATOM     17  H11 UNL     1      63.188 -47.523 -15.631  1.00  0.00     0.157 HD
HETATM   18  N2  UNL     1      61.081 -48.796 -13.532  1.00  0.00    -0.079 NA
ENDBRANCH   1  14
BRANCH   4  19
HETATM   19  N4  UNL     1      59.315 -44.494 -16.771  1.00  0.00    -0.383 N 
ATOM     20  H42 UNL     1      59.500 -44.914 -17.681  1.00  0.00     0.157 HD
ATOM     21  H41 UNL     1      58.580 -43.788 -16.731  1.00  0.00     0.157 HD
ENDBRANCH   4  19
BRANCH  10  22
HETATM   22  C6  UNL     1      61.842 -43.255 -11.545  1.00  0.00     0.235 C 
BRANCH  22  23
HETATM   23  C7  UNL     1      61.053 -43.956 -10.487  1.00  0.00     0.249 C 
HETATM   24  N7  UNL     1      61.514 -43.918  -9.154  1.00  0.00    -0.061 NA
HETATM   25  O2  UNL     1      60.012 -44.550 -10.836  1.00  0.00    -0.275 OA
ENDBRANCH  22  23
ENDBRANCH  10  22
TORSDOF 4
ENDMDL
MODEL 3
REMARK VINA RESULT: -4.417372127      2.699      4.647
REMARK  4 active torsions:
REMARK  status: ('A' for Active; 'I' for Inactive)
REMARK    1  A    between atoms: C1_4  and  C2_6 
REMARK    2  A    between atoms: C3_9  and  N4_10 
REMARK    3  A    between atoms: N6_18  and  C6_19 
REMARK    4  A    between atoms: C6_19  and  C7_20 
ROOT
HETATM    1  C2  UNL     1      60.760 -43.268 -14.176  1.00  0.00     0.150 A 
HETATM    2  N3  UNL     1      60.025 -43.500 -15.291  1.00  0.00    -0.324 N 
ATOM      3  H3  UNL     1      59.605 -42.710 -15.780  1.00  0.00     0.169 HD
HETATM    4  C3  UNL     1      59.833 -44.738 -15.772  1.00  0.00     0.131 A 
HETATM    5  C4  UNL     1      60.423 -45.775 -15.075  1.00  0.00     0.125 A 
HETATM    6  N5  UNL     1      60.437 -47.124 -15.275  1.00  0.00    -0.302 N 
ATOM      7  H5  UNL     1      59.975 -47.626 -16.033  1.00  0.00     0.171 HD
HETATM    8  C5  UNL     1      61.172 -47.676 -14.286  1.00  0.00     0.329 A 
HETATM    9  O1  UNL     1      61.381 -48.918 -14.181  1.00  0.00    -0.246 OA
HETATM   10  N6  UNL     1      61.631 -46.729 -13.459  1.00  0.00    -0.275 N 
HETATM   11  C8  UNL     1      61.166 -45.550 -13.949  1.00  0.00     0.144 A 
HETATM   12  N8  UNL     1      61.314 -44.279 -13.527  1.00  0.00    -0.324 N 
ATOM     13  H8  UNL     1      61.866 -44.093 -12.689  1.00  0.00     0.169 HD
ENDROOT
BRANCH   1  14
HETATM   14  C1  UNL     1      60.937 -41.903 -13.695  1.00  0.00     0.154 C 
HETATM   15  N1  UNL     1      61.915 -41.190 -14.113  1.00  0.00    -0.385 N 
ATOM     16  H12 UNL     1      62.038 -40.235 -13.777  1.00  0.00     0.157 HD
ATOM     17  H11 UNL     1      62.552 -41.615 -14.786  1.00  0.00     0.157 HD
HETATM   18  N2  UNL     1      60.049 -41.309 -12.758  1.00  0.00    -0.079 NA
ENDBRANCH   1  14
BRANCH   4  19
HETATM   19  N4  UNL     1      59.140 -44.998 -16.830  1.00  0.00    -0.383 N 
ATOM     20  H42 UNL     1      59.509 -44.741 -17.745  1.00  0.00     0.157 HD
ATOM     21  H41 UNL     1      58.228 -45.454 -16.812  1.00  0.00     0.157 HD
ENDBRANCH   4  19
BRANCH  10  22
HETATM   22  C6  UNL     1      62.454 -46.870 -12.275  1.00  0.00     0.235 C 
BRANCH  22  23
HETATM   23  C7  UNL     1      61.619 -46.919 -11.037  1.00  0.00     0.249 C 
HETATM   24  N7  UNL     1      60.966 -45.745 -10.608  1.00  0.00    -0.061 NA
HETATM   25  O2  UNL     1      61.539 -48.009 -10.433  1.00  0.00    -0.275 OA
ENDBRANCH  22  23
ENDBRANCH  10  22
TORSDOF 4
ENDMDL
MODEL 4
REMARK VINA RESULT: -4.370373409      2.359      4.788
REMARK  4 active torsions:
REMARK  status: ('A' for Active; 'I' for Inactive)
REMARK    1  A    between atoms: C1_4  and  C2_6 
REMARK    2  A    between atoms: C3_9  and  N4_10 
REMARK    3  A    between atoms: N6_18  and  C6_19 
REMARK    4  A    between atoms: C6_19  and  C7_20 
ROOT
HETATM    1  C2  UNL     1      61.129 -44.050 -11.218  1.00  0.00     0.150 A 
HETATM    2  N3  UNL     1      60.971 -42.705 -11.159  1.00  0.00    -0.324 N 
ATOM      3  H3  UNL     1      60.881 -42.257 -10.247  1.00  0.00     0.169 HD
HETATM    4  C3  UNL     1      60.930 -41.944 -12.264  1.00  0.00     0.131 A 
HETATM    5  C4  UNL     1      61.058 -42.596 -13.474  1.00  0.00     0.125 A 
HETATM    6  N5  UNL     1      61.062 -42.148 -14.763  1.00  0.00    -0.302 N 
ATOM      7  H5  UNL     1      60.962 -41.179 -15.064  1.00  0.00     0.171 HD
HETATM    8  C5  UNL     1      61.220 -43.220 -15.567  1.00  0.00     0.329 A 
HETATM    9  O1  UNL     1      61.266 -43.147 -16.829  1.00  0.00    -0.246 OA
HETATM   10  N6  UNL     1      61.318 -44.341 -14.841  1.00  0.00    -0.275 N 
HETATM   11  C8  UNL     1      61.218 -43.953 -13.544  1.00  0.00     0.144 A 
HETATM   12  N8  UNL     1      61.249 -44.650 -12.391  1.00  0.00    -0.324 N 
ATOM     13  H8  UNL     1      61.369 -45.663 -12.423  1.00  0.00     0.169 HD
ENDROOT
BRANCH   1  14
HETATM   14  C1  UNL     1      61.167 -44.830  -9.987  1.00  0.00     0.154 C 
HETATM   15  N1  UNL     1      60.831 -46.065  -9.991  1.00  0.00    -0.385 N 
ATOM     16  H12 UNL     1      60.858 -46.611  -9.130  1.00  0.00     0.157 HD
ATOM     17  H11 UNL     1      60.541 -46.470 -10.881  1.00  0.00     0.157 HD
HETATM   18  N2  UNL     1      61.571 -44.267  -8.746  1.00  0.00    -0.079 NA
ENDBRANCH   1  14
BRANCH   4  19
HETATM   19  N4  UNL     1      60.781 -40.661 -12.247  1.00  0.00    -0.383 N 
ATOM     20  H42 UNL     1      60.166 -40.238 -11.553  1.00  0.00     0.157 HD
ATOM     21  H41 UNL     1      61.248 -40.027 -12.896  1.00  0.00     0.157 HD
ENDBRANCH   4  19
BRANCH  10  22
HETATM   22  C6  UNL     1      61.496 -45.707 -15.289  1.00  0.00     0.235 C 
BRANCH  22  23
HETATM   23  C7  UNL     1      60.314 -46.551 -14.938  1.00  0.00     0.249 C 
HETATM   24  N7  UNL     1      59.090 -46.320 -15.600  1.00  0.00    -0.061 NA
HETATM   25  O2  UNL     1      60.466 -47.431 -14.065  1.00  0.00    -0.275 OA
ENDBRANCH  22  23
ENDBRANCH  10  22
TORSDOF 4
ENDMDL
MODEL 5
REMARK VINA RESULT: -4.345112137      2.641      4.083
REMARK  4 active torsions:
REMARK  status: ('A' for Active; 'I' for Inactive)
REMARK    1  A    between atoms: C1_4  and  C2_6 
REMARK    2  A    between atoms: C3_9  and  N4_10 
REMARK    3  A    between atoms: N6_18  and  C6_19 
REMARK    4  A    between atoms: C6_19  and  C7_20 
ROOT
HETATM    1  C2  UNL     1      60.405 -43.421 -14.768  1.00  0.00     0.150 A 
HETATM    2  N3  UNL     1      60.175 -42.457 -13.843  1.00  0.00    -0.324 N 
ATOM      3  H3  UNL     1      59.746 -41.580 -14.140  1.00  0.00     0.169 HD
HETATM    4  C3  UNL     1      60.492 -42.620 -12.550  1.00  0.00     0.131 A 
HETATM    5  C4  UNL     1      61.069 -43.825 -12.198  1.00  0.00     0.125 A 
HETATM    6  N5  UNL     1      61.508 -44.319 -11.004  1.00  0.00    -0.302 N 
ATOM      7  H5  UNL     1      61.477 -43.838 -10.106  1.00  0.00     0.171 HD
HETATM    8  C5  UNL     1      61.990 -45.559 -11.228  1.00  0.00     0.329 A 
HETATM    9  O1  UNL     1      62.475 -46.294 -10.321  1.00  0.00    -0.246 OA
HETATM   10  N6  UNL     1      61.877 -45.880 -12.523  1.00  0.00    -0.275 N 
HETATM   11  C8  UNL     1      61.306 -44.804 -13.123  1.00  0.00     0.144 A 
HETATM   12  N8  UNL     1      60.959 -44.567 -14.404  1.00  0.00    -0.324 N 
ATOM     13  H8  UNL     1      61.128 -45.286 -15.108  1.00  0.00     0.169 HD
ENDROOT
BRANCH   1  14
HETATM   14  C1  UNL     1      60.040 -43.193 -16.161  1.00  0.00     0.154 C 
HETATM   15  N1  UNL     1      59.434 -44.100 -16.830  1.00  0.00    -0.385 N 
ATOM     16  H12 UNL     1      59.179 -43.940 -17.804  1.00  0.00     0.157 HD
ATOM     17  H11 UNL     1      59.222 -44.975 -16.350  1.00  0.00     0.157 HD
HETATM   18  N2  UNL     1      60.335 -41.974 -16.830  1.00  0.00    -0.079 NA
ENDBRANCH   1  14
BRANCH   4  19
HETATM   19  N4  UNL     1      60.288 -41.725 -11.642  1.00  0.00    -0.383 N 
ATOM     20  H42 UNL     1      60.020 -42.017 -10.703  1.00  0.00     0.157 HD
ATOM     21  H41 UNL     1      60.380 -40.722 -11.804  1.00  0.00     0.157 HD
ENDBRANCH   4  19
BRANCH  10  22
HETATM   22  C6  UNL     1      62.264 -47.102 -13.199  1.00  0.00     0.235 C 
BRANCH  22  23
HETATM   23  C7  UNL     1      61.073 -47.950 -13.508  1.00  0.00     0.249 C 
HETATM   24  N7  UNL     1      60.866 -49.132 -12.767  1.00  0.00    -0.061 NA
HETATM   25  O2  UNL     1      60.308 -47.569 -14.419  1.00  0.00    -0.275 OA
ENDBRANCH  22  23
ENDBRANCH  10  22
TORSDOF 4
ENDMDL
