MODEL 1
REMARK VINA RESULT: -4.572898213      0.000      0.000
REMARK  4 active torsions:
REMARK  status: ('A' for Active; 'I' for Inactive)
REMARK    1  A    between atoms: C1_2  and  C2_4 
REMARK    2  A    between atoms: C5_13  and  N3_14 
REMARK    3  A    between atoms: N3_14  and  N4_16 
REMARK    4  A    between atoms: N4_16  and  C6_18 
ROOT
HETATM    1  C2  UNL     1      60.478 -43.027 -13.509  1.00  0.00     0.147 A 
HETATM    2  N1  UNL     1      60.048 -42.371 -14.599  1.00  0.00    -0.301 N 
ATOM      3  H1  UNL     1      59.289 -41.692 -14.541  1.00  0.00     0.171 HD
HETATM    4  C3  UNL     1      60.652 -42.640 -15.769  1.00  0.00     0.327 A 
HETATM    5  O3  UNL     1      60.288 -42.053 -16.822  1.00  0.00    -0.247 OA
HETATM    6  N2  UNL     1      61.665 -43.536 -15.879  1.00  0.00    -0.273 N 
ATOM      7  H2  UNL     1      62.097 -43.710 -16.786  1.00  0.00     0.173 HD
HETATM    8  C4  UNL     1      62.098 -44.194 -14.792  1.00  0.00     0.280 A 
HETATM    9  O4  UNL     1      63.035 -45.032 -14.860  1.00  0.00    -0.265 OA
HETATM   10  C5  UNL     1      61.503 -43.944 -13.584  1.00  0.00     0.150 A 
ENDROOT
BRANCH  10  11
HETATM   11  N3  UNL     1      61.984 -44.655 -12.435  1.00  0.00    -0.291 N 
ATOM     12  H3  UNL     1      62.528 -44.162 -11.727  1.00  0.00     0.187 HD
BRANCH  11  13
HETATM   13  N4  UNL     1      61.716 -46.016 -12.274  1.00  0.00    -0.271 N 
ATOM     14  H4  UNL     1      61.687 -46.624 -13.092  1.00  0.00     0.190 HD
BRANCH  13  15
HETATM   15  C6  UNL     1      61.484 -46.562 -10.985  1.00  0.00     0.190 C 
HETATM   16  N5  UNL     1      61.896 -47.703 -10.545  1.00  0.00    -0.360 N 
HETATM   17  C7  UNL     1      61.473 -47.933  -9.182  1.00  0.00     0.142 C 
ATOM     18  H5  UNL     1      62.451 -48.361 -11.093  1.00  0.00     0.162 HD
HETATM   19  C8  UNL     1      61.134 -46.532  -8.714  1.00  0.00     0.142 C 
HETATM   20  N6  UNL     1      60.738 -45.900  -9.959  1.00  0.00    -0.360 N 
ATOM     21  H6  UNL     1      60.066 -45.140 -10.077  1.00  0.00     0.162 HD
ENDBRANCH  13  15
ENDBRANCH  11  13
ENDBRANCH  10  11
BRANCH   1  22
HETATM   22  C1  UNL     1      59.854 -42.772 -12.232  1.00  0.00     0.229 C 
HETATM   23  O1  UNL     1      59.736 -41.626 -11.731  1.00  0.00    -0.643 OA
HETATM   24  O2  UNL     1      59.346 -43.824 -11.488  1.00  0.00    -0.643 OA
ENDBRANCH   1  22
TORSDOF 4
ENDMDL
MODEL 2
REMARK VINA RESULT: -4.533697092      3.116      4.677
REMARK  4 active torsions:
REMARK  status: ('A' for Active; 'I' for Inactive)
REMARK    1  A    between atoms: C1_2  and  C2_4 
REMARK    2  A    between atoms: C5_13  and  N3_14 
REMARK    3  A    between atoms: N3_14  and  N4_16 
REMARK    4  A    between atoms: N4_16  and  C6_18 
ROOT
HETATM    1  C2  UNL     1      61.202 -42.333 -11.899  1.00  0.00     0.147 A 
HETATM    2  N1  UNL     1      62.252 -42.219 -11.072  1.00  0.00    -0.301 N 
ATOM      3  H1  UNL     1      62.228 -42.613 -10.131  1.00  0.00     0.171 HD
HETATM    4  C3  UNL     1      63.337 -41.567 -11.525  1.00  0.00     0.327 A 
HETATM    5  O3  UNL     1      64.350 -41.431 -10.789  1.00  0.00    -0.247 OA
HETATM    6  N2  UNL     1      63.401 -41.034 -12.771  1.00  0.00    -0.273 N 
ATOM      7  H2  UNL     1      64.244 -40.548 -13.076  1.00  0.00     0.173 HD
HETATM    8  C4  UNL     1      62.353 -41.145 -13.602  1.00  0.00     0.280 A 
HETATM    9  O4  UNL     1      62.379 -40.662 -14.764  1.00  0.00    -0.265 OA
HETATM   10  C5  UNL     1      61.232 -41.803 -13.171  1.00  0.00     0.150 A 
ENDROOT
BRANCH  10  11
HETATM   11  N3  UNL     1      60.124 -41.915 -14.076  1.00  0.00    -0.291 N 
ATOM     12  H3  UNL     1      59.226 -41.503 -13.827  1.00  0.00     0.187 HD
BRANCH  11  13
HETATM   13  N4  UNL     1      60.263 -42.581 -15.295  1.00  0.00    -0.271 N 
ATOM     14  H4  UNL     1      60.552 -42.061 -16.124  1.00  0.00     0.190 HD
BRANCH  13  15
HETATM   15  C6  UNL     1      60.008 -43.974 -15.393  1.00  0.00     0.190 C 
HETATM   16  N5  UNL     1      59.207 -44.553 -16.222  1.00  0.00    -0.360 N 
HETATM   17  C7  UNL     1      59.196 -45.987 -16.037  1.00  0.00     0.142 C 
ATOM     18  H5  UNL     1      58.650 -44.061 -16.921  1.00  0.00     0.162 HD
HETATM   19  C8  UNL     1      60.482 -46.218 -15.269  1.00  0.00     0.142 C 
HETATM   20  N6  UNL     1      60.624 -44.960 -14.560  1.00  0.00    -0.360 N 
ATOM     21  H6  UNL     1      61.071 -44.811 -13.655  1.00  0.00     0.162 HD
ENDBRANCH  13  15
ENDBRANCH  11  13
ENDBRANCH  10  11
BRANCH   1  22
HETATM   22  C1  UNL     1      60.014 -43.021 -11.452  1.00  0.00     0.229 C 
HETATM   23  O1  UNL     1      58.946 -42.436 -11.136  1.00  0.00    -0.643 OA
HETATM   24  O2  UNL     1      60.011 -44.402 -11.351  1.00  0.00    -0.643 OA
ENDBRANCH   1  22
TORSDOF 4
ENDMDL
MODEL 3
REMARK VINA RESULT: -4.412970662      0.984      1.103
REMARK  4 active torsions:
REMARK  status: ('A' for Active; 'I' for Inactive)
REMARK    1  A    between atoms: C1_2  and  C2_4 
REMARK    2  A    between atoms: C5_13  and  N3_14 
REMARK    3  A    between atoms: N3_14  and  N4_16 
REMARK    4  A    between atoms: N4_16  and  C6_18 
ROOT
HETATM    1  C2  UNL     1      60.680 -43.003 -13.000  1.00  0.00     0.147 A 
HETATM    2  N1  UNL     1      60.113 -42.382 -14.045  1.00  0.00    -0.301 N 
ATOM      3  H1  UNL     1      59.513 -41.567 -13.914  1.00  0.00     0.171 HD
HETATM    4  C3  UNL     1      60.362 -42.869 -15.273  1.00  0.00     0.327 A 
HETATM    5  O3  UNL     1      59.855 -42.325 -16.289  1.00  0.00    -0.247 OA
HETATM    6  N2  UNL     1      61.157 -43.950 -15.481  1.00  0.00    -0.273 N 
ATOM      7  H2  UNL     1      61.321 -44.287 -16.430  1.00  0.00     0.173 HD
HETATM    8  C4  UNL     1      61.726 -44.574 -14.439  1.00  0.00     0.280 A 
HETATM    9  O4  UNL     1      62.468 -45.579 -14.598  1.00  0.00    -0.265 OA
HETATM   10  C5  UNL     1      61.491 -44.103 -13.175  1.00  0.00     0.150 A 
ENDROOT
BRANCH  10  11
HETATM   11  N3  UNL     1      62.112 -44.782 -12.075  1.00  0.00    -0.291 N 
ATOM     12  H3  UNL     1      62.978 -44.416 -11.679  1.00  0.00     0.187 HD
BRANCH  11  13
HETATM   13  N4  UNL     1      61.546 -45.941 -11.539  1.00  0.00    -0.271 N 
ATOM     14  H4  UNL     1      61.331 -46.726 -12.153  1.00  0.00     0.190 HD
BRANCH  13  15
HETATM   15  C6  UNL     1      61.266 -46.037 -10.151  1.00  0.00     0.190 C 
HETATM   16  N5  UNL     1      60.837 -47.078  -9.522  1.00  0.00    -0.360 N 
HETATM   17  C7  UNL     1      60.663 -46.813  -8.111  1.00  0.00     0.142 C 
ATOM     18  H5  UNL     1      60.643 -47.976  -9.965  1.00  0.00     0.162 HD
HETATM   19  C8  UNL     1      61.509 -45.571  -7.915  1.00  0.00     0.142 C 
HETATM   20  N6  UNL     1      61.429 -44.956  -9.226  1.00  0.00    -0.360 N 
ATOM     21  H6  UNL     1      61.478 -43.961  -9.444  1.00  0.00     0.162 HD
ENDBRANCH  13  15
ENDBRANCH  11  13
ENDBRANCH  10  11
BRANCH   1  22
HETATM   22  C1  UNL     1      60.435 -42.515 -11.663  1.00  0.00     0.229 C 
HETATM   23  O1  UNL     1      61.336 -42.369 -10.799  1.00  0.00    -0.643 OA
HETATM   24  O2  UNL     1      59.149 -42.180 -11.273  1.00  0.00    -0.643 OA
ENDBRANCH   1  22
TORSDOF 4
ENDMDL
MODEL 4
REMARK VINA RESULT: -4.388078132      1.370      2.851
REMARK  4 active torsions:
REMARK  status: ('A' for Active; 'I' for Inactive)
REMARK    1  A    between atoms: C1_2  and  C2_4 
REMARK    2  A    between atoms: C5_13  and  N3_14 
REMARK    3  A    between atoms: N3_14  and  N4_16 
REMARK    4  A    between atoms: N4_16  and  C6_18 
ROOT
HETATM    1  C2  UNL     1      61.142 -44.572 -13.908  1.00  0.00     0.147 A 
HETATM    2  N1  UNL     1      60.693 -44.079 -15.073  1.00  0.00    -0.301 N 
ATOM      3  H1  UNL     1      60.707 -44.641 -15.924  1.00  0.00     0.171 HD
HETATM    4  C3  UNL     1      60.226 -42.818 -15.079  1.00  0.00     0.327 A 
HETATM    5  O3  UNL     1      59.794 -42.306 -16.146  1.00  0.00    -0.247 OA
HETATM    6  N2  UNL     1      60.193 -42.046 -13.964  1.00  0.00    -0.273 N 
ATOM      7  H2  UNL     1      59.829 -41.095 -14.013  1.00  0.00     0.173 HD
HETATM    8  C4  UNL     1      60.640 -42.535 -12.797  1.00  0.00     0.280 A 
HETATM    9  O4  UNL     1      60.623 -41.845 -11.744  1.00  0.00    -0.265 OA
HETATM   10  C5  UNL     1      61.123 -43.816 -12.756  1.00  0.00     0.150 A 
ENDROOT
BRANCH  10  11
HETATM   11  N3  UNL     1      61.593 -44.320 -11.498  1.00  0.00    -0.291 N 
ATOM     12  H3  UNL     1      62.594 -44.351 -11.309  1.00  0.00     0.187 HD
BRANCH  11  13
HETATM   13  N4  UNL     1      60.694 -44.770 -10.529  1.00  0.00    -0.271 N 
ATOM     14  H4  UNL     1      59.753 -44.378 -10.494  1.00  0.00     0.190 HD
BRANCH  13  15
HETATM   15  C6  UNL     1      61.075 -45.766  -9.593  1.00  0.00     0.190 C 
HETATM   16  N5  UNL     1      61.377 -45.582  -8.352  1.00  0.00    -0.360 N 
HETATM   17  C7  UNL     1      61.717 -46.825  -7.697  1.00  0.00     0.142 C 
ATOM     18  H5  UNL     1      61.376 -44.672  -7.891  1.00  0.00     0.162 HD
HETATM   19  C8  UNL     1      61.113 -47.853  -8.633  1.00  0.00     0.142 C 
HETATM   20  N6  UNL     1      61.179 -47.159  -9.905  1.00  0.00    -0.360 N 
ATOM     21  H6  UNL     1      61.279 -47.577 -10.830  1.00  0.00     0.162 HD
ENDBRANCH  13  15
ENDBRANCH  11  13
ENDBRANCH  10  11
BRANCH   1  22
HETATM   22  C1  UNL     1      61.657 -45.920 -13.856  1.00  0.00     0.229 C 
HETATM   23  O1  UNL     1      62.577 -46.343 -14.601  1.00  0.00    -0.643 OA
HETATM   24  O2  UNL     1      61.133 -46.826 -12.950  1.00  0.00    -0.643 OA
ENDBRANCH   1  22
TORSDOF 4
ENDMDL
MODEL 5
REMARK VINA RESULT: -4.359152156      1.332      1.451
REMARK  4 active torsions:
REMARK  status: ('A' for Active; 'I' for Inactive)
REMARK    1  A    between atoms: C1_2  and  C2_4 
REMARK    2  A    between atoms: C5_13  and  N3_14 
REMARK    3  A    between atoms: N3_14  and  N4_16 
REMARK    4  A    between atoms: N4_16  and  C6_18 
ROOT
HETATM    1  C2  UNL     1      60.530 -42.728 -13.560  1.00  0.00     0.147 A 
HETATM    2  N1  UNL     1      60.118 -42.625 -14.834  1.00  0.00    -0.301 N 
ATOM      3  H1  UNL     1      59.711 -41.760 -15.189  1.00  0.00     0.171 HD
HETATM    4  C3  UNL     1      60.261 -43.702 -15.626  1.00  0.00     0.327 A 
HETATM    5  O3  UNL     1      59.890 -43.660 -16.829  1.00  0.00    -0.247 OA
HETATM    6  N2  UNL     1      60.800 -44.866 -15.185  1.00  0.00    -0.273 N 
ATOM      7  H2  UNL     1      60.891 -45.659 -15.819  1.00  0.00     0.173 HD
HETATM    8  C4  UNL     1      61.213 -44.974 -13.912  1.00  0.00     0.280 A 
HETATM    9  O4  UNL     1      61.717 -46.040 -13.472  1.00  0.00    -0.265 OA
HETATM   10  C5  UNL     1      61.081 -43.895 -13.079  1.00  0.00     0.150 A 
ENDROOT
BRANCH  10  11
HETATM   11  N3  UNL     1      61.533 -44.030 -11.724  1.00  0.00    -0.291 N 
ATOM     12  H3  UNL     1      62.478 -43.739 -11.476  1.00  0.00     0.187 HD
BRANCH  11  13
HETATM   13  N4  UNL     1      60.693 -44.556 -10.741  1.00  0.00    -0.271 N 
ATOM     14  H4  UNL     1      59.809 -44.092 -10.532  1.00  0.00     0.190 HD
BRANCH  13  15
HETATM   15  C6  UNL     1      61.055 -45.730 -10.030  1.00  0.00     0.190 C 
HETATM   16  N5  UNL     1      61.252 -46.904 -10.529  1.00  0.00    -0.360 N 
HETATM   17  C7  UNL     1      61.608 -47.863  -9.507  1.00  0.00     0.142 C 
ATOM     18  H5  UNL     1      61.166 -47.126 -11.520  1.00  0.00     0.162 HD
HETATM   19  C8  UNL     1      62.053 -46.966  -8.370  1.00  0.00     0.142 C 
HETATM   20  N6  UNL     1      61.260 -45.776  -8.614  1.00  0.00    -0.360 N 
ATOM     21  H6  UNL     1      60.919 -45.109  -7.920  1.00  0.00     0.162 HD
ENDBRANCH  13  15
ENDBRANCH  11  13
ENDBRANCH  10  11
BRANCH   1  22
HETATM   22  C1  UNL     1      60.391 -41.597 -12.673  1.00  0.00     0.229 C 
HETATM   23  O1  UNL     1      60.966 -40.494 -12.855  1.00  0.00    -0.643 OA
HETATM   24  O2  UNL     1      59.590 -41.694 -11.548  1.00  0.00    -0.643 OA
ENDBRANCH   1  22
TORSDOF 4
ENDMDL
