MODEL 1
REMARK VINA RESULT: -6.681525629      0.000      0.000
REMARK  2 active torsions:
REMARK  status: ('A' for Active; 'I' for Inactive)
REMARK    1  A    between atoms: O1_1  and  C1_3 
REMARK    2  A    between atoms: C9_11  and  O2_12 
ROOT
HETATM    1  C1  UNL     1      15.592  -4.367  55.035  1.00  0.00     0.066 A 
HETATM    2  C2  UNL     1      15.386  -5.671  55.434  1.00  0.00     0.039 A 
HETATM    3  C3  UNL     1      14.150  -6.019  55.981  1.00  0.00     0.040 A 
HETATM    4  C4  UNL     1      13.131  -5.121  56.141  1.00  0.00     0.080 A 
HETATM    5  C5  UNL     1      13.349  -3.806  55.737  1.00  0.00     0.011 A 
HETATM    6  C6  UNL     1      14.564  -3.457  55.195  1.00  0.00     0.051 A 
HETATM    7  C7  UNL     1      12.236  -2.886  55.927  1.00  0.00    -0.009 A 
HETATM    8  C8  UNL     1      12.429  -1.583  55.533  1.00  0.00     0.052 A 
HETATM    9  C9  UNL     1      11.372  -0.680  55.707  1.00  0.00     0.102 A 
HETATM   10  C10 UNL     1      10.168  -1.064  56.251  1.00  0.00     0.136 A 
HETATM   11  C11 UNL     1       9.987  -2.367  56.640  1.00  0.00     0.114 A 
HETATM   12  C12 UNL     1      11.021  -3.268  56.474  1.00  0.00     0.013 A 
HETATM   13  C13 UNL     1      10.815  -4.657  56.894  1.00  0.00     0.218 A 
HETATM   14  O3  UNL     1      11.908  -5.470  56.686  1.00  0.00    -0.346 OA
HETATM   15  O4  UNL     1       8.803  -2.770  57.182  1.00  0.00    -0.345 OA
HETATM   16  C14 UNL     1       7.699  -1.899  57.389  1.00  0.00     0.202 C 
HETATM   17  C15 UNL     1       7.774  -0.684  56.504  1.00  0.00     0.202 C 
HETATM   18  O5  UNL     1       9.108  -0.159  56.425  1.00  0.00    -0.344 OA
ENDROOT
BRANCH   1  19
HETATM   19  O1  UNL     1      16.827  -4.047  54.494  1.00  0.00    -0.361 OA
ATOM     20  H1  UNL     1      17.084  -3.132  54.490  1.00  0.00     0.217 HD
ENDBRANCH   1  19
BRANCH   9  21
HETATM   21  O2  UNL     1      11.514   0.650  55.325  1.00  0.00    -0.358 OA
ATOM     22  H2  UNL     1      11.032   1.334  55.775  1.00  0.00     0.217 HD
ENDBRANCH   9  21
TORSDOF 2
ENDMDL
MODEL 2
REMARK VINA RESULT: -6.285453547      2.007      4.432
REMARK  2 active torsions:
REMARK  status: ('A' for Active; 'I' for Inactive)
REMARK    1  A    between atoms: O1_1  and  C1_3 
REMARK    2  A    between atoms: C9_11  and  O2_12 
ROOT
HETATM    1  C1  UNL     1      12.083  -3.961  56.083  1.00  0.00     0.066 A 
HETATM    2  C2  UNL     1      13.040  -3.039  55.716  1.00  0.00     0.039 A 
HETATM    3  C3  UNL     1      12.664  -1.704  55.560  1.00  0.00     0.040 A 
HETATM    4  C4  UNL     1      11.383  -1.268  55.755  1.00  0.00     0.080 A 
HETATM    5  C5  UNL     1      10.421  -2.207  56.125  1.00  0.00     0.011 A 
HETATM    6  C6  UNL     1      10.787  -3.524  56.281  1.00  0.00     0.051 A 
HETATM    7  C7  UNL     1       9.071  -1.696  56.320  1.00  0.00    -0.009 A 
HETATM    8  C8  UNL     1       8.107  -2.605  56.687  1.00  0.00     0.052 A 
HETATM    9  C9  UNL     1       6.801  -2.137  56.880  1.00  0.00     0.102 A 
HETATM   10  C10 UNL     1       6.471  -0.812  56.716  1.00  0.00     0.136 A 
HETATM   11  C11 UNL     1       7.441   0.087  56.351  1.00  0.00     0.114 A 
HETATM   12  C12 UNL     1       8.734  -0.362  56.156  1.00  0.00     0.013 A 
HETATM   13  C13 UNL     1       9.761   0.607  55.766  1.00  0.00     0.218 A 
HETATM   14  O3  UNL     1      11.012   0.056  55.598  1.00  0.00    -0.346 OA
HETATM   15  O4  UNL     1       7.138   1.404  56.182  1.00  0.00    -0.345 OA
HETATM   16  C14 UNL     1       5.831   1.936  56.357  1.00  0.00     0.202 C 
HETATM   17  C15 UNL     1       4.979   1.048  57.223  1.00  0.00     0.202 C 
HETATM   18  O5  UNL     1       5.162  -0.342  56.910  1.00  0.00    -0.344 OA
ENDROOT
BRANCH   1  19
HETATM   19  O1  UNL     1      12.482  -5.280  56.233  1.00  0.00    -0.361 OA
ATOM     20  H1  UNL     1      11.954  -5.840  56.790  1.00  0.00     0.217 HD
ENDBRANCH   1  19
BRANCH   9  21
HETATM   21  O2  UNL     1       5.787  -3.015  57.252  1.00  0.00    -0.358 OA
ATOM     22  H2  UNL     1       4.916  -2.925  56.885  1.00  0.00     0.217 HD
ENDBRANCH   9  21
TORSDOF 2
ENDMDL
MODEL 3
REMARK VINA RESULT: -6.239803386      3.072      6.051
REMARK  2 active torsions:
REMARK  status: ('A' for Active; 'I' for Inactive)
REMARK    1  A    between atoms: O1_1  and  C1_3 
REMARK    2  A    between atoms: C9_11  and  O2_12 
ROOT
HETATM    1  C1  UNL     1      10.529  -2.805  55.718  1.00  0.00     0.066 A 
HETATM    2  C2  UNL     1      11.255  -1.653  55.501  1.00  0.00     0.039 A 
HETATM    3  C3  UNL     1      10.647  -0.420  55.739  1.00  0.00     0.040 A 
HETATM    4  C4  UNL     1       9.357  -0.302  56.178  1.00  0.00     0.080 A 
HETATM    5  C5  UNL     1       8.631  -1.471  56.395  1.00  0.00     0.011 A 
HETATM    6  C6  UNL     1       9.226  -2.690  56.163  1.00  0.00     0.051 A 
HETATM    7  C7  UNL     1       7.262  -1.296  56.862  1.00  0.00    -0.009 A 
HETATM    8  C8  UNL     1       6.528  -2.437  57.083  1.00  0.00     0.052 A 
HETATM    9  C9  UNL     1       5.209  -2.294  57.533  1.00  0.00     0.102 A 
HETATM   10  C10 UNL     1       4.646  -1.058  57.755  1.00  0.00     0.136 A 
HETATM   11  C11 UNL     1       5.389   0.074  57.532  1.00  0.00     0.114 A 
HETATM   12  C12 UNL     1       6.691  -0.054  57.088  1.00  0.00     0.013 A 
HETATM   13  C13 UNL     1       7.474   1.162  56.853  1.00  0.00     0.218 A 
HETATM   14  O3  UNL     1       8.757   0.923  56.412  1.00  0.00    -0.346 OA
HETATM   15  O4  UNL     1       4.852   1.308  57.745  1.00  0.00    -0.345 OA
HETATM   16  C14 UNL     1       3.520   1.517  58.194  1.00  0.00     0.202 C 
HETATM   17  C15 UNL     1       2.968   0.300  58.887  1.00  0.00     0.202 C 
HETATM   18  O5  UNL     1       3.324  -0.913  58.207  1.00  0.00    -0.344 OA
ENDROOT
BRANCH   1  19
HETATM   19  O1  UNL     1      11.156  -4.017  55.476  1.00  0.00    -0.361 OA
ATOM     20  H1  UNL     1      10.980  -4.733  56.076  1.00  0.00     0.217 HD
ENDBRANCH   1  19
BRANCH   9  21
HETATM   21  O2  UNL     1       4.422  -3.415  57.773  1.00  0.00    -0.358 OA
ATOM     22  H2  UNL     1       4.046  -3.564  58.632  1.00  0.00     0.217 HD
ENDBRANCH   9  21
TORSDOF 2
ENDMDL
MODEL 4
REMARK VINA RESULT: -6.175417503      2.546      5.377
REMARK  2 active torsions:
REMARK  status: ('A' for Active; 'I' for Inactive)
REMARK    1  A    between atoms: O1_1  and  C1_3 
REMARK    2  A    between atoms: C9_11  and  O2_12 
ROOT
HETATM    1  C1  UNL     1      11.202  -3.480  56.627  1.00  0.00     0.066 A 
HETATM    2  C2  UNL     1      12.001  -2.517  56.047  1.00  0.00     0.039 A 
HETATM    3  C3  UNL     1      11.415  -1.324  55.623  1.00  0.00     0.040 A 
HETATM    4  C4  UNL     1      10.079  -1.066  55.757  1.00  0.00     0.080 A 
HETATM    5  C5  UNL     1       9.279  -2.044  56.344  1.00  0.00     0.011 A 
HETATM    6  C6  UNL     1       9.852  -3.222  56.765  1.00  0.00     0.051 A 
HETATM    7  C7  UNL     1       7.863  -1.725  56.466  1.00  0.00    -0.009 A 
HETATM    8  C8  UNL     1       7.056  -2.677  57.044  1.00  0.00     0.052 A 
HETATM    9  C9  UNL     1       5.691  -2.392  57.171  1.00  0.00     0.102 A 
HETATM   10  C10 UNL     1       5.152  -1.202  56.739  1.00  0.00     0.136 A 
HETATM   11  C11 UNL     1       5.967  -0.259  56.166  1.00  0.00     0.114 A 
HETATM   12  C12 UNL     1       7.316  -0.527  56.034  1.00  0.00     0.013 A 
HETATM   13  C13 UNL     1       8.176   0.487  55.419  1.00  0.00     0.218 A 
HETATM   14  O3  UNL     1       9.501   0.119  55.335  1.00  0.00    -0.346 OA
HETATM   15  O4  UNL     1       5.455   0.927  55.731  1.00  0.00    -0.345 OA
HETATM   16  C14 UNL     1       4.079   1.269  55.827  1.00  0.00     0.202 C 
HETATM   17  C15 UNL     1       3.377   0.462  56.885  1.00  0.00     0.202 C 
HETATM   18  O5  UNL     1       3.783  -0.915  56.868  1.00  0.00    -0.344 OA
ENDROOT
BRANCH   1  19
HETATM   19  O1  UNL     1      11.809  -4.656  57.040  1.00  0.00    -0.361 OA
ATOM     20  H1  UNL     1      12.397  -5.087  56.431  1.00  0.00     0.217 HD
ENDBRANCH   1  19
BRANCH   9  21
HETATM   21  O2  UNL     1       4.830  -3.320  57.748  1.00  0.00    -0.358 OA
ATOM     22  H2  UNL     1       5.146  -3.920  58.414  1.00  0.00     0.217 HD
ENDBRANCH   9  21
TORSDOF 2
ENDMDL
MODEL 5
REMARK VINA RESULT: -5.938451013      2.843      7.665
REMARK  2 active torsions:
REMARK  status: ('A' for Active; 'I' for Inactive)
REMARK    1  A    between atoms: O1_1  and  C1_3 
REMARK    2  A    between atoms: C9_11  and  O2_12 
ROOT
HETATM    1  C1  UNL     1       4.407   1.590  58.287  1.00  0.00     0.066 A 
HETATM    2  C2  UNL     1       3.572   0.518  58.521  1.00  0.00     0.039 A 
HETATM    3  C3  UNL     1       4.028  -0.767  58.224  1.00  0.00     0.040 A 
HETATM    4  C4  UNL     1       5.270  -1.012  57.709  1.00  0.00     0.080 A 
HETATM    5  C5  UNL     1       6.108   0.077  57.475  1.00  0.00     0.011 A 
HETATM    6  C6  UNL     1       5.665   1.346  57.767  1.00  0.00     0.051 A 
HETATM    7  C7  UNL     1       7.421  -0.233  56.926  1.00  0.00    -0.009 A 
HETATM    8  C8  UNL     1       8.264   0.828  56.689  1.00  0.00     0.052 A 
HETATM    9  C9  UNL     1       9.532   0.554  56.161  1.00  0.00     0.102 A 
HETATM   10  C10 UNL     1       9.943  -0.729  55.881  1.00  0.00     0.136 A 
HETATM   11  C11 UNL     1       9.094  -1.779  56.123  1.00  0.00     0.114 A 
HETATM   12  C12 UNL     1       7.840  -1.523  56.644  1.00  0.00     0.013 A 
HETATM   13  C13 UNL     1       6.942  -2.653  56.897  1.00  0.00     0.218 A 
HETATM   14  O3  UNL     1       5.719  -2.288  57.415  1.00  0.00    -0.346 OA
HETATM   15  O4  UNL     1       9.480  -3.058  55.854  1.00  0.00    -0.345 OA
HETATM   16  C14 UNL     1      10.749  -3.396  55.312  1.00  0.00     0.202 C 
HETATM   17  C15 UNL     1      11.766  -2.314  55.556  1.00  0.00     0.202 C 
HETATM   18  O5  UNL     1      11.215  -1.004  55.352  1.00  0.00    -0.344 OA
ENDROOT
BRANCH   1  19
HETATM   19  O1  UNL     1       3.932   2.856  58.591  1.00  0.00    -0.361 OA
ATOM     20  H1  UNL     1       4.081   3.548  57.957  1.00  0.00     0.217 HD
ENDBRANCH   1  19
BRANCH   9  21
HETATM   21  O2  UNL     1      10.424   1.590  55.902  1.00  0.00    -0.358 OA
ATOM     22  H2  UNL     1      10.155   2.338  55.382  1.00  0.00     0.217 HD
ENDBRANCH   9  21
TORSDOF 2
ENDMDL
