MODEL 1
REMARK VINA RESULT: -5.253308167      0.000      0.000
REMARK  4 active torsions:
REMARK  status: ('A' for Active; 'I' for Inactive)
REMARK    1  A    between atoms: C2_2  and  C3_3 
REMARK    2  A    between atoms: C4_4  and  C5_5 
REMARK    3  A    between atoms: C7_7  and  O1_8 
REMARK    4  A    between atoms: C8_10  and  O2_11 
ROOT
HETATM    1  C5  UNL     1       6.280   0.662  55.649  1.00  0.00     0.036 A 
HETATM    2  C6  UNL     1       5.505   0.241  54.594  1.00  0.00     0.056 A 
HETATM    3  C7  UNL     1       4.481   1.030  54.071  1.00  0.00     0.102 A 
HETATM    4  C8  UNL     1       4.276   2.245  54.649  1.00  0.00     0.135 A 
HETATM    5  C9  UNL     1       5.062   2.697  55.731  1.00  0.00     0.139 A 
HETATM    6  C10 UNL     1       6.056   1.903  56.220  1.00  0.00     0.118 A 
HETATM    7  O3  UNL     1       6.812   2.373  57.285  1.00  0.00    -0.345 OA
HETATM    8  C11 UNL     1       6.743   3.661  57.825  1.00  0.00     0.202 C 
HETATM    9  C12 UNL     1       5.696   4.548  57.245  1.00  0.00     0.202 C 
HETATM   10  O4  UNL     1       4.842   3.936  56.307  1.00  0.00    -0.343 OA
ENDROOT
BRANCH   1  11
HETATM   11  C4  UNL     1       7.312  -0.157  56.237  1.00  0.00     0.085 C 
HETATM   12  C3  UNL     1       7.138  -1.110  57.115  1.00  0.00    -0.043 C 
HETATM   13  C15 UNL     1       8.512  -1.663  57.417  1.00  0.00     0.069 C 
HETATM   14  C13 UNL     1       9.344  -1.211  56.230  1.00  0.00     0.129 C 
HETATM   15  O5  UNL     1       8.664  -0.004  55.905  1.00  0.00    -0.345 OA
HETATM   16  C14 UNL     1       9.253  -2.165  55.083  1.00  0.00     0.040 C 
BRANCH  12  17
HETATM   17  C2  UNL     1       5.909  -1.609  57.739  1.00  0.00     0.033 C 
HETATM   18  C1  UNL     1       5.449  -2.908  57.102  1.00  0.00     0.010 C 
ENDBRANCH  12  17
ENDBRANCH   1  11
BRANCH   3  19
HETATM   19  O1  UNL     1       3.708   0.606  53.019  1.00  0.00    -0.358 OA
ATOM     20  H1  UNL     1       3.798   0.980  52.150  1.00  0.00     0.217 HD
ENDBRANCH   3  19
BRANCH   4  21
HETATM   21  O2  UNL     1       3.310   3.134  54.248  1.00  0.00    -0.356 OA
ATOM     22  H2  UNL     1       2.924   3.791  54.814  1.00  0.00     0.218 HD
ENDBRANCH   4  21
TORSDOF 4
ENDMDL
MODEL 2
REMARK VINA RESULT: -5.195378913      1.947      2.847
REMARK  4 active torsions:
REMARK  status: ('A' for Active; 'I' for Inactive)
REMARK    1  A    between atoms: C2_2  and  C3_3 
REMARK    2  A    between atoms: C4_4  and  C5_5 
REMARK    3  A    between atoms: C7_7  and  O1_8 
REMARK    4  A    between atoms: C8_10  and  O2_11 
ROOT
HETATM    1  C5  UNL     1       5.758   0.755  57.546  1.00  0.00     0.036 A 
HETATM    2  C6  UNL     1       4.922   0.796  58.637  1.00  0.00     0.056 A 
HETATM    3  C7  UNL     1       4.156   1.922  58.938  1.00  0.00     0.102 A 
HETATM    4  C8  UNL     1       4.268   2.990  58.100  1.00  0.00     0.135 A 
HETATM    5  C9  UNL     1       5.117   2.968  56.974  1.00  0.00     0.139 A 
HETATM    6  C10 UNL     1       5.854   1.852  56.707  1.00  0.00     0.118 A 
HETATM    7  O3  UNL     1       6.681   1.858  55.593  1.00  0.00    -0.345 OA
HETATM    8  C11 UNL     1       6.731   2.865  54.623  1.00  0.00     0.202 C 
HETATM    9  C12 UNL     1       5.878   4.057  54.887  1.00  0.00     0.202 C 
HETATM   10  O4  UNL     1       5.219   4.061  56.132  1.00  0.00    -0.343 OA
ENDROOT
BRANCH   1  11
HETATM   11  C4  UNL     1       6.594  -0.381  57.245  1.00  0.00     0.085 C 
HETATM   12  C3  UNL     1       6.187  -1.573  56.893  1.00  0.00    -0.043 C 
HETATM   13  C15 UNL     1       7.433  -2.403  56.691  1.00  0.00     0.069 C 
HETATM   14  C13 UNL     1       8.525  -1.364  56.505  1.00  0.00     0.129 C 
HETATM   15  O5  UNL     1       7.992  -0.311  57.301  1.00  0.00    -0.345 OA
HETATM   16  C14 UNL     1       8.638  -0.915  55.084  1.00  0.00     0.040 C 
BRANCH  12  17
HETATM   17  C2  UNL     1       4.829  -2.092  56.710  1.00  0.00     0.033 C 
HETATM   18  C1  UNL     1       4.533  -3.229  57.670  1.00  0.00     0.010 C 
ENDBRANCH  12  17
ENDBRANCH   1  11
BRANCH   3  19
HETATM   19  O1  UNL     1       3.324   1.960  60.028  1.00  0.00    -0.358 OA
ATOM     20  H1  UNL     1       3.386   1.320  60.728  1.00  0.00     0.217 HD
ENDBRANCH   3  19
BRANCH   4  21
HETATM   21  O2  UNL     1       3.580   4.167  58.261  1.00  0.00    -0.356 OA
ATOM     22  H2  UNL     1       3.972   4.973  58.576  1.00  0.00     0.218 HD
ENDBRANCH   4  21
TORSDOF 4
ENDMDL
MODEL 3
REMARK VINA RESULT: -5.065045795      2.193      3.339
REMARK  4 active torsions:
REMARK  status: ('A' for Active; 'I' for Inactive)
REMARK    1  A    between atoms: C2_2  and  C3_3 
REMARK    2  A    between atoms: C4_4  and  C5_5 
REMARK    3  A    between atoms: C7_7  and  O1_8 
REMARK    4  A    between atoms: C8_10  and  O2_11 
ROOT
HETATM    1  C5  UNL     1       5.172  -0.029  57.374  1.00  0.00     0.036 A 
HETATM    2  C6  UNL     1       4.668   0.238  58.625  1.00  0.00     0.056 A 
HETATM    3  C7  UNL     1       3.585   1.096  58.816  1.00  0.00     0.102 A 
HETATM    4  C8  UNL     1       3.039   1.664  57.705  1.00  0.00     0.135 A 
HETATM    5  C9  UNL     1       3.540   1.402  56.412  1.00  0.00     0.139 A 
HETATM    6  C10 UNL     1       4.600   0.558  56.259  1.00  0.00     0.118 A 
HETATM    7  O3  UNL     1       5.072   0.320  54.975  1.00  0.00    -0.345 OA
HETATM    8  C11 UNL     1       4.469   0.759  53.792  1.00  0.00     0.202 C 
HETATM    9  C12 UNL     1       3.273   1.630  53.964  1.00  0.00     0.202 C 
HETATM   10  O4  UNL     1       2.974   1.986  55.293  1.00  0.00    -0.343 OA
ENDROOT
BRANCH   1  11
HETATM   11  C4  UNL     1       6.321  -0.874  57.158  1.00  0.00     0.085 C 
HETATM   12  C3  UNL     1       6.303  -2.153  56.888  1.00  0.00    -0.043 C 
HETATM   13  C15 UNL     1       7.747  -2.577  56.753  1.00  0.00     0.069 C 
HETATM   14  C13 UNL     1       8.478  -1.271  56.502  1.00  0.00     0.129 C 
HETATM   15  O5  UNL     1       7.630  -0.380  57.218  1.00  0.00    -0.345 OA
HETATM   16  C14 UNL     1       8.489  -0.900  55.054  1.00  0.00     0.040 C 
BRANCH  12  17
HETATM   17  C2  UNL     1       5.171  -3.071  56.733  1.00  0.00     0.033 C 
HETATM   18  C1  UNL     1       4.573  -3.450  58.075  1.00  0.00     0.010 C 
ENDBRANCH  12  17
ENDBRANCH   1  11
BRANCH   3  19
HETATM   19  O1  UNL     1       3.084   1.361  60.067  1.00  0.00    -0.358 OA
ATOM     20  H1  UNL     1       3.059   2.243  60.419  1.00  0.00     0.217 HD
ENDBRANCH   3  19
BRANCH   4  21
HETATM   21  O2  UNL     1       1.972   2.526  57.729  1.00  0.00    -0.356 OA
ATOM     22  H2  UNL     1       1.632   2.930  58.517  1.00  0.00     0.218 HD
ENDBRANCH   4  21
TORSDOF 4
ENDMDL
MODEL 4
REMARK VINA RESULT: -4.908086481      2.093      3.234
REMARK  4 active torsions:
REMARK  status: ('A' for Active; 'I' for Inactive)
REMARK    1  A    between atoms: C2_2  and  C3_3 
REMARK    2  A    between atoms: C4_4  and  C5_5 
REMARK    3  A    between atoms: C7_7  and  O1_8 
REMARK    4  A    between atoms: C8_10  and  O2_11 
ROOT
HETATM    1  C5  UNL     1       5.646   0.846  56.379  1.00  0.00     0.036 A 
HETATM    2  C6  UNL     1       6.369   1.450  55.377  1.00  0.00     0.056 A 
HETATM    3  C7  UNL     1       6.406   2.836  55.226  1.00  0.00     0.102 A 
HETATM    4  C8  UNL     1       5.693   3.577  56.119  1.00  0.00     0.135 A 
HETATM    5  C9  UNL     1       4.946   2.978  57.155  1.00  0.00     0.139 A 
HETATM    6  C10 UNL     1       4.929   1.620  57.276  1.00  0.00     0.118 A 
HETATM    7  O3  UNL     1       4.186   1.058  58.305  1.00  0.00    -0.345 OA
HETATM    8  C11 UNL     1       3.552   1.767  59.331  1.00  0.00     0.202 C 
HETATM    9  C12 UNL     1       3.625   3.251  59.228  1.00  0.00     0.202 C 
HETATM   10  O4  UNL     1       4.227   3.744  58.055  1.00  0.00    -0.343 OA
ENDROOT
BRANCH   1  11
HETATM   11  C4  UNL     1       5.554  -0.586  56.523  1.00  0.00     0.085 C 
HETATM   12  C3  UNL     1       6.401  -1.357  57.155  1.00  0.00    -0.043 C 
HETATM   13  C15 UNL     1       5.869  -2.765  57.023  1.00  0.00     0.069 C 
HETATM   14  C13 UNL     1       4.406  -2.561  56.674  1.00  0.00     0.129 C 
HETATM   15  O5  UNL     1       4.497  -1.323  55.976  1.00  0.00    -0.345 OA
HETATM   16  C14 UNL     1       3.554  -2.392  57.890  1.00  0.00     0.040 C 
BRANCH  12  17
HETATM   17  C2  UNL     1       7.636  -1.020  57.869  1.00  0.00     0.033 C 
HETATM   18  C1  UNL     1       8.824  -1.787  57.318  1.00  0.00     0.010 C 
ENDBRANCH  12  17
ENDBRANCH   1  11
BRANCH   3  19
HETATM   19  O1  UNL     1       7.128   3.435  54.224  1.00  0.00    -0.358 OA
ATOM     20  H1  UNL     1       7.343   2.976  53.420  1.00  0.00     0.217 HD
ENDBRANCH   3  19
BRANCH   4  21
HETATM   21  O2  UNL     1       5.630   4.948  56.103  1.00  0.00    -0.356 OA
ATOM     22  H2  UNL     1       5.064   5.461  56.666  1.00  0.00     0.218 HD
ENDBRANCH   4  21
TORSDOF 4
ENDMDL
MODEL 5
REMARK VINA RESULT: -4.894792557      1.467      3.095
REMARK  4 active torsions:
REMARK  status: ('A' for Active; 'I' for Inactive)
REMARK    1  A    between atoms: C2_2  and  C3_3 
REMARK    2  A    between atoms: C4_4  and  C5_5 
REMARK    3  A    between atoms: C7_7  and  O1_8 
REMARK    4  A    between atoms: C8_10  and  O2_11 
ROOT
HETATM    1  C5  UNL     1       5.863   1.057  57.196  1.00  0.00     0.036 A 
HETATM    2  C6  UNL     1       5.721   1.908  58.267  1.00  0.00     0.056 A 
HETATM    3  C7  UNL     1       4.812   2.965  58.253  1.00  0.00     0.102 A 
HETATM    4  C8  UNL     1       4.062   3.125  57.128  1.00  0.00     0.135 A 
HETATM    5  C9  UNL     1       4.190   2.262  56.019  1.00  0.00     0.139 A 
HETATM    6  C10 UNL     1       5.088   1.237  56.063  1.00  0.00     0.118 A 
HETATM    7  O3  UNL     1       5.193   0.404  54.957  1.00  0.00    -0.345 OA
HETATM    8  C11 UNL     1       4.357   0.431  53.837  1.00  0.00     0.202 C 
HETATM    9  C12 UNL     1       3.335   1.515  53.821  1.00  0.00     0.202 C 
HETATM   10  O4  UNL     1       3.420   2.436  54.883  1.00  0.00    -0.343 OA
ENDROOT
BRANCH   1  11
HETATM   11  C4  UNL     1       6.830  -0.012  57.170  1.00  0.00     0.085 C 
HETATM   12  C3  UNL     1       6.604  -1.270  57.451  1.00  0.00    -0.043 C 
HETATM   13  C15 UNL     1       7.924  -1.985  57.280  1.00  0.00     0.069 C 
HETATM   14  C13 UNL     1       8.731  -1.038  56.410  1.00  0.00     0.129 C 
HETATM   15  O5  UNL     1       8.170   0.204  56.822  1.00  0.00    -0.345 OA
HETATM   16  C14 UNL     1       8.470  -1.251  54.954  1.00  0.00     0.040 C 
BRANCH  12  17
HETATM   17  C2  UNL     1       5.366  -1.939  57.858  1.00  0.00     0.033 C 
HETATM   18  C1  UNL     1       5.073  -3.147  56.987  1.00  0.00     0.010 C 
ENDBRANCH  12  17
ENDBRANCH   1  11
BRANCH   3  19
HETATM   19  O1  UNL     1       4.673   3.813  59.324  1.00  0.00    -0.358 OA
ATOM     20  H1  UNL     1       5.304   3.828  60.035  1.00  0.00     0.217 HD
ENDBRANCH   3  19
BRANCH   4  21
HETATM   21  O2  UNL     1       3.126   4.115  56.963  1.00  0.00    -0.356 OA
ATOM     22  H2  UNL     1       3.317   4.973  56.606  1.00  0.00     0.218 HD
ENDBRANCH   4  21
TORSDOF 4
ENDMDL
