MODEL 1
REMARK VINA RESULT: -4.406427265      0.000      0.000
REMARK  7 active torsions:
REMARK  status: ('A' for Active; 'I' for Inactive)
REMARK    1  A    between atoms: O1_2  and  C2_3 
REMARK    2  A    between atoms: C2_3  and  C3_4 
REMARK    3  A    between atoms: C3_4  and  N1_5 
REMARK    4  A    between atoms: N1_5  and  C4_8 
REMARK    5  A    between atoms: C4_8  and  C5_9 
REMARK    6  A    between atoms: C5_9  and  O2_10 
REMARK    7  A    between atoms: C9_16  and  O4_17 
ROOT
HETATM    1  C4  UNL     1       7.957   0.788  55.897  1.00  0.00     0.151 C 
HETATM    2  C6  UNL     1       7.879  -0.363  54.984  1.00  0.00     0.043 C 
HETATM    3  C7  UNL     1       8.447  -1.649  55.494  1.00  0.00     0.029 C 
HETATM    4  C8  UNL     1       7.526  -2.280  56.544  1.00  0.00     0.171 C 
HETATM    5  O3  UNL     1       7.648  -1.441  57.653  1.00  0.00    -0.361 OA
HETATM    6  C9  UNL     1       6.635  -0.533  57.608  1.00  0.00     0.259 C 
HETATM    7  C10 UNL     1       6.896   0.768  57.000  1.00  0.00     0.101 C 
ENDROOT
BRANCH   1   8
HETATM    8  N1  UNL     1       7.627   1.998  55.170  1.00  0.00    -0.062 N 
ATOM      9  H12 UNL     1       7.609   1.815  54.167  1.00  0.00     0.278 HD
ATOM     10  H11 UNL     1       8.400   2.661  55.214  1.00  0.00     0.278 HD
BRANCH   8  11
HETATM   11  C3  UNL     1       6.404   2.626  55.586  1.00  0.00     0.259 C 
BRANCH  11  12
HETATM   12  C2  UNL     1       6.337   3.931  54.824  1.00  0.00     0.194 C 
BRANCH  12  13
HETATM   13  O1  UNL     1       5.708   4.882  55.582  1.00  0.00    -0.394 OA
HETATM   14  C1  UNL     1       6.362   5.226  56.730  1.00  0.00     0.201 C 
ENDBRANCH  12  13
ENDBRANCH  11  12
ENDBRANCH   8  11
ENDBRANCH   1   8
BRANCH   1  15
HETATM   15  C5  UNL     1       9.276   0.964  56.589  1.00  0.00     0.203 C 
BRANCH  15  16
HETATM   16  O2  UNL     1      10.304   1.418  55.834  1.00  0.00    -0.398 OA
ATOM     17  H2  UNL     1      10.691   2.246  56.092  1.00  0.00     0.209 HD
ENDBRANCH  15  16
ENDBRANCH   1  15
BRANCH   6  18
HETATM   18  O4  UNL     1       6.197  -0.328  58.939  1.00  0.00    -0.371 OA
ATOM     19  H4  UNL     1       6.696   0.400  59.291  1.00  0.00     0.212 HD
ENDBRANCH   6  18
TORSDOF 7
ENDMDL
MODEL 2
REMARK VINA RESULT: -4.269038918      3.918      6.711
REMARK  7 active torsions:
REMARK  status: ('A' for Active; 'I' for Inactive)
REMARK    1  A    between atoms: O1_2  and  C2_3 
REMARK    2  A    between atoms: C2_3  and  C3_4 
REMARK    3  A    between atoms: C3_4  and  N1_5 
REMARK    4  A    between atoms: N1_5  and  C4_8 
REMARK    5  A    between atoms: C4_8  and  C5_9 
REMARK    6  A    between atoms: C5_9  and  O2_10 
REMARK    7  A    between atoms: C9_16  and  O4_17 
ROOT
HETATM    1  C4  UNL     1      10.580  -2.125  55.737  1.00  0.00     0.151 C 
HETATM    2  C6  UNL     1       9.326  -2.545  55.094  1.00  0.00     0.043 C 
HETATM    3  C7  UNL     1       8.073  -2.307  55.874  1.00  0.00     0.029 C 
HETATM    4  C8  UNL     1       7.701  -0.820  55.877  1.00  0.00     0.171 C 
HETATM    5  O3  UNL     1       8.672  -0.228  56.686  1.00  0.00    -0.361 OA
HETATM    6  C9  UNL     1       9.667   0.233  55.881  1.00  0.00     0.259 C 
HETATM    7  C10 UNL     1      10.832  -0.618  55.661  1.00  0.00     0.101 C 
ENDROOT
BRANCH   1   8
HETATM    8  N1  UNL     1      11.702  -2.665  54.994  1.00  0.00    -0.062 N 
ATOM      9  H12 UNL     1      11.607  -2.452  54.002  1.00  0.00     0.278 HD
ATOM     10  H11 UNL     1      11.649  -3.684  54.961  1.00  0.00     0.278 HD
BRANCH   8  11
HETATM   11  C3  UNL     1      12.990  -2.248  55.475  1.00  0.00     0.259 C 
BRANCH  11  12
HETATM   12  C2  UNL     1      13.906  -3.434  55.269  1.00  0.00     0.194 C 
BRANCH  12  13
HETATM   13  O1  UNL     1      13.378  -4.542  55.876  1.00  0.00    -0.394 OA
HETATM   14  C1  UNL     1      14.091  -5.691  55.693  1.00  0.00     0.201 C 
ENDBRANCH  12  13
ENDBRANCH  11  12
ENDBRANCH   8  11
ENDBRANCH   1   8
BRANCH   1  15
HETATM   15  C5  UNL     1      10.712  -2.499  57.183  1.00  0.00     0.203 C 
BRANCH  15  16
HETATM   16  O2  UNL     1      11.001  -3.793  57.454  1.00  0.00    -0.398 OA
ATOM     17  H2  UNL     1      11.873  -3.976  57.783  1.00  0.00     0.209 HD
ENDBRANCH  15  16
ENDBRANCH   1  15
BRANCH   6  18
HETATM   18  O4  UNL     1      10.106   1.467  56.421  1.00  0.00    -0.371 OA
ATOM     19  H4  UNL     1      10.590   1.917  55.739  1.00  0.00     0.212 HD
ENDBRANCH   6  18
TORSDOF 7
ENDMDL
MODEL 3
REMARK VINA RESULT: -4.230473318      2.692      5.274
REMARK  7 active torsions:
REMARK  status: ('A' for Active; 'I' for Inactive)
REMARK    1  A    between atoms: O1_2  and  C2_3 
REMARK    2  A    between atoms: C2_3  and  C3_4 
REMARK    3  A    between atoms: C3_4  and  N1_5 
REMARK    4  A    between atoms: N1_5  and  C4_8 
REMARK    5  A    between atoms: C4_8  and  C5_9 
REMARK    6  A    between atoms: C5_9  and  O2_10 
REMARK    7  A    between atoms: C9_16  and  O4_17 
ROOT
HETATM    1  C4  UNL     1       8.357  -0.916  56.023  1.00  0.00     0.151 C 
HETATM    2  C6  UNL     1       7.592  -2.108  56.421  1.00  0.00     0.043 C 
HETATM    3  C7  UNL     1       6.421  -1.871  57.321  1.00  0.00     0.029 C 
HETATM    4  C8  UNL     1       5.254  -1.244  56.551  1.00  0.00     0.171 C 
HETATM    5  O3  UNL     1       5.685   0.055  56.276  1.00  0.00    -0.361 OA
HETATM    6  C9  UNL     1       6.239   0.060  55.033  1.00  0.00     0.259 C 
HETATM    7  C10 UNL     1       7.685  -0.099  54.918  1.00  0.00     0.101 C 
ENDROOT
BRANCH   1   8
HETATM    8  N1  UNL     1       9.595  -1.330  55.395  1.00  0.00    -0.062 N 
ATOM      9  H12 UNL     1      10.393  -1.061  55.970  1.00  0.00     0.278 HD
ATOM     10  H11 UNL     1       9.779  -0.767  54.565  1.00  0.00     0.278 HD
BRANCH   8  11
HETATM   11  C3  UNL     1       9.660  -2.729  55.074  1.00  0.00     0.259 C 
BRANCH  11  12
HETATM   12  C2  UNL     1      11.035  -3.184  55.508  1.00  0.00     0.194 C 
BRANCH  12  13
HETATM   13  O1  UNL     1      11.078  -3.304  56.872  1.00  0.00    -0.394 OA
HETATM   14  C1  UNL     1      11.716  -4.420  57.331  1.00  0.00     0.201 C 
ENDBRANCH  12  13
ENDBRANCH  11  12
ENDBRANCH   8  11
ENDBRANCH   1   8
BRANCH   1  15
HETATM   15  C5  UNL     1       8.657   0.048  57.132  1.00  0.00     0.203 C 
BRANCH  15  16
HETATM   16  O2  UNL     1       9.052   1.291  56.768  1.00  0.00    -0.398 OA
ATOM     17  H2  UNL     1       8.451   2.002  56.955  1.00  0.00     0.209 HD
ENDBRANCH  15  16
ENDBRANCH   1  15
BRANCH   6  18
HETATM   18  O4  UNL     1       5.869   1.279  54.415  1.00  0.00    -0.371 OA
ATOM     19  H4  UNL     1       6.648   1.632  54.000  1.00  0.00     0.212 HD
ENDBRANCH   6  18
TORSDOF 7
ENDMDL
MODEL 4
REMARK VINA RESULT: -4.162622326      2.921      5.545
REMARK  7 active torsions:
REMARK  status: ('A' for Active; 'I' for Inactive)
REMARK    1  A    between atoms: O1_2  and  C2_3 
REMARK    2  A    between atoms: C2_3  and  C3_4 
REMARK    3  A    between atoms: C3_4  and  N1_5 
REMARK    4  A    between atoms: N1_5  and  C4_8 
REMARK    5  A    between atoms: C4_8  and  C5_9 
REMARK    6  A    between atoms: C5_9  and  O2_10 
REMARK    7  A    between atoms: C9_16  and  O4_17 
ROOT
HETATM    1  C4  UNL     1       9.063  -0.983  55.907  1.00  0.00     0.151 C 
HETATM    2  C6  UNL     1       8.674  -1.651  57.159  1.00  0.00     0.043 C 
HETATM    3  C7  UNL     1       7.986  -0.797  58.176  1.00  0.00     0.029 C 
HETATM    4  C8  UNL     1       6.542  -0.497  57.758  1.00  0.00     0.171 C 
HETATM    5  O3  UNL     1       6.675   0.376  56.678  1.00  0.00    -0.361 OA
HETATM    6  C9  UNL     1       6.636  -0.360  55.534  1.00  0.00     0.259 C 
HETATM    7  C10 UNL     1       7.899  -0.778  54.935  1.00  0.00     0.101 C 
ENDROOT
BRANCH   1   8
HETATM    8  N1  UNL     1       9.947  -1.853  55.156  1.00  0.00    -0.062 N 
ATOM      9  H12 UNL     1      10.499  -1.310  54.492  1.00  0.00     0.278 HD
ATOM     10  H11 UNL     1       9.410  -2.430  54.508  1.00  0.00     0.278 HD
BRANCH   8  11
HETATM   11  C3  UNL     1      10.803  -2.674  55.966  1.00  0.00     0.259 C 
BRANCH  11  12
HETATM   12  C2  UNL     1      12.211  -2.378  55.501  1.00  0.00     0.194 C 
BRANCH  12  13
HETATM   13  O1  UNL     1      13.047  -3.399  55.868  1.00  0.00    -0.394 OA
HETATM   14  C1  UNL     1      12.418  -4.518  56.332  1.00  0.00     0.201 C 
ENDBRANCH  12  13
ENDBRANCH  11  12
ENDBRANCH   8  11
ENDBRANCH   1   8
BRANCH   1  15
HETATM   15  C5  UNL     1       9.708   0.360  56.076  1.00  0.00     0.203 C 
BRANCH  15  16
HETATM   16  O2  UNL     1       9.106   1.407  55.464  1.00  0.00    -0.398 OA
ATOM     17  H2  UNL     1       9.203   2.257  55.877  1.00  0.00     0.209 HD
ENDBRANCH  15  16
ENDBRANCH   1  15
BRANCH   6  18
HETATM   18  O4  UNL     1       5.911   0.391  54.576  1.00  0.00    -0.371 OA
ATOM     19  H4  UNL     1       6.521   0.639  53.892  1.00  0.00     0.212 HD
ENDBRANCH   6  18
TORSDOF 7
ENDMDL
MODEL 5
REMARK VINA RESULT: -4.138554405      2.865      5.864
REMARK  7 active torsions:
REMARK  status: ('A' for Active; 'I' for Inactive)
REMARK    1  A    between atoms: O1_2  and  C2_3 
REMARK    2  A    between atoms: C2_3  and  C3_4 
REMARK    3  A    between atoms: C3_4  and  N1_5 
REMARK    4  A    between atoms: N1_5  and  C4_8 
REMARK    5  A    between atoms: C4_8  and  C5_9 
REMARK    6  A    between atoms: C5_9  and  O2_10 
REMARK    7  A    between atoms: C9_16  and  O4_17 
ROOT
HETATM    1  C4  UNL     1       8.336  -1.592  56.773  1.00  0.00     0.151 C 
HETATM    2  C6  UNL     1       8.767  -0.804  55.608  1.00  0.00     0.043 C 
HETATM    3  C7  UNL     1       7.680  -0.309  54.708  1.00  0.00     0.029 C 
HETATM    4  C8  UNL     1       6.921   0.856  55.352  1.00  0.00     0.171 C 
HETATM    5  O3  UNL     1       6.200   0.262  56.389  1.00  0.00    -0.361 OA
HETATM    6  C9  UNL     1       6.932   0.376  57.531  1.00  0.00     0.259 C 
HETATM    7  C10 UNL     1       7.789  -0.739  57.920  1.00  0.00     0.101 C 
ENDROOT
BRANCH   1   8
HETATM    8  N1  UNL     1       9.493  -2.221  57.379  1.00  0.00    -0.062 N 
ATOM      9  H12 UNL     1       9.204  -2.991  57.982  1.00  0.00     0.278 HD
ATOM     10  H11 UNL     1       9.912  -1.602  58.073  1.00  0.00     0.278 HD
BRANCH   8  11
HETATM   11  C3  UNL     1      10.486  -2.667  56.442  1.00  0.00     0.259 C 
BRANCH  11  12
HETATM   12  C2  UNL     1      11.531  -3.386  57.265  1.00  0.00     0.194 C 
BRANCH  12  13
HETATM   13  O1  UNL     1      11.821  -4.598  56.696  1.00  0.00    -0.394 OA
HETATM   14  C1  UNL     1      13.003  -4.644  56.016  1.00  0.00     0.201 C 
ENDBRANCH  12  13
ENDBRANCH  11  12
ENDBRANCH   8  11
ENDBRANCH   1   8
BRANCH   1  15
HETATM   15  C5  UNL     1       7.292  -2.630  56.490  1.00  0.00     0.203 C 
BRANCH  15  16
HETATM   16  O2  UNL     1       6.202  -2.632  57.292  1.00  0.00    -0.398 OA
ATOM     17  H2  UNL     1       6.355  -2.525  58.223  1.00  0.00     0.209 HD
ENDBRANCH  15  16
ENDBRANCH   1  15
BRANCH   6  18
HETATM   18  O4  UNL     1       6.024   0.636  58.586  1.00  0.00    -0.371 OA
ATOM     19  H4  UNL     1       5.706   1.524  58.472  1.00  0.00     0.212 HD
ENDBRANCH   6  18
TORSDOF 7
ENDMDL
