MODEL 1
REMARK VINA RESULT: -5.840199363      0.000      0.000
REMARK  6 active torsions:
REMARK  status: ('A' for Active; 'I' for Inactive)
REMARK    1  A    between atoms: C2_2  and  C3_3 
REMARK    2  A    between atoms: C5_5  and  O1_6 
REMARK    3  A    between atoms: O1_6  and  C6_7 
REMARK    4  A    between atoms: C6_7  and  C7_8 
REMARK    5  A    between atoms: C7_8  and  O2_9 
REMARK    6  A    between atoms: C8_11  and  O3_12 
ROOT
HETATM    1  C3  UNL     1       7.670  -1.359  55.941  1.00  0.00    -0.027 A 
HETATM    2  C4  UNL     1       7.345  -0.033  56.112  1.00  0.00     0.051 A 
HETATM    3  C5  UNL     1       8.184   1.014  55.776  1.00  0.00     0.103 A 
HETATM    4  C8  UNL     1       9.431   0.649  55.230  1.00  0.00     0.105 A 
HETATM    5  C9  UNL     1       9.781  -0.669  55.048  1.00  0.00    -0.015 A 
HETATM    6  C10 UNL     1       8.921  -1.676  55.396  1.00  0.00    -0.039 A 
HETATM    7  C11 UNL     1       9.528  -3.018  55.114  1.00  0.00     0.040 C 
HETATM    8  C12 UNL     1      11.024  -2.651  55.170  1.00  0.00     0.009 C 
HETATM    9  C13 UNL     1      11.022  -1.311  54.488  1.00  0.00     0.042 C 
ENDROOT
BRANCH   3  10
HETATM   10  O1  UNL     1       7.893   2.346  55.936  1.00  0.00    -0.346 OA
BRANCH  10  11
HETATM   11  C6  UNL     1       6.920   3.105  55.362  1.00  0.00     0.201 C 
BRANCH  11  12
HETATM   12  C7  UNL     1       6.142   4.043  56.233  1.00  0.00     0.190 C 
BRANCH  12  13
HETATM   13  O2  UNL     1       6.494   5.389  55.964  1.00  0.00    -0.399 OA
ATOM     14  H2  UNL     1       6.588   5.533  55.029  1.00  0.00     0.209 HD
ENDBRANCH  12  13
ENDBRANCH  11  12
ENDBRANCH  10  11
ENDBRANCH   3  10
BRANCH   4  15
HETATM   15  O3  UNL     1      10.303   1.684  54.878  1.00  0.00    -0.357 OA
ATOM     16  H3  UNL     1      11.167   1.439  54.569  1.00  0.00     0.217 HD
ENDBRANCH   4  15
BRANCH   1  17
HETATM   17  C2  UNL     1       6.788  -2.459  56.298  1.00  0.00     0.002 C 
HETATM   18  C1  UNL     1       5.487  -2.308  56.281  1.00  0.00     0.012 C 
ENDBRANCH   1  17
TORSDOF 6
ENDMDL
MODEL 2
REMARK VINA RESULT: -5.680596111      0.899      1.000
REMARK  6 active torsions:
REMARK  status: ('A' for Active; 'I' for Inactive)
REMARK    1  A    between atoms: C2_2  and  C3_3 
REMARK    2  A    between atoms: C5_5  and  O1_6 
REMARK    3  A    between atoms: O1_6  and  C6_7 
REMARK    4  A    between atoms: C6_7  and  C7_8 
REMARK    5  A    between atoms: C7_8  and  O2_9 
REMARK    6  A    between atoms: C8_11  and  O3_12 
ROOT
HETATM    1  C3  UNL     1       7.023  -1.339  56.167  1.00  0.00    -0.027 A 
HETATM    2  C4  UNL     1       6.513  -0.120  56.552  1.00  0.00     0.051 A 
HETATM    3  C5  UNL     1       7.177   1.080  56.379  1.00  0.00     0.103 A 
HETATM    4  C8  UNL     1       8.444   0.998  55.767  1.00  0.00     0.105 A 
HETATM    5  C9  UNL     1       8.977  -0.207  55.372  1.00  0.00    -0.015 A 
HETATM    6  C10 UNL     1       8.287  -1.374  55.563  1.00  0.00    -0.039 A 
HETATM    7  C11 UNL     1       9.075  -2.548  55.062  1.00  0.00     0.040 C 
HETATM    8  C12 UNL     1      10.501  -1.973  55.159  1.00  0.00     0.009 C 
HETATM    9  C13 UNL     1      10.278  -0.559  54.702  1.00  0.00     0.042 C 
ENDROOT
BRANCH   3  10
HETATM   10  O1  UNL     1       6.699   2.312  56.754  1.00  0.00    -0.346 OA
BRANCH  10  11
HETATM   11  C6  UNL     1       5.724   3.080  56.197  1.00  0.00     0.201 C 
BRANCH  11  12
HETATM   12  C7  UNL     1       6.129   4.170  55.253  1.00  0.00     0.190 C 
BRANCH  12  13
HETATM   13  O2  UNL     1       6.476   5.347  55.963  1.00  0.00    -0.399 OA
ATOM     14  H2  UNL     1       5.778   5.990  55.912  1.00  0.00     0.209 HD
ENDBRANCH  12  13
ENDBRANCH  11  12
ENDBRANCH  10  11
ENDBRANCH   3  10
BRANCH   4  15
HETATM   15  O3  UNL     1       9.141   2.195  55.577  1.00  0.00    -0.357 OA
ATOM     16  H3  UNL     1       9.347   2.441  54.682  1.00  0.00     0.217 HD
ENDBRANCH   4  15
BRANCH   1  17
HETATM   17  C2  UNL     1       6.325  -2.601  56.351  1.00  0.00     0.002 C 
HETATM   18  C1  UNL     1       5.093  -2.628  56.795  1.00  0.00     0.012 C 
ENDBRANCH   1  17
TORSDOF 6
ENDMDL
MODEL 3
REMARK VINA RESULT: -5.678759222      2.723      5.272
REMARK  6 active torsions:
REMARK  status: ('A' for Active; 'I' for Inactive)
REMARK    1  A    between atoms: C2_2  and  C3_3 
REMARK    2  A    between atoms: C5_5  and  O1_6 
REMARK    3  A    between atoms: O1_6  and  C6_7 
REMARK    4  A    between atoms: C6_7  and  C7_8 
REMARK    5  A    between atoms: C7_8  and  O2_9 
REMARK    6  A    between atoms: C8_11  and  O3_12 
ROOT
HETATM    1  C3  UNL     1       7.354  -1.478  55.779  1.00  0.00    -0.027 A 
HETATM    2  C4  UNL     1       8.206  -2.543  55.595  1.00  0.00     0.051 A 
HETATM    3  C5  UNL     1       9.532  -2.410  55.225  1.00  0.00     0.103 A 
HETATM    4  C8  UNL     1       9.989  -1.090  55.041  1.00  0.00     0.105 A 
HETATM    5  C9  UNL     1       9.158  -0.008  55.219  1.00  0.00    -0.015 A 
HETATM    6  C10 UNL     1       7.850  -0.183  55.583  1.00  0.00    -0.039 A 
HETATM    7  C11 UNL     1       7.149   1.138  55.705  1.00  0.00     0.040 C 
HETATM    8  C12 UNL     1       8.025   1.992  54.768  1.00  0.00     0.009 C 
HETATM    9  C13 UNL     1       9.397   1.473  55.096  1.00  0.00     0.042 C 
ENDROOT
BRANCH   3  10
HETATM   10  O1  UNL     1      10.408  -3.450  55.030  1.00  0.00    -0.346 OA
BRANCH  10  11
HETATM   11  C6  UNL     1      11.202  -4.106  55.920  1.00  0.00     0.201 C 
BRANCH  11  12
HETATM   12  C7  UNL     1      12.648  -4.295  55.578  1.00  0.00     0.190 C 
BRANCH  12  13
HETATM   13  O2  UNL     1      13.219  -3.083  55.117  1.00  0.00    -0.399 OA
ATOM     14  H2  UNL     1      14.129  -3.210  54.875  1.00  0.00     0.209 HD
ENDBRANCH  12  13
ENDBRANCH  11  12
ENDBRANCH  10  11
ENDBRANCH   3  10
BRANCH   4  15
HETATM   15  O3  UNL     1      11.326  -0.923  54.668  1.00  0.00    -0.357 OA
ATOM     16  H3  UNL     1      11.675  -0.039  54.688  1.00  0.00     0.217 HD
ENDBRANCH   4  15
BRANCH   1  17
HETATM   17  C2  UNL     1       5.958  -1.618  56.165  1.00  0.00     0.002 C 
HETATM   18  C1  UNL     1       5.491  -2.766  56.587  1.00  0.00     0.012 C 
ENDBRANCH   1  17
TORSDOF 6
ENDMDL
MODEL 4
REMARK VINA RESULT: -5.672294366      1.172      3.260
REMARK  6 active torsions:
REMARK  status: ('A' for Active; 'I' for Inactive)
REMARK    1  A    between atoms: C2_2  and  C3_3 
REMARK    2  A    between atoms: C5_5  and  O1_6 
REMARK    3  A    between atoms: O1_6  and  C6_7 
REMARK    4  A    between atoms: C6_7  and  C7_8 
REMARK    5  A    between atoms: C7_8  and  O2_9 
REMARK    6  A    between atoms: C8_11  and  O3_12 
ROOT
HETATM    1  C3  UNL     1       8.516  -0.803  55.073  1.00  0.00    -0.027 A 
HETATM    2  C4  UNL     1       8.523   0.556  54.858  1.00  0.00     0.051 A 
HETATM    3  C5  UNL     1       7.653   1.436  55.476  1.00  0.00     0.103 A 
HETATM    4  C8  UNL     1       6.727   0.859  56.368  1.00  0.00     0.105 A 
HETATM    5  C9  UNL     1       6.699  -0.497  56.601  1.00  0.00    -0.015 A 
HETATM    6  C10 UNL     1       7.578  -1.334  55.967  1.00  0.00    -0.039 A 
HETATM    7  C11 UNL     1       7.345  -2.759  56.375  1.00  0.00     0.040 C 
HETATM    8  C12 UNL     1       5.866  -2.677  56.798  1.00  0.00     0.009 C 
HETATM    9  C13 UNL     1       5.834  -1.345  57.494  1.00  0.00     0.042 C 
ENDROOT
BRANCH   3  10
HETATM   10  O1  UNL     1       7.631   2.795  55.283  1.00  0.00    -0.346 OA
BRANCH  10  11
HETATM   11  C6  UNL     1       6.889   3.546  54.423  1.00  0.00     0.201 C 
BRANCH  11  12
HETATM   12  C7  UNL     1       5.854   4.467  54.993  1.00  0.00     0.190 C 
BRANCH  12  13
HETATM   13  O2  UNL     1       6.441   5.385  55.899  1.00  0.00    -0.399 OA
ATOM     14  H2  UNL     1       7.374   5.470  55.735  1.00  0.00     0.209 HD
ENDBRANCH  12  13
ENDBRANCH  11  12
ENDBRANCH  10  11
ENDBRANCH   3  10
BRANCH   4  15
HETATM   15  O3  UNL     1       5.834   1.723  57.010  1.00  0.00    -0.357 OA
ATOM     16  H3  UNL     1       4.906   1.552  56.895  1.00  0.00     0.217 HD
ENDBRANCH   4  15
BRANCH   1  17
HETATM   17  C2  UNL     1       9.429  -1.728  54.420  1.00  0.00     0.002 C 
HETATM   18  C1  UNL     1      10.724  -1.621  54.585  1.00  0.00     0.012 C 
ENDBRANCH   1  17
TORSDOF 6
ENDMDL
MODEL 5
REMARK VINA RESULT: -5.672280531      1.716      3.861
REMARK  6 active torsions:
REMARK  status: ('A' for Active; 'I' for Inactive)
REMARK    1  A    between atoms: C2_2  and  C3_3 
REMARK    2  A    between atoms: C5_5  and  O1_6 
REMARK    3  A    between atoms: O1_6  and  C6_7 
REMARK    4  A    between atoms: C6_7  and  C7_8 
REMARK    5  A    between atoms: C7_8  and  O2_9 
REMARK    6  A    between atoms: C8_11  and  O3_12 
ROOT
HETATM    1  C3  UNL     1       7.462  -1.130  55.200  1.00  0.00    -0.027 A 
HETATM    2  C4  UNL     1       7.379   0.114  54.618  1.00  0.00     0.051 A 
HETATM    3  C5  UNL     1       6.251   0.913  54.670  1.00  0.00     0.103 A 
HETATM    4  C8  UNL     1       5.152   0.379  55.372  1.00  0.00     0.105 A 
HETATM    5  C9  UNL     1       5.209  -0.862  55.964  1.00  0.00    -0.015 A 
HETATM    6  C10 UNL     1       6.345  -1.623  55.887  1.00  0.00    -0.039 A 
HETATM    7  C11 UNL     1       6.160  -2.931  56.597  1.00  0.00     0.040 C 
HETATM    8  C12 UNL     1       4.626  -3.061  56.519  1.00  0.00     0.009 C 
HETATM    9  C13 UNL     1       4.199  -1.641  56.763  1.00  0.00     0.042 C 
ENDROOT
BRANCH   3  10
HETATM   10  O1  UNL     1       6.134   2.156  54.098  1.00  0.00    -0.346 OA
BRANCH  10  11
HETATM   11  C6  UNL     1       6.625   3.358  54.506  1.00  0.00     0.201 C 
BRANCH  11  12
HETATM   12  C7  UNL     1       5.769   4.213  55.390  1.00  0.00     0.190 C 
BRANCH  12  13
HETATM   13  O2  UNL     1       6.495   5.337  55.858  1.00  0.00    -0.399 OA
ATOM     14  H2  UNL     1       6.095   5.693  56.643  1.00  0.00     0.209 HD
ENDBRANCH  12  13
ENDBRANCH  11  12
ENDBRANCH  10  11
ENDBRANCH   3  10
BRANCH   4  15
HETATM   15  O3  UNL     1       3.997   1.163  55.444  1.00  0.00    -0.357 OA
ATOM     16  H3  UNL     1       3.333   1.021  54.779  1.00  0.00     0.217 HD
ENDBRANCH   4  15
BRANCH   1  17
HETATM   17  C2  UNL     1       8.647  -1.971  55.142  1.00  0.00     0.002 C 
HETATM   18  C1  UNL     1       9.691  -1.612  54.438  1.00  0.00     0.012 C 
ENDBRANCH   1  17
TORSDOF 6
ENDMDL
