MODEL 1
REMARK VINA RESULT: -6.319545073      0.000      0.000
REMARK  5 active torsions:
REMARK  status: ('A' for Active; 'I' for Inactive)
REMARK    1  A    between atoms: O1_1  and  C1_3 
REMARK    2  A    between atoms: C1_3  and  C2_4 
REMARK    3  A    between atoms: C5_7  and  C6_8 
REMARK    4  A    between atoms: C6_8  and  O2_9 
REMARK    5  A    between atoms: C6_8  and  C7_11 
ROOT
HETATM    1  C6  UNL     1      13.647  -5.546  54.971  1.00  0.00     0.179 C 
ENDROOT
BRANCH   1   2
HETATM    2  C5  UNL     1      12.795  -4.354  55.252  1.00  0.00     0.082 A 
HETATM    3  C4  UNL     1      13.231  -3.064  55.077  1.00  0.00     0.038 A 
HETATM    4  C3  UNL     1      12.171  -2.262  55.439  1.00  0.00     0.037 A 
HETATM    5  C2  UNL     1      11.127  -3.077  55.821  1.00  0.00     0.076 A 
HETATM    6  O3  UNL     1      11.556  -4.330  55.690  1.00  0.00    -0.315 OA
BRANCH   5   7
HETATM    7  C1  UNL     1       9.796  -2.624  56.283  1.00  0.00     0.229 C 
BRANCH   7   8
HETATM    8  O1  UNL     1       8.971  -2.489  55.194  1.00  0.00    -0.394 OA
ATOM      9  H1  UNL     1       8.306  -1.839  55.392  1.00  0.00     0.209 HD
ENDBRANCH   7   8
ENDBRANCH   5   7
ENDBRANCH   1   2
BRANCH   1  10
HETATM   10  O2  UNL     1      13.503  -6.537  55.932  1.00  0.00    -0.389 OA
ATOM     11  H2  UNL     1      13.908  -6.301  56.758  1.00  0.00     0.210 HD
ENDBRANCH   1  10
BRANCH   1  12
HETATM   12  C7  UNL     1      15.092  -5.184  54.688  1.00  0.00     0.021 C 
HETATM   13  C8  UNL     1      15.986  -6.122  55.370  1.00  0.00     0.007 C 
HETATM   14  C9  UNL     1      17.394  -6.204  54.978  1.00  0.00     0.000 C 
HETATM   15  C10 UNL     1      17.790  -5.585  53.679  1.00  0.00     0.000 C 
HETATM   16  C11 UNL     1      17.429  -4.116  53.699  1.00  0.00     0.000 C 
HETATM   17  C12 UNL     1      16.224  -3.951  52.812  1.00  0.00     0.000 C 
HETATM   18  C13 UNL     1      15.247  -5.067  53.205  1.00  0.00     0.007 C 
ENDBRANCH   1  12
TORSDOF 5
ENDMDL
MODEL 2
REMARK VINA RESULT: -6.314676079      1.931      3.490
REMARK  5 active torsions:
REMARK  status: ('A' for Active; 'I' for Inactive)
REMARK    1  A    between atoms: O1_1  and  C1_3 
REMARK    2  A    between atoms: C1_3  and  C2_4 
REMARK    3  A    between atoms: C5_7  and  C6_8 
REMARK    4  A    between atoms: C6_8  and  O2_9 
REMARK    5  A    between atoms: C6_8  and  C7_11 
ROOT
HETATM    1  C6  UNL     1      11.240  -3.920  56.215  1.00  0.00     0.179 C 
ENDROOT
BRANCH   1   2
HETATM    2  C5  UNL     1      10.457  -2.816  55.588  1.00  0.00     0.082 A 
HETATM    3  C4  UNL     1       9.637  -3.003  54.503  1.00  0.00     0.038 A 
HETATM    4  C3  UNL     1       9.101  -1.765  54.225  1.00  0.00     0.037 A 
HETATM    5  C2  UNL     1       9.604  -0.865  55.140  1.00  0.00     0.076 A 
HETATM    6  O3  UNL     1      10.418  -1.550  55.939  1.00  0.00    -0.315 OA
BRANCH   5   7
HETATM    7  C1  UNL     1       9.287   0.580  55.201  1.00  0.00     0.229 C 
BRANCH   7   8
HETATM    8  O1  UNL     1      10.453   1.295  55.076  1.00  0.00    -0.394 OA
ATOM      9  H1  UNL     1      10.362   2.115  55.548  1.00  0.00     0.209 HD
ENDBRANCH   7   8
ENDBRANCH   5   7
ENDBRANCH   1   2
BRANCH   1  10
HETATM   10  O2  UNL     1      11.504  -3.684  57.557  1.00  0.00    -0.389 OA
ATOM     11  H2  UNL     1      12.305  -4.103  57.848  1.00  0.00     0.210 HD
ENDBRANCH   1  10
BRANCH   1  12
HETATM   12  C7  UNL     1      12.471  -4.299  55.415  1.00  0.00     0.021 C 
HETATM   13  C8  UNL     1      13.188  -3.093  54.997  1.00  0.00     0.007 C 
HETATM   14  C9  UNL     1      14.570  -3.192  54.528  1.00  0.00     0.000 C 
HETATM   15  C10 UNL     1      15.312  -4.455  54.814  1.00  0.00     0.000 C 
HETATM   16  C11 UNL     1      14.561  -5.619  54.205  1.00  0.00     0.000 C 
HETATM   17  C12 UNL     1      13.910  -6.360  55.341  1.00  0.00     0.000 C 
HETATM   18  C13 UNL     1      13.245  -5.294  56.222  1.00  0.00     0.007 C 
ENDBRANCH   1  12
TORSDOF 5
ENDMDL
MODEL 3
REMARK VINA RESULT: -5.977323204      4.058      6.225
REMARK  5 active torsions:
REMARK  status: ('A' for Active; 'I' for Inactive)
REMARK    1  A    between atoms: O1_1  and  C1_3 
REMARK    2  A    between atoms: C1_3  and  C2_4 
REMARK    3  A    between atoms: C5_7  and  C6_8 
REMARK    4  A    between atoms: C6_8  and  O2_9 
REMARK    5  A    between atoms: C6_8  and  C7_11 
ROOT
HETATM    1  C6  UNL     1       8.522  -1.562  55.143  1.00  0.00     0.179 C 
ENDROOT
BRANCH   1   2
HETATM    2  C5  UNL     1       8.454  -0.074  55.060  1.00  0.00     0.082 A 
HETATM    3  C4  UNL     1       9.555   0.734  55.202  1.00  0.00     0.038 A 
HETATM    4  C3  UNL     1       9.088   2.023  55.063  1.00  0.00     0.037 A 
HETATM    5  C2  UNL     1       7.729   1.965  54.842  1.00  0.00     0.076 A 
HETATM    6  O3  UNL     1       7.396   0.677  54.849  1.00  0.00    -0.315 OA
BRANCH   5   7
HETATM    7  C1  UNL     1       6.832   3.126  54.638  1.00  0.00     0.229 C 
BRANCH   7   8
HETATM    8  O1  UNL     1       6.792   3.863  55.796  1.00  0.00    -0.394 OA
ATOM      9  H1  UNL     1       6.124   3.501  56.367  1.00  0.00     0.209 HD
ENDBRANCH   7   8
ENDBRANCH   5   7
ENDBRANCH   1   2
BRANCH   1  10
HETATM   10  O2  UNL     1       7.528  -2.092  55.953  1.00  0.00    -0.389 OA
ATOM     11  H2  UNL     1       7.238  -1.479  56.618  1.00  0.00     0.210 HD
ENDBRANCH   1  10
BRANCH   1  12
HETATM   12  C7  UNL     1       9.911  -2.070  55.480  1.00  0.00     0.021 C 
HETATM   13  C8  UNL     1       9.855  -2.936  56.660  1.00  0.00     0.007 C 
HETATM   14  C9  UNL     1      10.980  -3.819  56.969  1.00  0.00     0.000 C 
HETATM   15  C10 UNL     1      11.989  -4.062  55.898  1.00  0.00     0.000 C 
HETATM   16  C11 UNL     1      12.581  -2.738  55.467  1.00  0.00     0.000 C 
HETATM   17  C12 UNL     1      11.996  -2.417  54.118  1.00  0.00     0.000 C 
HETATM   18  C13 UNL     1      10.487  -2.668  54.235  1.00  0.00     0.007 C 
ENDBRANCH   1  12
TORSDOF 5
ENDMDL
MODEL 4
REMARK VINA RESULT: -5.835101216      4.329      9.095
REMARK  5 active torsions:
REMARK  status: ('A' for Active; 'I' for Inactive)
REMARK    1  A    between atoms: O1_1  and  C1_3 
REMARK    2  A    between atoms: C1_3  and  C2_4 
REMARK    3  A    between atoms: C5_7  and  C6_8 
REMARK    4  A    between atoms: C6_8  and  O2_9 
REMARK    5  A    between atoms: C6_8  and  C7_11 
ROOT
HETATM    1  C6  UNL     1       7.689  -0.775  56.350  1.00  0.00     0.179 C 
ENDROOT
BRANCH   1   2
HETATM    2  C5  UNL     1       8.770  -1.758  56.045  1.00  0.00     0.082 A 
HETATM    3  C4  UNL     1       9.166  -2.060  54.766  1.00  0.00     0.038 A 
HETATM    4  C3  UNL     1      10.170  -2.994  54.901  1.00  0.00     0.037 A 
HETATM    5  C2  UNL     1      10.356  -3.233  56.245  1.00  0.00     0.076 A 
HETATM    6  O3  UNL     1       9.486  -2.461  56.892  1.00  0.00    -0.315 OA
BRANCH   5   7
HETATM    7  C1  UNL     1      11.340  -4.170  56.833  1.00  0.00     0.229 C 
BRANCH   7   8
HETATM    8  O1  UNL     1      12.192  -4.596  55.843  1.00  0.00    -0.394 OA
ATOM      9  H1  UNL     1      13.086  -4.405  56.104  1.00  0.00     0.209 HD
ENDBRANCH   7   8
ENDBRANCH   5   7
ENDBRANCH   1   2
BRANCH   1  10
HETATM   10  O2  UNL     1       8.160   0.328  57.050  1.00  0.00    -0.389 OA
ATOM     11  H2  UNL     1       7.457   0.881  57.368  1.00  0.00     0.210 HD
ENDBRANCH   1  10
BRANCH   1  12
HETATM   12  C7  UNL     1       6.470  -1.417  56.984  1.00  0.00     0.021 C 
HETATM   13  C8  UNL     1       5.796  -0.456  57.860  1.00  0.00     0.007 C 
HETATM   14  C9  UNL     1       4.425  -0.710  58.301  1.00  0.00     0.000 C 
HETATM   15  C10 UNL     1       3.643  -1.754  57.577  1.00  0.00     0.000 C 
HETATM   16  C11 UNL     1       4.379  -3.073  57.664  1.00  0.00     0.000 C 
HETATM   17  C12 UNL     1       4.981  -3.326  56.307  1.00  0.00     0.000 C 
HETATM   18  C13 UNL     1       5.650  -2.012  55.884  1.00  0.00     0.007 C 
ENDBRANCH   1  12
TORSDOF 5
ENDMDL
MODEL 5
REMARK VINA RESULT: -5.772206702      1.774      2.592
REMARK  5 active torsions:
REMARK  status: ('A' for Active; 'I' for Inactive)
REMARK    1  A    between atoms: O1_1  and  C1_3 
REMARK    2  A    between atoms: C1_3  and  C2_4 
REMARK    3  A    between atoms: C5_7  and  C6_8 
REMARK    4  A    between atoms: C6_8  and  O2_9 
REMARK    5  A    between atoms: C6_8  and  C7_11 
ROOT
HETATM    1  C6  UNL     1      11.686  -4.502  56.069  1.00  0.00     0.179 C 
ENDROOT
BRANCH   1   2
HETATM    2  C5  UNL     1      11.044  -3.297  55.467  1.00  0.00     0.082 A 
HETATM    3  C4  UNL     1       9.977  -3.370  54.606  1.00  0.00     0.038 A 
HETATM    4  C3  UNL     1       9.678  -2.067  54.276  1.00  0.00     0.037 A 
HETATM    5  C2  UNL     1      10.561  -1.243  54.940  1.00  0.00     0.076 A 
HETATM    6  O3  UNL     1      11.364  -2.036  55.644  1.00  0.00    -0.315 OA
BRANCH   5   7
HETATM    7  C1  UNL     1      10.592   0.236  54.867  1.00  0.00     0.229 C 
BRANCH   7   8
HETATM    8  O1  UNL     1       9.326   0.717  55.097  1.00  0.00    -0.394 OA
ATOM      9  H1  UNL     1       8.803   0.589  54.314  1.00  0.00     0.209 HD
ENDBRANCH   7   8
ENDBRANCH   5   7
ENDBRANCH   1   2
BRANCH   1  10
HETATM   10  O2  UNL     1      11.431  -4.613  57.429  1.00  0.00    -0.389 OA
ATOM     11  H2  UNL     1      12.214  -4.812  57.928  1.00  0.00     0.210 HD
ENDBRANCH   1  10
BRANCH   1  12
HETATM   12  C7  UNL     1      13.156  -4.624  55.718  1.00  0.00     0.021 C 
HETATM   13  C8  UNL     1      13.648  -5.957  56.073  1.00  0.00     0.007 C 
HETATM   14  C9  UNL     1      14.915  -6.437  55.521  1.00  0.00     0.000 C 
HETATM   15  C10 UNL     1      15.489  -5.702  54.356  1.00  0.00     0.000 C 
HETATM   16  C11 UNL     1      15.703  -4.255  54.741  1.00  0.00     0.000 C 
HETATM   17  C12 UNL     1      14.631  -3.456  54.049  1.00  0.00     0.000 C 
HETATM   18  C13 UNL     1      13.315  -4.208  54.290  1.00  0.00     0.007 C 
ENDBRANCH   1  12
TORSDOF 5
ENDMDL
