MODEL 1
REMARK VINA RESULT: -6.673575825      0.000      0.000
REMARK  4 active torsions:
REMARK  status: ('A' for Active; 'I' for Inactive)
REMARK    1  A    between atoms: C10_11  and  C11_12 
REMARK    2  A    between atoms: C11_12  and  C12_13 
REMARK    3  A    between atoms: C12_13  and  O2_14 
REMARK    4  A    between atoms: C13_16  and  O3_17 
ROOT
HETATM    1  C1  UNL     1      11.306  -1.539  55.172  1.00  0.00     0.020 C 
HETATM    2  C2  UNL     1      11.347  -3.001  55.461  1.00  0.00    -0.016 C 
HETATM    3  C3  UNL     1      10.345  -3.670  54.511  1.00  0.00     0.020 C 
HETATM    4  C4  UNL     1      10.858  -3.231  56.868  1.00  0.00     0.040 C 
HETATM    5  C5  UNL     1      11.003  -4.640  57.328  1.00  0.00     0.176 C 
HETATM    6  O1  UNL     1      11.792  -5.456  56.449  1.00  0.00    -0.348 OA
HETATM    7  C6  UNL     1      12.850  -4.890  55.742  1.00  0.00     0.109 A 
HETATM    8  C7  UNL     1      12.672  -3.631  55.224  1.00  0.00    -0.014 A 
HETATM    9  C8  UNL     1      13.691  -3.030  54.520  1.00  0.00     0.011 A 
HETATM   10  C9  UNL     1      14.883  -3.694  54.337  1.00  0.00     0.011 A 
HETATM   11  C10 UNL     1      15.098  -4.964  54.843  1.00  0.00    -0.020 A 
HETATM   12  C13 UNL     1      14.058  -5.553  55.552  1.00  0.00     0.105 A 
ENDROOT
BRANCH  11  13
HETATM   13  C11 UNL     1      16.366  -5.657  54.591  1.00  0.00     0.067 C 
BRANCH  13  14
HETATM   14  C12 UNL     1      17.211  -4.819  53.670  1.00  0.00     0.168 C 
BRANCH  14  15
HETATM   15  O2  UNL     1      18.083  -5.582  52.947  1.00  0.00    -0.401 OA
ATOM     16  H2  UNL     1      18.045  -5.378  52.020  1.00  0.00     0.209 HD
ENDBRANCH  14  15
ENDBRANCH  13  14
ENDBRANCH  11  13
BRANCH  12  17
HETATM   17  O3  UNL     1      14.194  -6.819  56.095  1.00  0.00    -0.357 OA
ATOM     18  H3  UNL     1      14.165  -7.562  55.503  1.00  0.00     0.217 HD
ENDBRANCH  12  17
TORSDOF 4
ENDMDL
MODEL 2
REMARK VINA RESULT: -6.421058278      2.401      3.749
REMARK  4 active torsions:
REMARK  status: ('A' for Active; 'I' for Inactive)
REMARK    1  A    between atoms: C10_11  and  C11_12 
REMARK    2  A    between atoms: C11_12  and  C12_13 
REMARK    3  A    between atoms: C12_13  and  O2_14 
REMARK    4  A    between atoms: C13_16  and  O3_17 
ROOT
HETATM    1  C1  UNL     1       9.211   0.879  54.798  1.00  0.00     0.020 C 
HETATM    2  C2  UNL     1       8.852  -0.425  55.425  1.00  0.00    -0.016 C 
HETATM    3  C3  UNL     1       7.704  -1.015  54.595  1.00  0.00     0.020 C 
HETATM    4  C4  UNL     1       8.322  -0.168  56.812  1.00  0.00     0.040 C 
HETATM    5  C5  UNL     1       8.077  -1.408  57.599  1.00  0.00     0.176 C 
HETATM    6  O1  UNL     1       8.611  -2.593  56.989  1.00  0.00    -0.348 OA
HETATM    7  C6  UNL     1       9.782  -2.518  56.238  1.00  0.00     0.109 A 
HETATM    8  C7  UNL     1       9.954  -1.422  55.428  1.00  0.00    -0.014 A 
HETATM    9  C8  UNL     1      11.097  -1.304  54.670  1.00  0.00     0.011 A 
HETATM   10  C9  UNL     1      12.061  -2.284  54.726  1.00  0.00     0.011 A 
HETATM   11  C10 UNL     1      11.923  -3.403  55.529  1.00  0.00    -0.020 A 
HETATM   12  C13 UNL     1      10.763  -3.503  56.289  1.00  0.00     0.105 A 
ENDROOT
BRANCH  11  13
HETATM   13  C11 UNL     1      12.952  -4.447  55.530  1.00  0.00     0.067 C 
BRANCH  13  14
HETATM   14  C12 UNL     1      14.153  -3.956  54.768  1.00  0.00     0.168 C 
BRANCH  14  15
HETATM   15  O2  UNL     1      15.286  -4.638  55.111  1.00  0.00    -0.401 OA
ATOM     16  H2  UNL     1      15.679  -4.292  55.904  1.00  0.00     0.209 HD
ENDBRANCH  14  15
ENDBRANCH  13  14
ENDBRANCH  11  13
BRANCH  12  17
HETATM   17  O3  UNL     1      10.549  -4.588  57.122  1.00  0.00    -0.357 OA
ATOM     18  H3  UNL     1       9.674  -4.716  57.468  1.00  0.00     0.217 HD
ENDBRANCH  12  17
TORSDOF 4
ENDMDL
MODEL 3
REMARK VINA RESULT: -5.657705871      5.046      7.428
REMARK  4 active torsions:
REMARK  status: ('A' for Active; 'I' for Inactive)
REMARK    1  A    between atoms: C10_11  and  C11_12 
REMARK    2  A    between atoms: C11_12  and  C12_13 
REMARK    3  A    between atoms: C12_13  and  O2_14 
REMARK    4  A    between atoms: C13_16  and  O3_17 
ROOT
HETATM    1  C1  UNL     1       4.767   0.162  54.721  1.00  0.00     0.020 C 
HETATM    2  C2  UNL     1       5.942   1.007  55.080  1.00  0.00    -0.016 C 
HETATM    3  C3  UNL     1       5.750   1.436  56.541  1.00  0.00     0.020 C 
HETATM    4  C4  UNL     1       5.920   2.254  54.236  1.00  0.00     0.040 C 
HETATM    5  C5  UNL     1       7.133   3.104  54.392  1.00  0.00     0.176 C 
HETATM    6  O1  UNL     1       8.192   2.469  55.124  1.00  0.00    -0.348 OA
HETATM    7  C6  UNL     1       8.370   1.091  55.028  1.00  0.00     0.109 A 
HETATM    8  C7  UNL     1       7.247   0.301  54.994  1.00  0.00    -0.014 A 
HETATM    9  C8  UNL     1       7.374  -1.067  54.897  1.00  0.00     0.011 A 
HETATM   10  C9  UNL     1       8.625  -1.636  54.835  1.00  0.00     0.011 A 
HETATM   11  C10 UNL     1       9.780  -0.873  54.867  1.00  0.00    -0.020 A 
HETATM   12  C13 UNL     1       9.630   0.505  54.963  1.00  0.00     0.105 A 
ENDROOT
BRANCH  11  13
HETATM   13  C11 UNL     1      11.095  -1.519  54.842  1.00  0.00     0.067 C 
BRANCH  13  14
HETATM   14  C12 UNL     1      10.962  -2.931  55.346  1.00  0.00     0.168 C 
BRANCH  14  15
HETATM   15  O2  UNL     1      11.801  -3.176  56.396  1.00  0.00    -0.401 OA
ATOM     16  H2  UNL     1      12.172  -4.050  56.354  1.00  0.00     0.209 HD
ENDBRANCH  14  15
ENDBRANCH  13  14
ENDBRANCH  11  13
BRANCH  12  17
HETATM   17  O3  UNL     1      10.735   1.340  54.997  1.00  0.00    -0.357 OA
ATOM     18  H3  UNL     1      11.595   0.938  54.991  1.00  0.00     0.217 HD
ENDBRANCH  12  17
TORSDOF 4
ENDMDL
MODEL 4
REMARK VINA RESULT: -5.502039301      1.710      2.629
REMARK  4 active torsions:
REMARK  status: ('A' for Active; 'I' for Inactive)
REMARK    1  A    between atoms: C10_11  and  C11_12 
REMARK    2  A    between atoms: C11_12  and  C12_13 
REMARK    3  A    between atoms: C12_13  and  O2_14 
REMARK    4  A    between atoms: C13_16  and  O3_17 
ROOT
HETATM    1  C1  UNL     1      10.664  -5.347  57.180  1.00  0.00     0.020 C 
HETATM    2  C2  UNL     1      11.364  -4.266  56.427  1.00  0.00    -0.016 C 
HETATM    3  C3  UNL     1      11.744  -3.187  57.451  1.00  0.00     0.020 C 
HETATM    4  C4  UNL     1      10.395  -3.645  55.455  1.00  0.00     0.040 C 
HETATM    5  C5  UNL     1      11.023  -2.658  54.533  1.00  0.00     0.176 C 
HETATM    6  O1  UNL     1      12.457  -2.658  54.578  1.00  0.00    -0.348 OA
HETATM    7  C6  UNL     1      13.143  -3.844  54.826  1.00  0.00     0.109 A 
HETATM    8  C7  UNL     1      12.617  -4.704  55.760  1.00  0.00    -0.014 A 
HETATM    9  C8  UNL     1      13.259  -5.890  56.036  1.00  0.00     0.011 A 
HETATM   10  C9  UNL     1      14.424  -6.209  55.377  1.00  0.00     0.011 A 
HETATM   11  C10 UNL     1      14.985  -5.368  54.431  1.00  0.00    -0.020 A 
HETATM   12  C13 UNL     1      14.321  -4.176  54.165  1.00  0.00     0.105 A 
ENDROOT
BRANCH  11  13
HETATM   13  C11 UNL     1      16.250  -5.722  53.781  1.00  0.00     0.067 C 
BRANCH  13  14
HETATM   14  C12 UNL     1      17.384  -5.049  54.508  1.00  0.00     0.168 C 
BRANCH  14  15
HETATM   15  O2  UNL     1      17.765  -3.891  53.892  1.00  0.00    -0.401 OA
ATOM     16  H2  UNL     1      18.314  -4.058  53.135  1.00  0.00     0.209 HD
ENDBRANCH  14  15
ENDBRANCH  13  14
ENDBRANCH  11  13
BRANCH  12  17
HETATM   17  O3  UNL     1      14.813  -3.281  53.229  1.00  0.00    -0.357 OA
ATOM     18  H3  UNL     1      14.468  -2.396  53.238  1.00  0.00     0.217 HD
ENDBRANCH  12  17
TORSDOF 4
ENDMDL
MODEL 5
REMARK VINA RESULT: -5.472192784      5.272      7.518
REMARK  4 active torsions:
REMARK  status: ('A' for Active; 'I' for Inactive)
REMARK    1  A    between atoms: C10_11  and  C11_12 
REMARK    2  A    between atoms: C11_12  and  C12_13 
REMARK    3  A    between atoms: C12_13  and  O2_14 
REMARK    4  A    between atoms: C13_16  and  O3_17 
ROOT
HETATM    1  C1  UNL     1       4.707  -3.192  57.029  1.00  0.00     0.020 C 
HETATM    2  C2  UNL     1       5.055  -1.772  56.736  1.00  0.00    -0.016 C 
HETATM    3  C3  UNL     1       4.918  -1.001  58.056  1.00  0.00     0.020 C 
HETATM    4  C4  UNL     1       4.037  -1.210  55.778  1.00  0.00     0.040 C 
HETATM    5  C5  UNL     1       4.368   0.156  55.287  1.00  0.00     0.176 C 
HETATM    6  O1  UNL     1       5.696   0.584  55.623  1.00  0.00    -0.348 OA
HETATM    7  C6  UNL     1       6.727  -0.350  55.694  1.00  0.00     0.109 A 
HETATM    8  C7  UNL     1       6.444  -1.574  56.250  1.00  0.00    -0.014 A 
HETATM    9  C8  UNL     1       7.431  -2.529  56.338  1.00  0.00     0.011 A 
HETATM   10  C9  UNL     1       8.696  -2.255  55.872  1.00  0.00     0.011 A 
HETATM   11  C10 UNL     1       9.019  -1.032  55.308  1.00  0.00    -0.020 A 
HETATM   12  C13 UNL     1       8.009  -0.082  55.225  1.00  0.00     0.105 A 
ENDROOT
BRANCH  11  13
HETATM   13  C11 UNL     1      10.389  -0.761  54.861  1.00  0.00     0.067 C 
BRANCH  13  14
HETATM   14  C12 UNL     1      11.079  -2.066  54.566  1.00  0.00     0.168 C 
BRANCH  14  15
HETATM   15  O2  UNL     1      12.203  -2.227  55.325  1.00  0.00    -0.401 OA
ATOM     16  H2  UNL     1      12.936  -2.539  54.808  1.00  0.00     0.209 HD
ENDBRANCH  14  15
ENDBRANCH  13  14
ENDBRANCH  11  13
BRANCH  12  17
HETATM   17  O3  UNL     1       8.247   1.164  54.669  1.00  0.00    -0.357 OA
ATOM     18  H3  UNL     1       8.547   1.199  53.769  1.00  0.00     0.217 HD
ENDBRANCH  12  17
TORSDOF 4
ENDMDL
