MODEL 1
REMARK VINA RESULT: -7.961280639      0.000      0.000
REMARK  4 active torsions:
REMARK  status: ('A' for Active; 'I' for Inactive)
REMARK    1  A    between atoms: O1_2  and  C2_3 
REMARK    2  A    between atoms: C2_3  and  C3_5 
REMARK    3  A    between atoms: C5_7  and  C6_8 
REMARK    4  A    between atoms: C13_15  and  O3_16 
ROOT
HETATM    1  C3  UNL     1      10.953  -2.484  55.483  1.00  0.00     0.073 A 
HETATM    2  C4  UNL     1      12.205  -2.967  55.048  1.00  0.00     0.032 A 
HETATM    3  C5  UNL     1      12.783  -4.093  55.554  1.00  0.00    -0.025 A 
HETATM    4  C11 UNL     1      12.080  -4.757  56.533  1.00  0.00     0.015 A 
HETATM    5  C12 UNL     1      10.872  -4.353  57.001  1.00  0.00     0.038 A 
HETATM    6  C13 UNL     1      10.296  -3.186  56.460  1.00  0.00     0.082 A 
ENDROOT
BRANCH   3   7
HETATM    7  C6  UNL     1      14.080  -4.579  55.092  1.00  0.00    -0.030 A 
HETATM    8  C7  UNL     1      14.850  -3.991  54.195  1.00  0.00    -0.011 A 
HETATM    9  C8  UNL     1      16.068  -4.803  54.013  1.00  0.00     0.055 A 
HETATM   10  C9  UNL     1      15.901  -5.947  54.932  1.00  0.00    -0.022 A 
HETATM   11  C10 UNL     1      14.745  -5.794  55.543  1.00  0.00     0.008 A 
ENDBRANCH   3   7
BRANCH   1  12
HETATM   12  C2  UNL     1      10.454  -1.262  54.848  1.00  0.00     0.295 C 
HETATM   13  O2  UNL     1      11.098  -0.214  54.806  1.00  0.00    -0.259 OA
BRANCH  12  14
HETATM   14  O1  UNL     1       9.169  -1.294  54.256  1.00  0.00    -0.322 OA
HETATM   15  C1  UNL     1       8.285  -0.247  54.599  1.00  0.00     0.213 C 
ENDBRANCH  12  14
ENDBRANCH   1  12
BRANCH   6  16
HETATM   16  O3  UNL     1       9.079  -2.772  56.927  1.00  0.00    -0.360 OA
ATOM     17  H3  UNL     1       8.538  -3.346  57.457  1.00  0.00     0.217 HD
ENDBRANCH   6  16
TORSDOF 4
ENDMDL
MODEL 2
REMARK VINA RESULT: -7.834962863      0.694      1.062
REMARK  4 active torsions:
REMARK  status: ('A' for Active; 'I' for Inactive)
REMARK    1  A    between atoms: O1_2  and  C2_3 
REMARK    2  A    between atoms: C2_3  and  C3_5 
REMARK    3  A    between atoms: C5_7  and  C6_8 
REMARK    4  A    between atoms: C13_15  and  O3_16 
ROOT
HETATM    1  C3  UNL     1      10.676  -2.361  55.521  1.00  0.00     0.073 A 
HETATM    2  C4  UNL     1      11.927  -2.865  55.107  1.00  0.00     0.032 A 
HETATM    3  C5  UNL     1      12.512  -3.958  55.672  1.00  0.00    -0.025 A 
HETATM    4  C11 UNL     1      11.817  -4.568  56.691  1.00  0.00     0.015 A 
HETATM    5  C12 UNL     1      10.610  -4.141  57.143  1.00  0.00     0.038 A 
HETATM    6  C13 UNL     1      10.028  -3.008  56.540  1.00  0.00     0.082 A 
ENDROOT
BRANCH   3   7
HETATM    7  C6  UNL     1      13.807  -4.467  55.232  1.00  0.00    -0.030 A 
HETATM    8  C7  UNL     1      14.676  -3.817  54.478  1.00  0.00    -0.011 A 
HETATM    9  C8  UNL     1      15.853  -4.679  54.263  1.00  0.00     0.055 A 
HETATM   10  C9  UNL     1      15.550  -5.924  54.997  1.00  0.00    -0.022 A 
HETATM   11  C10 UNL     1      14.363  -5.775  55.547  1.00  0.00     0.008 A 
ENDBRANCH   3   7
BRANCH   1  12
HETATM   12  C2  UNL     1      10.171  -1.179  54.821  1.00  0.00     0.295 C 
HETATM   13  O2  UNL     1       9.121  -1.173  54.178  1.00  0.00    -0.259 OA
BRANCH  12  14
HETATM   14  O1  UNL     1      10.930   0.015  54.891  1.00  0.00    -0.322 OA
HETATM   15  C1  UNL     1      10.210   1.214  55.088  1.00  0.00     0.213 C 
ENDBRANCH  12  14
ENDBRANCH   1  12
BRANCH   6  16
HETATM   16  O3  UNL     1       8.812  -2.572  56.990  1.00  0.00    -0.360 OA
ATOM     17  H3  UNL     1       8.019  -3.067  56.814  1.00  0.00     0.217 HD
ENDBRANCH   6  16
TORSDOF 4
ENDMDL
MODEL 3
REMARK VINA RESULT: -7.079643386      1.336      2.081
REMARK  4 active torsions:
REMARK  status: ('A' for Active; 'I' for Inactive)
REMARK    1  A    between atoms: O1_2  and  C2_3 
REMARK    2  A    between atoms: C2_3  and  C3_5 
REMARK    3  A    between atoms: C5_7  and  C6_8 
REMARK    4  A    between atoms: C13_15  and  O3_16 
ROOT
HETATM    1  C3  UNL     1      12.479  -3.597  55.328  1.00  0.00     0.073 A 
HETATM    2  C4  UNL     1      13.740  -3.693  54.704  1.00  0.00     0.032 A 
HETATM    3  C5  UNL     1      14.562  -4.771  54.849  1.00  0.00    -0.025 A 
HETATM    4  C11 UNL     1      14.101  -5.789  55.652  1.00  0.00     0.015 A 
HETATM    5  C12 UNL     1      12.900  -5.768  56.284  1.00  0.00     0.038 A 
HETATM    6  C13 UNL     1      12.071  -4.642  56.117  1.00  0.00     0.082 A 
ENDROOT
BRANCH   3   7
HETATM    7  C6  UNL     1      15.864  -4.854  54.195  1.00  0.00    -0.030 A 
HETATM    8  C7  UNL     1      16.240  -4.165  53.133  1.00  0.00    -0.011 A 
HETATM    9  C8  UNL     1      17.624  -4.542  52.791  1.00  0.00     0.055 A 
HETATM   10  C9  UNL     1      18.004  -5.549  53.803  1.00  0.00    -0.022 A 
HETATM   11  C10 UNL     1      16.970  -5.711  54.601  1.00  0.00     0.008 A 
ENDBRANCH   3   7
BRANCH   1  12
HETATM   12  C2  UNL     1      11.705  -2.380  55.080  1.00  0.00     0.295 C 
HETATM   13  O2  UNL     1      12.142  -1.248  55.289  1.00  0.00    -0.259 OA
BRANCH  12  14
HETATM   14  O1  UNL     1      10.389  -2.516  54.575  1.00  0.00    -0.322 OA
HETATM   15  C1  UNL     1       9.561  -1.374  54.646  1.00  0.00     0.213 C 
ENDBRANCH  12  14
ENDBRANCH   1  12
BRANCH   6  16
HETATM   16  O3  UNL     1      10.859  -4.613  56.751  1.00  0.00    -0.360 OA
ATOM     17  H3  UNL     1      10.801  -4.455  57.687  1.00  0.00     0.217 HD
ENDBRANCH   6  16
TORSDOF 4
ENDMDL
MODEL 4
REMARK VINA RESULT: -6.989970857      3.809      6.384
REMARK  4 active torsions:
REMARK  status: ('A' for Active; 'I' for Inactive)
REMARK    1  A    between atoms: O1_2  and  C2_3 
REMARK    2  A    between atoms: C2_3  and  C3_5 
REMARK    3  A    between atoms: C5_7  and  C6_8 
REMARK    4  A    between atoms: C13_15  and  O3_16 
ROOT
HETATM    1  C3  UNL     1      15.967  -5.034  54.277  1.00  0.00     0.073 A 
HETATM    2  C4  UNL     1      14.825  -4.207  54.298  1.00  0.00     0.032 A 
HETATM    3  C5  UNL     1      13.737  -4.461  55.079  1.00  0.00    -0.025 A 
HETATM    4  C11 UNL     1      13.797  -5.587  55.867  1.00  0.00     0.015 A 
HETATM    5  C12 UNL     1      14.862  -6.429  55.900  1.00  0.00     0.038 A 
HETATM    6  C13 UNL     1      15.973  -6.143  55.083  1.00  0.00     0.082 A 
ENDROOT
BRANCH   3   7
HETATM    7  C6  UNL     1      12.563  -3.594  55.088  1.00  0.00    -0.030 A 
HETATM    8  C7  UNL     1      12.535  -2.327  54.715  1.00  0.00    -0.011 A 
HETATM    9  C8  UNL     1      11.161  -1.817  54.877  1.00  0.00     0.055 A 
HETATM   10  C9  UNL     1      10.389  -2.965  55.395  1.00  0.00    -0.022 A 
HETATM   11  C10 UNL     1      11.222  -3.978  55.508  1.00  0.00     0.008 A 
ENDBRANCH   3   7
BRANCH   1  12
HETATM   12  C2  UNL     1      17.061  -4.635  53.389  1.00  0.00     0.295 C 
HETATM   13  O2  UNL     1      16.984  -3.688  52.607  1.00  0.00    -0.259 OA
BRANCH  12  14
HETATM   14  O1  UNL     1      18.265  -5.379  53.437  1.00  0.00    -0.322 OA
HETATM   15  C1  UNL     1      18.620  -6.089  52.269  1.00  0.00     0.213 C 
ENDBRANCH  12  14
ENDBRANCH   1  12
BRANCH   6  16
HETATM   16  O3  UNL     1      17.049  -6.986  55.111  1.00  0.00    -0.360 OA
ATOM     17  H3  UNL     1      17.937  -6.647  55.114  1.00  0.00     0.217 HD
ENDBRANCH   6  16
TORSDOF 4
ENDMDL
MODEL 5
REMARK VINA RESULT: -6.763766166      1.649      2.645
REMARK  4 active torsions:
REMARK  status: ('A' for Active; 'I' for Inactive)
REMARK    1  A    between atoms: O1_2  and  C2_3 
REMARK    2  A    between atoms: C2_3  and  C3_5 
REMARK    3  A    between atoms: C5_7  and  C6_8 
REMARK    4  A    between atoms: C13_15  and  O3_16 
ROOT
HETATM    1  C3  UNL     1       9.929  -0.474  54.963  1.00  0.00     0.073 A 
HETATM    2  C4  UNL     1      11.100  -1.256  55.050  1.00  0.00     0.032 A 
HETATM    3  C5  UNL     1      11.086  -2.618  55.035  1.00  0.00    -0.025 A 
HETATM    4  C11 UNL     1       9.852  -3.218  54.930  1.00  0.00     0.015 A 
HETATM    5  C12 UNL     1       8.684  -2.532  54.842  1.00  0.00     0.038 A 
HETATM    6  C13 UNL     1       8.727  -1.124  54.859  1.00  0.00     0.082 A 
ENDROOT
BRANCH   3   7
HETATM    7  C6  UNL     1      12.307  -3.413  55.127  1.00  0.00    -0.030 A 
HETATM    8  C7  UNL     1      13.497  -3.054  54.681  1.00  0.00    -0.011 A 
HETATM    9  C8  UNL     1      14.456  -4.137  54.968  1.00  0.00     0.055 A 
HETATM   10  C9  UNL     1      13.658  -5.179  55.646  1.00  0.00    -0.022 A 
HETATM   11  C10 UNL     1      12.421  -4.736  55.725  1.00  0.00     0.008 A 
ENDBRANCH   3   7
BRANCH   1  12
HETATM   12  C2  UNL     1      10.098   0.981  54.990  1.00  0.00     0.295 C 
HETATM   13  O2  UNL     1      11.178   1.538  54.796  1.00  0.00    -0.259 OA
BRANCH  12  14
HETATM   14  O1  UNL     1       8.959   1.780  55.252  1.00  0.00    -0.322 OA
HETATM   15  C1  UNL     1       8.727   2.132  56.600  1.00  0.00     0.213 C 
ENDBRANCH  12  14
ENDBRANCH   1  12
BRANCH   6  16
HETATM   16  O3  UNL     1       7.555  -0.425  54.771  1.00  0.00    -0.360 OA
ATOM     17  H3  UNL     1       6.813  -0.773  54.288  1.00  0.00     0.217 HD
ENDBRANCH   6  16
TORSDOF 4
ENDMDL
