MODEL 1
REMARK VINA RESULT: -9.427579328      0.000      0.000
REMARK  6 active torsions:
REMARK  status: ('A' for Active; 'I' for Inactive)
REMARK    1  A    between atoms: C5_6  and  C6_7 
REMARK    2  A    between atoms: C6_7  and  N2_8 
REMARK    3  A    between atoms: N3_11  and  C9_12 
REMARK    4  A    between atoms: C9_12  and  C10_13 
REMARK    5  A    between atoms: C17_25  and  N6_26 
REMARK    6  A    between atoms: C18_28  and  C19_29 
ROOT
HETATM    1  N1  UNL     1       9.715  53.382  84.389  1.00  0.00    -0.191 NA
HETATM    2  C1  UNL     1      10.197  53.123  85.404  1.00  0.00     0.103 C 
HETATM    3  C2  UNL     1      10.765  52.782  86.703  1.00  0.00     0.088 A 
HETATM    4  C3  UNL     1       9.940  52.180  87.640  1.00  0.00     0.028 A 
HETATM    5  C4  UNL     1      10.457  51.852  88.866  1.00  0.00     0.028 A 
HETATM    6  C5  UNL     1      11.776  52.107  89.187  1.00  0.00     0.028 A 
HETATM    7  N5  UNL     1      12.556  52.681  88.290  1.00  0.00    -0.343 N 
ATOM      8  H5  UNL     1      13.530  52.870  88.527  1.00  0.00     0.167 HD
HETATM    9  C17 UNL     1      12.080  53.037  87.023  1.00  0.00     0.126 A 
ENDROOT
BRANCH   9  10
HETATM   10  N6  UNL     1      12.885  53.573  86.242  1.00  0.00    -0.350 N 
HETATM   11  C18 UNL     1      14.130  53.515  85.701  1.00  0.00     0.101 C 
ATOM     12  H6  UNL     1      12.422  54.391  85.845  1.00  0.00     0.166 HD
BRANCH  11  13
HETATM   13  C19 UNL     1      14.281  52.652  84.487  1.00  0.00    -0.020 A 
HETATM   14  C20 UNL     1      13.293  51.794  84.071  1.00  0.00     0.013 A 
HETATM   15  C21 UNL     1      13.449  50.992  82.935  1.00  0.00     0.010 A 
HETATM   16  C22 UNL     1      14.628  51.081  82.234  1.00  0.00    -0.035 A 
HETATM   17  C23 UNL     1      15.639  51.935  82.631  1.00  0.00    -0.048 A 
HETATM   18  C27 UNL     1      14.896  50.276  81.016  1.00  0.00     0.153 C 
HETATM   19  C24 UNL     1      15.446  52.707  83.753  1.00  0.00     0.020 A 
HETATM   20  C25 UNL     1      16.868  51.951  81.804  1.00  0.00     0.058 C 
HETATM   21  C26 UNL     1      16.435  52.026  80.352  1.00  0.00     0.118 C 
HETATM   22  N7  UNL     1      15.529  50.995  79.959  1.00  0.00    -0.417 N 
ATOM     23  H7  UNL     1      15.345  50.785  78.978  1.00  0.00     0.153 HD
ENDBRANCH  11  13
ENDBRANCH   9  10
BRANCH   6  24
HETATM   24  C6  UNL     1      12.291  51.737  90.524  1.00  0.00     0.179 C 
BRANCH  24  25
HETATM   25  N2  UNL     1      11.320  52.089  91.496  1.00  0.00    -0.378 N 
HETATM   26  C7  UNL     1      11.055  51.151  92.502  1.00  0.00     0.103 C 
HETATM   27  C8  UNL     1      10.439  51.613  93.769  1.00  0.00     0.112 C 
HETATM   28  N3  UNL     1      10.488  52.998  93.980  1.00  0.00    -0.343 N 
HETATM   29  C15 UNL     1      10.157  53.762  92.847  1.00  0.00     0.088 C 
HETATM   30  C16 UNL     1      11.165  53.466  91.765  1.00  0.00     0.167 C 
BRANCH  28  31
HETATM   31  C9  UNL     1      11.277  53.545  94.988  1.00  0.00     0.110 C 
BRANCH  31  32
HETATM   32  C10 UNL     1      11.190  55.010  95.210  1.00  0.00     0.017 A 
HETATM   33  C11 UNL     1      10.090  55.673  95.688  1.00  0.00     0.102 A 
HETATM   34  N4  UNL     1      10.078  57.007  95.853  1.00  0.00    -0.374 N 
HETATM   35  C12 UNL     1      11.150  57.759  95.555  1.00  0.00     0.089 A 
ATOM     36  H4  UNL     1       9.236  57.458  96.212  1.00  0.00     0.164 HD
HETATM   37  C13 UNL     1      12.285  57.148  95.069  1.00  0.00     0.042 A 
HETATM   38  C14 UNL     1      12.309  55.790  94.898  1.00  0.00     0.048 A 
HETATM   39 CL1  UNL     1      13.752  54.982  94.275  1.00  0.00    -0.083 Cl
ENDBRANCH  31  32
ENDBRANCH  28  31
ENDBRANCH  24  25
ENDBRANCH   6  24
TORSDOF 6
ENDMDL
MODEL 2
REMARK VINA RESULT: -9.152046537      1.570      1.867
REMARK  6 active torsions:
REMARK  status: ('A' for Active; 'I' for Inactive)
REMARK    1  A    between atoms: C5_6  and  C6_7 
REMARK    2  A    between atoms: C6_7  and  N2_8 
REMARK    3  A    between atoms: N3_11  and  C9_12 
REMARK    4  A    between atoms: C9_12  and  C10_13 
REMARK    5  A    between atoms: C17_25  and  N6_26 
REMARK    6  A    between atoms: C18_28  and  C19_29 
ROOT
HETATM    1  N1  UNL     1       9.721  53.287  84.416  1.00  0.00    -0.191 NA
HETATM    2  C1  UNL     1      10.213  53.063  85.433  1.00  0.00     0.103 C 
HETATM    3  C2  UNL     1      10.795  52.766  86.738  1.00  0.00     0.088 A 
HETATM    4  C3  UNL     1       9.989  52.163  87.691  1.00  0.00     0.028 A 
HETATM    5  C4  UNL     1      10.519  51.876  88.922  1.00  0.00     0.028 A 
HETATM    6  C5  UNL     1      11.832  52.173  89.231  1.00  0.00     0.028 A 
HETATM    7  N5  UNL     1      12.593  52.747  88.319  1.00  0.00    -0.343 N 
ATOM      8  H5  UNL     1      13.563  52.966  88.548  1.00  0.00     0.167 HD
HETATM    9  C17 UNL     1      12.104  53.062  87.046  1.00  0.00     0.126 A 
ENDROOT
BRANCH   9  10
HETATM   10  N6  UNL     1      12.892  53.601  86.250  1.00  0.00    -0.350 N 
HETATM   11  C18 UNL     1      14.132  53.556  85.697  1.00  0.00     0.101 C 
ATOM     12  H6  UNL     1      12.411  54.406  85.849  1.00  0.00     0.166 HD
BRANCH  11  13
HETATM   13  C19 UNL     1      14.283  52.681  84.492  1.00  0.00    -0.020 A 
HETATM   14  C20 UNL     1      13.294  51.823  84.081  1.00  0.00     0.013 A 
HETATM   15  C21 UNL     1      13.451  51.010  82.952  1.00  0.00     0.010 A 
HETATM   16  C22 UNL     1      14.633  51.088  82.255  1.00  0.00    -0.035 A 
HETATM   17  C23 UNL     1      15.646  51.942  82.647  1.00  0.00    -0.048 A 
HETATM   18  C27 UNL     1      14.902  50.270  81.046  1.00  0.00     0.153 C 
HETATM   19  C24 UNL     1      15.451  52.725  83.761  1.00  0.00     0.020 A 
HETATM   20  C25 UNL     1      16.877  51.945  81.825  1.00  0.00     0.058 C 
HETATM   21  C26 UNL     1      16.450  52.008  80.370  1.00  0.00     0.118 C 
HETATM   22  N7  UNL     1      15.542  50.977  79.984  1.00  0.00    -0.417 N 
ATOM     23  H7  UNL     1      15.360  50.758  79.005  1.00  0.00     0.153 HD
ENDBRANCH  11  13
ENDBRANCH   9  10
BRANCH   6  24
HETATM   24  C6  UNL     1      12.362  51.846  90.575  1.00  0.00     0.179 C 
BRANCH  24  25
HETATM   25  N2  UNL     1      12.334  53.020  91.369  1.00  0.00    -0.378 N 
HETATM   26  C7  UNL     1      11.221  53.203  92.199  1.00  0.00     0.103 C 
HETATM   27  C8  UNL     1      11.337  54.114  93.364  1.00  0.00     0.112 C 
HETATM   28  N3  UNL     1      12.649  54.450  93.724  1.00  0.00    -0.343 N 
HETATM   29  C15 UNL     1      13.478  54.772  92.636  1.00  0.00     0.088 C 
HETATM   30  C16 UNL     1      13.584  53.558  91.746  1.00  0.00     0.167 C 
BRANCH  28  31
HETATM   31  C9  UNL     1      13.204  54.000  94.919  1.00  0.00     0.110 C 
BRANCH  31  32
HETATM   32  C10 UNL     1      12.570  54.449  96.183  1.00  0.00     0.017 A 
HETATM   33  C11 UNL     1      12.078  55.706  96.418  1.00  0.00     0.102 A 
HETATM   34  N4  UNL     1      11.526  56.048  97.596  1.00  0.00    -0.374 N 
HETATM   35  C12 UNL     1      11.431  55.167  98.605  1.00  0.00     0.089 A 
ATOM     36  H4  UNL     1      11.173  56.996  97.725  1.00  0.00     0.164 HD
HETATM   37  C13 UNL     1      11.910  53.888  98.428  1.00  0.00     0.042 A 
HETATM   38  C14 UNL     1      12.473  53.529  97.233  1.00  0.00     0.048 A 
HETATM   39 CL1  UNL     1      13.096  51.894  96.981  1.00  0.00    -0.083 Cl
ENDBRANCH  31  32
ENDBRANCH  28  31
ENDBRANCH  24  25
ENDBRANCH   6  24
TORSDOF 6
ENDMDL
MODEL 3
REMARK VINA RESULT: -9.037102276      1.491      1.848
REMARK  6 active torsions:
REMARK  status: ('A' for Active; 'I' for Inactive)
REMARK    1  A    between atoms: C5_6  and  C6_7 
REMARK    2  A    between atoms: C6_7  and  N2_8 
REMARK    3  A    between atoms: N3_11  and  C9_12 
REMARK    4  A    between atoms: C9_12  and  C10_13 
REMARK    5  A    between atoms: C17_25  and  N6_26 
REMARK    6  A    between atoms: C18_28  and  C19_29 
ROOT
HETATM    1  N1  UNL     1       9.750  53.269  84.378  1.00  0.00    -0.191 NA
HETATM    2  C1  UNL     1      10.246  53.061  85.397  1.00  0.00     0.103 C 
HETATM    3  C2  UNL     1      10.833  52.784  86.703  1.00  0.00     0.088 A 
HETATM    4  C3  UNL     1      10.033  52.191  87.667  1.00  0.00     0.028 A 
HETATM    5  C4  UNL     1      10.567  51.922  88.900  1.00  0.00     0.028 A 
HETATM    6  C5  UNL     1      11.880  52.230  89.202  1.00  0.00     0.028 A 
HETATM    7  N5  UNL     1      12.636  52.795  88.280  1.00  0.00    -0.343 N 
ATOM      8  H5  UNL     1      13.605  53.021  88.502  1.00  0.00     0.167 HD
HETATM    9  C17 UNL     1      12.142  53.090  87.004  1.00  0.00     0.126 A 
ENDROOT
BRANCH   9  10
HETATM   10  N6  UNL     1      12.925  53.623  86.199  1.00  0.00    -0.350 N 
HETATM   11  C18 UNL     1      14.161  53.572  85.638  1.00  0.00     0.101 C 
ATOM     12  H6  UNL     1      12.442  54.424  85.794  1.00  0.00     0.166 HD
BRANCH  11  13
HETATM   13  C19 UNL     1      14.305  52.687  84.440  1.00  0.00    -0.020 A 
HETATM   14  C20 UNL     1      13.309  51.833  84.036  1.00  0.00     0.013 A 
HETATM   15  C21 UNL     1      13.459  51.009  82.914  1.00  0.00     0.010 A 
HETATM   16  C22 UNL     1      14.641  51.073  82.215  1.00  0.00    -0.035 A 
HETATM   17  C23 UNL     1      15.660  51.923  82.600  1.00  0.00    -0.048 A 
HETATM   18  C27 UNL     1      14.903  50.244  81.012  1.00  0.00     0.153 C 
HETATM   19  C24 UNL     1      15.473  52.716  83.708  1.00  0.00     0.020 A 
HETATM   20  C25 UNL     1      16.891  51.911  81.776  1.00  0.00     0.058 C 
HETATM   21  C26 UNL     1      16.463  51.965  80.322  1.00  0.00     0.118 C 
HETATM   22  N7  UNL     1      15.547  50.938  79.944  1.00  0.00    -0.417 N 
ATOM     23  H7  UNL     1      15.363  50.712  78.967  1.00  0.00     0.153 HD
ENDBRANCH  11  13
ENDBRANCH   9  10
BRANCH   6  24
HETATM   24  C6  UNL     1      12.415  51.923  90.548  1.00  0.00     0.179 C 
BRANCH  24  25
HETATM   25  N2  UNL     1      12.360  53.102  91.334  1.00  0.00    -0.378 N 
HETATM   26  C7  UNL     1      11.264  53.245  92.195  1.00  0.00     0.103 C 
HETATM   27  C8  UNL     1      11.374  54.170  93.349  1.00  0.00     0.112 C 
HETATM   28  N3  UNL     1      12.680  54.563  93.670  1.00  0.00    -0.343 N 
HETATM   29  C15 UNL     1      13.465  54.910  92.556  1.00  0.00     0.088 C 
HETATM   30  C16 UNL     1      13.596  53.695  91.672  1.00  0.00     0.167 C 
BRANCH  28  31
HETATM   31  C9  UNL     1      13.288  54.147  94.851  1.00  0.00     0.110 C 
BRANCH  31  32
HETATM   32  C10 UNL     1      12.480  54.198  96.094  1.00  0.00     0.017 A 
HETATM   33  C11 UNL     1      12.127  53.112  96.854  1.00  0.00     0.102 A 
HETATM   34  N4  UNL     1      11.381  53.231  97.965  1.00  0.00    -0.374 N 
HETATM   35  C12 UNL     1      10.941  54.427  98.388  1.00  0.00     0.089 A 
ATOM     36  H4  UNL     1      11.143  52.394  98.498  1.00  0.00     0.164 HD
HETATM   37  C13 UNL     1      11.263  55.555  97.665  1.00  0.00     0.042 A 
HETATM   38  C14 UNL     1      12.023  55.446  96.532  1.00  0.00     0.048 A 
HETATM   39 CL1  UNL     1      12.448  56.877  95.586  1.00  0.00    -0.083 Cl
ENDBRANCH  31  32
ENDBRANCH  28  31
ENDBRANCH  24  25
ENDBRANCH   6  24
TORSDOF 6
ENDMDL
MODEL 4
REMARK VINA RESULT: -9.002234574      1.846      2.848
REMARK  6 active torsions:
REMARK  status: ('A' for Active; 'I' for Inactive)
REMARK    1  A    between atoms: C5_6  and  C6_7 
REMARK    2  A    between atoms: C6_7  and  N2_8 
REMARK    3  A    between atoms: N3_11  and  C9_12 
REMARK    4  A    between atoms: C9_12  and  C10_13 
REMARK    5  A    between atoms: C17_25  and  N6_26 
REMARK    6  A    between atoms: C18_28  and  C19_29 
ROOT
HETATM    1  N1  UNL     1       9.735  53.245  84.402  1.00  0.00    -0.191 NA
HETATM    2  C1  UNL     1      10.231  53.038  85.421  1.00  0.00     0.103 C 
HETATM    3  C2  UNL     1      10.819  52.762  86.728  1.00  0.00     0.088 A 
HETATM    4  C3  UNL     1      10.021  52.163  87.690  1.00  0.00     0.028 A 
HETATM    5  C4  UNL     1      10.557  51.895  88.923  1.00  0.00     0.028 A 
HETATM    6  C5  UNL     1      11.867  52.209  89.226  1.00  0.00     0.028 A 
HETATM    7  N5  UNL     1      12.621  52.779  88.305  1.00  0.00    -0.343 N 
ATOM      8  H5  UNL     1      13.589  53.011  88.529  1.00  0.00     0.167 HD
HETATM    9  C17 UNL     1      12.126  53.075  87.030  1.00  0.00     0.126 A 
ENDROOT
BRANCH   9  10
HETATM   10  N6  UNL     1      12.907  53.613  86.226  1.00  0.00    -0.350 N 
HETATM   11  C18 UNL     1      14.145  53.572  85.669  1.00  0.00     0.101 C 
ATOM     12  H6  UNL     1      12.418  54.409  85.818  1.00  0.00     0.166 HD
BRANCH  11  13
HETATM   13  C19 UNL     1      14.300  52.686  84.472  1.00  0.00    -0.020 A 
HETATM   14  C20 UNL     1      13.317  51.814  84.075  1.00  0.00     0.013 A 
HETATM   15  C21 UNL     1      13.478  50.990  82.954  1.00  0.00     0.010 A 
HETATM   16  C22 UNL     1      14.656  51.073  82.251  1.00  0.00    -0.035 A 
HETATM   17  C23 UNL     1      15.661  51.942  82.629  1.00  0.00    -0.048 A 
HETATM   18  C27 UNL     1      14.928  50.246  81.049  1.00  0.00     0.153 C 
HETATM   19  C24 UNL     1      15.464  52.734  83.735  1.00  0.00     0.020 A 
HETATM   20  C25 UNL     1      16.889  51.950  81.801  1.00  0.00     0.058 C 
HETATM   21  C26 UNL     1      16.454  51.992  80.348  1.00  0.00     0.118 C 
HETATM   22  N7  UNL     1      15.555  50.947  79.977  1.00  0.00    -0.417 N 
ATOM     23  H7  UNL     1      15.371  50.716  79.000  1.00  0.00     0.153 HD
ENDBRANCH  11  13
ENDBRANCH   9  10
BRANCH   6  24
HETATM   24  C6  UNL     1      12.403  51.903  90.571  1.00  0.00     0.179 C 
BRANCH  24  25
HETATM   25  N2  UNL     1      12.453  53.105  91.322  1.00  0.00    -0.378 N 
HETATM   26  C7  UNL     1      11.468  53.287  92.301  1.00  0.00     0.103 C 
HETATM   27  C8  UNL     1      11.722  54.244  93.405  1.00  0.00     0.112 C 
HETATM   28  N3  UNL     1      13.061  54.631  93.556  1.00  0.00    -0.343 N 
HETATM   29  C15 UNL     1      13.710  54.935  92.347  1.00  0.00     0.088 C 
HETATM   30  C16 UNL     1      13.725  53.692  91.492  1.00  0.00     0.167 C 
BRANCH  28  31
HETATM   31  C9  UNL     1      13.800  54.242  94.670  1.00  0.00     0.110 C 
BRANCH  31  32
HETATM   32  C10 UNL     1      13.715  52.822  95.091  1.00  0.00     0.017 A 
HETATM   33  C11 UNL     1      14.231  51.759  94.397  1.00  0.00     0.102 A 
HETATM   34  N4  UNL     1      14.105  50.494  94.833  1.00  0.00    -0.374 N 
HETATM   35  C12 UNL     1      13.463  50.208  95.977  1.00  0.00     0.089 A 
ATOM     36  H4  UNL     1      14.507  49.734  94.282  1.00  0.00     0.164 HD
HETATM   37  C13 UNL     1      12.921  51.237  96.717  1.00  0.00     0.042 A 
HETATM   38  C14 UNL     1      13.044  52.529  96.284  1.00  0.00     0.048 A 
HETATM   39 CL1  UNL     1      12.357  53.865  97.214  1.00  0.00    -0.083 Cl
ENDBRANCH  31  32
ENDBRANCH  28  31
ENDBRANCH  24  25
ENDBRANCH   6  24
TORSDOF 6
ENDMDL
MODEL 5
REMARK VINA RESULT: -8.943495035      1.356      1.719
REMARK  6 active torsions:
REMARK  status: ('A' for Active; 'I' for Inactive)
REMARK    1  A    between atoms: C5_6  and  C6_7 
REMARK    2  A    between atoms: C6_7  and  N2_8 
REMARK    3  A    between atoms: N3_11  and  C9_12 
REMARK    4  A    between atoms: C9_12  and  C10_13 
REMARK    5  A    between atoms: C17_25  and  N6_26 
REMARK    6  A    between atoms: C18_28  and  C19_29 
ROOT
HETATM    1  N1  UNL     1       9.508  53.387  84.235  1.00  0.00    -0.191 NA
HETATM    2  C1  UNL     1       9.958  53.035  85.235  1.00  0.00     0.103 C 
HETATM    3  C2  UNL     1      10.486  52.576  86.515  1.00  0.00     0.088 A 
HETATM    4  C3  UNL     1       9.621  51.925  87.383  1.00  0.00     0.028 A 
HETATM    5  C4  UNL     1      10.100  51.486  88.590  1.00  0.00     0.028 A 
HETATM    6  C5  UNL     1      11.417  51.677  88.959  1.00  0.00     0.028 A 
HETATM    7  N5  UNL     1      12.234  52.297  88.128  1.00  0.00    -0.343 N 
ATOM      8  H5  UNL     1      13.207  52.438  88.400  1.00  0.00     0.167 HD
HETATM    9  C17 UNL     1      11.799  52.766  86.883  1.00  0.00     0.126 A 
ENDROOT
BRANCH   9  10
HETATM   10  N6  UNL     1      12.637  53.338  86.165  1.00  0.00    -0.350 N 
HETATM   11  C18 UNL     1      13.903  53.303  85.675  1.00  0.00     0.101 C 
ATOM     12  H6  UNL     1      12.192  54.177  85.793  1.00  0.00     0.166 HD
BRANCH  11  13
HETATM   13  C19 UNL     1      14.102  52.503  84.424  1.00  0.00    -0.020 A 
HETATM   14  C20 UNL     1      13.110  51.717  83.892  1.00  0.00     0.013 A 
HETATM   15  C21 UNL     1      13.313  50.974  82.723  1.00  0.00     0.010 A 
HETATM   16  C22 UNL     1      14.541  51.048  82.111  1.00  0.00    -0.035 A 
HETATM   17  C23 UNL     1      15.556  51.831  82.625  1.00  0.00    -0.048 A 
HETATM   18  C27 UNL     1      14.859  50.301  80.868  1.00  0.00     0.153 C 
HETATM   19  C24 UNL     1      15.317  52.546  83.775  1.00  0.00     0.020 A 
HETATM   20  C25 UNL     1      16.839  51.837  81.885  1.00  0.00     0.058 C 
HETATM   21  C26 UNL     1      16.513  52.014  80.414  1.00  0.00     0.118 C 
HETATM   22  N7  UNL     1      15.595  51.049  79.901  1.00  0.00    -0.417 N 
ATOM     23  H7  UNL     1      15.471  50.903  78.899  1.00  0.00     0.153 HD
ENDBRANCH  11  13
ENDBRANCH   9  10
BRANCH   6  24
HETATM   24  C6  UNL     1      11.890  51.187  90.274  1.00  0.00     0.179 C 
BRANCH  24  25
HETATM   25  N2  UNL     1      12.567  52.244  90.933  1.00  0.00    -0.378 N 
HETATM   26  C7  UNL     1      11.969  53.511  90.889  1.00  0.00     0.103 C 
HETATM   27  C8  UNL     1      12.345  54.516  91.912  1.00  0.00     0.112 C 
HETATM   28  N3  UNL     1      13.012  54.001  93.032  1.00  0.00    -0.343 N 
HETATM   29  C15 UNL     1      14.017  53.068  92.721  1.00  0.00     0.088 C 
HETATM   30  C16 UNL     1      13.373  51.889  92.036  1.00  0.00     0.167 C 
BRANCH  28  31
HETATM   31  C9  UNL     1      12.409  53.989  94.286  1.00  0.00     0.110 C 
BRANCH  31  32
HETATM   32  C10 UNL     1      11.837  55.264  94.786  1.00  0.00     0.017 A 
HETATM   33  C11 UNL     1      12.564  56.359  95.173  1.00  0.00     0.102 A 
HETATM   34  N4  UNL     1      11.978  57.480  95.629  1.00  0.00    -0.374 N 
HETATM   35  C12 UNL     1      10.642  57.581  95.727  1.00  0.00     0.089 A 
ATOM     36  H4  UNL     1      12.561  58.270  95.906  1.00  0.00     0.164 HD
HETATM   37  C13 UNL     1       9.859  56.510  95.354  1.00  0.00     0.042 A 
HETATM   38  C14 UNL     1      10.445  55.365  94.888  1.00  0.00     0.048 A 
HETATM   39 CL1  UNL     1       9.462  53.978  94.403  1.00  0.00    -0.083 Cl
ENDBRANCH  31  32
ENDBRANCH  28  31
ENDBRANCH  24  25
ENDBRANCH   6  24
TORSDOF 6
ENDMDL
