MODEL 1
REMARK VINA RESULT: -7.390163147      0.000      0.000
REMARK  7 active torsions:
REMARK  status: ('A' for Active; 'I' for Inactive)
REMARK    1  A    between atoms: O1_2  and  C2_3 
REMARK    2  A    between atoms: C4_5  and  N1_6 
REMARK    3  A    between atoms: C7_9  and  N2_10 
REMARK    4  A    between atoms: N2_10  and  S1_12 
REMARK    5  A    between atoms: S1_12  and  C8_15 
REMARK    6  A    between atoms: C16_23  and  N3_24 
REMARK    7  A    between atoms: N3_24  and  C17_26 
ROOT
HETATM    1  C17 UNL     1      13.410  53.734  87.605  1.00  0.00     0.684 A 
HETATM    2  N4  UNL     1      12.794  52.568  87.797  1.00  0.00    -0.200 N 
ATOM      3  H4  UNL     1      12.520  51.978  87.010  1.00  0.00     0.183 HD
HETATM    4  C18 UNL     1      12.550  52.199  89.059  1.00  0.00     0.134 A 
HETATM    5  C19 UNL     1      12.917  52.989  90.162  1.00  0.00     0.095 A 
HETATM    6 CL1  UNL     1      12.565  52.440  91.781  1.00  0.00    -0.079 Cl
HETATM    7  C20 UNL     1      13.551  54.188  89.956  1.00  0.00     0.153 A 
HETATM    8  N5  UNL     1      13.938  54.998  90.851  1.00  0.00    -0.277 N 
ATOM      9  H5  UNL     1      14.394  55.845  90.510  1.00  0.00     0.179 HD
HETATM   10  C21 UNL     1      13.831  54.898  92.186  1.00  0.00     0.183 C 
HETATM   11  N6  UNL     1      13.754  54.843  93.347  1.00  0.00    -0.172 NA
HETATM   12  N7  UNL     1      13.769  54.499  88.632  1.00  0.00    -0.174 N 
ATOM     13  H7  UNL     1      14.238  55.380  88.424  1.00  0.00     0.186 HD
ENDROOT
BRANCH   1  14
HETATM   14  N3  UNL     1      13.687  54.170  86.400  1.00  0.00    -0.189 N 
ATOM     15  H3  UNL     1      13.893  55.159  86.259  1.00  0.00     0.184 HD
BRANCH  14  16
HETATM   16  C16 UNL     1      13.706  53.281  85.279  1.00  0.00     0.083 A 
HETATM   17  C2  UNL     1      12.539  52.700  84.825  1.00  0.00     0.097 A 
HETATM   18  C3  UNL     1      12.604  51.850  83.743  1.00  0.00     0.069 A 
HETATM   19  C4  UNL     1      13.805  51.554  83.085  1.00  0.00     0.038 A 
HETATM   20  C13 UNL     1      14.951  52.132  83.540  1.00  0.00    -0.033 A 
HETATM   21  C14 UNL     1      16.249  51.864  82.881  1.00  0.00     0.050 C 
HETATM   22  C15 UNL     1      14.895  53.000  84.644  1.00  0.00     0.042 A 
BRANCH  17  23
HETATM   23  O1  UNL     1      11.337  52.988  85.472  1.00  0.00    -0.354 OA
HETATM   24  C1  UNL     1      10.092  52.951  84.846  1.00  0.00     0.210 C 
ENDBRANCH  17  23
BRANCH  19  25
HETATM   25  N1  UNL     1      13.813  50.662  81.976  1.00  0.00    -0.380 N 
HETATM   26  C5  UNL     1      14.200  51.018  80.658  1.00  0.00     0.125 C 
HETATM   27  C6  UNL     1      13.279  50.448  79.626  1.00  0.00     0.045 C 
HETATM   28  C7  UNL     1      13.090  48.974  79.873  1.00  0.00     0.096 C 
HETATM   29  C11 UNL     1      12.370  48.900  81.242  1.00  0.00     0.045 C 
HETATM   30  C12 UNL     1      13.408  49.291  82.260  1.00  0.00     0.125 C 
BRANCH  28  31
HETATM   31  N2  UNL     1      12.293  48.300  78.879  1.00  0.00    -0.314 N 
ATOM     32  H2  UNL     1      11.288  48.423  78.756  1.00  0.00     0.172 HD
BRANCH  31  33
HETATM   33  S1  UNL     1      13.276  47.259  77.931  1.00  0.00     0.231 S 
HETATM   34  O2  UNL     1      12.821  47.359  76.481  1.00  0.00    -0.206 OA
HETATM   35  O3  UNL     1      14.740  47.676  78.021  1.00  0.00    -0.206 OA
BRANCH  33  36
HETATM   36  C8  UNL     1      13.118  45.582  78.464  1.00  0.00     0.129 A 
HETATM   37  C9  UNL     1      14.347  44.848  78.863  1.00  0.00     0.023 A 
HETATM   38  C10 UNL     1      13.332  45.209  79.907  1.00  0.00     0.023 A 
ENDBRANCH  33  36
ENDBRANCH  31  33
ENDBRANCH  28  31
ENDBRANCH  19  25
ENDBRANCH  14  16
ENDBRANCH   1  14
TORSDOF 7
ENDMDL
MODEL 2
REMARK VINA RESULT: -7.338055670      1.123      1.536
REMARK  7 active torsions:
REMARK  status: ('A' for Active; 'I' for Inactive)
REMARK    1  A    between atoms: O1_2  and  C2_3 
REMARK    2  A    between atoms: C4_5  and  N1_6 
REMARK    3  A    between atoms: C7_9  and  N2_10 
REMARK    4  A    between atoms: N2_10  and  S1_12 
REMARK    5  A    between atoms: S1_12  and  C8_15 
REMARK    6  A    between atoms: C16_23  and  N3_24 
REMARK    7  A    between atoms: N3_24  and  C17_26 
ROOT
HETATM    1  C17 UNL     1      13.257  53.560  87.240  1.00  0.00     0.684 A 
HETATM    2  N4  UNL     1      12.504  52.497  87.522  1.00  0.00    -0.200 N 
ATOM      3  H4  UNL     1      12.110  51.915  86.782  1.00  0.00     0.183 HD
HETATM    4  C18 UNL     1      12.282  52.223  88.813  1.00  0.00     0.134 A 
HETATM    5  C19 UNL     1      12.811  53.005  89.853  1.00  0.00     0.095 A 
HETATM    6 CL1  UNL     1      12.478  52.584  91.514  1.00  0.00    -0.079 Cl
HETATM    7  C20 UNL     1      13.586  54.097  89.554  1.00  0.00     0.153 A 
HETATM    8  N5  UNL     1      14.126  54.888  90.386  1.00  0.00    -0.277 N 
ATOM      9  H5  UNL     1      14.671  55.648  89.979  1.00  0.00     0.179 HD
HETATM   10  C21 UNL     1      14.080  54.864  91.728  1.00  0.00     0.183 C 
HETATM   11  N6  UNL     1      14.060  54.873  92.893  1.00  0.00    -0.172 NA
HETATM   12  N7  UNL     1      13.770  54.315  88.207  1.00  0.00    -0.174 N 
ATOM     13  H7  UNL     1      14.341  55.114  87.930  1.00  0.00     0.186 HD
ENDROOT
BRANCH   1  14
HETATM   14  N3  UNL     1      13.524  53.898  86.002  1.00  0.00    -0.189 N 
ATOM     15  H3  UNL     1      13.914  54.820  85.807  1.00  0.00     0.184 HD
BRANCH  14  16
HETATM   16  C16 UNL     1      13.276  52.996  84.920  1.00  0.00     0.083 A 
HETATM   17  C2  UNL     1      11.990  52.783  84.465  1.00  0.00     0.097 A 
HETATM   18  C3  UNL     1      11.798  51.905  83.421  1.00  0.00     0.069 A 
HETATM   19  C4  UNL     1      12.853  51.223  82.802  1.00  0.00     0.038 A 
HETATM   20  C13 UNL     1      14.118  51.440  83.257  1.00  0.00    -0.033 A 
HETATM   21  C14 UNL     1      15.276  50.755  82.638  1.00  0.00     0.050 C 
HETATM   22  C15 UNL     1      14.325  52.333  84.322  1.00  0.00     0.042 A 
BRANCH  17  23
HETATM   23  O1  UNL     1      10.930  53.456  85.073  1.00  0.00    -0.354 OA
HETATM   24  C1  UNL     1       9.648  52.926  85.205  1.00  0.00     0.210 C 
ENDBRANCH  17  23
BRANCH  19  25
HETATM   25  N1  UNL     1      12.595  50.322  81.732  1.00  0.00    -0.380 N 
HETATM   26  C5  UNL     1      11.974  49.053  81.878  1.00  0.00     0.125 C 
HETATM   27  C6  UNL     1      12.655  47.996  81.068  1.00  0.00     0.045 C 
HETATM   28  C7  UNL     1      12.829  48.474  79.650  1.00  0.00     0.096 C 
HETATM   29  C11 UNL     1      13.797  49.678  79.765  1.00  0.00     0.045 C 
HETATM   30  C12 UNL     1      12.992  50.778  80.406  1.00  0.00     0.125 C 
BRANCH  28  31
HETATM   31  N2  UNL     1      13.391  47.495  78.754  1.00  0.00    -0.314 N 
ATOM     32  H2  UNL     1      14.271  47.003  78.907  1.00  0.00     0.172 HD
BRANCH  31  33
HETATM   33  S1  UNL     1      12.368  47.275  77.393  1.00  0.00     0.231 S 
HETATM   34  O2  UNL     1      11.541  48.540  77.206  1.00  0.00    -0.206 OA
HETATM   35  O3  UNL     1      13.195  47.033  76.135  1.00  0.00    -0.206 OA
BRANCH  33  36
HETATM   36  C8  UNL     1      11.274  45.909  77.638  1.00  0.00     0.129 A 
HETATM   37  C9  UNL     1      11.501  45.025  78.812  1.00  0.00     0.023 A 
HETATM   38  C10 UNL     1      10.287  45.906  78.775  1.00  0.00     0.023 A 
ENDBRANCH  33  36
ENDBRANCH  31  33
ENDBRANCH  28  31
ENDBRANCH  19  25
ENDBRANCH  14  16
ENDBRANCH   1  14
TORSDOF 7
ENDMDL
MODEL 3
REMARK VINA RESULT: -7.336733362      6.485     12.423
REMARK  7 active torsions:
REMARK  status: ('A' for Active; 'I' for Inactive)
REMARK    1  A    between atoms: O1_2  and  C2_3 
REMARK    2  A    between atoms: C4_5  and  N1_6 
REMARK    3  A    between atoms: C7_9  and  N2_10 
REMARK    4  A    between atoms: N2_10  and  S1_12 
REMARK    5  A    between atoms: S1_12  and  C8_15 
REMARK    6  A    between atoms: C16_23  and  N3_24 
REMARK    7  A    between atoms: N3_24  and  C17_26 
ROOT
HETATM    1  C17 UNL     1      12.118  53.036  87.266  1.00  0.00     0.684 A 
HETATM    2  N4  UNL     1      11.461  51.927  86.925  1.00  0.00    -0.200 N 
ATOM      3  H4  UNL     1      10.653  51.605  87.458  1.00  0.00     0.183 HD
HETATM    4  C18 UNL     1      11.902  51.252  85.858  1.00  0.00     0.134 A 
HETATM    5  C19 UNL     1      13.012  51.672  85.104  1.00  0.00     0.095 A 
HETATM    6 CL1  UNL     1      13.528  50.739  83.722  1.00  0.00    -0.079 Cl
HETATM    7  C20 UNL     1      13.682  52.814  85.462  1.00  0.00     0.153 A 
HETATM    8  N5  UNL     1      14.693  53.308  84.877  1.00  0.00    -0.277 N 
ATOM      9  H5  UNL     1      15.060  54.168  85.286  1.00  0.00     0.179 HD
HETATM   10  C21 UNL     1      15.348  52.857  83.795  1.00  0.00     0.183 C 
HETATM   11  N6  UNL     1      15.939  52.494  82.858  1.00  0.00    -0.172 NA
HETATM   12  N7  UNL     1      13.170  53.454  86.569  1.00  0.00    -0.174 N 
ATOM     13  H7  UNL     1      13.631  54.310  86.876  1.00  0.00     0.186 HD
ENDROOT
BRANCH   1  14
HETATM   14  N3  UNL     1      11.751  53.756  88.299  1.00  0.00    -0.189 N 
ATOM     15  H3  UNL     1      11.078  54.511  88.170  1.00  0.00     0.184 HD
BRANCH  14  16
HETATM   16  C16 UNL     1      12.280  53.500  89.603  1.00  0.00     0.083 A 
HETATM   17  C2  UNL     1      13.449  54.105  90.017  1.00  0.00     0.097 A 
HETATM   18  C3  UNL     1      13.921  53.829  91.282  1.00  0.00     0.069 A 
HETATM   19  C4  UNL     1      13.262  52.962  92.163  1.00  0.00     0.038 A 
HETATM   20  C13 UNL     1      12.109  52.369  91.745  1.00  0.00    -0.033 A 
HETATM   21  C14 UNL     1      11.364  51.449  92.634  1.00  0.00     0.050 C 
HETATM   22  C15 UNL     1      11.619  52.644  90.457  1.00  0.00     0.042 A 
BRANCH  17  23
HETATM   23  O1  UNL     1      14.114  54.971  89.149  1.00  0.00    -0.354 OA
HETATM   24  C1  UNL     1      15.232  55.721  89.509  1.00  0.00     0.210 C 
ENDBRANCH  17  23
BRANCH  19  25
HETATM   25  N1  UNL     1      13.801  52.707  93.455  1.00  0.00    -0.380 N 
HETATM   26  C5  UNL     1      14.446  51.502  93.837  1.00  0.00     0.125 C 
HETATM   27  C6  UNL     1      14.021  51.041  95.195  1.00  0.00     0.045 C 
HETATM   28  C7  UNL     1      14.136  52.178  96.177  1.00  0.00     0.096 C 
HETATM   29  C11 UNL     1      13.099  53.218  95.685  1.00  0.00     0.045 C 
HETATM   30  C12 UNL     1      13.679  53.793  94.420  1.00  0.00     0.125 C 
BRANCH  28  31
HETATM   31  N2  UNL     1      13.842  51.821  97.541  1.00  0.00    -0.314 N 
ATOM     32  H2  UNL     1      12.912  51.834  97.960  1.00  0.00     0.172 HD
BRANCH  31  33
HETATM   33  S1  UNL     1      15.281  51.370  98.364  1.00  0.00     0.231 S 
HETATM   34  O2  UNL     1      15.330  52.119  99.689  1.00  0.00    -0.206 OA
HETATM   35  O3  UNL     1      15.292  49.871  98.640  1.00  0.00    -0.206 OA
BRANCH  33  36
HETATM   36  C8  UNL     1      16.710  51.795  97.415  1.00  0.00     0.129 A 
HETATM   37  C9  UNL     1      18.049  51.457  97.965  1.00  0.00     0.023 A 
HETATM   38  C10 UNL     1      17.542  50.728  96.755  1.00  0.00     0.023 A 
ENDBRANCH  33  36
ENDBRANCH  31  33
ENDBRANCH  28  31
ENDBRANCH  19  25
ENDBRANCH  14  16
ENDBRANCH   1  14
TORSDOF 7
ENDMDL
MODEL 4
REMARK VINA RESULT: -7.223236978      6.251     12.107
REMARK  7 active torsions:
REMARK  status: ('A' for Active; 'I' for Inactive)
REMARK    1  A    between atoms: O1_2  and  C2_3 
REMARK    2  A    between atoms: C4_5  and  N1_6 
REMARK    3  A    between atoms: C7_9  and  N2_10 
REMARK    4  A    between atoms: N2_10  and  S1_12 
REMARK    5  A    between atoms: S1_12  and  C8_15 
REMARK    6  A    between atoms: C16_23  and  N3_24 
REMARK    7  A    between atoms: N3_24  and  C17_26 
ROOT
HETATM    1  C17 UNL     1      12.024  52.791  86.793  1.00  0.00     0.684 A 
HETATM    2  N4  UNL     1      11.431  51.656  86.427  1.00  0.00    -0.200 N 
ATOM      3  H4  UNL     1      10.609  51.305  86.918  1.00  0.00     0.183 HD
HETATM    4  C18 UNL     1      11.956  50.992  85.390  1.00  0.00     0.134 A 
HETATM    5  C19 UNL     1      13.087  51.450  84.694  1.00  0.00     0.095 A 
HETATM    6 CL1  UNL     1      13.714  50.530  83.350  1.00  0.00    -0.079 Cl
HETATM    7  C20 UNL     1      13.691  52.621  85.077  1.00  0.00     0.153 A 
HETATM    8  N5  UNL     1      14.712  53.151  84.544  1.00  0.00    -0.277 N 
ATOM      9  H5  UNL     1      15.022  54.027  84.964  1.00  0.00     0.179 HD
HETATM   10  C21 UNL     1      15.442  52.720  83.502  1.00  0.00     0.183 C 
HETATM   11  N6  UNL     1      16.097  52.375  82.602  1.00  0.00    -0.172 NA
HETATM   12  N7  UNL     1      13.095  53.247  86.150  1.00  0.00    -0.174 N 
ATOM     13  H7  UNL     1      13.505  54.123  86.474  1.00  0.00     0.186 HD
ENDROOT
BRANCH   1  14
HETATM   14  N3  UNL     1      11.574  53.503  87.798  1.00  0.00    -0.189 N 
ATOM     15  H3  UNL     1      10.831  54.183  87.638  1.00  0.00     0.184 HD
BRANCH  14  16
HETATM   16  C16 UNL     1      12.108  53.341  89.115  1.00  0.00     0.083 A 
HETATM   17  C2  UNL     1      11.581  52.398  89.974  1.00  0.00     0.097 A 
HETATM   18  C3  UNL     1      12.126  52.277  91.234  1.00  0.00     0.069 A 
HETATM   19  C4  UNL     1      13.193  53.071  91.676  1.00  0.00     0.038 A 
HETATM   20  C13 UNL     1      13.706  53.998  90.821  1.00  0.00    -0.033 A 
HETATM   21  C14 UNL     1      14.838  54.861  91.228  1.00  0.00     0.050 C 
HETATM   22  C15 UNL     1      13.156  54.130  89.534  1.00  0.00     0.042 A 
BRANCH  17  23
HETATM   23  O1  UNL     1      10.520  51.601  89.545  1.00  0.00    -0.354 OA
HETATM   24  C1  UNL     1       9.200  51.780  89.957  1.00  0.00     0.210 C 
ENDBRANCH  17  23
BRANCH  19  25
HETATM   25  N1  UNL     1      13.710  52.907  92.991  1.00  0.00    -0.380 N 
HETATM   26  C5  UNL     1      14.371  51.741  93.459  1.00  0.00     0.125 C 
HETATM   27  C6  UNL     1      13.928  51.356  94.835  1.00  0.00     0.045 C 
HETATM   28  C7  UNL     1      14.000  52.554  95.746  1.00  0.00     0.096 C 
HETATM   29  C11 UNL     1      12.954  53.540  95.172  1.00  0.00     0.045 C 
HETATM   30  C12 UNL     1      13.548  54.048  93.885  1.00  0.00     0.125 C 
BRANCH  28  31
HETATM   31  N2  UNL     1      13.686  52.275  97.125  1.00  0.00    -0.314 N 
ATOM     32  H2  UNL     1      12.798  52.495  97.576  1.00  0.00     0.172 HD
BRANCH  31  33
HETATM   33  S1  UNL     1      15.019  51.519  97.900  1.00  0.00     0.231 S 
HETATM   34  O2  UNL     1      15.137  52.085  99.309  1.00  0.00    -0.206 OA
HETATM   35  O3  UNL     1      14.804  50.012  97.987  1.00  0.00    -0.206 OA
BRANCH  33  36
HETATM   36  C8  UNL     1      16.522  51.840  97.028  1.00  0.00     0.129 A 
HETATM   37  C9  UNL     1      17.811  51.567  97.716  1.00  0.00     0.023 A 
HETATM   38  C10 UNL     1      17.397  50.709  96.557  1.00  0.00     0.023 A 
ENDBRANCH  33  36
ENDBRANCH  31  33
ENDBRANCH  28  31
ENDBRANCH  19  25
ENDBRANCH  14  16
ENDBRANCH   1  14
TORSDOF 7
ENDMDL
MODEL 5
REMARK VINA RESULT: -7.174377192      2.941      5.356
REMARK  7 active torsions:
REMARK  status: ('A' for Active; 'I' for Inactive)
REMARK    1  A    between atoms: O1_2  and  C2_3 
REMARK    2  A    between atoms: C4_5  and  N1_6 
REMARK    3  A    between atoms: C7_9  and  N2_10 
REMARK    4  A    between atoms: N2_10  and  S1_12 
REMARK    5  A    between atoms: S1_12  and  C8_15 
REMARK    6  A    between atoms: C16_23  and  N3_24 
REMARK    7  A    between atoms: N3_24  and  C17_26 
ROOT
HETATM    1  C17 UNL     1      13.078  54.136  92.294  1.00  0.00     0.684 A 
HETATM    2  N4  UNL     1      13.047  54.701  93.500  1.00  0.00    -0.200 N 
ATOM      3  H4  UNL     1      12.658  55.634  93.639  1.00  0.00     0.183 HD
HETATM    4  C18 UNL     1      13.548  53.999  94.523  1.00  0.00     0.134 A 
HETATM    5  C19 UNL     1      14.090  52.712  94.363  1.00  0.00     0.095 A 
HETATM    6 CL1  UNL     1      14.724  51.857  95.746  1.00  0.00    -0.079 Cl
HETATM    7  C20 UNL     1      14.116  52.138  93.117  1.00  0.00     0.153 A 
HETATM    8  N5  UNL     1      14.573  50.991  92.827  1.00  0.00    -0.277 N 
ATOM      9  H5  UNL     1      14.508  50.729  91.844  1.00  0.00     0.179 HD
HETATM   10  C21 UNL     1      15.129  50.073  93.635  1.00  0.00     0.183 C 
HETATM   11  N6  UNL     1      15.616  49.255  94.307  1.00  0.00    -0.172 NA
HETATM   12  N7  UNL     1      13.584  52.920  92.116  1.00  0.00    -0.174 N 
ATOM     13  H7  UNL     1      13.579  52.538  91.171  1.00  0.00     0.186 HD
ENDROOT
BRANCH   1  14
HETATM   14  N3  UNL     1      12.608  54.755  91.238  1.00  0.00    -0.189 N 
ATOM     15  H3  UNL     1      12.235  55.700  91.335  1.00  0.00     0.184 HD
BRANCH  14  16
HETATM   16  C16 UNL     1      12.610  54.129  89.952  1.00  0.00     0.083 A 
HETATM   17  C2  UNL     1      13.784  53.997  89.238  1.00  0.00     0.097 A 
HETATM   18  C3  UNL     1      13.739  53.387  88.004  1.00  0.00     0.069 A 
HETATM   19  C4  UNL     1      12.551  52.895  87.446  1.00  0.00     0.038 A 
HETATM   20  C13 UNL     1      11.398  53.030  88.158  1.00  0.00    -0.033 A 
HETATM   21  C14 UNL     1      10.113  52.523  87.624  1.00  0.00     0.050 C 
HETATM   22  C15 UNL     1      11.433  53.651  89.418  1.00  0.00     0.042 A 
BRANCH  17  23
HETATM   23  O1  UNL     1      14.972  54.482  89.783  1.00  0.00    -0.354 OA
HETATM   24  C1  UNL     1      15.352  55.822  89.746  1.00  0.00     0.210 C 
ENDBRANCH  17  23
BRANCH  19  25
HETATM   25  N1  UNL     1      12.563  52.281  86.162  1.00  0.00    -0.380 N 
HETATM   26  C5  UNL     1      12.079  50.975  85.888  1.00  0.00     0.125 C 
HETATM   27  C6  UNL     1      12.992  50.213  84.981  1.00  0.00     0.045 C 
HETATM   28  C7  UNL     1      13.322  51.051  83.772  1.00  0.00     0.096 C 
HETATM   29  C11 UNL     1      14.115  52.253  84.341  1.00  0.00     0.045 C 
HETATM   30  C12 UNL     1      13.101  53.089  85.076  1.00  0.00     0.125 C 
BRANCH  28  31
HETATM   31  N2  UNL     1      14.121  50.378  82.780  1.00  0.00    -0.314 N 
ATOM     32  H2  UNL     1      15.039  49.967  82.952  1.00  0.00     0.172 HD
BRANCH  31  33
HETATM   33  S1  UNL     1      13.311  50.368  81.266  1.00  0.00     0.231 S 
HETATM   34  O2  UNL     1      12.976  48.926  80.911  1.00  0.00    -0.206 OA
HETATM   35  O3  UNL     1      12.017  51.172  81.346  1.00  0.00    -0.206 OA
BRANCH  33  36
HETATM   36  C8  UNL     1      14.336  51.046  79.996  1.00  0.00     0.129 A 
HETATM   37  C9  UNL     1      15.624  51.675  80.389  1.00  0.00     0.023 A 
HETATM   38  C10 UNL     1      15.636  50.386  79.621  1.00  0.00     0.023 A 
ENDBRANCH  33  36
ENDBRANCH  31  33
ENDBRANCH  28  31
ENDBRANCH  19  25
ENDBRANCH  14  16
ENDBRANCH   1  14
TORSDOF 7
ENDMDL
