MODEL 1
REMARK VINA RESULT: -7.642829157      0.000      0.000
REMARK  6 active torsions:
REMARK  status: ('A' for Active; 'I' for Inactive)
REMARK    1  A    between atoms: C2_2  and  C3_3 
REMARK    2  A    between atoms: C6_6  and  O1_7 
REMARK    3  A    between atoms: O1_7  and  C7_8 
REMARK    4  A    between atoms: C7_8  and  C8_9 
REMARK    5  A    between atoms: C8_9  and  N1_10 
REMARK    6  A    between atoms: C11_13  and  N3_16 
ROOT
HETATM    1  N1  UNL     1      11.078  52.058  84.908  1.00  0.00     0.090 N 
HETATM    2  C9  UNL     1      12.413  51.974  85.485  1.00  0.00     0.276 C 
HETATM    3  C10 UNL     1      13.477  52.073  84.413  1.00  0.00     0.077 C 
HETATM    4  C11 UNL     1      13.270  50.944  83.384  1.00  0.00     0.129 C 
HETATM    5  C12 UNL     1      13.285  49.722  84.195  1.00  0.00     0.091 C 
HETATM    6  N2  UNL     1      13.278  48.737  84.838  1.00  0.00    -0.195 NA
HETATM    7  C17 UNL     1      11.919  51.147  82.818  1.00  0.00     0.077 C 
HETATM    8  C18 UNL     1      11.118  52.258  83.486  1.00  0.00     0.276 C 
ENDROOT
BRANCH   4   9
HETATM    9  N3  UNL     1      14.375  50.944  82.525  1.00  0.00    -0.311 N 
HETATM   10  C13 UNL     1      15.589  51.642  82.939  1.00  0.00     0.139 C 
HETATM   11  C14 UNL     1      16.588  51.798  81.854  1.00  0.00     0.123 C 
HETATM   12  C15 UNL     1      16.090  51.704  80.482  1.00  0.00     0.227 C 
HETATM   13  O2  UNL     1      16.415  52.500  79.540  1.00  0.00    -0.273 OA
HETATM   14  N4  UNL     1      15.173  50.637  80.186  1.00  0.00    -0.279 N 
HETATM   15  C16 UNL     1      14.312  50.283  81.267  1.00  0.00     0.326 C 
ATOM     16  H4  UNL     1      15.142  50.172  79.278  1.00  0.00     0.173 HD
HETATM   17  O3  UNL     1      13.483  49.388  81.152  1.00  0.00    -0.247 OA
ENDBRANCH   4   9
BRANCH   1  18
HETATM   18  C8  UNL     1      10.433  53.190  85.546  1.00  0.00     0.299 C 
BRANCH  18  19
HETATM   19  C7  UNL     1       9.156  52.815  86.231  1.00  0.00     0.206 C 
BRANCH  19  20
HETATM   20  O1  UNL     1       9.375  51.939  87.328  1.00  0.00    -0.348 OA
BRANCH  20  21
HETATM   21  C6  UNL     1      10.162  52.281  88.407  1.00  0.00     0.090 A 
HETATM   22  C5  UNL     1      10.063  53.493  89.048  1.00  0.00     0.039 A 
HETATM   23  C4  UNL     1      10.896  53.737  90.116  1.00  0.00     0.013 A 
HETATM   24  C3  UNL     1      11.818  52.814  90.561  1.00  0.00    -0.021 A 
HETATM   25  C20 UNL     1      11.915  51.605  89.920  1.00  0.00     0.036 A 
HETATM   26  C19 UNL     1      11.084  51.346  88.846  1.00  0.00     0.068 A 
HETATM   27 CL1  UNL     1      11.213  49.798  88.031  1.00  0.00    -0.081 Cl
BRANCH  24  28
HETATM   28  C2  UNL     1      12.683  53.124  91.704  1.00  0.00     0.116 C 
HETATM   29  C1  UNL     1      13.091  51.849  92.424  1.00  0.00     0.052 C 
HETATM   30  N5  UNL     1      11.927  53.929  92.646  1.00  0.00    -0.360 N 
HETATM   31  C21 UNL     1      12.867  54.754  93.306  1.00  0.00     0.078 C 
ATOM     32  H5  UNL     1      10.919  53.903  92.802  1.00  0.00     0.162 HD
HETATM   33  N6  UNL     1      12.656  55.345  94.449  1.00  0.00    -0.389 N 
HETATM   34  C22 UNL     1      14.127  54.857  92.522  1.00  0.00     0.157 C 
ATOM     35  H62 UNL     1      11.792  55.274  94.987  1.00  0.00     0.157 HD
ATOM     36  H61 UNL     1      13.334  55.940  94.924  1.00  0.00     0.157 HD
HETATM   37  C23 UNL     1      13.834  53.967  91.366  1.00  0.00     0.166 C 
HETATM   38  O4  UNL     1      14.473  53.964  90.315  1.00  0.00    -0.294 OA
ENDBRANCH  24  28
ENDBRANCH  20  21
ENDBRANCH  19  20
ENDBRANCH  18  19
ENDBRANCH   1  18
TORSDOF 6
ENDMDL
MODEL 2
REMARK VINA RESULT: -7.605494518      2.680      3.982
REMARK  6 active torsions:
REMARK  status: ('A' for Active; 'I' for Inactive)
REMARK    1  A    between atoms: C2_2  and  C3_3 
REMARK    2  A    between atoms: C6_6  and  O1_7 
REMARK    3  A    between atoms: O1_7  and  C7_8 
REMARK    4  A    between atoms: C7_8  and  C8_9 
REMARK    5  A    between atoms: C8_9  and  N1_10 
REMARK    6  A    between atoms: C11_13  and  N3_16 
ROOT
HETATM    1  N1  UNL     1      11.967  52.605  87.022  1.00  0.00     0.090 N 
HETATM    2  C9  UNL     1      11.742  51.347  86.325  1.00  0.00     0.276 C 
HETATM    3  C10 UNL     1      12.935  50.979  85.469  1.00  0.00     0.077 C 
HETATM    4  C11 UNL     1      13.203  52.108  84.454  1.00  0.00     0.129 C 
HETATM    5  C12 UNL     1      11.925  52.257  83.749  1.00  0.00     0.091 C 
HETATM    6  N2  UNL     1      10.901  52.397  83.189  1.00  0.00    -0.195 NA
HETATM    7  C17 UNL     1      13.472  53.323  85.255  1.00  0.00     0.077 C 
HETATM    8  C18 UNL     1      13.271  53.145  86.754  1.00  0.00     0.276 C 
ENDROOT
BRANCH   4   9
HETATM    9  N3  UNL     1      14.177  51.653  83.559  1.00  0.00    -0.311 N 
HETATM   10  C13 UNL     1      15.456  52.355  83.492  1.00  0.00     0.139 C 
HETATM   11  C14 UNL     1      16.298  51.953  82.339  1.00  0.00     0.123 C 
HETATM   12  C15 UNL     1      15.611  51.333  81.207  1.00  0.00     0.227 C 
HETATM   13  O2  UNL     1      15.824  51.628  79.984  1.00  0.00    -0.273 OA
HETATM   14  N4  UNL     1      14.634  50.322  81.503  1.00  0.00    -0.279 N 
HETATM   15  C16 UNL     1      13.922  50.531  82.722  1.00  0.00     0.326 C 
ATOM     16  H4  UNL     1      14.463  49.522  80.893  1.00  0.00     0.173 HD
HETATM   17  O3  UNL     1      13.060  49.745  83.097  1.00  0.00    -0.247 OA
ENDBRANCH   4   9
BRANCH   1  18
HETATM   18  C8  UNL     1      11.836  52.312  88.437  1.00  0.00     0.299 C 
BRANCH  18  19
HETATM   19  C7  UNL     1      12.413  53.387  89.305  1.00  0.00     0.206 C 
BRANCH  19  20
HETATM   20  O1  UNL     1      12.750  52.906  90.598  1.00  0.00    -0.348 OA
BRANCH  20  21
HETATM   21  C6  UNL     1      12.432  53.588  91.752  1.00  0.00     0.090 A 
HETATM   22  C5  UNL     1      11.246  53.406  92.424  1.00  0.00     0.039 A 
HETATM   23  C4  UNL     1      11.024  54.138  93.568  1.00  0.00     0.013 A 
HETATM   24  C3  UNL     1      11.943  55.041  94.059  1.00  0.00    -0.021 A 
HETATM   25  C20 UNL     1      13.125  55.221  93.387  1.00  0.00     0.036 A 
HETATM   26  C19 UNL     1      13.362  54.492  92.237  1.00  0.00     0.068 A 
HETATM   27 CL1  UNL     1      14.876  54.728  91.383  1.00  0.00    -0.081 Cl
BRANCH  24  28
HETATM   28  C2  UNL     1      11.656  55.796  95.283  1.00  0.00     0.116 C 
HETATM   29  C1  UNL     1      12.275  57.183  95.208  1.00  0.00     0.052 C 
HETATM   30  N5  UNL     1      12.273  55.108  96.402  1.00  0.00    -0.360 N 
HETATM   31  C21 UNL     1      11.467  55.388  97.531  1.00  0.00     0.078 C 
ATOM     32  H5  UNL     1      13.117  54.537  96.379  1.00  0.00     0.162 HD
HETATM   33  N6  UNL     1      11.863  55.265  98.767  1.00  0.00    -0.389 N 
HETATM   34  C22 UNL     1      10.112  55.839  97.118  1.00  0.00     0.157 C 
ATOM     35  H62 UNL     1      12.793  54.954  99.050  1.00  0.00     0.157 HD
ATOM     36  H61 UNL     1      11.282  55.466  99.581  1.00  0.00     0.157 HD
HETATM   37  C23 UNL     1      10.233  55.838  95.635  1.00  0.00     0.166 C 
HETATM   38  O4  UNL     1       9.277  55.869  94.861  1.00  0.00    -0.294 OA
ENDBRANCH  24  28
ENDBRANCH  20  21
ENDBRANCH  19  20
ENDBRANCH  18  19
ENDBRANCH   1  18
TORSDOF 6
ENDMDL
MODEL 3
REMARK VINA RESULT: -7.507135849      2.565      3.650
REMARK  6 active torsions:
REMARK  status: ('A' for Active; 'I' for Inactive)
REMARK    1  A    between atoms: C2_2  and  C3_3 
REMARK    2  A    between atoms: C6_6  and  O1_7 
REMARK    3  A    between atoms: O1_7  and  C7_8 
REMARK    4  A    between atoms: C7_8  and  C8_9 
REMARK    5  A    between atoms: C8_9  and  N1_10 
REMARK    6  A    between atoms: C11_13  and  N3_16 
ROOT
HETATM    1  N1  UNL     1      11.939  52.463  86.797  1.00  0.00     0.090 N 
HETATM    2  C9  UNL     1      11.758  51.196  86.103  1.00  0.00     0.276 C 
HETATM    3  C10 UNL     1      12.970  50.857  85.263  1.00  0.00     0.077 C 
HETATM    4  C11 UNL     1      13.219  51.989  84.247  1.00  0.00     0.129 C 
HETATM    5  C12 UNL     1      11.947  52.100  83.526  1.00  0.00     0.091 C 
HETATM    6  N2  UNL     1      10.926  52.210  82.953  1.00  0.00    -0.195 NA
HETATM    7  C17 UNL     1      13.446  53.214  85.045  1.00  0.00     0.077 C 
HETATM    8  C18 UNL     1      13.231  53.037  86.542  1.00  0.00     0.276 C 
ENDROOT
BRANCH   4   9
HETATM    9  N3  UNL     1      14.216  51.557  83.365  1.00  0.00    -0.311 N 
HETATM   10  C13 UNL     1      15.492  52.266  83.342  1.00  0.00     0.139 C 
HETATM   11  C14 UNL     1      16.363  51.892  82.201  1.00  0.00     0.123 C 
HETATM   12  C15 UNL     1      15.706  51.291  81.041  1.00  0.00     0.227 C 
HETATM   13  O2  UNL     1      15.945  51.611  79.830  1.00  0.00    -0.273 OA
HETATM   14  N4  UNL     1      14.727  50.270  81.294  1.00  0.00    -0.279 N 
HETATM   15  C16 UNL     1      13.986  50.450  82.500  1.00  0.00     0.326 C 
ATOM     16  H4  UNL     1      14.575  49.481  80.664  1.00  0.00     0.173 HD
HETATM   17  O3  UNL     1      13.120  49.653  82.840  1.00  0.00    -0.247 OA
ENDBRANCH   4   9
BRANCH   1  18
HETATM   18  C8  UNL     1      11.800  52.173  88.211  1.00  0.00     0.299 C 
BRANCH  18  19
HETATM   19  C7  UNL     1      12.614  53.089  89.072  1.00  0.00     0.206 C 
BRANCH  19  20
HETATM   20  O1  UNL     1      12.784  52.576  90.386  1.00  0.00    -0.348 OA
BRANCH  20  21
HETATM   21  C6  UNL     1      12.324  53.234  91.506  1.00  0.00     0.090 A 
HETATM   22  C5  UNL     1      11.026  53.135  91.950  1.00  0.00     0.039 A 
HETATM   23  C4  UNL     1      10.667  53.834  93.080  1.00  0.00     0.013 A 
HETATM   24  C3  UNL     1      11.557  54.624  93.776  1.00  0.00    -0.021 A 
HETATM   25  C20 UNL     1      12.851  54.721  93.331  1.00  0.00     0.036 A 
HETATM   26  C19 UNL     1      13.226  54.024  92.198  1.00  0.00     0.068 A 
HETATM   27 CL1  UNL     1      14.883  54.153  91.635  1.00  0.00    -0.081 Cl
BRANCH  24  28
HETATM   28  C2  UNL     1      11.123  55.349  94.974  1.00  0.00     0.116 C 
HETATM   29  C1  UNL     1      11.354  54.506  96.218  1.00  0.00     0.052 C 
HETATM   30  N5  UNL     1       9.695  55.587  94.874  1.00  0.00    -0.360 N 
HETATM   31  C21 UNL     1       9.444  56.788  95.578  1.00  0.00     0.078 C 
ATOM     32  H5  UNL     1       9.010  55.005  94.392  1.00  0.00     0.162 HD
HETATM   33  N6  UNL     1       8.274  57.150  96.026  1.00  0.00    -0.389 N 
HETATM   34  C22 UNL     1      10.692  57.582  95.738  1.00  0.00     0.157 C 
ATOM     35  H62 UNL     1       7.418  56.605  95.916  1.00  0.00     0.157 HD
ATOM     36  H61 UNL     1       8.094  58.016  96.533  1.00  0.00     0.157 HD
HETATM   37  C23 UNL     1      11.697  56.693  95.096  1.00  0.00     0.166 C 
HETATM   38  O4  UNL     1      12.817  57.056  94.739  1.00  0.00    -0.294 OA
ENDBRANCH  24  28
ENDBRANCH  20  21
ENDBRANCH  19  20
ENDBRANCH  18  19
ENDBRANCH   1  18
TORSDOF 6
ENDMDL
MODEL 4
REMARK VINA RESULT: -7.478472555      1.385      1.572
REMARK  6 active torsions:
REMARK  status: ('A' for Active; 'I' for Inactive)
REMARK    1  A    between atoms: C2_2  and  C3_3 
REMARK    2  A    between atoms: C6_6  and  O1_7 
REMARK    3  A    between atoms: O1_7  and  C7_8 
REMARK    4  A    between atoms: C7_8  and  C8_9 
REMARK    5  A    between atoms: C8_9  and  N1_10 
REMARK    6  A    between atoms: C11_13  and  N3_16 
ROOT
HETATM    1  N1  UNL     1      11.007  51.910  84.913  1.00  0.00     0.090 N 
HETATM    2  C9  UNL     1      12.337  51.843  85.503  1.00  0.00     0.276 C 
HETATM    3  C10 UNL     1      13.410  51.989  84.445  1.00  0.00     0.077 C 
HETATM    4  C11 UNL     1      13.240  50.878  83.391  1.00  0.00     0.129 C 
HETATM    5  C12 UNL     1      13.274  49.639  84.176  1.00  0.00     0.091 C 
HETATM    6  N2  UNL     1      13.282  48.641  84.798  1.00  0.00    -0.195 NA
HETATM    7  C17 UNL     1      11.891  51.062  82.814  1.00  0.00     0.077 C 
HETATM    8  C18 UNL     1      11.058  52.140  83.496  1.00  0.00     0.276 C 
ENDROOT
BRANCH   4   9
HETATM    9  N3  UNL     1      14.354  50.921  82.545  1.00  0.00    -0.311 N 
HETATM   10  C13 UNL     1      15.541  51.651  82.979  1.00  0.00     0.139 C 
HETATM   11  C14 UNL     1      16.547  51.848  81.907  1.00  0.00     0.123 C 
HETATM   12  C15 UNL     1      16.067  51.754  80.529  1.00  0.00     0.227 C 
HETATM   13  O2  UNL     1      16.378  52.570  79.599  1.00  0.00    -0.273 OA
HETATM   14  N4  UNL     1      15.187  50.662  80.211  1.00  0.00    -0.279 N 
HETATM   15  C16 UNL     1      14.325  50.271  81.279  1.00  0.00     0.326 C 
ATOM     16  H4  UNL     1      15.180  50.206  79.298  1.00  0.00     0.173 HD
HETATM   17  O3  UNL     1      13.525  49.353  81.145  1.00  0.00    -0.247 OA
ENDBRANCH   4   9
BRANCH   1  18
HETATM   18  C8  UNL     1      10.330  53.013  85.567  1.00  0.00     0.299 C 
BRANCH  18  19
HETATM   19  C7  UNL     1       9.732  52.624  86.884  1.00  0.00     0.206 C 
BRANCH  19  20
HETATM   20  O1  UNL     1       9.807  53.676  87.836  1.00  0.00    -0.348 OA
BRANCH  20  21
HETATM   21  C6  UNL     1      10.605  53.608  88.958  1.00  0.00     0.090 A 
HETATM   22  C5  UNL     1      11.963  53.402  88.897  1.00  0.00     0.039 A 
HETATM   23  C4  UNL     1      12.669  53.349  90.077  1.00  0.00     0.013 A 
HETATM   24  C3  UNL     1      12.065  53.494  91.308  1.00  0.00    -0.021 A 
HETATM   25  C20 UNL     1      10.710  53.700  91.366  1.00  0.00     0.036 A 
HETATM   26  C19 UNL     1       9.988  53.755  90.189  1.00  0.00     0.068 A 
HETATM   27 CL1  UNL     1       8.256  54.018  90.271  1.00  0.00    -0.081 Cl
BRANCH  24  28
HETATM   28  C2  UNL     1      12.864  53.429  92.536  1.00  0.00     0.116 C 
HETATM   29  C1  UNL     1      13.717  52.171  92.549  1.00  0.00     0.052 C 
HETATM   30  N5  UNL     1      11.959  53.349  93.668  1.00  0.00    -0.360 N 
HETATM   31  C21 UNL     1      12.626  53.967  94.752  1.00  0.00     0.078 C 
ATOM     32  H5  UNL     1      11.030  52.931  93.680  1.00  0.00     0.162 HD
HETATM   33  N6  UNL     1      12.319  53.786  96.006  1.00  0.00    -0.389 N 
HETATM   34  C22 UNL     1      13.722  54.849  94.269  1.00  0.00     0.157 C 
ATOM     35  H62 UNL     1      11.568  53.181  96.337  1.00  0.00     0.157 HD
ATOM     36  H61 UNL     1      12.801  54.232  96.788  1.00  0.00     0.157 HD
HETATM   37  C23 UNL     1      13.650  54.639  92.798  1.00  0.00     0.166 C 
HETATM   38  O4  UNL     1      14.176  55.378  91.966  1.00  0.00    -0.294 OA
ENDBRANCH  24  28
ENDBRANCH  20  21
ENDBRANCH  19  20
ENDBRANCH  18  19
ENDBRANCH   1  18
TORSDOF 6
ENDMDL
MODEL 5
REMARK VINA RESULT: -7.323847472      2.366      3.423
REMARK  6 active torsions:
REMARK  status: ('A' for Active; 'I' for Inactive)
REMARK    1  A    between atoms: C2_2  and  C3_3 
REMARK    2  A    between atoms: C6_6  and  O1_7 
REMARK    3  A    between atoms: O1_7  and  C7_8 
REMARK    4  A    between atoms: C7_8  and  C8_9 
REMARK    5  A    between atoms: C8_9  and  N1_10 
REMARK    6  A    between atoms: C11_13  and  N3_16 
ROOT
HETATM    1  N1  UNL     1      12.019  52.397  86.464  1.00  0.00     0.090 N 
HETATM    2  C9  UNL     1      11.776  51.106  85.835  1.00  0.00     0.276 C 
HETATM    3  C10 UNL     1      12.959  50.681  84.991  1.00  0.00     0.077 C 
HETATM    4  C11 UNL     1      13.230  51.753  83.917  1.00  0.00     0.129 C 
HETATM    5  C12 UNL     1      11.949  51.879  83.214  1.00  0.00     0.091 C 
HETATM    6  N2  UNL     1      10.922  52.000  82.655  1.00  0.00    -0.195 NA
HETATM    7  C17 UNL     1      13.518  53.004  84.651  1.00  0.00     0.077 C 
HETATM    8  C18 UNL     1      13.327  52.907  86.159  1.00  0.00     0.276 C 
ENDROOT
BRANCH   4   9
HETATM    9  N3  UNL     1      14.193  51.241  83.039  1.00  0.00    -0.311 N 
HETATM   10  C13 UNL     1      15.533  51.819  83.050  1.00  0.00     0.139 C 
HETATM   11  C14 UNL     1      16.380  51.383  81.913  1.00  0.00     0.123 C 
HETATM   12  C15 UNL     1      15.685  50.877  80.730  1.00  0.00     0.227 C 
HETATM   13  O2  UNL     1      15.974  51.197  79.530  1.00  0.00    -0.273 OA
HETATM   14  N4  UNL     1      14.604  49.954  80.947  1.00  0.00    -0.279 N 
HETATM   15  C16 UNL     1      13.866  50.182  82.146  1.00  0.00     0.326 C 
ATOM     16  H4  UNL     1      14.384  49.198  80.297  1.00  0.00     0.173 HD
HETATM   17  O3  UNL     1      12.919  49.469  82.456  1.00  0.00    -0.247 OA
ENDBRANCH   4   9
BRANCH   1  18
HETATM   18  C8  UNL     1      11.897  52.179  87.893  1.00  0.00     0.299 C 
BRANCH  18  19
HETATM   19  C7  UNL     1      12.870  52.995  88.686  1.00  0.00     0.206 C 
BRANCH  19  20
HETATM   20  O1  UNL     1      13.117  52.433  89.968  1.00  0.00    -0.348 OA
BRANCH  20  21
HETATM   21  C6  UNL     1      12.601  52.970  91.127  1.00  0.00     0.090 A 
HETATM   22  C5  UNL     1      11.381  52.601  91.643  1.00  0.00     0.039 A 
HETATM   23  C4  UNL     1      10.956  53.198  92.807  1.00  0.00     0.013 A 
HETATM   24  C3  UNL     1      11.706  54.147  93.469  1.00  0.00    -0.021 A 
HETATM   25  C20 UNL     1      12.923  54.514  92.953  1.00  0.00     0.036 A 
HETATM   26  C19 UNL     1      13.363  53.922  91.784  1.00  0.00     0.068 A 
HETATM   27 CL1  UNL     1      14.920  54.396  91.130  1.00  0.00    -0.081 Cl
BRANCH  24  28
HETATM   28  C2  UNL     1      11.206  54.754  94.707  1.00  0.00     0.116 C 
HETATM   29  C1  UNL     1       9.706  54.546  94.832  1.00  0.00     0.052 C 
HETATM   30  N5  UNL     1      11.440  56.185  94.644  1.00  0.00    -0.360 N 
HETATM   31  C21 UNL     1      11.622  56.615  95.979  1.00  0.00     0.078 C 
ATOM     32  H5  UNL     1      11.468  56.763  93.805  1.00  0.00     0.162 HD
HETATM   33  N6  UNL     1      11.496  57.850  96.379  1.00  0.00    -0.389 N 
HETATM   34  C22 UNL     1      11.975  55.473  96.863  1.00  0.00     0.157 C 
ATOM     35  H62 UNL     1      11.255  58.634  95.772  1.00  0.00     0.157 HD
ATOM     36  H61 UNL     1      11.628  58.160  97.342  1.00  0.00     0.157 HD
HETATM   37  C23 UNL     1      11.931  54.331  95.910  1.00  0.00     0.166 C 
HETATM   38  O4  UNL     1      12.429  53.227  96.127  1.00  0.00    -0.294 OA
ENDBRANCH  24  28
ENDBRANCH  20  21
ENDBRANCH  19  20
ENDBRANCH  18  19
ENDBRANCH   1  18
TORSDOF 6
ENDMDL
