MODEL 1
REMARK VINA RESULT: -7.752528656      0.000      0.000
REMARK  7 active torsions:
REMARK  status: ('A' for Active; 'I' for Inactive)
REMARK    1  A    between atoms: C3_4  and  N2_5 
REMARK    2  A    between atoms: N2_5  and  C4_7 
REMARK    3  A    between atoms: N4_13  and  C8_15 
REMARK    4  A    between atoms: C8_15  and  C9_16 
REMARK    5  A    between atoms: C9_16  and  C10_17 
REMARK    6  A    between atoms: C10_17  and  N5_18 
REMARK    7  A    between atoms: N7_29  and  C18_30 
ROOT
HETATM    1  C4  UNL     1      12.099  52.035  86.479  1.00  0.00     0.685 A 
HETATM    2  N3  UNL     1      12.301  52.848  87.533  1.00  0.00    -0.176 N 
ATOM      3  H3  UNL     1      12.438  53.846  87.373  1.00  0.00     0.186 HD
HETATM    4  C5  UNL     1      12.326  52.379  88.790  1.00  0.00     0.129 A 
HETATM    5  C6  UNL     1      12.139  51.031  89.006  1.00  0.00     0.031 A 
HETATM    6  C7  UNL     1      11.923  50.146  87.929  1.00  0.00     0.127 A 
HETATM    7  N4  UNL     1      11.742  48.954  88.063  1.00  0.00    -0.375 N 
ATOM      8  H4  UNL     1      11.635  48.675  87.088  1.00  0.00     0.161 HD
HETATM    9  N6  UNL     1      11.920  50.744  86.690  1.00  0.00    -0.176 N 
ATOM     10  H6  UNL     1      11.769  50.148  85.876  1.00  0.00     0.186 HD
HETATM   11  C15 UNL     1      12.148  50.466  90.393  1.00  0.00     0.048 C 
HETATM   12  C16 UNL     1      12.741  51.443  91.349  1.00  0.00     0.025 C 
HETATM   13  C17 UNL     1      12.025  52.787  91.161  1.00  0.00     0.125 C 
HETATM   14  N7  UNL     1      12.541  53.281  89.897  1.00  0.00    -0.362 N 
ENDROOT
BRANCH   7  15
HETATM   15  C8  UNL     1      11.591  47.767  88.669  1.00  0.00     0.123 C 
BRANCH  15  16
HETATM   16  C9  UNL     1      12.539  46.708  88.082  1.00  0.00     0.050 C 
BRANCH  16  17
HETATM   17  C10 UNL     1      13.902  46.821  88.710  1.00  0.00     0.274 C 
BRANCH  17  18
HETATM   18  N5  UNL     1      14.853  47.286  87.762  1.00  0.00     0.092 N 
HETATM   19  C11 UNL     1      14.632  46.714  86.435  1.00  0.00     0.298 C 
HETATM   20  C12 UNL     1      15.411  45.439  86.250  1.00  0.00     0.198 C 
HETATM   21  O1  UNL     1      16.712  45.480  86.678  1.00  0.00    -0.388 OA
HETATM   22  C13 UNL     1      16.697  45.754  88.066  1.00  0.00     0.198 C 
HETATM   23  C14 UNL     1      16.221  47.204  88.145  1.00  0.00     0.298 C 
ENDBRANCH  17  18
ENDBRANCH  16  17
ENDBRANCH  15  16
ENDBRANCH   7  15
BRANCH   1  24
HETATM   24  N2  UNL     1      12.087  52.555  85.284  1.00  0.00    -0.192 N 
ATOM     25  H2  UNL     1      11.299  53.113  84.957  1.00  0.00     0.184 HD
BRANCH  24  26
HETATM   26  C3  UNL     1      13.215  52.313  84.456  1.00  0.00     0.051 A 
HETATM   27  C2  UNL     1      13.198  51.352  83.476  1.00  0.00     0.058 A 
HETATM   28  C1  UNL     1      14.355  51.204  82.727  1.00  0.00     0.070 A 
HETATM   29  N1  UNL     1      14.353  50.217  81.712  1.00  0.00    -0.101 NA
HETATM   30  C25 UNL     1      15.479  51.964  82.934  1.00  0.00     0.058 A 
HETATM   31  C24 UNL     1      15.466  52.917  83.923  1.00  0.00     0.028 A 
HETATM   32 CL1  UNL     1      16.913  51.735  81.961  1.00  0.00    -0.082 Cl
HETATM   33  C23 UNL     1      14.349  53.099  84.684  1.00  0.00     0.032 A 
ENDBRANCH  24  26
ENDBRANCH   1  24
BRANCH  14  34
HETATM   34  C18 UNL     1      13.201  54.517  89.710  1.00  0.00     0.086 C 
HETATM   35  C19 UNL     1      14.350  54.439  88.721  1.00  0.00     0.025 C 
HETATM   36  C20 UNL     1      15.592  54.623  89.526  1.00  0.00     0.002 C 
HETATM   37  C21 UNL     1      15.155  55.638  90.583  1.00  0.00     0.002 C 
HETATM   38  C22 UNL     1      13.763  55.121  90.958  1.00  0.00     0.025 C 
ENDBRANCH  14  34
TORSDOF 7
ENDMDL
MODEL 2
REMARK VINA RESULT: -7.734504705      0.754      1.012
REMARK  7 active torsions:
REMARK  status: ('A' for Active; 'I' for Inactive)
REMARK    1  A    between atoms: C3_4  and  N2_5 
REMARK    2  A    between atoms: N2_5  and  C4_7 
REMARK    3  A    between atoms: N4_13  and  C8_15 
REMARK    4  A    between atoms: C8_15  and  C9_16 
REMARK    5  A    between atoms: C9_16  and  C10_17 
REMARK    6  A    between atoms: C10_17  and  N5_18 
REMARK    7  A    between atoms: N7_29  and  C18_30 
ROOT
HETATM    1  C4  UNL     1      12.180  52.098  86.440  1.00  0.00     0.685 A 
HETATM    2  N3  UNL     1      12.346  52.879  87.525  1.00  0.00    -0.176 N 
ATOM      3  H3  UNL     1      12.479  53.882  87.400  1.00  0.00     0.186 HD
HETATM    4  C5  UNL     1      12.342  52.370  88.767  1.00  0.00     0.129 A 
HETATM    5  C6  UNL     1      12.160  51.015  88.934  1.00  0.00     0.031 A 
HETATM    6  C7  UNL     1      11.981  50.162  87.825  1.00  0.00     0.127 A 
HETATM    7  N4  UNL     1      11.806  48.965  87.916  1.00  0.00    -0.375 N 
ATOM      8  H4  UNL     1      11.727  48.717  86.930  1.00  0.00     0.161 HD
HETATM    9  N6  UNL     1      12.006  50.800  86.605  1.00  0.00    -0.176 N 
ATOM     10  H6  UNL     1      11.881  50.229  85.769  1.00  0.00     0.186 HD
HETATM   11  C15 UNL     1      12.137  50.406  90.302  1.00  0.00     0.048 C 
HETATM   12  C16 UNL     1      12.697  51.356  91.305  1.00  0.00     0.025 C 
HETATM   13  C17 UNL     1      11.974  52.700  91.140  1.00  0.00     0.125 C 
HETATM   14  N7  UNL     1      12.519  53.238  89.907  1.00  0.00    -0.362 N 
ENDROOT
BRANCH   7  15
HETATM   15  C8  UNL     1      11.649  47.759  88.479  1.00  0.00     0.123 C 
BRANCH  15  16
HETATM   16  C9  UNL     1      12.328  46.656  87.651  1.00  0.00     0.050 C 
BRANCH  16  17
HETATM   17  C10 UNL     1      13.680  47.115  87.177  1.00  0.00     0.274 C 
BRANCH  17  18
HETATM   18  N5  UNL     1      14.643  46.082  87.331  1.00  0.00     0.092 N 
HETATM   19  C11 UNL     1      14.540  45.425  88.632  1.00  0.00     0.298 C 
HETATM   20  C12 UNL     1      15.424  46.089  89.655  1.00  0.00     0.198 C 
HETATM   21  O1  UNL     1      16.692  46.384  89.230  1.00  0.00    -0.388 OA
HETATM   22  C13 UNL     1      16.580  47.280  88.140  1.00  0.00     0.198 C 
HETATM   23  C14 UNL     1      15.991  46.421  87.023  1.00  0.00     0.298 C 
ENDBRANCH  17  18
ENDBRANCH  16  17
ENDBRANCH  15  16
ENDBRANCH   7  15
BRANCH   1  24
HETATM   24  N2  UNL     1      12.195  52.656  85.262  1.00  0.00    -0.192 N 
ATOM     25  H2  UNL     1      11.446  53.280  84.962  1.00  0.00     0.184 HD
BRANCH  24  26
HETATM   26  C3  UNL     1      13.295  52.360  84.415  1.00  0.00     0.051 A 
HETATM   27  C2  UNL     1      13.221  51.385  83.450  1.00  0.00     0.058 A 
HETATM   28  C1  UNL     1      14.356  51.183  82.681  1.00  0.00     0.070 A 
HETATM   29  N1  UNL     1      14.296  50.182  81.681  1.00  0.00    -0.101 NA
HETATM   30  C25 UNL     1      15.511  51.904  82.852  1.00  0.00     0.058 A 
HETATM   31  C24 UNL     1      15.554  52.872  83.825  1.00  0.00     0.028 A 
HETATM   32 CL1  UNL     1      16.915  51.607  81.852  1.00  0.00    -0.082 Cl
HETATM   33  C23 UNL     1      14.461  53.107  84.607  1.00  0.00     0.032 A 
ENDBRANCH  24  26
ENDBRANCH   1  24
BRANCH  14  34
HETATM   34  C18 UNL     1      13.174  54.484  89.777  1.00  0.00     0.086 C 
HETATM   35  C19 UNL     1      14.332  54.454  88.796  1.00  0.00     0.025 C 
HETATM   36  C20 UNL     1      15.565  54.610  89.619  1.00  0.00     0.002 C 
HETATM   37  C21 UNL     1      15.113  55.578  90.713  1.00  0.00     0.002 C 
HETATM   38  C22 UNL     1      13.721  55.040  91.054  1.00  0.00     0.025 C 
ENDBRANCH  14  34
TORSDOF 7
ENDMDL
MODEL 3
REMARK VINA RESULT: -7.496841374      4.155      7.067
REMARK  7 active torsions:
REMARK  status: ('A' for Active; 'I' for Inactive)
REMARK    1  A    between atoms: C3_4  and  N2_5 
REMARK    2  A    between atoms: N2_5  and  C4_7 
REMARK    3  A    between atoms: N4_13  and  C8_15 
REMARK    4  A    between atoms: C8_15  and  C9_16 
REMARK    5  A    between atoms: C9_16  and  C10_17 
REMARK    6  A    between atoms: C10_17  and  N5_18 
REMARK    7  A    between atoms: N7_29  and  C18_30 
ROOT
HETATM    1  C4  UNL     1      13.569  53.810  87.073  1.00  0.00     0.685 A 
HETATM    2  N3  UNL     1      12.445  53.071  87.034  1.00  0.00    -0.176 N 
ATOM      3  H3  UNL     1      12.013  52.869  86.133  1.00  0.00     0.186 HD
HETATM    4  C5  UNL     1      11.877  52.592  88.152  1.00  0.00     0.129 A 
HETATM    5  C6  UNL     1      12.462  52.864  89.369  1.00  0.00     0.031 A 
HETATM    6  C7  UNL     1      13.641  53.633  89.454  1.00  0.00     0.127 A 
HETATM    7  N4  UNL     1      14.203  53.892  90.497  1.00  0.00    -0.375 N 
ATOM      8  H4  UNL     1      14.983  54.450  90.150  1.00  0.00     0.161 HD
HETATM    9  N6  UNL     1      14.127  54.068  88.241  1.00  0.00    -0.176 N 
ATOM     10  H6  UNL     1      14.978  54.630  88.247  1.00  0.00     0.186 HD
HETATM   11  C15 UNL     1      11.869  52.340  90.641  1.00  0.00     0.048 C 
HETATM   12  C16 UNL     1      10.470  51.881  90.413  1.00  0.00     0.025 C 
HETATM   13  C17 UNL     1      10.474  50.924  89.213  1.00  0.00     0.125 C 
HETATM   14  N7  UNL     1      10.674  51.799  88.072  1.00  0.00    -0.362 N 
ENDROOT
BRANCH   7  15
HETATM   15  C8  UNL     1      14.459  53.917  91.813  1.00  0.00     0.123 C 
BRANCH  15  16
HETATM   16  C9  UNL     1      13.744  55.088  92.506  1.00  0.00     0.050 C 
BRANCH  16  17
HETATM   17  C10 UNL     1      12.721  54.573  93.482  1.00  0.00     0.274 C 
BRANCH  17  18
HETATM   18  N5  UNL     1      12.919  55.148  94.766  1.00  0.00     0.092 N 
HETATM   19  C11 UNL     1      12.606  54.211  95.843  1.00  0.00     0.298 C 
HETATM   20  C12 UNL     1      11.165  54.322  96.267  1.00  0.00     0.198 C 
HETATM   21  O1  UNL     1      10.700  55.600  96.429  1.00  0.00    -0.388 OA
HETATM   22  C13 UNL     1      10.812  56.258  95.181  1.00  0.00     0.198 C 
HETATM   23  C14 UNL     1      12.319  56.419  94.990  1.00  0.00     0.298 C 
ENDBRANCH  17  18
ENDBRANCH  16  17
ENDBRANCH  15  16
ENDBRANCH   7  15
BRANCH   1  24
HETATM   24  N2  UNL     1      14.069  54.245  85.951  1.00  0.00    -0.192 N 
ATOM     25  H2  UNL     1      14.307  55.228  85.823  1.00  0.00     0.184 HD
BRANCH  24  26
HETATM   26  C3  UNL     1      14.270  53.295  84.915  1.00  0.00     0.051 A 
HETATM   27  C2  UNL     1      13.307  52.373  84.585  1.00  0.00     0.058 A 
HETATM   28  C1  UNL     1      13.611  51.495  83.557  1.00  0.00     0.070 A 
HETATM   29  N1  UNL     1      12.628  50.539  83.204  1.00  0.00    -0.101 NA
HETATM   30  C25 UNL     1      14.808  51.519  82.884  1.00  0.00     0.058 A 
HETATM   31  C24 UNL     1      15.751  52.453  83.238  1.00  0.00     0.028 A 
HETATM   32 CL1  UNL     1      15.140  50.388  81.594  1.00  0.00    -0.082 Cl
HETATM   33  C23 UNL     1      15.495  53.339  84.244  1.00  0.00     0.032 A 
ENDBRANCH  24  26
ENDBRANCH   1  24
BRANCH  14  34
HETATM   34  C18 UNL     1       9.804  51.907  86.963  1.00  0.00     0.086 C 
HETATM   35  C19 UNL     1       8.827  53.063  87.078  1.00  0.00     0.025 C 
HETATM   36  C20 UNL     1       7.484  52.443  87.262  1.00  0.00     0.002 C 
HETATM   37  C21 UNL     1       7.569  51.197  86.380  1.00  0.00     0.002 C 
HETATM   38  C22 UNL     1       8.979  50.688  86.692  1.00  0.00     0.025 C 
ENDBRANCH  14  34
TORSDOF 7
ENDMDL
MODEL 4
REMARK VINA RESULT: -7.437669834      4.425      6.859
REMARK  7 active torsions:
REMARK  status: ('A' for Active; 'I' for Inactive)
REMARK    1  A    between atoms: C3_4  and  N2_5 
REMARK    2  A    between atoms: N2_5  and  C4_7 
REMARK    3  A    between atoms: N4_13  and  C8_15 
REMARK    4  A    between atoms: C8_15  and  C9_16 
REMARK    5  A    between atoms: C9_16  and  C10_17 
REMARK    6  A    between atoms: C10_17  and  N5_18 
REMARK    7  A    between atoms: N7_29  and  C18_30 
ROOT
HETATM    1  C4  UNL     1      10.870  52.670  89.051  1.00  0.00     0.685 A 
HETATM    2  N3  UNL     1      11.516  53.069  90.164  1.00  0.00    -0.176 N 
ATOM      3  H3  UNL     1      11.058  52.966  91.069  1.00  0.00     0.186 HD
HETATM    4  C5  UNL     1      12.748  53.599  90.112  1.00  0.00     0.129 A 
HETATM    5  C6  UNL     1      13.367  53.736  88.889  1.00  0.00     0.031 A 
HETATM    6  C7  UNL     1      12.726  53.329  87.700  1.00  0.00     0.127 A 
HETATM    7  N4  UNL     1      13.230  53.416  86.599  1.00  0.00    -0.375 N 
ATOM      8  H4  UNL     1      12.477  53.037  86.025  1.00  0.00     0.161 HD
HETATM    9  N6  UNL     1      11.467  52.803  87.881  1.00  0.00    -0.176 N 
ATOM     10  H6  UNL     1      10.959  52.493  87.052  1.00  0.00     0.186 HD
HETATM   11  C15 UNL     1      14.746  54.311  88.785  1.00  0.00     0.048 C 
HETATM   12  C16 UNL     1      15.114  55.011  90.048  1.00  0.00     0.025 C 
HETATM   13  C17 UNL     1      14.859  54.048  91.216  1.00  0.00     0.125 C 
HETATM   14  N7  UNL     1      13.411  54.012  91.325  1.00  0.00    -0.362 N 
ENDROOT
BRANCH   7  15
HETATM   15  C8  UNL     1      14.139  53.690  85.653  1.00  0.00     0.123 C 
BRANCH  15  16
HETATM   16  C9  UNL     1      14.132  52.630  84.539  1.00  0.00     0.050 C 
BRANCH  16  17
HETATM   17  C10 UNL     1      15.270  52.869  83.583  1.00  0.00     0.274 C 
BRANCH  17  18
HETATM   18  N5  UNL     1      15.747  51.639  83.055  1.00  0.00     0.092 N 
HETATM   19  C11 UNL     1      16.749  51.841  82.010  1.00  0.00     0.298 C 
HETATM   20  C12 UNL     1      16.113  51.918  80.647  1.00  0.00     0.198 C 
HETATM   21  O1  UNL     1      15.161  50.967  80.391  1.00  0.00    -0.388 OA
HETATM   22  C13 UNL     1      14.123  51.136  81.338  1.00  0.00     0.198 C 
HETATM   23  C14 UNL     1      14.759  50.696  82.655  1.00  0.00     0.298 C 
ENDBRANCH  17  18
ENDBRANCH  16  17
ENDBRANCH  15  16
ENDBRANCH   7  15
BRANCH   1  24
HETATM   24  N2  UNL     1       9.676  52.164  89.171  1.00  0.00    -0.192 N 
ATOM     25  H2  UNL     1       9.537  51.195  89.456  1.00  0.00     0.184 HD
BRANCH  24  26
HETATM   26  C3  UNL     1       8.575  53.016  88.889  1.00  0.00     0.051 A 
HETATM   27  C2  UNL     1       8.550  54.324  89.307  1.00  0.00     0.058 A 
HETATM   28  C1  UNL     1       7.426  55.063  88.975  1.00  0.00     0.070 A 
HETATM   29  N1  UNL     1       7.385  56.414  89.398  1.00  0.00    -0.101 NA
HETATM   30  C25 UNL     1       6.373  54.541  88.267  1.00  0.00     0.058 A 
HETATM   31  C24 UNL     1       6.427  53.229  87.863  1.00  0.00     0.028 A 
HETATM   32 CL1  UNL     1       4.977  55.518  87.875  1.00  0.00    -0.082 Cl
HETATM   33  C23 UNL     1       7.514  52.463  88.167  1.00  0.00     0.032 A 
ENDBRANCH  24  26
ENDBRANCH   1  24
BRANCH  14  34
HETATM   34  C18 UNL     1      12.670  54.342  92.483  1.00  0.00     0.086 C 
HETATM   35  C19 UNL     1      13.432  55.231  93.449  1.00  0.00     0.025 C 
HETATM   36  C20 UNL     1      13.713  54.385  94.644  1.00  0.00     0.002 C 
HETATM   37  C21 UNL     1      12.452  53.526  94.746  1.00  0.00     0.002 C 
HETATM   38  C22 UNL     1      12.197  53.168  93.280  1.00  0.00     0.025 C 
ENDBRANCH  14  34
TORSDOF 7
ENDMDL
MODEL 5
REMARK VINA RESULT: -7.432253802      3.691      6.862
REMARK  7 active torsions:
REMARK  status: ('A' for Active; 'I' for Inactive)
REMARK    1  A    between atoms: C3_4  and  N2_5 
REMARK    2  A    between atoms: N2_5  and  C4_7 
REMARK    3  A    between atoms: N4_13  and  C8_15 
REMARK    4  A    between atoms: C8_15  and  C9_16 
REMARK    5  A    between atoms: C9_16  and  C10_17 
REMARK    6  A    between atoms: C10_17  and  N5_18 
REMARK    7  A    between atoms: N7_29  and  C18_30 
ROOT
HETATM    1  C4  UNL     1      12.521  53.031  86.878  1.00  0.00     0.685 A 
HETATM    2  N3  UNL     1      11.760  51.966  87.196  1.00  0.00    -0.176 N 
ATOM      3  H3  UNL     1      11.206  51.516  86.467  1.00  0.00     0.186 HD
HETATM    4  C5  UNL     1      11.712  51.481  88.446  1.00  0.00     0.129 A 
HETATM    5  C6  UNL     1      12.462  52.089  89.429  1.00  0.00     0.031 A 
HETATM    6  C7  UNL     1      13.274  53.205  89.138  1.00  0.00     0.127 A 
HETATM    7  N4  UNL     1      13.962  53.770  89.962  1.00  0.00    -0.375 N 
ATOM      8  H4  UNL     1      14.376  54.501  89.383  1.00  0.00     0.161 HD
HETATM    9  N6  UNL     1      13.238  53.610  87.823  1.00  0.00    -0.176 N 
ATOM     10  H6  UNL     1      13.807  54.414  87.560  1.00  0.00     0.186 HD
HETATM   11  C15 UNL     1      12.448  51.574  90.835  1.00  0.00     0.048 C 
HETATM   12  C16 UNL     1      11.292  50.657  91.042  1.00  0.00     0.025 C 
HETATM   13  C17 UNL     1      11.316  49.603  89.927  1.00  0.00     0.125 C 
HETATM   14  N7  UNL     1      10.888  50.335  88.748  1.00  0.00    -0.362 N 
ENDROOT
BRANCH   7  15
HETATM   15  C8  UNL     1      14.529  54.051  91.144  1.00  0.00     0.123 C 
BRANCH  15  16
HETATM   16  C9  UNL     1      13.661  55.012  91.973  1.00  0.00     0.050 C 
BRANCH  16  17
HETATM   17  C10 UNL     1      12.936  54.259  93.056  1.00  0.00     0.274 C 
BRANCH  17  18
HETATM   18  N5  UNL     1      13.223  54.814  94.332  1.00  0.00     0.092 N 
HETATM   19  C11 UNL     1      13.122  53.821  95.399  1.00  0.00     0.298 C 
HETATM   20  C12 UNL     1      11.734  53.782  95.982  1.00  0.00     0.198 C 
HETATM   21  O1  UNL     1      11.173  55.004  96.243  1.00  0.00    -0.388 OA
HETATM   22  C13 UNL     1      11.083  55.704  95.016  1.00  0.00     0.198 C 
HETATM   23  C14 UNL     1      12.538  56.015  94.669  1.00  0.00     0.298 C 
ENDBRANCH  17  18
ENDBRANCH  16  17
ENDBRANCH  15  16
ENDBRANCH   7  15
BRANCH   1  24
HETATM   24  N2  UNL     1      12.522  53.452  85.645  1.00  0.00    -0.192 N 
ATOM     25  H2  UNL     1      11.891  54.192  85.338  1.00  0.00     0.184 HD
BRANCH  24  26
HETATM   26  C3  UNL     1      13.436  52.840  84.748  1.00  0.00     0.051 A 
HETATM   27  C2  UNL     1      13.082  51.750  83.990  1.00  0.00     0.058 A 
HETATM   28  C1  UNL     1      14.054  51.235  83.147  1.00  0.00     0.070 A 
HETATM   29  N1  UNL     1      13.705  50.112  82.359  1.00  0.00    -0.101 NA
HETATM   30  C25 UNL     1      15.317  51.764  83.055  1.00  0.00     0.058 A 
HETATM   31  C24 UNL     1      15.641  52.854  83.826  1.00  0.00     0.028 A 
HETATM   32 CL1  UNL     1      16.507  51.075  81.975  1.00  0.00    -0.082 Cl
HETATM   33  C23 UNL     1      14.716  53.395  84.669  1.00  0.00     0.032 A 
ENDBRANCH  24  26
ENDBRANCH   1  24
BRANCH  14  34
HETATM   34  C18 UNL     1       9.776  50.005  87.939  1.00  0.00     0.086 C 
HETATM   35  C19 UNL     1       8.506  50.732  88.340  1.00  0.00     0.025 C 
HETATM   36  C20 UNL     1       7.601  49.689  88.902  1.00  0.00     0.002 C 
HETATM   37  C21 UNL     1       7.908  48.476  88.025  1.00  0.00     0.002 C 
HETATM   38  C22 UNL     1       9.433  48.549  87.911  1.00  0.00     0.025 C 
ENDBRANCH  14  34
TORSDOF 7
ENDMDL
