MODEL 1
REMARK VINA RESULT: -7.387665717      0.000      0.000
REMARK  9 active torsions:
REMARK  status: ('A' for Active; 'I' for Inactive)
REMARK    1  A    between atoms: N1_1  and  C1_5 
REMARK    2  A    between atoms: C1_5  and  C2_6 
REMARK    3  A    between atoms: C2_6  and  C3_7 
REMARK    4  A    between atoms: C3_7  and  C4_8 
REMARK    5  A    between atoms: C4_8  and  C5_9 
REMARK    6  A    between atoms: C5_9  and  C6_10 
REMARK    7  A    between atoms: C6_10  and  C7_11 
REMARK    8  A    between atoms: C7_11  and  C8_12 
REMARK    9  A    between atoms: C8_12  and  C9_13 
ROOT
HETATM    1  C5  UNL     1      36.439 -48.612 112.005  1.00  0.00     0.000 C 
ENDROOT
BRANCH   1   2
HETATM    2  C4  UNL     1      34.973 -48.435 111.677  1.00  0.00     0.000 C 
BRANCH   2   3
HETATM    3  C3  UNL     1      34.065 -48.516 112.835  1.00  0.00     0.002 C 
BRANCH   3   4
HETATM    4  C2  UNL     1      32.695 -49.038 112.631  1.00  0.00     0.027 C 
BRANCH   4   5
HETATM    5  C1  UNL     1      31.618 -48.615 113.565  1.00  0.00     0.229 C 
BRANCH   5   6
HETATM    6  N1  UNL     1      31.891 -47.407 114.274  1.00  0.00    -0.079 N 
ATOM      7  H13 UNL     1      32.890 -47.323 114.463  1.00  0.00     0.274 HD
ATOM      8  H12 UNL     1      31.759 -46.600 113.663  1.00  0.00     0.274 HD
ATOM      9  H11 UNL     1      31.355 -47.293 115.134  1.00  0.00     0.274 HD
ENDBRANCH   5   6
ENDBRANCH   4   5
ENDBRANCH   3   4
ENDBRANCH   2   3
ENDBRANCH   1   2
BRANCH   1  10
HETATM   10  C6  UNL     1      37.087 -49.504 111.024  1.00  0.00     0.000 C 
BRANCH  10  11
HETATM   11  C7  UNL     1      38.316 -50.205 111.543  1.00  0.00     0.005 C 
BRANCH  11  12
HETATM   12  C8  UNL     1      39.592 -49.498 111.238  1.00  0.00     0.038 C 
BRANCH  12  13
HETATM   13  C9  UNL     1      40.706 -50.482 111.214  1.00  0.00    -0.058 A 
HETATM   14  C10 UNL     1      40.584 -51.745 111.766  1.00  0.00     0.007 A 
HETATM   15  C11 UNL     1      41.622 -52.639 111.735  1.00  0.00     0.001 A 
HETATM   16  C12 UNL     1      42.824 -52.310 111.153  1.00  0.00     0.000 A 
HETATM   17  C13 UNL     1      42.969 -51.062 110.597  1.00  0.00     0.001 A 
HETATM   18  C14 UNL     1      41.922 -50.160 110.629  1.00  0.00     0.007 A 
ENDBRANCH  12  13
ENDBRANCH  11  12
ENDBRANCH  10  11
ENDBRANCH   1  10
TORSDOF 9
ENDMDL
MODEL 2
REMARK VINA RESULT: -7.318124871      0.887      1.692
REMARK  9 active torsions:
REMARK  status: ('A' for Active; 'I' for Inactive)
REMARK    1  A    between atoms: N1_1  and  C1_5 
REMARK    2  A    between atoms: C1_5  and  C2_6 
REMARK    3  A    between atoms: C2_6  and  C3_7 
REMARK    4  A    between atoms: C3_7  and  C4_8 
REMARK    5  A    between atoms: C4_8  and  C5_9 
REMARK    6  A    between atoms: C5_9  and  C6_10 
REMARK    7  A    between atoms: C6_10  and  C7_11 
REMARK    8  A    between atoms: C7_11  and  C8_12 
REMARK    9  A    between atoms: C8_12  and  C9_13 
ROOT
HETATM    1  C5  UNL     1      36.835 -49.370 110.840  1.00  0.00     0.000 C 
ENDROOT
BRANCH   1   2
HETATM    2  C4  UNL     1      35.621 -48.539 111.193  1.00  0.00     0.000 C 
BRANCH   2   3
HETATM    3  C3  UNL     1      35.300 -48.492 112.630  1.00  0.00     0.002 C 
BRANCH   3   4
HETATM    4  C2  UNL     1      33.913 -48.179 113.041  1.00  0.00     0.027 C 
BRANCH   4   5
HETATM    5  C1  UNL     1      32.811 -49.072 112.596  1.00  0.00     0.229 C 
BRANCH   5   6
HETATM    6  N1  UNL     1      31.672 -49.080 113.456  1.00  0.00    -0.079 N 
ATOM      7  H13 UNL     1      31.042 -49.843 113.206  1.00  0.00     0.274 HD
ATOM      8  H12 UNL     1      31.939 -49.374 114.396  1.00  0.00     0.274 HD
ATOM      9  H11 UNL     1      31.164 -48.196 113.492  1.00  0.00     0.274 HD
ENDBRANCH   5   6
ENDBRANCH   4   5
ENDBRANCH   3   4
ENDBRANCH   2   3
ENDBRANCH   1   2
BRANCH   1  10
HETATM   10  C6  UNL     1      37.721 -49.520 112.011  1.00  0.00     0.000 C 
BRANCH  10  11
HETATM   11  C7  UNL     1      39.163 -49.781 111.666  1.00  0.00     0.005 C 
BRANCH  11  12
HETATM   12  C8  UNL     1      39.594 -51.191 111.883  1.00  0.00     0.038 C 
BRANCH  12  13
HETATM   13  C9  UNL     1      41.010 -51.345 111.459  1.00  0.00    -0.058 A 
HETATM   14  C10 UNL     1      41.670 -50.371 110.730  1.00  0.00     0.007 A 
HETATM   15  C11 UNL     1      42.976 -50.530 110.348  1.00  0.00     0.001 A 
HETATM   16  C12 UNL     1      43.678 -51.666 110.675  1.00  0.00     0.000 A 
HETATM   17  C13 UNL     1      43.045 -52.647 111.399  1.00  0.00     0.001 A 
HETATM   18  C14 UNL     1      41.727 -52.487 111.784  1.00  0.00     0.007 A 
ENDBRANCH  12  13
ENDBRANCH  11  12
ENDBRANCH  10  11
ENDBRANCH   1  10
TORSDOF 9
ENDMDL
MODEL 3
REMARK VINA RESULT: -7.304907040      0.939      1.187
REMARK  9 active torsions:
REMARK  status: ('A' for Active; 'I' for Inactive)
REMARK    1  A    between atoms: N1_1  and  C1_5 
REMARK    2  A    between atoms: C1_5  and  C2_6 
REMARK    3  A    between atoms: C2_6  and  C3_7 
REMARK    4  A    between atoms: C3_7  and  C4_8 
REMARK    5  A    between atoms: C4_8  and  C5_9 
REMARK    6  A    between atoms: C5_9  and  C6_10 
REMARK    7  A    between atoms: C6_10  and  C7_11 
REMARK    8  A    between atoms: C7_11  and  C8_12 
REMARK    9  A    between atoms: C8_12  and  C9_13 
ROOT
HETATM    1  C5  UNL     1      36.789 -49.311 111.009  1.00  0.00     0.000 C 
ENDROOT
BRANCH   1   2
HETATM    2  C4  UNL     1      35.588 -48.427 111.268  1.00  0.00     0.000 C 
BRANCH   2   3
HETATM    3  C3  UNL     1      35.064 -48.485 112.644  1.00  0.00     0.002 C 
BRANCH   3   4
HETATM    4  C2  UNL     1      33.602 -48.598 112.845  1.00  0.00     0.027 C 
BRANCH   4   5
HETATM    5  C1  UNL     1      32.833 -47.387 113.237  1.00  0.00     0.229 C 
BRANCH   5   6
HETATM    6  N1  UNL     1      33.358 -46.696 114.370  1.00  0.00    -0.079 N 
ATOM      7  H13 UNL     1      32.619 -46.516 115.050  1.00  0.00     0.274 HD
ATOM      8  H12 UNL     1      33.955 -47.315 114.918  1.00  0.00     0.274 HD
ATOM      9  H11 UNL     1      33.852 -45.832 114.145  1.00  0.00     0.274 HD
ENDBRANCH   5   6
ENDBRANCH   4   5
ENDBRANCH   3   4
ENDBRANCH   2   3
ENDBRANCH   1   2
BRANCH   1  10
HETATM   10  C6  UNL     1      37.705 -49.295 112.165  1.00  0.00     0.000 C 
BRANCH  10  11
HETATM   11  C7  UNL     1      39.134 -49.631 111.827  1.00  0.00     0.005 C 
BRANCH  11  12
HETATM   12  C8  UNL     1      39.431 -51.092 111.825  1.00  0.00     0.038 C 
BRANCH  12  13
HETATM   13  C9  UNL     1      40.853 -51.304 111.448  1.00  0.00    -0.058 A 
HETATM   14  C10 UNL     1      41.547 -52.447 111.806  1.00  0.00     0.007 A 
HETATM   15  C11 UNL     1      42.858 -52.626 111.449  1.00  0.00     0.001 A 
HETATM   16  C12 UNL     1      43.531 -51.673 110.721  1.00  0.00     0.000 A 
HETATM   17  C13 UNL     1      42.864 -50.530 110.353  1.00  0.00     0.001 A 
HETATM   18  C14 UNL     1      41.541 -50.350 110.713  1.00  0.00     0.007 A 
ENDBRANCH  12  13
ENDBRANCH  11  12
ENDBRANCH  10  11
ENDBRANCH   1  10
TORSDOF 9
ENDMDL
MODEL 4
REMARK VINA RESULT: -7.294781159      0.553      1.314
REMARK  9 active torsions:
REMARK  status: ('A' for Active; 'I' for Inactive)
REMARK    1  A    between atoms: N1_1  and  C1_5 
REMARK    2  A    between atoms: C1_5  and  C2_6 
REMARK    3  A    between atoms: C2_6  and  C3_7 
REMARK    4  A    between atoms: C3_7  and  C4_8 
REMARK    5  A    between atoms: C4_8  and  C5_9 
REMARK    6  A    between atoms: C5_9  and  C6_10 
REMARK    7  A    between atoms: C6_10  and  C7_11 
REMARK    8  A    between atoms: C7_11  and  C8_12 
REMARK    9  A    between atoms: C8_12  and  C9_13 
ROOT
HETATM    1  C5  UNL     1      36.530 -48.816 112.213  1.00  0.00     0.000 C 
ENDROOT
BRANCH   1   2
HETATM    2  C4  UNL     1      35.123 -48.469 111.779  1.00  0.00     0.000 C 
BRANCH   2   3
HETATM    3  C3  UNL     1      34.121 -48.486 112.858  1.00  0.00     0.002 C 
BRANCH   3   4
HETATM    4  C2  UNL     1      32.722 -48.838 112.527  1.00  0.00     0.027 C 
BRANCH   4   5
HETATM    5  C1  UNL     1      31.652 -48.546 113.517  1.00  0.00     0.229 C 
BRANCH   5   6
HETATM    6  N1  UNL     1      31.884 -47.383 114.312  1.00  0.00    -0.079 N 
ATOM      7  H13 UNL     1      31.313 -47.410 115.157  1.00  0.00     0.274 HD
ATOM      8  H12 UNL     1      32.815 -47.417 114.728  1.00  0.00     0.274 HD
ATOM      9  H11 UNL     1      31.748 -46.501 113.819  1.00  0.00     0.274 HD
ENDBRANCH   5   6
ENDBRANCH   4   5
ENDBRANCH   3   4
ENDBRANCH   2   3
ENDBRANCH   1   2
BRANCH   1  10
HETATM   10  C6  UNL     1      37.313 -49.335 111.074  1.00  0.00     0.000 C 
BRANCH  10  11
HETATM   11  C7  UNL     1      38.785 -49.486 111.352  1.00  0.00     0.005 C 
BRANCH  11  12
HETATM   12  C8  UNL     1      39.170 -50.827 111.876  1.00  0.00     0.038 C 
BRANCH  12  13
HETATM   13  C9  UNL     1      40.575 -51.121 111.492  1.00  0.00    -0.058 A 
HETATM   14  C10 UNL     1      41.352 -50.216 110.790  1.00  0.00     0.007 A 
HETATM   15  C11 UNL     1      42.646 -50.505 110.445  1.00  0.00     0.001 A 
HETATM   16  C12 UNL     1      43.219 -51.708 110.784  1.00  0.00     0.000 A 
HETATM   17  C13 UNL     1      42.469 -52.623 111.481  1.00  0.00     0.001 A 
HETATM   18  C14 UNL     1      41.163 -52.332 111.829  1.00  0.00     0.007 A 
ENDBRANCH  12  13
ENDBRANCH  11  12
ENDBRANCH  10  11
ENDBRANCH   1  10
TORSDOF 9
ENDMDL
MODEL 5
REMARK VINA RESULT: -7.172772065      2.193      2.905
REMARK  9 active torsions:
REMARK  status: ('A' for Active; 'I' for Inactive)
REMARK    1  A    between atoms: N1_1  and  C1_5 
REMARK    2  A    between atoms: C1_5  and  C2_6 
REMARK    3  A    between atoms: C2_6  and  C3_7 
REMARK    4  A    between atoms: C3_7  and  C4_8 
REMARK    5  A    between atoms: C4_8  and  C5_9 
REMARK    6  A    between atoms: C5_9  and  C6_10 
REMARK    7  A    between atoms: C6_10  and  C7_11 
REMARK    8  A    between atoms: C7_11  and  C8_12 
REMARK    9  A    between atoms: C8_12  and  C9_13 
ROOT
HETATM    1  C5  UNL     1      36.447 -48.802 112.023  1.00  0.00     0.000 C 
ENDROOT
BRANCH   1   2
HETATM    2  C4  UNL     1      35.100 -48.487 111.410  1.00  0.00     0.000 C 
BRANCH   2   3
HETATM    3  C3  UNL     1      34.820 -47.051 111.236  1.00  0.00     0.002 C 
BRANCH   3   4
HETATM    4  C2  UNL     1      35.639 -46.070 111.982  1.00  0.00     0.027 C 
BRANCH   4   5
HETATM    5  C1  UNL     1      35.689 -44.663 111.505  1.00  0.00     0.229 C 
BRANCH   5   6
HETATM    6  N1  UNL     1      36.754 -43.889 112.057  1.00  0.00    -0.079 N 
ATOM      7  H13 UNL     1      37.647 -44.178 111.657  1.00  0.00     0.274 HD
ATOM      8  H12 UNL     1      36.710 -42.930 111.714  1.00  0.00     0.274 HD
ATOM      9  H11 UNL     1      36.799 -43.901 113.076  1.00  0.00     0.274 HD
ENDBRANCH   5   6
ENDBRANCH   4   5
ENDBRANCH   3   4
ENDBRANCH   2   3
ENDBRANCH   1   2
BRANCH   1  10
HETATM   10  C6  UNL     1      37.309 -49.504 111.052  1.00  0.00     0.000 C 
BRANCH  10  11
HETATM   11  C7  UNL     1      38.759 -49.578 111.451  1.00  0.00     0.005 C 
BRANCH  11  12
HETATM   12  C8  UNL     1      39.195 -50.926 111.913  1.00  0.00     0.038 C 
BRANCH  12  13
HETATM   13  C9  UNL     1      40.602 -51.158 111.498  1.00  0.00    -0.058 A 
HETATM   14  C10 UNL     1      41.325 -50.216 110.787  1.00  0.00     0.007 A 
HETATM   15  C11 UNL     1      42.623 -50.447 110.413  1.00  0.00     0.001 A 
HETATM   16  C12 UNL     1      43.254 -51.627 110.732  1.00  0.00     0.000 A 
HETATM   17  C13 UNL     1      42.558 -52.578 111.438  1.00  0.00     0.001 A 
HETATM   18  C14 UNL     1      41.248 -52.344 111.815  1.00  0.00     0.007 A 
ENDBRANCH  12  13
ENDBRANCH  11  12
ENDBRANCH  10  11
ENDBRANCH   1  10
TORSDOF 9
ENDMDL
