MODEL 1
REMARK VINA RESULT: -6.894902057      0.000      0.000
REMARK  10 active torsions:
REMARK  status: ('A' for Active; 'I' for Inactive)
REMARK    1  A    between atoms: N1_1  and  C1_5 
REMARK    2  A    between atoms: C1_5  and  C2_6 
REMARK    3  A    between atoms: C2_6  and  C3_7 
REMARK    4  A    between atoms: C3_7  and  C4_8 
REMARK    5  A    between atoms: C4_8  and  C5_9 
REMARK    6  A    between atoms: C5_9  and  C6_10 
REMARK    7  A    between atoms: C6_10  and  C7_11 
REMARK    8  A    between atoms: C7_11  and  C8_12 
REMARK    9  A    between atoms: C8_12  and  C9_13 
REMARK   10  A    between atoms: C9_13  and  C10_14 
ROOT
HETATM    1  C5  UNL     1      36.030 -48.681 111.328  1.00  0.00     0.000 C 
ENDROOT
BRANCH   1   2
HETATM    2  C4  UNL     1      35.988 -48.451 112.798  1.00  0.00     0.000 C 
BRANCH   2   3
HETATM    3  C3  UNL     1      34.557 -48.133 113.226  1.00  0.00     0.002 C 
BRANCH   3   4
HETATM    4  C2  UNL     1      33.551 -48.450 112.163  1.00  0.00     0.027 C 
BRANCH   4   5
HETATM    5  C1  UNL     1      32.412 -49.203 112.840  1.00  0.00     0.229 C 
BRANCH   5   6
HETATM    6  N1  UNL     1      31.657 -48.253 113.626  1.00  0.00    -0.079 N 
ATOM      7  H13 UNL     1      31.955 -48.221 114.601  1.00  0.00     0.274 HD
ATOM      8  H12 UNL     1      31.870 -47.285 113.388  1.00  0.00     0.274 HD
ATOM      9  H11 UNL     1      30.667 -48.476 113.522  1.00  0.00     0.274 HD
ENDBRANCH   5   6
ENDBRANCH   4   5
ENDBRANCH   3   4
ENDBRANCH   2   3
ENDBRANCH   1   2
BRANCH   1  10
HETATM   10  C6  UNL     1      37.205 -49.559 110.961  1.00  0.00     0.000 C 
BRANCH  10  11
HETATM   11  C7  UNL     1      38.047 -49.881 112.137  1.00  0.00     0.000 C 
BRANCH  11  12
HETATM   12  C8  UNL     1      39.494 -50.010 111.723  1.00  0.00     0.000 C 
BRANCH  12  13
HETATM   13  C9  UNL     1      39.903 -51.432 111.694  1.00  0.00     0.004 C 
BRANCH  13  14
HETATM   14  C10 UNL     1      41.203 -51.650 110.964  1.00  0.00    -0.014 C 
HETATM   15  C11 UNL     1      42.017 -50.389 110.783  1.00  0.00     0.004 C 
HETATM   16  C12 UNL     1      43.286 -50.955 110.182  1.00  0.00     0.000 C 
HETATM   17  C13 UNL     1      43.490 -52.231 110.945  1.00  0.00     0.000 C 
HETATM   18  C14 UNL     1      42.198 -52.501 111.715  1.00  0.00     0.004 C 
ENDBRANCH  13  14
ENDBRANCH  12  13
ENDBRANCH  11  12
ENDBRANCH  10  11
ENDBRANCH   1  10
TORSDOF 10
ENDMDL
MODEL 2
REMARK VINA RESULT: -6.854101930      0.952      1.354
REMARK  10 active torsions:
REMARK  status: ('A' for Active; 'I' for Inactive)
REMARK    1  A    between atoms: N1_1  and  C1_5 
REMARK    2  A    between atoms: C1_5  and  C2_6 
REMARK    3  A    between atoms: C2_6  and  C3_7 
REMARK    4  A    between atoms: C3_7  and  C4_8 
REMARK    5  A    between atoms: C4_8  and  C5_9 
REMARK    6  A    between atoms: C5_9  and  C6_10 
REMARK    7  A    between atoms: C6_10  and  C7_11 
REMARK    8  A    between atoms: C7_11  and  C8_12 
REMARK    9  A    between atoms: C8_12  and  C9_13 
REMARK   10  A    between atoms: C9_13  and  C10_14 
ROOT
HETATM    1  C5  UNL     1      37.262 -49.488 111.132  1.00  0.00     0.000 C 
ENDROOT
BRANCH   1   2
HETATM    2  C4  UNL     1      35.941 -48.805 111.167  1.00  0.00     0.000 C 
BRANCH   2   3
HETATM    3  C3  UNL     1      35.626 -48.371 112.597  1.00  0.00     0.002 C 
BRANCH   3   4
HETATM    4  C2  UNL     1      34.157 -48.344 112.884  1.00  0.00     0.027 C 
BRANCH   4   5
HETATM    5  C1  UNL     1      33.771 -46.884 113.088  1.00  0.00     0.229 C 
BRANCH   5   6
HETATM    6  N1  UNL     1      33.044 -46.788 114.336  1.00  0.00    -0.079 N 
ATOM      7  H13 UNL     1      33.105 -45.862 114.758  1.00  0.00     0.274 HD
ATOM      8  H12 UNL     1      32.033 -46.812 114.208  1.00  0.00     0.274 HD
ATOM      9  H11 UNL     1      33.383 -47.527 114.952  1.00  0.00     0.274 HD
ENDBRANCH   5   6
ENDBRANCH   4   5
ENDBRANCH   3   4
ENDBRANCH   2   3
ENDBRANCH   1   2
BRANCH   1  10
HETATM   10  C6  UNL     1      37.863 -49.553 112.519  1.00  0.00     0.000 C 
BRANCH  10  11
HETATM   11  C7  UNL     1      38.789 -50.700 112.671  1.00  0.00     0.000 C 
BRANCH  11  12
HETATM   12  C8  UNL     1      39.847 -50.663 111.593  1.00  0.00     0.000 C 
BRANCH  12  13
HETATM   13  C9  UNL     1      40.574 -51.950 111.533  1.00  0.00     0.004 C 
BRANCH  13  14
HETATM   14  C10 UNL     1      41.863 -51.857 110.758  1.00  0.00    -0.014 C 
HETATM   15  C11 UNL     1      42.391 -50.446 110.628  1.00  0.00     0.004 C 
HETATM   16  C12 UNL     1      43.727 -50.705 109.963  1.00  0.00     0.000 C 
HETATM   17  C13 UNL     1      44.218 -51.947 110.647  1.00  0.00     0.000 C 
HETATM   18  C14 UNL     1      43.039 -52.518 111.433  1.00  0.00     0.004 C 
ENDBRANCH  13  14
ENDBRANCH  12  13
ENDBRANCH  11  12
ENDBRANCH  10  11
ENDBRANCH   1  10
TORSDOF 10
ENDMDL
MODEL 3
REMARK VINA RESULT: -6.831590717      0.932      1.373
REMARK  10 active torsions:
REMARK  status: ('A' for Active; 'I' for Inactive)
REMARK    1  A    between atoms: N1_1  and  C1_5 
REMARK    2  A    between atoms: C1_5  and  C2_6 
REMARK    3  A    between atoms: C2_6  and  C3_7 
REMARK    4  A    between atoms: C3_7  and  C4_8 
REMARK    5  A    between atoms: C4_8  and  C5_9 
REMARK    6  A    between atoms: C5_9  and  C6_10 
REMARK    7  A    between atoms: C6_10  and  C7_11 
REMARK    8  A    between atoms: C7_11  and  C8_12 
REMARK    9  A    between atoms: C8_12  and  C9_13 
REMARK   10  A    between atoms: C9_13  and  C10_14 
ROOT
HETATM    1  C5  UNL     1      37.807 -48.866 111.575  1.00  0.00     0.000 C 
ENDROOT
BRANCH   1   2
HETATM    2  C4  UNL     1      36.464 -49.242 111.057  1.00  0.00     0.000 C 
BRANCH   2   3
HETATM    3  C3  UNL     1      35.456 -48.150 111.407  1.00  0.00     0.002 C 
BRANCH   3   4
HETATM    4  C2  UNL     1      34.600 -48.507 112.582  1.00  0.00     0.027 C 
BRANCH   4   5
HETATM    5  C1  UNL     1      33.161 -48.176 112.201  1.00  0.00     0.229 C 
BRANCH   5   6
HETATM    6  N1  UNL     1      32.333 -49.302 112.575  1.00  0.00    -0.079 N 
ATOM      7  H13 UNL     1      31.398 -49.256 112.172  1.00  0.00     0.274 HD
ATOM      8  H12 UNL     1      32.628 -50.173 112.134  1.00  0.00     0.274 HD
ATOM      9  H11 UNL     1      32.323 -49.359 113.593  1.00  0.00     0.274 HD
ENDBRANCH   5   6
ENDBRANCH   4   5
ENDBRANCH   3   4
ENDBRANCH   2   3
ENDBRANCH   1   2
BRANCH   1  10
HETATM   10  C6  UNL     1      38.125 -49.636 112.837  1.00  0.00     0.000 C 
BRANCH  10  11
HETATM   11  C7  UNL     1      38.704 -50.968 112.544  1.00  0.00     0.000 C 
BRANCH  11  12
HETATM   12  C8  UNL     1      39.837 -50.839 111.554  1.00  0.00     0.000 C 
BRANCH  12  13
HETATM   13  C9  UNL     1      40.668 -52.064 111.550  1.00  0.00     0.004 C 
BRANCH  13  14
HETATM   14  C10 UNL     1      41.941 -51.903 110.761  1.00  0.00    -0.014 C 
HETATM   15  C11 UNL     1      42.399 -50.467 110.633  1.00  0.00     0.004 C 
HETATM   16  C12 UNL     1      43.737 -50.656 109.951  1.00  0.00     0.000 C 
HETATM   17  C13 UNL     1      44.297 -51.877 110.621  1.00  0.00     0.000 C 
HETATM   18  C14 UNL     1      43.156 -52.510 111.417  1.00  0.00     0.004 C 
ENDBRANCH  13  14
ENDBRANCH  12  13
ENDBRANCH  11  12
ENDBRANCH  10  11
ENDBRANCH   1  10
TORSDOF 10
ENDMDL
MODEL 4
REMARK VINA RESULT: -6.800656036      0.851      1.612
REMARK  10 active torsions:
REMARK  status: ('A' for Active; 'I' for Inactive)
REMARK    1  A    between atoms: N1_1  and  C1_5 
REMARK    2  A    between atoms: C1_5  and  C2_6 
REMARK    3  A    between atoms: C2_6  and  C3_7 
REMARK    4  A    between atoms: C3_7  and  C4_8 
REMARK    5  A    between atoms: C4_8  and  C5_9 
REMARK    6  A    between atoms: C5_9  and  C6_10 
REMARK    7  A    between atoms: C6_10  and  C7_11 
REMARK    8  A    between atoms: C7_11  and  C8_12 
REMARK    9  A    between atoms: C8_12  and  C9_13 
REMARK   10  A    between atoms: C9_13  and  C10_14 
ROOT
HETATM    1  C5  UNL     1      37.016 -49.605 111.002  1.00  0.00     0.000 C 
ENDROOT
BRANCH   1   2
HETATM    2  C4  UNL     1      36.011 -48.550 111.305  1.00  0.00     0.000 C 
BRANCH   2   3
HETATM    3  C3  UNL     1      35.844 -48.422 112.817  1.00  0.00     0.002 C 
BRANCH   3   4
HETATM    4  C2  UNL     1      34.501 -47.888 113.208  1.00  0.00     0.027 C 
BRANCH   4   5
HETATM    5  C1  UNL     1      33.534 -48.253 112.088  1.00  0.00     0.229 C 
BRANCH   5   6
HETATM    6  N1  UNL     1      32.620 -49.252 112.600  1.00  0.00    -0.079 N 
ATOM      7  H13 UNL     1      32.980 -49.729 113.427  1.00  0.00     0.274 HD
ATOM      8  H12 UNL     1      31.790 -48.845 113.029  1.00  0.00     0.274 HD
ATOM      9  H11 UNL     1      32.398 -49.892 111.838  1.00  0.00     0.274 HD
ENDBRANCH   5   6
ENDBRANCH   4   5
ENDBRANCH   3   4
ENDBRANCH   2   3
ENDBRANCH   1   2
BRANCH   1  10
HETATM   10  C6  UNL     1      38.281 -49.378 111.798  1.00  0.00     0.000 C 
BRANCH  10  11
HETATM   11  C7  UNL     1      38.682 -50.582 112.563  1.00  0.00     0.000 C 
BRANCH  11  12
HETATM   12  C8  UNL     1      39.794 -51.310 111.845  1.00  0.00     0.000 C 
BRANCH  12  13
HETATM   13  C9  UNL     1      40.635 -50.357 111.087  1.00  0.00     0.004 C 
BRANCH  13  14
HETATM   14  C10 UNL     1      42.088 -50.754 111.061  1.00  0.00    -0.014 C 
HETATM   15  C11 UNL     1      42.324 -52.215 111.375  1.00  0.00     0.004 C 
HETATM   16  C12 UNL     1      43.812 -52.323 111.117  1.00  0.00     0.000 C 
HETATM   17  C13 UNL     1      44.015 -51.468 109.901  1.00  0.00     0.000 C 
HETATM   18  C14 UNL     1      42.728 -50.671 109.697  1.00  0.00     0.004 C 
ENDBRANCH  13  14
ENDBRANCH  12  13
ENDBRANCH  11  12
ENDBRANCH  10  11
ENDBRANCH   1  10
TORSDOF 10
ENDMDL
MODEL 5
REMARK VINA RESULT: -6.798715975      0.798      1.307
REMARK  10 active torsions:
REMARK  status: ('A' for Active; 'I' for Inactive)
REMARK    1  A    between atoms: N1_1  and  C1_5 
REMARK    2  A    between atoms: C1_5  and  C2_6 
REMARK    3  A    between atoms: C2_6  and  C3_7 
REMARK    4  A    between atoms: C3_7  and  C4_8 
REMARK    5  A    between atoms: C4_8  and  C5_9 
REMARK    6  A    between atoms: C5_9  and  C6_10 
REMARK    7  A    between atoms: C6_10  and  C7_11 
REMARK    8  A    between atoms: C7_11  and  C8_12 
REMARK    9  A    between atoms: C8_12  and  C9_13 
REMARK   10  A    between atoms: C9_13  and  C10_14 
ROOT
HETATM    1  C5  UNL     1      35.750 -48.683 111.152  1.00  0.00     0.000 C 
ENDROOT
BRANCH   1   2
HETATM    2  C4  UNL     1      35.450 -48.460 112.592  1.00  0.00     0.000 C 
BRANCH   2   3
HETATM    3  C3  UNL     1      34.032 -47.913 112.742  1.00  0.00     0.002 C 
BRANCH   3   4
HETATM    4  C2  UNL     1      33.000 -48.995 112.821  1.00  0.00     0.027 C 
BRANCH   4   5
HETATM    5  C1  UNL     1      31.704 -48.339 113.286  1.00  0.00     0.229 C 
BRANCH   5   6
HETATM    6  N1  UNL     1      32.041 -47.358 114.295  1.00  0.00    -0.079 N 
ATOM      7  H13 UNL     1      31.225 -46.857 114.646  1.00  0.00     0.274 HD
ATOM      8  H12 UNL     1      32.331 -47.781 115.176  1.00  0.00     0.274 HD
ATOM      9  H11 UNL     1      32.748 -46.737 113.903  1.00  0.00     0.274 HD
ENDBRANCH   5   6
ENDBRANCH   4   5
ENDBRANCH   3   4
ENDBRANCH   2   3
ENDBRANCH   1   2
BRANCH   1  10
HETATM   10  C6  UNL     1      37.037 -49.461 110.991  1.00  0.00     0.000 C 
BRANCH  10  11
HETATM   11  C7  UNL     1      37.786 -49.566 112.266  1.00  0.00     0.000 C 
BRANCH  11  12
HETATM   12  C8  UNL     1      38.974 -50.484 112.098  1.00  0.00     0.000 C 
BRANCH  12  13
HETATM   13  C9  UNL     1      39.969 -49.886 111.181  1.00  0.00     0.004 C 
BRANCH  13  14
HETATM   14  C10 UNL     1      41.301 -50.589 111.226  1.00  0.00    -0.014 C 
HETATM   15  C11 UNL     1      41.201 -52.056 111.578  1.00  0.00     0.004 C 
HETATM   16  C12 UNL     1      42.639 -52.490 111.388  1.00  0.00     0.000 C 
HETATM   17  C13 UNL     1      43.070 -51.735 110.165  1.00  0.00     0.000 C 
HETATM   18  C14 UNL     1      41.995 -50.684 109.890  1.00  0.00     0.004 C 
ENDBRANCH  13  14
ENDBRANCH  12  13
ENDBRANCH  11  12
ENDBRANCH  10  11
ENDBRANCH   1  10
TORSDOF 10
ENDMDL
