MODEL 1
REMARK VINA RESULT: -7.063912764      0.000      0.000
REMARK  9 active torsions:
REMARK  status: ('A' for Active; 'I' for Inactive)
REMARK    1  A    between atoms: C2_3  and  C3_4 
REMARK    2  A    between atoms: C3_4  and  C4_5 
REMARK    3  A    between atoms: C4_5  and  C5_6 
REMARK    4  A    between atoms: C5_6  and  C6_7 
REMARK    5  A    between atoms: C6_7  and  C7_8 
REMARK    6  A    between atoms: C7_8  and  C8_9 
REMARK    7  A    between atoms: C8_9  and  C9_10 
REMARK    8  A    between atoms: C9_10  and  C10_11 
REMARK    9  A    between atoms: C10_11  and  C11_12 
ROOT
HETATM    1  N1  UNL     1      45.848 -52.576 108.408  1.00  0.00    -0.197 NA
HETATM    2  C1  UNL     1      45.231 -52.020 109.207  1.00  0.00     0.059 C 
HETATM    3  C2  UNL     1      44.471 -51.313 110.208  1.00  0.00     0.124 C 
ENDROOT
BRANCH   3   4
HETATM    4  C3  UNL     1      43.715 -52.241 111.134  1.00  0.00     0.014 C 
BRANCH   4   5
HETATM    5  C4  UNL     1      42.252 -51.942 111.178  1.00  0.00     0.001 C 
BRANCH   5   6
HETATM    6  C5  UNL     1      41.957 -50.593 110.594  1.00  0.00     0.000 C 
BRANCH   6   7
HETATM    7  C6  UNL     1      40.629 -50.056 111.056  1.00  0.00     0.000 C 
BRANCH   7   8
HETATM    8  C7  UNL     1      39.825 -51.061 111.818  1.00  0.00     0.000 C 
BRANCH   8   9
HETATM    9  C8  UNL     1      38.425 -50.595 112.095  1.00  0.00     0.000 C 
BRANCH   9  10
HETATM   10  C9  UNL     1      38.020 -49.396 111.321  1.00  0.00     0.002 C 
BRANCH  10  11
HETATM   11  C10 UNL     1      36.590 -49.257 110.977  1.00  0.00     0.033 C 
BRANCH  11  12
HETATM   12  C11 UNL     1      35.818 -48.177 111.612  1.00  0.00     0.186 C 
HETATM   13  C12 UNL     1      35.408 -48.466 113.040  1.00  0.00     0.034 C 
HETATM   14  C13 UNL     1      34.533 -47.250 113.330  1.00  0.00     0.029 C 
HETATM   15  C14 UNL     1      33.805 -47.108 112.004  1.00  0.00     0.233 C 
HETATM   16  N2  UNL     1      34.595 -47.779 111.016  1.00  0.00    -0.071 N 
ATOM     17  H22 UNL     1      34.735 -47.215 110.178  1.00  0.00     0.277 HD
ATOM     18  H21 UNL     1      34.100 -48.557 110.581  1.00  0.00     0.277 HD
ENDBRANCH  11  12
ENDBRANCH  10  11
ENDBRANCH   9  10
ENDBRANCH   8   9
ENDBRANCH   7   8
ENDBRANCH   6   7
ENDBRANCH   5   6
ENDBRANCH   4   5
ENDBRANCH   3   4
TORSDOF 9
ENDMDL
MODEL 2
REMARK VINA RESULT: -7.010351260      0.701      1.005
REMARK  9 active torsions:
REMARK  status: ('A' for Active; 'I' for Inactive)
REMARK    1  A    between atoms: C2_3  and  C3_4 
REMARK    2  A    between atoms: C3_4  and  C4_5 
REMARK    3  A    between atoms: C4_5  and  C5_6 
REMARK    4  A    between atoms: C5_6  and  C6_7 
REMARK    5  A    between atoms: C6_7  and  C7_8 
REMARK    6  A    between atoms: C7_8  and  C8_9 
REMARK    7  A    between atoms: C8_9  and  C9_10 
REMARK    8  A    between atoms: C9_10  and  C10_11 
REMARK    9  A    between atoms: C10_11  and  C11_12 
ROOT
HETATM    1  N1  UNL     1      45.819 -52.572 108.406  1.00  0.00    -0.197 NA
HETATM    2  C1  UNL     1      45.226 -52.006 109.216  1.00  0.00     0.059 C 
HETATM    3  C2  UNL     1      44.497 -51.288 110.232  1.00  0.00     0.124 C 
ENDROOT
BRANCH   3   4
HETATM    4  C3  UNL     1      43.713 -52.202 111.149  1.00  0.00     0.014 C 
BRANCH   4   5
HETATM    5  C4  UNL     1      42.246 -51.922 111.121  1.00  0.00     0.001 C 
BRANCH   5   6
HETATM    6  C5  UNL     1      41.972 -50.507 110.708  1.00  0.00     0.000 C 
BRANCH   6   7
HETATM    7  C6  UNL     1      40.596 -50.056 111.118  1.00  0.00     0.000 C 
BRANCH   7   8
HETATM    8  C7  UNL     1      39.820 -51.118 111.831  1.00  0.00     0.000 C 
BRANCH   8   9
HETATM    9  C8  UNL     1      38.477 -50.639 112.301  1.00  0.00     0.000 C 
BRANCH   9  10
HETATM   10  C9  UNL     1      38.059 -49.339 111.722  1.00  0.00     0.002 C 
BRANCH  10  11
HETATM   11  C10 UNL     1      36.798 -49.307 110.954  1.00  0.00     0.033 C 
BRANCH  11  12
HETATM   12  C11 UNL     1      35.585 -48.804 111.618  1.00  0.00     0.186 C 
HETATM   13  C12 UNL     1      34.969 -47.594 110.950  1.00  0.00     0.034 C 
HETATM   14  C13 UNL     1      33.861 -47.261 111.945  1.00  0.00     0.029 C 
HETATM   15  C14 UNL     1      34.578 -47.522 113.259  1.00  0.00     0.233 C 
HETATM   16  N2  UNL     1      35.677 -48.394 112.972  1.00  0.00    -0.071 N 
ATOM     17  H22 UNL     1      35.730 -49.182 113.617  1.00  0.00     0.277 HD
ATOM     18  H21 UNL     1      36.579 -47.972 113.193  1.00  0.00     0.277 HD
ENDBRANCH  11  12
ENDBRANCH  10  11
ENDBRANCH   9  10
ENDBRANCH   8   9
ENDBRANCH   7   8
ENDBRANCH   6   7
ENDBRANCH   5   6
ENDBRANCH   4   5
ENDBRANCH   3   4
TORSDOF 9
ENDMDL
MODEL 3
REMARK VINA RESULT: -6.782266889      1.057      1.431
REMARK  9 active torsions:
REMARK  status: ('A' for Active; 'I' for Inactive)
REMARK    1  A    between atoms: C2_3  and  C3_4 
REMARK    2  A    between atoms: C3_4  and  C4_5 
REMARK    3  A    between atoms: C4_5  and  C5_6 
REMARK    4  A    between atoms: C5_6  and  C6_7 
REMARK    5  A    between atoms: C6_7  and  C7_8 
REMARK    6  A    between atoms: C7_8  and  C8_9 
REMARK    7  A    between atoms: C8_9  and  C9_10 
REMARK    8  A    between atoms: C9_10  and  C10_11 
REMARK    9  A    between atoms: C10_11  and  C11_12 
ROOT
HETATM    1  N1  UNL     1      45.704 -52.412 108.443  1.00  0.00    -0.197 NA
HETATM    2  C1  UNL     1      45.088 -52.040 109.343  1.00  0.00     0.059 C 
HETATM    3  C2  UNL     1      44.327 -51.582 110.479  1.00  0.00     0.124 C 
ENDROOT
BRANCH   3   4
HETATM    4  C3  UNL     1      42.837 -51.555 110.215  1.00  0.00     0.014 C 
BRANCH   4   5
HETATM    5  C4  UNL     1      42.039 -52.042 111.380  1.00  0.00     0.001 C 
BRANCH   5   6
HETATM    6  C5  UNL     1      40.688 -51.394 111.421  1.00  0.00     0.000 C 
BRANCH   6   7
HETATM    7  C6  UNL     1      40.733 -49.965 110.954  1.00  0.00     0.000 C 
BRANCH   7   8
HETATM    8  C7  UNL     1      39.485 -49.205 111.271  1.00  0.00     0.000 C 
BRANCH   8   9
HETATM    9  C8  UNL     1      38.288 -50.097 111.434  1.00  0.00     0.000 C 
BRANCH   9  10
HETATM   10  C9  UNL     1      37.029 -49.527 110.897  1.00  0.00     0.002 C 
BRANCH  10  11
HETATM   11  C10 UNL     1      36.359 -48.478 111.694  1.00  0.00     0.033 C 
BRANCH  11  12
HETATM   12  C11 UNL     1      34.914 -48.274 111.510  1.00  0.00     0.186 C 
HETATM   13  C12 UNL     1      34.542 -46.896 111.007  1.00  0.00     0.034 C 
HETATM   14  C13 UNL     1      33.019 -46.978 111.070  1.00  0.00     0.029 C 
HETATM   15  C14 UNL     1      32.834 -47.740 112.372  1.00  0.00     0.233 C 
HETATM   16  N2  UNL     1      34.061 -48.432 112.631  1.00  0.00    -0.071 N 
ATOM     17  H22 UNL     1      33.913 -49.411 112.875  1.00  0.00     0.277 HD
ATOM     18  H21 UNL     1      34.500 -48.135 113.503  1.00  0.00     0.277 HD
ENDBRANCH  11  12
ENDBRANCH  10  11
ENDBRANCH   9  10
ENDBRANCH   8   9
ENDBRANCH   7   8
ENDBRANCH   6   7
ENDBRANCH   5   6
ENDBRANCH   4   5
ENDBRANCH   3   4
TORSDOF 9
ENDMDL
MODEL 4
REMARK VINA RESULT: -6.726196771      1.410      2.152
REMARK  9 active torsions:
REMARK  status: ('A' for Active; 'I' for Inactive)
REMARK    1  A    between atoms: C2_3  and  C3_4 
REMARK    2  A    between atoms: C3_4  and  C4_5 
REMARK    3  A    between atoms: C4_5  and  C5_6 
REMARK    4  A    between atoms: C5_6  and  C6_7 
REMARK    5  A    between atoms: C6_7  and  C7_8 
REMARK    6  A    between atoms: C7_8  and  C8_9 
REMARK    7  A    between atoms: C8_9  and  C9_10 
REMARK    8  A    between atoms: C9_10  and  C10_11 
REMARK    9  A    between atoms: C10_11  and  C11_12 
ROOT
HETATM    1  N1  UNL     1      44.779 -51.501 109.831  1.00  0.00    -0.197 NA
HETATM    2  C1  UNL     1      43.917 -51.852 110.510  1.00  0.00     0.059 C 
HETATM    3  C2  UNL     1      42.844 -52.306 111.360  1.00  0.00     0.124 C 
ENDROOT
BRANCH   3   4
HETATM    4  C3  UNL     1      41.494 -51.761 110.944  1.00  0.00     0.014 C 
BRANCH   4   5
HETATM    5  C4  UNL     1      41.516 -50.285 110.721  1.00  0.00     0.001 C 
BRANCH   5   6
HETATM    6  C5  UNL     1      40.214 -49.657 111.120  1.00  0.00     0.000 C 
BRANCH   6   7
HETATM    7  C6  UNL     1      39.362 -50.593 111.934  1.00  0.00     0.000 C 
BRANCH   7   8
HETATM    8  C7  UNL     1      38.009 -50.036 112.241  1.00  0.00     0.000 C 
BRANCH   8   9
HETATM    9  C8  UNL     1      37.329 -49.461 111.032  1.00  0.00     0.000 C 
BRANCH   9  10
HETATM   10  C9  UNL     1      36.056 -48.760 111.327  1.00  0.00     0.002 C 
BRANCH  10  11
HETATM   11  C10 UNL     1      35.864 -48.241 112.697  1.00  0.00     0.033 C 
BRANCH  11  12
HETATM   12  C11 UNL     1      34.511 -48.267 113.273  1.00  0.00     0.186 C 
HETATM   13  C12 UNL     1      33.460 -48.862 112.360  1.00  0.00     0.034 C 
HETATM   14  C13 UNL     1      32.200 -48.605 113.182  1.00  0.00     0.029 C 
HETATM   15  C14 UNL     1      32.500 -47.218 113.726  1.00  0.00     0.233 C 
HETATM   16  N2  UNL     1      33.918 -47.040 113.663  1.00  0.00    -0.071 N 
ATOM     17  H22 UNL     1      34.306 -46.679 114.535  1.00  0.00     0.277 HD
ATOM     18  H21 UNL     1      34.189 -46.264 113.058  1.00  0.00     0.277 HD
ENDBRANCH  11  12
ENDBRANCH  10  11
ENDBRANCH   9  10
ENDBRANCH   8   9
ENDBRANCH   7   8
ENDBRANCH   6   7
ENDBRANCH   5   6
ENDBRANCH   4   5
ENDBRANCH   3   4
TORSDOF 9
ENDMDL
MODEL 5
REMARK VINA RESULT: -6.711598777      1.217      1.716
REMARK  9 active torsions:
REMARK  status: ('A' for Active; 'I' for Inactive)
REMARK    1  A    between atoms: C2_3  and  C3_4 
REMARK    2  A    between atoms: C3_4  and  C4_5 
REMARK    3  A    between atoms: C4_5  and  C5_6 
REMARK    4  A    between atoms: C5_6  and  C6_7 
REMARK    5  A    between atoms: C6_7  and  C7_8 
REMARK    6  A    between atoms: C7_8  and  C8_9 
REMARK    7  A    between atoms: C8_9  and  C9_10 
REMARK    8  A    between atoms: C9_10  and  C10_11 
REMARK    9  A    between atoms: C10_11  and  C11_12 
ROOT
HETATM    1  N1  UNL     1      45.513 -52.242 108.765  1.00  0.00    -0.197 NA
HETATM    2  C1  UNL     1      44.810 -51.910 109.615  1.00  0.00     0.059 C 
HETATM    3  C2  UNL     1      43.939 -51.503 110.689  1.00  0.00     0.124 C 
ENDROOT
BRANCH   3   4
HETATM    4  C3  UNL     1      42.474 -51.573 110.316  1.00  0.00     0.014 C 
BRANCH   4   5
HETATM    5  C4  UNL     1      41.617 -52.053 111.442  1.00  0.00     0.001 C 
BRANCH   5   6
HETATM    6  C5  UNL     1      40.370 -51.230 111.563  1.00  0.00     0.000 C 
BRANCH   6   7
HETATM    7  C6  UNL     1      40.564 -49.830 111.045  1.00  0.00     0.000 C 
BRANCH   7   8
HETATM    8  C7  UNL     1      39.311 -49.015 111.074  1.00  0.00     0.000 C 
BRANCH   8   9
HETATM    9  C8  UNL     1      38.109 -49.813 111.488  1.00  0.00     0.000 C 
BRANCH   9  10
HETATM   10  C9  UNL     1      36.815 -49.131 111.244  1.00  0.00     0.002 C 
BRANCH  10  11
HETATM   11  C10 UNL     1      36.199 -48.410 112.377  1.00  0.00     0.033 C 
BRANCH  11  12
HETATM   12  C11 UNL     1      35.294 -47.288 112.084  1.00  0.00     0.186 C 
HETATM   13  C12 UNL     1      34.549 -47.417 110.773  1.00  0.00     0.034 C 
HETATM   14  C13 UNL     1      33.843 -46.066 110.719  1.00  0.00     0.029 C 
HETATM   15  C14 UNL     1      34.936 -45.158 111.256  1.00  0.00     0.233 C 
HETATM   16  N2  UNL     1      35.840 -45.982 111.999  1.00  0.00    -0.071 N 
ATOM     17  H22 UNL     1      36.064 -45.592 112.914  1.00  0.00     0.277 HD
ATOM     18  H21 UNL     1      36.784 -45.978 111.610  1.00  0.00     0.277 HD
ENDBRANCH  11  12
ENDBRANCH  10  11
ENDBRANCH   9  10
ENDBRANCH   8   9
ENDBRANCH   7   8
ENDBRANCH   6   7
ENDBRANCH   5   6
ENDBRANCH   4   5
ENDBRANCH   3   4
TORSDOF 9
ENDMDL
