MODEL 1
REMARK VINA RESULT: -6.002533714      0.000      0.000
REMARK  9 active torsions:
REMARK  status: ('A' for Active; 'I' for Inactive)
REMARK    1  A    between atoms: O1_2  and  C2_3 
REMARK    2  A    between atoms: C2_3  and  C3_4 
REMARK    3  A    between atoms: C3_4  and  O2_5 
REMARK    4  A    between atoms: O2_5  and  C4_6 
REMARK    5  A    between atoms: C8_12  and  C9_13 
REMARK    6  A    between atoms: C8_12  and  C16_22 
REMARK    7  A    between atoms: C9_13  and  C10_14 
REMARK       I    between atoms: C10_14  and  N1_16 
REMARK    8  A    between atoms: C16_22  and  O6_23 
REMARK    9  A    between atoms: N2_25  and  O7_27 
ROOT
HETATM    1  C4  UNL     1      -6.778  22.251  -7.415  1.00  0.00     0.306 C 
HETATM    2  O3  UNL     1      -6.547  23.488  -6.767  1.00  0.00    -0.323 OA
HETATM    3  C5  UNL     1      -5.274  23.833  -7.117  1.00  0.00     0.162 C 
HETATM    4  C6  UNL     1      -4.507  24.475  -5.951  1.00  0.00     0.078 C 
HETATM    5  C7  UNL     1      -5.368  24.920  -8.165  1.00  0.00     0.078 C 
HETATM    6  O4  UNL     1      -4.572  22.723  -7.477  1.00  0.00    -0.331 OA
HETATM    7  C8  UNL     1      -5.473  21.681  -7.787  1.00  0.00     0.188 C 
ENDROOT
BRANCH   7   8
HETATM    8  C9  UNL     1      -5.202  20.463  -6.932  1.00  0.00     0.155 C 
BRANCH   8   9
HETATM    9  C10 UNL     1      -4.100  19.619  -7.392  1.00  0.00     0.223 C 
HETATM   10  O5  UNL     1      -4.348  18.713  -8.226  1.00  0.00    -0.273 OA
HETATM   11  N1  UNL     1      -2.763  19.767  -6.950  1.00  0.00    -0.352 N 
HETATM   12  C11 UNL     1      -2.322  20.761  -5.994  1.00  0.00     0.125 C 
HETATM   13  C15 UNL     1      -1.692  18.888  -7.450  1.00  0.00     0.125 C 
HETATM   14  C12 UNL     1      -1.555  20.002  -4.902  1.00  0.00     0.020 C 
HETATM   15  C13 UNL     1      -0.284  19.442  -5.459  1.00  0.00     0.003 C 
HETATM   16  C14 UNL     1      -0.378  19.394  -6.956  1.00  0.00     0.020 C 
ENDBRANCH   8   9
ENDBRANCH   7   8
BRANCH   7  17
HETATM   17  C16 UNL     1      -5.252  21.407  -9.223  1.00  0.00     0.176 C 
HETATM   18  N2  UNL     1      -5.944  20.616  -9.926  1.00  0.00    -0.248 N 
ATOM     19  H2  UNL     1      -5.647  20.550 -10.900  1.00  0.00     0.196 HD
BRANCH  17  20
HETATM   20  O6  UNL     1      -4.212  22.048  -9.908  1.00  0.00    -0.346 OA
ATOM     21  H6  UNL     1      -3.326  21.709  -9.854  1.00  0.00     0.219 HD
ENDBRANCH  17  20
BRANCH  18  22
HETATM   22  O7  UNL     1      -6.999  19.850  -9.618  1.00  0.00    -0.288 OA
ATOM     23  H7  UNL     1      -7.766  19.606 -10.122  1.00  0.00     0.244 HD
ENDBRANCH  18  22
ENDBRANCH   7  17
BRANCH   1  24
HETATM   24  O2  UNL     1      -7.716  22.366  -8.396  1.00  0.00    -0.355 OA
BRANCH  24  25
HETATM   25  C3  UNL     1      -8.904  22.923  -8.037  1.00  0.00     0.197 C 
BRANCH  25  26
HETATM   26  C2  UNL     1      -9.288  24.211  -8.668  1.00  0.00     0.193 C 
BRANCH  26  27
HETATM   27  O1  UNL     1      -9.639  25.142  -7.720  1.00  0.00    -0.394 OA
HETATM   28  C1  UNL     1      -8.809  26.218  -7.570  1.00  0.00     0.201 C 
ENDBRANCH  26  27
ENDBRANCH  25  26
ENDBRANCH  24  25
ENDBRANCH   1  24
TORSDOF 9
ENDMDL
MODEL 2
REMARK VINA RESULT: -5.920034833      1.646      2.839
REMARK  9 active torsions:
REMARK  status: ('A' for Active; 'I' for Inactive)
REMARK    1  A    between atoms: O1_2  and  C2_3 
REMARK    2  A    between atoms: C2_3  and  C3_4 
REMARK    3  A    between atoms: C3_4  and  O2_5 
REMARK    4  A    between atoms: O2_5  and  C4_6 
REMARK    5  A    between atoms: C8_12  and  C9_13 
REMARK    6  A    between atoms: C8_12  and  C16_22 
REMARK    7  A    between atoms: C9_13  and  C10_14 
REMARK       I    between atoms: C10_14  and  N1_16 
REMARK    8  A    between atoms: C16_22  and  O6_23 
REMARK    9  A    between atoms: N2_25  and  O7_27 
ROOT
HETATM    1  C4  UNL     1      -6.081  23.317  -7.818  1.00  0.00     0.306 C 
HETATM    2  O3  UNL     1      -6.784  24.281  -8.580  1.00  0.00    -0.323 OA
HETATM    3  C5  UNL     1      -7.390  23.568  -9.572  1.00  0.00     0.162 C 
HETATM    4  C6  UNL     1      -7.368  24.312 -10.916  1.00  0.00     0.078 C 
HETATM    5  C7  UNL     1      -8.855  23.449  -9.218  1.00  0.00     0.078 C 
HETATM    6  O4  UNL     1      -6.732  22.392  -9.771  1.00  0.00    -0.331 OA
HETATM    7  C8  UNL     1      -5.941  22.103  -8.638  1.00  0.00     0.188 C 
ENDROOT
BRANCH   7   8
HETATM    8  C9  UNL     1      -4.489  21.932  -9.024  1.00  0.00     0.155 C 
BRANCH   8   9
HETATM    9  C10 UNL     1      -3.531  22.174  -7.946  1.00  0.00     0.223 C 
HETATM   10  O5  UNL     1      -3.167  23.355  -7.723  1.00  0.00    -0.273 OA
HETATM   11  N1  UNL     1      -2.989  21.148  -7.134  1.00  0.00    -0.352 N 
HETATM   12  C11 UNL     1      -3.309  19.743  -7.268  1.00  0.00     0.125 C 
HETATM   13  C15 UNL     1      -2.028  21.452  -6.060  1.00  0.00     0.125 C 
HETATM   14  C12 UNL     1      -1.970  19.001  -7.379  1.00  0.00     0.020 C 
HETATM   15  C13 UNL     1      -1.226  19.084  -6.084  1.00  0.00     0.003 C 
HETATM   16  C14 UNL     1      -1.780  20.213  -5.266  1.00  0.00     0.020 C 
ENDBRANCH   8   9
ENDBRANCH   7   8
BRANCH   7  17
HETATM   17  C16 UNL     1      -6.516  20.858  -8.087  1.00  0.00     0.176 C 
HETATM   18  N2  UNL     1      -6.962  19.896  -8.777  1.00  0.00    -0.248 N 
ATOM     19  H2  UNL     1      -7.323  19.116  -8.228  1.00  0.00     0.196 HD
BRANCH  17  20
HETATM   20  O6  UNL     1      -6.594  20.674  -6.700  1.00  0.00    -0.346 OA
ATOM     21  H6  UNL     1      -7.388  20.327  -6.310  1.00  0.00     0.219 HD
ENDBRANCH  17  20
BRANCH  18  22
HETATM   22  O7  UNL     1      -7.044  19.722 -10.103  1.00  0.00    -0.288 OA
ATOM     23  H7  UNL     1      -6.863  18.966 -10.649  1.00  0.00     0.244 HD
ENDBRANCH  18  22
ENDBRANCH   7  17
BRANCH   1  24
HETATM   24  O2  UNL     1      -6.616  23.175  -6.573  1.00  0.00    -0.355 OA
BRANCH  24  25
HETATM   25  C3  UNL     1      -6.824  24.321  -5.868  1.00  0.00     0.197 C 
BRANCH  25  26
HETATM   26  C2  UNL     1      -8.078  24.436  -5.081  1.00  0.00     0.193 C 
BRANCH  26  27
HETATM   27  O1  UNL     1      -9.148  24.721  -5.894  1.00  0.00    -0.394 OA
HETATM   28  C1  UNL     1      -9.184  25.964  -6.460  1.00  0.00     0.201 C 
ENDBRANCH  26  27
ENDBRANCH  25  26
ENDBRANCH  24  25
ENDBRANCH   1  24
TORSDOF 9
ENDMDL
MODEL 3
REMARK VINA RESULT: -5.863872030      1.704      3.304
REMARK  9 active torsions:
REMARK  status: ('A' for Active; 'I' for Inactive)
REMARK    1  A    between atoms: O1_2  and  C2_3 
REMARK    2  A    between atoms: C2_3  and  C3_4 
REMARK    3  A    between atoms: C3_4  and  O2_5 
REMARK    4  A    between atoms: O2_5  and  C4_6 
REMARK    5  A    between atoms: C8_12  and  C9_13 
REMARK    6  A    between atoms: C8_12  and  C16_22 
REMARK    7  A    between atoms: C9_13  and  C10_14 
REMARK       I    between atoms: C10_14  and  N1_16 
REMARK    8  A    between atoms: C16_22  and  O6_23 
REMARK    9  A    between atoms: N2_25  and  O7_27 
ROOT
HETATM    1  C4  UNL     1      -6.587  21.689  -8.460  1.00  0.00     0.306 C 
HETATM    2  O3  UNL     1      -7.634  22.449  -7.885  1.00  0.00    -0.323 OA
HETATM    3  C5  UNL     1      -7.004  23.419  -7.161  1.00  0.00     0.162 C 
HETATM    4  C6  UNL     1      -7.717  23.701  -5.829  1.00  0.00     0.078 C 
HETATM    5  C7  UNL     1      -7.110  24.711  -7.939  1.00  0.00     0.078 C 
HETATM    6  O4  UNL     1      -5.741  23.019  -6.845  1.00  0.00    -0.331 OA
HETATM    7  C8  UNL     1      -5.354  21.971  -7.708  1.00  0.00     0.188 C 
ENDROOT
BRANCH   7   8
HETATM    8  C9  UNL     1      -4.963  20.741  -6.919  1.00  0.00     0.155 C 
BRANCH   8   9
HETATM    9  C10 UNL     1      -3.736  20.084  -7.369  1.00  0.00     0.223 C 
HETATM   10  O5  UNL     1      -3.790  19.350  -8.387  1.00  0.00    -0.273 OA
HETATM   11  N1  UNL     1      -2.486  20.230  -6.721  1.00  0.00    -0.352 N 
HETATM   12  C11 UNL     1      -2.265  21.038  -5.541  1.00  0.00     0.125 C 
HETATM   13  C15 UNL     1      -1.282  19.545  -7.221  1.00  0.00     0.125 C 
HETATM   14  C12 UNL     1      -1.574  20.129  -4.515  1.00  0.00     0.020 C 
HETATM   15  C13 UNL     1      -0.196  19.780  -4.981  1.00  0.00     0.003 C 
HETATM   16  C14 UNL     1      -0.095  20.029  -6.457  1.00  0.00     0.020 C 
ENDBRANCH   8   9
ENDBRANCH   7   8
BRANCH   7  17
HETATM   17  C16 UNL     1      -4.216  22.518  -8.477  1.00  0.00     0.176 C 
HETATM   18  N2  UNL     1      -3.429  23.418  -8.066  1.00  0.00    -0.248 N 
ATOM     19  H2  UNL     1      -2.700  23.675  -8.732  1.00  0.00     0.196 HD
BRANCH  17  20
HETATM   20  O6  UNL     1      -3.942  22.037  -9.763  1.00  0.00    -0.346 OA
ATOM     21  H6  UNL     1      -3.640  21.145  -9.884  1.00  0.00     0.219 HD
ENDBRANCH  17  20
BRANCH  18  22
HETATM   22  O7  UNL     1      -3.382  24.094  -6.911  1.00  0.00    -0.288 OA
ATOM     23  H7  UNL     1      -2.730  24.686  -6.555  1.00  0.00     0.244 HD
ENDBRANCH  18  22
ENDBRANCH   7  17
BRANCH   1  24
HETATM   24  O2  UNL     1      -6.545  21.837  -9.813  1.00  0.00    -0.355 OA
BRANCH  24  25
HETATM   25  C3  UNL     1      -7.089  20.831 -10.551  1.00  0.00     0.197 C 
BRANCH  25  26
HETATM   26  C2  UNL     1      -6.286  19.598 -10.745  1.00  0.00     0.193 C 
BRANCH  26  27
HETATM   27  O1  UNL     1      -6.957  18.491 -10.284  1.00  0.00    -0.394 OA
HETATM   28  C1  UNL     1      -6.530  17.954  -9.102  1.00  0.00     0.201 C 
ENDBRANCH  26  27
ENDBRANCH  25  26
ENDBRANCH  24  25
ENDBRANCH   1  24
TORSDOF 9
ENDMDL
MODEL 4
REMARK VINA RESULT: -5.861578923      4.799      7.575
REMARK  9 active torsions:
REMARK  status: ('A' for Active; 'I' for Inactive)
REMARK    1  A    between atoms: O1_2  and  C2_3 
REMARK    2  A    between atoms: C2_3  and  C3_4 
REMARK    3  A    between atoms: C3_4  and  O2_5 
REMARK    4  A    between atoms: O2_5  and  C4_6 
REMARK    5  A    between atoms: C8_12  and  C9_13 
REMARK    6  A    between atoms: C8_12  and  C16_22 
REMARK    7  A    between atoms: C9_13  and  C10_14 
REMARK       I    between atoms: C10_14  and  N1_16 
REMARK    8  A    between atoms: C16_22  and  O6_23 
REMARK    9  A    between atoms: N2_25  and  O7_27 
ROOT
HETATM    1  C4  UNL     1      -1.127  18.799  -5.373  1.00  0.00     0.306 C 
HETATM    2  O3  UNL     1      -1.464  20.019  -4.739  1.00  0.00    -0.323 OA
HETATM    3  C5  UNL     1      -0.411  20.287  -3.914  1.00  0.00     0.162 C 
HETATM    4  C6  UNL     1      -0.864  20.878  -2.570  1.00  0.00     0.078 C 
HETATM    5  C7  UNL     1       0.409  21.379  -4.562  1.00  0.00     0.078 C 
HETATM    6  O4  UNL     1       0.258  19.136  -3.624  1.00  0.00    -0.331 OA
HETATM    7  C8  UNL     1      -0.069  18.152  -4.581  1.00  0.00     0.188 C 
ENDROOT
BRANCH   7   8
HETATM    8  C9  UNL     1      -0.634  16.918  -3.914  1.00  0.00     0.155 C 
BRANCH   8   9
HETATM    9  C10 UNL     1      -0.849  15.779  -4.805  1.00  0.00     0.223 C 
HETATM   10  O5  UNL     1      -1.483  15.966  -5.874  1.00  0.00    -0.273 OA
HETATM   11  N1  UNL     1      -0.382  14.471  -4.532  1.00  0.00    -0.352 N 
HETATM   12  C11 UNL     1       0.360  14.098  -3.347  1.00  0.00     0.125 C 
HETATM   13  C15 UNL     1      -0.627  13.361  -5.469  1.00  0.00     0.125 C 
HETATM   14  C12 UNL     1      -0.373  12.896  -2.736  1.00  0.00     0.020 C 
HETATM   15  C13 UNL     1      -0.249  11.705  -3.634  1.00  0.00     0.003 C 
HETATM   16  C14 UNL     1       0.134  12.162  -5.011  1.00  0.00     0.020 C 
ENDBRANCH   8   9
ENDBRANCH   7   8
BRANCH   7  17
HETATM   17  C16 UNL     1       1.204  17.869  -5.278  1.00  0.00     0.176 C 
HETATM   18  N2  UNL     1       2.355  18.098  -4.808  1.00  0.00    -0.248 N 
ATOM     19  H2  UNL     1       3.122  17.840  -5.429  1.00  0.00     0.196 HD
BRANCH  17  20
HETATM   20  O6  UNL     1       1.193  17.299  -6.558  1.00  0.00    -0.346 OA
ATOM     21  H6  UNL     1       1.411  17.828  -7.316  1.00  0.00     0.219 HD
ENDBRANCH  17  20
BRANCH  18  22
HETATM   22  O7  UNL     1       2.746  18.621  -3.638  1.00  0.00    -0.288 OA
ATOM     23  H7  UNL     1       2.754  19.517  -3.322  1.00  0.00     0.244 HD
ENDBRANCH  18  22
ENDBRANCH   7  17
BRANCH   1  24
HETATM   24  O2  UNL     1      -0.897  18.974  -6.705  1.00  0.00    -0.355 OA
BRANCH  24  25
HETATM   25  C3  UNL     1      -1.926  19.483  -7.436  1.00  0.00     0.197 C 
BRANCH  25  26
HETATM   26  C2  UNL     1      -3.172  18.682  -7.536  1.00  0.00     0.193 C 
BRANCH  26  27
HETATM   27  O1  UNL     1      -4.047  19.237  -8.439  1.00  0.00    -0.394 OA
HETATM   28  C1  UNL     1      -5.325  18.753  -8.442  1.00  0.00     0.201 C 
ENDBRANCH  26  27
ENDBRANCH  25  26
ENDBRANCH  24  25
ENDBRANCH   1  24
TORSDOF 9
ENDMDL
MODEL 5
REMARK VINA RESULT: -5.810632256      2.327      5.052
REMARK  9 active torsions:
REMARK  status: ('A' for Active; 'I' for Inactive)
REMARK    1  A    between atoms: O1_2  and  C2_3 
REMARK    2  A    between atoms: C2_3  and  C3_4 
REMARK    3  A    between atoms: C3_4  and  O2_5 
REMARK    4  A    between atoms: O2_5  and  C4_6 
REMARK    5  A    between atoms: C8_12  and  C9_13 
REMARK    6  A    between atoms: C8_12  and  C16_22 
REMARK    7  A    between atoms: C9_13  and  C10_14 
REMARK       I    between atoms: C10_14  and  N1_16 
REMARK    8  A    between atoms: C16_22  and  O6_23 
REMARK    9  A    between atoms: N2_25  and  O7_27 
ROOT
HETATM    1  C4  UNL     1      -6.415  21.389  -8.108  1.00  0.00     0.306 C 
HETATM    2  O3  UNL     1      -7.018  21.721  -6.870  1.00  0.00    -0.323 OA
HETATM    3  C5  UNL     1      -7.540  22.967  -7.059  1.00  0.00     0.162 C 
HETATM    4  C6  UNL     1      -7.369  23.859  -5.820  1.00  0.00     0.078 C 
HETATM    5  C7  UNL     1      -9.035  22.816  -7.226  1.00  0.00     0.078 C 
HETATM    6  O4  UNL     1      -6.891  23.595  -8.079  1.00  0.00    -0.331 OA
HETATM    7  C8  UNL     1      -6.221  22.635  -8.868  1.00  0.00     0.188 C 
ENDROOT
BRANCH   7   8
HETATM    8  C9  UNL     1      -4.742  22.940  -8.949  1.00  0.00     0.155 C 
BRANCH   8   9
HETATM    9  C10 UNL     1      -4.085  23.152  -7.660  1.00  0.00     0.223 C 
HETATM   10  O5  UNL     1      -3.691  22.147  -7.017  1.00  0.00    -0.273 OA
HETATM   11  N1  UNL     1      -3.865  24.430  -7.093  1.00  0.00    -0.352 N 
HETATM   12  C11 UNL     1      -4.260  25.678  -7.710  1.00  0.00     0.125 C 
HETATM   13  C15 UNL     1      -3.195  24.583  -5.790  1.00  0.00     0.125 C 
HETATM   14  C12 UNL     1      -5.074  26.444  -6.658  1.00  0.00     0.020 C 
HETATM   15  C13 UNL     1      -4.190  26.861  -5.525  1.00  0.00     0.003 C 
HETATM   16  C14 UNL     1      -2.939  26.032  -5.542  1.00  0.00     0.020 C 
ENDBRANCH   8   9
ENDBRANCH   7   8
BRANCH   7  17
HETATM   17  C16 UNL     1      -6.875  22.715 -10.191  1.00  0.00     0.176 C 
HETATM   18  N2  UNL     1      -7.323  23.774 -10.716  1.00  0.00    -0.248 N 
ATOM     19  H2  UNL     1      -7.744  23.642 -11.636  1.00  0.00     0.196 HD
BRANCH  17  20
HETATM   20  O6  UNL     1      -7.034  21.560 -10.967  1.00  0.00    -0.346 OA
ATOM     21  H6  UNL     1      -7.530  21.594 -11.776  1.00  0.00     0.219 HD
ENDBRANCH  17  20
BRANCH  18  22
HETATM   22  O7  UNL     1      -7.342  25.040 -10.278  1.00  0.00    -0.288 OA
ATOM     23  H7  UNL     1      -7.216  25.864 -10.734  1.00  0.00     0.244 HD
ENDBRANCH  18  22
ENDBRANCH   7  17
BRANCH   1  24
HETATM   24  O2  UNL     1      -7.073  20.371  -8.729  1.00  0.00    -0.355 OA
BRANCH  24  25
HETATM   25  C3  UNL     1      -6.551  19.124  -8.567  1.00  0.00     0.197 C 
BRANCH  25  26
HETATM   26  C2  UNL     1      -5.090  18.951  -8.762  1.00  0.00     0.193 C 
BRANCH  26  27
HETATM   27  O1  UNL     1      -4.462  18.662  -7.575  1.00  0.00    -0.394 OA
HETATM   28  C1  UNL     1      -3.095  18.661  -7.580  1.00  0.00     0.201 C 
ENDBRANCH  26  27
ENDBRANCH  25  26
ENDBRANCH  24  25
ENDBRANCH   1  24
TORSDOF 9
ENDMDL
