MODEL 1
REMARK VINA RESULT: -6.780794998      0.000      0.000
REMARK  9 active torsions:
REMARK  status: ('A' for Active; 'I' for Inactive)
REMARK    1  A    between atoms: O1_2  and  C2_3 
REMARK    2  A    between atoms: C4_5  and  O2_6 
REMARK    3  A    between atoms: C9_13  and  C10_14 
REMARK    4  A    between atoms: C10_14  and  O4_15 
REMARK    5  A    between atoms: O4_15  and  C11_16 
REMARK    6  A    between atoms: C11_16  and  C12_17 
REMARK    7  A    between atoms: C11_16  and  C13_20 
REMARK    8  A    between atoms: C12_17  and  O5_18 
REMARK    9  A    between atoms: C13_20  and  N1_21 
ROOT
HETATM    1  C2  UNL     1      -7.289  22.055  -9.667  1.00  0.00     0.073 A 
HETATM    2  C3  UNL     1      -7.604  20.772  -9.283  1.00  0.00     0.074 A 
HETATM    3  C4  UNL     1      -6.652  19.901  -8.780  1.00  0.00     0.077 A 
HETATM    4  C5  UNL     1      -5.381  20.358  -8.673  1.00  0.00     0.009 A 
HETATM    5  C6  UNL     1      -5.035  21.656  -9.056  1.00  0.00     0.080 A 
HETATM    6  C7  UNL     1      -5.989  22.485  -9.547  1.00  0.00     0.074 A 
HETATM    7  O3  UNL     1      -3.703  22.000  -8.900  1.00  0.00    -0.350 OA
HETATM    8  C8  UNL     1      -2.887  21.554  -7.812  1.00  0.00     0.182 C 
HETATM    9  C9  UNL     1      -3.579  20.458  -7.103  1.00  0.00     0.038 C 
HETATM   10  C18 UNL     1      -4.257  19.544  -8.144  1.00  0.00     0.053 C 
ENDROOT
BRANCH   9  11
HETATM   11  C10 UNL     1      -2.747  19.552  -6.255  1.00  0.00     0.175 C 
BRANCH  11  12
HETATM   12  O4  UNL     1      -1.476  19.805  -6.028  1.00  0.00    -0.382 OA
BRANCH  12  13
HETATM   13  C11 UNL     1      -0.473  18.932  -5.916  1.00  0.00     0.173 C 
BRANCH  13  14
HETATM   14  C12 UNL     1       0.517  18.962  -7.070  1.00  0.00     0.197 C 
BRANCH  14  15
HETATM   15  O5  UNL     1      -0.209  18.891  -8.250  1.00  0.00    -0.398 OA
ATOM     16  H5  UNL     1       0.373  18.567  -8.927  1.00  0.00     0.209 HD
ENDBRANCH  14  15
ENDBRANCH  13  14
BRANCH  13  17
HETATM   17  C13 UNL     1      -1.112  17.549  -5.991  1.00  0.00     0.306 C 
BRANCH  17  18
HETATM   18  N1  UNL     1      -0.570  16.590  -5.098  1.00  0.00     0.095 N 
HETATM   19  C14 UNL     1      -0.239  17.086  -3.779  1.00  0.00     0.298 C 
HETATM   20  C15 UNL     1       0.291  15.881  -3.004  1.00  0.00     0.198 C 
HETATM   21  O6  UNL     1       0.534  14.792  -3.834  1.00  0.00    -0.388 OA
HETATM   22  C16 UNL     1      -0.609  14.283  -4.436  1.00  0.00     0.198 C 
HETATM   23  C17 UNL     1      -1.443  15.450  -4.930  1.00  0.00     0.298 C 
ENDBRANCH  17  18
ENDBRANCH  13  17
ENDBRANCH  12  13
ENDBRANCH  11  12
ENDBRANCH   9  11
BRANCH   3  24
HETATM   24  O2  UNL     1      -7.005  18.633  -8.409  1.00  0.00    -0.360 OA
ATOM     25  H2  UNL     1      -6.829  17.898  -8.985  1.00  0.00     0.217 HD
ENDBRANCH   3  24
BRANCH   1  26
HETATM   26  O1  UNL     1      -8.290  22.909 -10.176  1.00  0.00    -0.356 OA
HETATM   27  C1  UNL     1      -8.928  23.760  -9.245  1.00  0.00     0.210 C 
ENDBRANCH   1  26
TORSDOF 9
ENDMDL
MODEL 2
REMARK VINA RESULT: -6.736582928      1.290      1.461
REMARK  9 active torsions:
REMARK  status: ('A' for Active; 'I' for Inactive)
REMARK    1  A    between atoms: O1_2  and  C2_3 
REMARK    2  A    between atoms: C4_5  and  O2_6 
REMARK    3  A    between atoms: C9_13  and  C10_14 
REMARK    4  A    between atoms: C10_14  and  O4_15 
REMARK    5  A    between atoms: O4_15  and  C11_16 
REMARK    6  A    between atoms: C11_16  and  C12_17 
REMARK    7  A    between atoms: C11_16  and  C13_20 
REMARK    8  A    between atoms: C12_17  and  O5_18 
REMARK    9  A    between atoms: C13_20  and  N1_21 
ROOT
HETATM    1  C2  UNL     1      -7.004  21.841  -8.829  1.00  0.00     0.073 A 
HETATM    2  C3  UNL     1      -7.424  20.534  -8.735  1.00  0.00     0.074 A 
HETATM    3  C4  UNL     1      -6.536  19.487  -8.561  1.00  0.00     0.077 A 
HETATM    4  C5  UNL     1      -5.218  19.791  -8.484  1.00  0.00     0.009 A 
HETATM    5  C6  UNL     1      -4.764  21.109  -8.577  1.00  0.00     0.080 A 
HETATM    6  C7  UNL     1      -5.659  22.113  -8.747  1.00  0.00     0.074 A 
HETATM    7  O3  UNL     1      -3.394  21.287  -8.486  1.00  0.00    -0.350 OA
HETATM    8  C8  UNL     1      -2.544  20.514  -7.632  1.00  0.00     0.182 C 
HETATM    9  C9  UNL     1      -3.292  19.338  -7.139  1.00  0.00     0.038 C 
HETATM   10  C18 UNL     1      -4.149  18.776  -8.291  1.00  0.00     0.053 C 
ENDROOT
BRANCH   9  11
HETATM   11  C10 UNL     1      -2.497  18.181  -6.630  1.00  0.00     0.175 C 
BRANCH  11  12
HETATM   12  O4  UNL     1      -1.397  18.361  -5.931  1.00  0.00    -0.382 OA
BRANCH  12  13
HETATM   13  C11 UNL     1      -0.797  17.499  -5.109  1.00  0.00     0.173 C 
BRANCH  13  14
HETATM   14  C12 UNL     1       0.708  17.390  -5.303  1.00  0.00     0.197 C 
BRANCH  14  15
HETATM   15  O5  UNL     1       0.955  17.364  -6.668  1.00  0.00    -0.398 OA
ATOM     16  H5  UNL     1       1.604  18.031  -6.857  1.00  0.00     0.209 HD
ENDBRANCH  14  15
ENDBRANCH  13  14
BRANCH  13  17
HETATM   17  C13 UNL     1      -1.335  16.122  -5.480  1.00  0.00     0.306 C 
BRANCH  17  18
HETATM   18  N1  UNL     1      -0.676  15.032  -4.856  1.00  0.00     0.095 N 
HETATM   19  C14 UNL     1      -0.783  14.986  -3.413  1.00  0.00     0.298 C 
HETATM   20  C15 UNL     1      -0.030  13.728  -2.982  1.00  0.00     0.198 C 
HETATM   21  O6  UNL     1       0.716  13.184  -4.022  1.00  0.00    -0.388 OA
HETATM   22  C16 UNL     1      -0.055  12.725  -5.081  1.00  0.00     0.198 C 
HETATM   23  C17 UNL     1      -1.128  13.758  -5.368  1.00  0.00     0.298 C 
ENDBRANCH  17  18
ENDBRANCH  13  17
ENDBRANCH  12  13
ENDBRANCH  11  12
ENDBRANCH   9  11
BRANCH   3  24
HETATM   24  O2  UNL     1      -6.994  18.200  -8.472  1.00  0.00    -0.360 OA
ATOM     25  H2  UNL     1      -6.861  17.594  -9.191  1.00  0.00     0.217 HD
ENDBRANCH   3  24
BRANCH   1  26
HETATM   26  O1  UNL     1      -7.943  22.878  -9.006  1.00  0.00    -0.356 OA
HETATM   27  C1  UNL     1      -7.703  23.772 -10.074  1.00  0.00     0.210 C 
ENDBRANCH   1  26
TORSDOF 9
ENDMDL
MODEL 3
REMARK VINA RESULT: -6.733074339      1.418      2.327
REMARK  9 active torsions:
REMARK  status: ('A' for Active; 'I' for Inactive)
REMARK    1  A    between atoms: O1_2  and  C2_3 
REMARK    2  A    between atoms: C4_5  and  O2_6 
REMARK    3  A    between atoms: C9_13  and  C10_14 
REMARK    4  A    between atoms: C10_14  and  O4_15 
REMARK    5  A    between atoms: O4_15  and  C11_16 
REMARK    6  A    between atoms: C11_16  and  C12_17 
REMARK    7  A    between atoms: C11_16  and  C13_20 
REMARK    8  A    between atoms: C12_17  and  O5_18 
REMARK    9  A    between atoms: C13_20  and  N1_21 
ROOT
HETATM    1  C2  UNL     1      -6.376  21.958  -9.611  1.00  0.00     0.073 A 
HETATM    2  C3  UNL     1      -5.491  22.919  -9.179  1.00  0.00     0.074 A 
HETATM    3  C4  UNL     1      -4.442  22.620  -8.326  1.00  0.00     0.077 A 
HETATM    4  C5  UNL     1      -4.309  21.333  -7.925  1.00  0.00     0.009 A 
HETATM    5  C6  UNL     1      -5.194  20.339  -8.348  1.00  0.00     0.080 A 
HETATM    6  C7  UNL     1      -6.212  20.662  -9.182  1.00  0.00     0.074 A 
HETATM    7  O3  UNL     1      -4.951  19.065  -7.864  1.00  0.00    -0.350 OA
HETATM    8  C8  UNL     1      -3.642  18.527  -7.656  1.00  0.00     0.182 C 
HETATM    9  C9  UNL     1      -2.650  19.621  -7.728  1.00  0.00     0.038 C 
HETATM   10  C18 UNL     1      -3.229  20.862  -7.019  1.00  0.00     0.053 C 
ENDROOT
BRANCH   9  11
HETATM   11  C10 UNL     1      -1.317  19.385  -7.097  1.00  0.00     0.175 C 
BRANCH  11  12
HETATM   12  O4  UNL     1      -0.919  18.173  -6.773  1.00  0.00    -0.382 OA
BRANCH  12  13
HETATM   13  C11 UNL     1      -0.629  17.702  -5.559  1.00  0.00     0.173 C 
BRANCH  13  14
HETATM   14  C12 UNL     1       0.814  17.253  -5.387  1.00  0.00     0.197 C 
BRANCH  14  15
HETATM   15  O5  UNL     1       1.378  17.157  -6.651  1.00  0.00    -0.398 OA
ATOM     16  H5  UNL     1       1.852  17.963  -6.817  1.00  0.00     0.209 HD
ENDBRANCH  14  15
ENDBRANCH  13  14
BRANCH  13  17
HETATM   17  C13 UNL     1      -1.453  16.429  -5.397  1.00  0.00     0.306 C 
BRANCH  17  18
HETATM   18  N1  UNL     1      -0.778  15.356  -4.761  1.00  0.00     0.095 N 
HETATM   19  C14 UNL     1      -0.930  15.291  -3.322  1.00  0.00     0.298 C 
HETATM   20  C15 UNL     1      -0.150  14.056  -2.878  1.00  0.00     0.198 C 
HETATM   21  O6  UNL     1       0.649  13.548  -3.897  1.00  0.00    -0.388 OA
HETATM   22  C16 UNL     1      -0.071  13.074  -4.986  1.00  0.00     0.198 C 
HETATM   23  C17 UNL     1      -1.168  14.072  -5.299  1.00  0.00     0.298 C 
ENDBRANCH  17  18
ENDBRANCH  13  17
ENDBRANCH  12  13
ENDBRANCH  11  12
ENDBRANCH   9  11
BRANCH   3  24
HETATM   24  O2  UNL     1      -3.582  23.604  -7.919  1.00  0.00    -0.360 OA
ATOM     25  H2  UNL     1      -2.680  23.605  -8.216  1.00  0.00     0.217 HD
ENDBRANCH   3  24
BRANCH   1  26
HETATM   26  O1  UNL     1      -7.432  22.305 -10.479  1.00  0.00    -0.356 OA
HETATM   27  C1  UNL     1      -8.496  23.046  -9.916  1.00  0.00     0.210 C 
ENDBRANCH   1  26
TORSDOF 9
ENDMDL
MODEL 4
REMARK VINA RESULT: -6.731123160      2.808      8.435
REMARK  9 active torsions:
REMARK  status: ('A' for Active; 'I' for Inactive)
REMARK    1  A    between atoms: O1_2  and  C2_3 
REMARK    2  A    between atoms: C4_5  and  O2_6 
REMARK    3  A    between atoms: C9_13  and  C10_14 
REMARK    4  A    between atoms: C10_14  and  O4_15 
REMARK    5  A    between atoms: O4_15  and  C11_16 
REMARK    6  A    between atoms: C11_16  and  C12_17 
REMARK    7  A    between atoms: C11_16  and  C13_20 
REMARK    8  A    between atoms: C12_17  and  O5_18 
REMARK    9  A    between atoms: C13_20  and  N1_21 
ROOT
HETATM    1  C2  UNL     1       2.515  20.934  -6.590  1.00  0.00     0.073 A 
HETATM    2  C3  UNL     1       2.579  19.584  -6.848  1.00  0.00     0.074 A 
HETATM    3  C4  UNL     1       1.461  18.770  -6.785  1.00  0.00     0.077 A 
HETATM    4  C5  UNL     1       0.282  19.352  -6.458  1.00  0.00     0.009 A 
HETATM    5  C6  UNL     1       0.188  20.719  -6.191  1.00  0.00     0.080 A 
HETATM    6  C7  UNL     1       1.302  21.490  -6.260  1.00  0.00     0.074 A 
HETATM    7  O3  UNL     1      -1.072  21.190  -5.865  1.00  0.00    -0.350 OA
HETATM    8  C8  UNL     1      -2.282  20.702  -6.454  1.00  0.00     0.182 C 
HETATM    9  C9  UNL     1      -1.995  19.450  -7.185  1.00  0.00     0.038 C 
HETATM   10  C18 UNL     1      -1.002  18.609  -6.359  1.00  0.00     0.053 C 
ENDROOT
BRANCH   9  11
HETATM   11  C10 UNL     1      -3.145  18.542  -7.474  1.00  0.00     0.175 C 
BRANCH  11  12
HETATM   12  O4  UNL     1      -4.018  18.824  -8.418  1.00  0.00    -0.382 OA
BRANCH  12  13
HETATM   13  C11 UNL     1      -5.271  19.260  -8.273  1.00  0.00     0.173 C 
BRANCH  13  14
HETATM   14  C12 UNL     1      -6.291  18.540  -9.142  1.00  0.00     0.197 C 
BRANCH  14  15
HETATM   15  O5  UNL     1      -7.328  18.126  -8.318  1.00  0.00    -0.398 OA
ATOM     16  H5  UNL     1      -7.956  17.660  -8.858  1.00  0.00     0.209 HD
ENDBRANCH  14  15
ENDBRANCH  13  14
BRANCH  13  17
HETATM   17  C13 UNL     1      -5.275  20.697  -8.782  1.00  0.00     0.306 C 
BRANCH  17  18
HETATM   18  N1  UNL     1      -6.531  21.353  -8.715  1.00  0.00     0.095 N 
HETATM   19  C14 UNL     1      -6.806  22.042  -7.471  1.00  0.00     0.298 C 
HETATM   20  C15 UNL     1      -8.181  22.684  -7.649  1.00  0.00     0.198 C 
HETATM   21  O6  UNL     1      -8.833  22.216  -8.786  1.00  0.00    -0.388 OA
HETATM   22  C16 UNL     1      -8.192  22.545  -9.972  1.00  0.00     0.198 C 
HETATM   23  C17 UNL     1      -6.705  22.305  -9.789  1.00  0.00     0.298 C 
ENDBRANCH  17  18
ENDBRANCH  13  17
ENDBRANCH  12  13
ENDBRANCH  11  12
ENDBRANCH   9  11
BRANCH   3  24
HETATM   24  O2  UNL     1       1.566  17.432  -7.049  1.00  0.00    -0.360 OA
ATOM     25  H2  UNL     1       1.528  16.799  -6.341  1.00  0.00     0.217 HD
ENDBRANCH   3  24
BRANCH   1  26
HETATM   26  O1  UNL     1       3.678  21.728  -6.665  1.00  0.00    -0.356 OA
HETATM   27  C1  UNL     1       4.374  21.714  -7.896  1.00  0.00     0.210 C 
ENDBRANCH   1  26
TORSDOF 9
ENDMDL
MODEL 5
REMARK VINA RESULT: -6.694019292      2.646      8.634
REMARK  9 active torsions:
REMARK  status: ('A' for Active; 'I' for Inactive)
REMARK    1  A    between atoms: O1_2  and  C2_3 
REMARK    2  A    between atoms: C4_5  and  O2_6 
REMARK    3  A    between atoms: C9_13  and  C10_14 
REMARK    4  A    between atoms: C10_14  and  O4_15 
REMARK    5  A    between atoms: O4_15  and  C11_16 
REMARK    6  A    between atoms: C11_16  and  C12_17 
REMARK    7  A    between atoms: C11_16  and  C13_20 
REMARK    8  A    between atoms: C12_17  and  O5_18 
REMARK    9  A    between atoms: C13_20  and  N1_21 
ROOT
HETATM    1  C2  UNL     1       2.202  19.612  -5.911  1.00  0.00     0.073 A 
HETATM    2  C3  UNL     1       1.911  18.267  -5.907  1.00  0.00     0.074 A 
HETATM    3  C4  UNL     1       0.611  17.797  -5.980  1.00  0.00     0.077 A 
HETATM    4  C5  UNL     1      -0.383  18.715  -6.058  1.00  0.00     0.009 A 
HETATM    5  C6  UNL     1      -0.115  20.086  -6.064  1.00  0.00     0.080 A 
HETATM    6  C7  UNL     1       1.169  20.516  -5.990  1.00  0.00     0.074 A 
HETATM    7  O3  UNL     1      -1.217  20.919  -6.144  1.00  0.00    -0.350 OA
HETATM    8  C8  UNL     1      -2.384  20.626  -6.918  1.00  0.00     0.182 C 
HETATM    9  C9  UNL     1      -2.350  19.206  -7.328  1.00  0.00     0.038 C 
HETATM   10  C18 UNL     1      -1.823  18.362  -6.151  1.00  0.00     0.053 C 
ENDROOT
BRANCH   9  11
HETATM   11  C10 UNL     1      -3.642  18.573  -7.729  1.00  0.00     0.175 C 
BRANCH  11  12
HETATM   12  O4  UNL     1      -4.356  19.049  -8.727  1.00  0.00    -0.382 OA
BRANCH  12  13
HETATM   13  C11 UNL     1      -5.613  19.494  -8.696  1.00  0.00     0.173 C 
BRANCH  13  14
HETATM   14  C12 UNL     1      -6.503  18.938  -9.797  1.00  0.00     0.197 C 
BRANCH  14  15
HETATM   15  O5  UNL     1      -6.760  17.608  -9.498  1.00  0.00    -0.398 OA
ATOM     16  H5  UNL     1      -7.204  17.224 -10.246  1.00  0.00     0.209 HD
ENDBRANCH  14  15
ENDBRANCH  13  14
BRANCH  13  17
HETATM   17  C13 UNL     1      -5.534  20.990  -8.983  1.00  0.00     0.306 C 
BRANCH  17  18
HETATM   18  N1  UNL     1      -6.769  21.682  -8.897  1.00  0.00     0.095 N 
HETATM   19  C14 UNL     1      -7.123  22.160  -7.577  1.00  0.00     0.298 C 
HETATM   20  C15 UNL     1      -8.457  22.886  -7.743  1.00  0.00     0.198 C 
HETATM   21  O6  UNL     1      -9.028  22.650  -8.989  1.00  0.00    -0.388 OA
HETATM   22  C16 UNL     1      -8.282  23.148 -10.048  1.00  0.00     0.198 C 
HETATM   23  C17 UNL     1      -6.824  22.811  -9.799  1.00  0.00     0.298 C 
ENDBRANCH  17  18
ENDBRANCH  13  17
ENDBRANCH  12  13
ENDBRANCH  11  12
ENDBRANCH   9  11
BRANCH   3  24
HETATM   24  O2  UNL     1       0.362  16.452  -5.974  1.00  0.00    -0.360 OA
ATOM     25  H2  UNL     1      -0.531  16.129  -6.004  1.00  0.00     0.217 HD
ENDBRANCH   3  24
BRANCH   1  26
HETATM   26  O1  UNL     1       3.541  20.049  -5.834  1.00  0.00    -0.356 OA
HETATM   27  C1  UNL     1       4.529  19.138  -6.276  1.00  0.00     0.210 C 
ENDBRANCH   1  26
TORSDOF 9
ENDMDL
