MODEL 1
REMARK VINA RESULT: -6.557464398      0.000      0.000
REMARK  8 active torsions:
REMARK  status: ('A' for Active; 'I' for Inactive)
REMARK    1  A    between atoms: C2_3  and  C3_4 
REMARK    2  A    between atoms: C3_4  and  S1_5 
REMARK    3  A    between atoms: S1_5  and  C4_6 
REMARK    4  A    between atoms: C5_9  and  N3_10 
REMARK    5  A    between atoms: N3_10  and  C6_12 
REMARK    6  A    between atoms: C6_12  and  C7_13 
REMARK    7  A    between atoms: C7_13  and  C8_14 
REMARK    8  A    between atoms: C8_14  and  N4_15 
ROOT
HETATM    1  N1  UNL     1       2.323  17.828  -8.487  1.00  0.00    -0.197 NA
HETATM    2  C1  UNL     1       2.102  18.447  -7.526  1.00  0.00     0.059 C 
HETATM    3  C2  UNL     1       1.801  19.234  -6.328  1.00  0.00     0.134 C 
ENDROOT
BRANCH   3   4
HETATM    4  C3  UNL     1       0.447  19.898  -6.472  1.00  0.00     0.096 C 
BRANCH   4   5
HETATM    5  S1  UNL     1      -0.910  18.713  -6.415  1.00  0.00    -0.093 SA
BRANCH   5   6
HETATM    6  C4  UNL     1      -2.384  19.374  -7.181  1.00  0.00     0.147 A 
HETATM    7  N2  UNL     1      -2.555  20.685  -7.387  1.00  0.00    -0.321 N 
HETATM    8  C5  UNL     1      -3.682  21.203  -7.978  1.00  0.00     0.138 A 
ATOM      9  H2  UNL     1      -1.819  21.326  -7.093  1.00  0.00     0.169 HD
HETATM   10  C13 UNL     1      -4.637  20.292  -8.353  1.00  0.00     0.122 A 
HETATM   11  N5  UNL     1      -5.832  20.410  -8.941  1.00  0.00    -0.346 N 
HETATM   12  C15 UNL     1      -4.437  18.927  -8.128  1.00  0.00     0.139 A 
HETATM   13  C14 UNL     1      -6.403  19.185  -9.101  1.00  0.00     0.182 A 
ATOM     14  H5  UNL     1      -6.255  21.292  -9.229  1.00  0.00     0.167 HD
HETATM   15  N6  UNL     1      -5.542  18.302  -8.603  1.00  0.00    -0.337 N 
ATOM     16  H6  UNL     1      -5.692  17.294  -8.582  1.00  0.00     0.168 HD
HETATM   17  N7  UNL     1      -3.316  18.465  -7.545  1.00  0.00    -0.321 N 
ATOM     18  H7  UNL     1      -3.175  17.468  -7.383  1.00  0.00     0.169 HD
BRANCH   8  19
HETATM   19  N3  UNL     1      -3.743  22.415  -8.122  1.00  0.00    -0.354 N 
ATOM     20  H3  UNL     1      -3.746  22.637  -9.117  1.00  0.00     0.166 HD
BRANCH  19  21
HETATM   21  C6  UNL     1      -3.811  23.600  -7.380  1.00  0.00     0.068 C 
BRANCH  21  22
HETATM   22  C7  UNL     1      -5.093  24.356  -7.500  1.00  0.00     0.088 C 
BRANCH  22  23
HETATM   23  C8  UNL     1      -6.353  23.600  -7.217  1.00  0.00     0.063 C 
BRANCH  23  24
HETATM   24  N4  UNL     1      -7.488  23.831  -7.993  1.00  0.00    -0.389 N 
HETATM   25  C9  UNL     1      -7.408  24.453  -9.255  1.00  0.00     0.148 C 
HETATM   26  C10 UNL     1      -8.129  23.640 -10.334  1.00  0.00     0.187 C 
HETATM   27  O1  UNL     1      -8.037  22.268 -10.009  1.00  0.00    -0.388 OA
HETATM   28  C11 UNL     1      -8.892  22.033  -8.963  1.00  0.00     0.187 C 
HETATM   29  C12 UNL     1      -8.612  22.952  -7.825  1.00  0.00     0.148 C 
ENDBRANCH  23  24
ENDBRANCH  22  23
ENDBRANCH  21  22
ENDBRANCH  19  21
ENDBRANCH   8  19
ENDBRANCH   5   6
ENDBRANCH   4   5
ENDBRANCH   3   4
TORSDOF 8
ENDMDL
MODEL 2
REMARK VINA RESULT: -6.507544526      4.874      9.558
REMARK  8 active torsions:
REMARK  status: ('A' for Active; 'I' for Inactive)
REMARK    1  A    between atoms: C2_3  and  C3_4 
REMARK    2  A    between atoms: C3_4  and  S1_5 
REMARK    3  A    between atoms: S1_5  and  C4_6 
REMARK    4  A    between atoms: C5_9  and  N3_10 
REMARK    5  A    between atoms: N3_10  and  C6_12 
REMARK    6  A    between atoms: C6_12  and  C7_13 
REMARK    7  A    between atoms: C7_13  and  C8_14 
REMARK    8  A    between atoms: C8_14  and  N4_15 
ROOT
HETATM    1  N1  UNL     1      -6.591  19.329 -11.103  1.00  0.00    -0.197 NA
HETATM    2  C1  UNL     1      -6.397  19.192  -9.964  1.00  0.00     0.059 C 
HETATM    3  C2  UNL     1      -6.129  19.012  -8.535  1.00  0.00     0.134 C 
ENDROOT
BRANCH   3   4
HETATM    4  C3  UNL     1      -4.696  18.568  -8.329  1.00  0.00     0.096 C 
BRANCH   4   5
HETATM    5  S1  UNL     1      -3.763  19.711  -7.295  1.00  0.00    -0.093 SA
BRANCH   5   6
HETATM    6  C4  UNL     1      -2.168  19.035  -6.853  1.00  0.00     0.147 A 
HETATM    7  N2  UNL     1      -2.042  17.928  -6.111  1.00  0.00    -0.321 N 
HETATM    8  C5  UNL     1      -0.821  17.398  -5.769  1.00  0.00     0.138 A 
ATOM      9  H2  UNL     1      -2.887  17.459  -5.787  1.00  0.00     0.169 HD
HETATM   10  C13 UNL     1       0.279  18.073  -6.235  1.00  0.00     0.122 A 
HETATM   11  N5  UNL     1       1.595  17.869  -6.114  1.00  0.00    -0.346 N 
HETATM   12  C15 UNL     1       0.124  19.227  -7.007  1.00  0.00     0.139 A 
HETATM   13  C14 UNL     1       2.286  18.839  -6.773  1.00  0.00     0.182 A 
ATOM     14  H5  UNL     1       2.020  17.097  -5.602  1.00  0.00     0.167 HD
HETATM   15  N6  UNL     1       1.376  19.650  -7.307  1.00  0.00    -0.337 N 
ATOM     16  H6  UNL     1       1.592  20.476  -7.865  1.00  0.00     0.168 HD
HETATM   17  N7  UNL     1      -1.093  19.710  -7.318  1.00  0.00    -0.321 N 
ATOM     18  H7  UNL     1      -1.200  20.553  -7.882  1.00  0.00     0.169 HD
BRANCH   8  19
HETATM   19  N3  UNL     1      -0.812  16.384  -5.088  1.00  0.00    -0.354 N 
ATOM     20  H3  UNL     1      -0.045  16.433  -4.418  1.00  0.00     0.166 HD
BRANCH  19  21
HETATM   21  C6  UNL     1      -1.500  15.176  -4.919  1.00  0.00     0.068 C 
BRANCH  21  22
HETATM   22  C7  UNL     1      -0.646  13.951  -4.905  1.00  0.00     0.088 C 
BRANCH  22  23
HETATM   23  C8  UNL     1      -0.600  13.173  -3.628  1.00  0.00     0.063 C 
BRANCH  23  24
HETATM   24  N4  UNL     1       0.177  13.632  -2.566  1.00  0.00    -0.389 N 
HETATM   25  C9  UNL     1       1.556  13.881  -2.710  1.00  0.00     0.148 C 
HETATM   26  C10 UNL     1       1.935  15.278  -2.210  1.00  0.00     0.187 C 
HETATM   27  O1  UNL     1       0.844  16.150  -2.423  1.00  0.00    -0.388 OA
HETATM   28  C11 UNL     1      -0.116  15.846  -1.492  1.00  0.00     0.187 C 
HETATM   29  C12 UNL     1      -0.470  14.401  -1.538  1.00  0.00     0.148 C 
ENDBRANCH  23  24
ENDBRANCH  22  23
ENDBRANCH  21  22
ENDBRANCH  19  21
ENDBRANCH   8  19
ENDBRANCH   5   6
ENDBRANCH   4   5
ENDBRANCH   3   4
TORSDOF 8
ENDMDL
MODEL 3
REMARK VINA RESULT: -6.478299260      3.035      4.289
REMARK  8 active torsions:
REMARK  status: ('A' for Active; 'I' for Inactive)
REMARK    1  A    between atoms: C2_3  and  C3_4 
REMARK    2  A    between atoms: C3_4  and  S1_5 
REMARK    3  A    between atoms: S1_5  and  C4_6 
REMARK    4  A    between atoms: C5_9  and  N3_10 
REMARK    5  A    between atoms: N3_10  and  C6_12 
REMARK    6  A    between atoms: C6_12  and  C7_13 
REMARK    7  A    between atoms: C7_13  and  C8_14 
REMARK    8  A    between atoms: C8_14  and  N4_15 
ROOT
HETATM    1  N1  UNL     1      -0.700  12.213  -3.619  1.00  0.00    -0.197 NA
HETATM    2  C1  UNL     1      -0.846  13.018  -4.447  1.00  0.00     0.059 C 
HETATM    3  C2  UNL     1      -1.040  14.047  -5.471  1.00  0.00     0.134 C 
ENDROOT
BRANCH   3   4
HETATM    4  C3  UNL     1      -1.573  15.314  -4.836  1.00  0.00     0.096 C 
BRANCH   4   5
HETATM    5  S1  UNL     1      -0.485  16.727  -5.101  1.00  0.00    -0.093 SA
BRANCH   5   6
HETATM    6  C4  UNL     1      -1.345  18.068  -5.911  1.00  0.00     0.147 A 
HETATM    7  N2  UNL     1      -2.385  17.860  -6.727  1.00  0.00    -0.321 N 
HETATM    8  C5  UNL     1      -3.056  18.884  -7.352  1.00  0.00     0.138 A 
ATOM      9  H2  UNL     1      -2.693  16.902  -6.892  1.00  0.00     0.169 HD
HETATM   10  C13 UNL     1      -2.597  20.150  -7.092  1.00  0.00     0.122 A 
HETATM   11  N5  UNL     1      -2.980  21.364  -7.501  1.00  0.00    -0.346 N 
HETATM   12  C15 UNL     1      -1.508  20.344  -6.236  1.00  0.00     0.139 A 
HETATM   13  C14 UNL     1      -2.188  22.322  -6.947  1.00  0.00     0.182 A 
ATOM     14  H5  UNL     1      -3.757  21.545  -8.137  1.00  0.00     0.167 HD
HETATM   15  N6  UNL     1      -1.305  21.683  -6.185  1.00  0.00    -0.337 N 
ATOM     16  H6  UNL     1      -0.575  22.139  -5.638  1.00  0.00     0.168 HD
HETATM   17  N7  UNL     1      -0.882  19.310  -5.646  1.00  0.00    -0.321 N 
ATOM     18  H7  UNL     1      -0.089  19.457  -5.023  1.00  0.00     0.169 HD
BRANCH   8  19
HETATM   19  N3  UNL     1      -3.994  18.590  -8.078  1.00  0.00    -0.354 N 
ATOM     20  H3  UNL     1      -3.714  17.833  -8.702  1.00  0.00     0.166 HD
BRANCH  19  21
HETATM   21  C6  UNL     1      -5.323  18.943  -8.342  1.00  0.00     0.068 C 
BRANCH  21  22
HETATM   22  C7  UNL     1      -5.540  19.715  -9.601  1.00  0.00     0.088 C 
BRANCH  22  23
HETATM   23  C8  UNL     1      -6.934  20.186  -9.874  1.00  0.00     0.063 C 
BRANCH  23  24
HETATM   24  N4  UNL     1      -7.274  21.516  -9.635  1.00  0.00    -0.389 N 
HETATM   25  C9  UNL     1      -8.570  21.887  -9.226  1.00  0.00     0.148 C 
HETATM   26  C10 UNL     1      -8.539  22.773  -7.978  1.00  0.00     0.187 C 
HETATM   27  O1  UNL     1      -7.426  22.410  -7.188  1.00  0.00    -0.388 OA
HETATM   28  C11 UNL     1      -6.303  22.887  -7.812  1.00  0.00     0.187 C 
HETATM   29  C12 UNL     1      -6.232  22.417  -9.223  1.00  0.00     0.148 C 
ENDBRANCH  23  24
ENDBRANCH  22  23
ENDBRANCH  21  22
ENDBRANCH  19  21
ENDBRANCH   8  19
ENDBRANCH   5   6
ENDBRANCH   4   5
ENDBRANCH   3   4
TORSDOF 8
ENDMDL
MODEL 4
REMARK VINA RESULT: -6.467177687      2.943      4.183
REMARK  8 active torsions:
REMARK  status: ('A' for Active; 'I' for Inactive)
REMARK    1  A    between atoms: C2_3  and  C3_4 
REMARK    2  A    between atoms: C3_4  and  S1_5 
REMARK    3  A    between atoms: S1_5  and  C4_6 
REMARK    4  A    between atoms: C5_9  and  N3_10 
REMARK    5  A    between atoms: N3_10  and  C6_12 
REMARK    6  A    between atoms: C6_12  and  C7_13 
REMARK    7  A    between atoms: C7_13  and  C8_14 
REMARK    8  A    between atoms: C8_14  and  N4_15 
ROOT
HETATM    1  N1  UNL     1      -1.046  12.418  -3.459  1.00  0.00    -0.197 NA
HETATM    2  C1  UNL     1      -1.036  13.186  -4.333  1.00  0.00     0.059 C 
HETATM    3  C2  UNL     1      -1.034  14.170  -5.418  1.00  0.00     0.134 C 
ENDROOT
BRANCH   3   4
HETATM    4  C3  UNL     1      -1.554  15.499  -4.912  1.00  0.00     0.096 C 
BRANCH   4   5
HETATM    5  S1  UNL     1      -0.467  16.872  -5.339  1.00  0.00    -0.093 SA
BRANCH   5   6
HETATM    6  C4  UNL     1      -1.381  18.222  -6.072  1.00  0.00     0.147 A 
HETATM    7  N2  UNL     1      -2.491  18.025  -6.793  1.00  0.00    -0.321 N 
HETATM    8  C5  UNL     1      -3.203  19.056  -7.357  1.00  0.00     0.138 A 
ATOM      9  H2  UNL     1      -2.823  17.071  -6.929  1.00  0.00     0.169 HD
HETATM   10  C13 UNL     1      -2.710  20.318  -7.139  1.00  0.00     0.122 A 
HETATM   11  N5  UNL     1      -3.115  21.535  -7.514  1.00  0.00    -0.346 N 
HETATM   12  C15 UNL     1      -1.548  20.500  -6.384  1.00  0.00     0.139 A 
HETATM   13  C14 UNL     1      -2.267  22.485  -7.034  1.00  0.00     0.182 A 
ATOM     14  H5  UNL     1      -3.943  21.725  -8.080  1.00  0.00     0.167 HD
HETATM   15  N6  UNL     1      -1.327  21.837  -6.352  1.00  0.00    -0.337 N 
ATOM     16  H6  UNL     1      -0.546  22.284  -5.872  1.00  0.00     0.168 HD
HETATM   17  N7  UNL     1      -0.883  19.459  -5.850  1.00  0.00    -0.321 N 
ATOM     18  H7  UNL     1      -0.036  19.598  -5.299  1.00  0.00     0.169 HD
BRANCH   8  19
HETATM   19  N3  UNL     1      -4.205  18.773  -7.997  1.00  0.00    -0.354 N 
ATOM     20  H3  UNL     1      -3.958  18.114  -8.736  1.00  0.00     0.166 HD
BRANCH  19  21
HETATM   21  C6  UNL     1      -5.576  19.048  -8.059  1.00  0.00     0.068 C 
BRANCH  21  22
HETATM   22  C7  UNL     1      -6.194  18.913  -9.411  1.00  0.00     0.088 C 
BRANCH  22  23
HETATM   23  C8  UNL     1      -6.572  20.180 -10.112  1.00  0.00     0.063 C 
BRANCH  23  24
HETATM   24  N4  UNL     1      -6.654  21.371  -9.392  1.00  0.00    -0.389 N 
HETATM   25  C9  UNL     1      -5.717  22.408  -9.569  1.00  0.00     0.148 C 
HETATM   26  C10 UNL     1      -6.402  23.752  -9.832  1.00  0.00     0.187 C 
HETATM   27  O1  UNL     1      -7.614  23.519 -10.520  1.00  0.00    -0.388 OA
HETATM   28  C11 UNL     1      -8.507  23.001  -9.619  1.00  0.00     0.187 C 
HETATM   29  C12 UNL     1      -7.949  21.799  -8.939  1.00  0.00     0.148 C 
ENDBRANCH  23  24
ENDBRANCH  22  23
ENDBRANCH  21  22
ENDBRANCH  19  21
ENDBRANCH   8  19
ENDBRANCH   5   6
ENDBRANCH   4   5
ENDBRANCH   3   4
TORSDOF 8
ENDMDL
MODEL 5
REMARK VINA RESULT: -6.402800576      3.341      5.116
REMARK  8 active torsions:
REMARK  status: ('A' for Active; 'I' for Inactive)
REMARK    1  A    between atoms: C2_3  and  C3_4 
REMARK    2  A    between atoms: C3_4  and  S1_5 
REMARK    3  A    between atoms: S1_5  and  C4_6 
REMARK    4  A    between atoms: C5_9  and  N3_10 
REMARK    5  A    between atoms: N3_10  and  C6_12 
REMARK    6  A    between atoms: C6_12  and  C7_13 
REMARK    7  A    between atoms: C7_13  and  C8_14 
REMARK    8  A    between atoms: C8_14  and  N4_15 
ROOT
HETATM    1  N1  UNL     1       0.465  11.194  -4.717  1.00  0.00    -0.197 NA
HETATM    2  C1  UNL     1      -0.231  12.127  -4.731  1.00  0.00     0.059 C 
HETATM    3  C2  UNL     1      -1.089  13.314  -4.733  1.00  0.00     0.134 C 
ENDROOT
BRANCH   3   4
HETATM    4  C3  UNL     1      -0.386  14.462  -4.039  1.00  0.00     0.096 C 
BRANCH   4   5
HETATM    5  S1  UNL     1      -1.375  15.969  -4.026  1.00  0.00    -0.093 SA
BRANCH   5   6
HETATM    6  C4  UNL     1      -0.796  17.138  -5.248  1.00  0.00     0.147 A 
HETATM    7  N2  UNL     1      -1.636  17.869  -5.991  1.00  0.00    -0.321 N 
HETATM    8  C5  UNL     1      -1.201  18.773  -6.929  1.00  0.00     0.138 A 
ATOM      9  H2  UNL     1      -2.639  17.751  -5.854  1.00  0.00     0.169 HD
HETATM   10  C13 UNL     1       0.159  18.890  -7.068  1.00  0.00     0.122 A 
HETATM   11  N5  UNL     1       0.936  19.643  -7.853  1.00  0.00    -0.346 N 
HETATM   12  C15 UNL     1       1.016  18.116  -6.282  1.00  0.00     0.139 A 
HETATM   13  C14 UNL     1       2.250  19.385  -7.605  1.00  0.00     0.182 A 
ATOM     14  H5  UNL     1       0.594  20.315  -8.540  1.00  0.00     0.167 HD
HETATM   15  N6  UNL     1       2.275  18.459  -6.650  1.00  0.00    -0.337 N 
ATOM     16  H6  UNL     1       3.125  18.062  -6.250  1.00  0.00     0.168 HD
HETATM   17  N7  UNL     1       0.545  17.243  -5.374  1.00  0.00    -0.321 N 
ATOM     18  H7  UNL     1       1.176  16.680  -4.802  1.00  0.00     0.169 HD
BRANCH   8  19
HETATM   19  N3  UNL     1      -2.047  19.393  -7.557  1.00  0.00    -0.354 N 
ATOM     20  H3  UNL     1      -1.702  19.578  -8.499  1.00  0.00     0.166 HD
BRANCH  19  21
HETATM   21  C6  UNL     1      -3.331  19.934  -7.419  1.00  0.00     0.068 C 
BRANCH  21  22
HETATM   22  C7  UNL     1      -4.443  19.081  -7.933  1.00  0.00     0.088 C 
BRANCH  22  23
HETATM   23  C8  UNL     1      -5.816  19.674  -7.913  1.00  0.00     0.063 C 
BRANCH  23  24
HETATM   24  N4  UNL     1      -6.101  20.788  -8.702  1.00  0.00    -0.389 N 
HETATM   25  C9  UNL     1      -6.559  20.658 -10.028  1.00  0.00     0.148 C 
HETATM   26  C10 UNL     1      -7.829  21.479 -10.272  1.00  0.00     0.187 C 
HETATM   27  O1  UNL     1      -8.574  21.534  -9.072  1.00  0.00    -0.388 OA
HETATM   28  C11 UNL     1      -7.927  22.393  -8.223  1.00  0.00     0.187 C 
HETATM   29  C12 UNL     1      -6.502  22.000  -8.042  1.00  0.00     0.148 C 
ENDBRANCH  23  24
ENDBRANCH  22  23
ENDBRANCH  21  22
ENDBRANCH  19  21
ENDBRANCH   8  19
ENDBRANCH   5   6
ENDBRANCH   4   5
ENDBRANCH   3   4
TORSDOF 8
ENDMDL
