MODEL 1
REMARK VINA RESULT: -6.858478091      0.000      0.000
REMARK  8 active torsions:
REMARK  status: ('A' for Active; 'I' for Inactive)
REMARK    1  A    between atoms: O1_2  and  C2_3 
REMARK    2  A    between atoms: C2_3  and  C3_4 
REMARK    3  A    between atoms: C3_4  and  O2_5 
REMARK    4  A    between atoms: C3_4  and  C4_7 
REMARK    5  A    between atoms: C4_7  and  O3_8 
REMARK    6  A    between atoms: O3_8  and  C5_9 
REMARK    7  A    between atoms: C9_13  and  O4_14 
REMARK    8  A    between atoms: C11_16  and  O5_17 
ROOT
HETATM    1  C5  UNL     1      -3.054  19.891  -6.885  1.00  0.00     0.105 A 
HETATM    2  C6  UNL     1      -3.924  19.176  -7.668  1.00  0.00     0.049 A 
HETATM    3  C7  UNL     1      -4.875  19.841  -8.438  1.00  0.00    -0.026 A 
HETATM    4  C8  UNL     1      -4.968  21.237  -8.437  1.00  0.00     0.075 A 
HETATM    5  C9  UNL     1      -4.108  21.951  -7.659  1.00  0.00     0.131 A 
HETATM    6  C11 UNL     1      -3.173  21.302  -6.902  1.00  0.00     0.137 A 
HETATM    7  N1  UNL     1      -5.916  21.879  -9.282  1.00  0.00    -0.349 N 
HETATM    8  C13 UNL     1      -5.970  23.104  -9.960  1.00  0.00     0.153 C 
HETATM    9  C14 UNL     1      -7.452  23.129 -10.410  1.00  0.00     0.254 C 
HETATM   10  N2  UNL     1      -7.809  21.763 -10.610  1.00  0.00    -0.053 N 
ATOM     11  H21 UNL     1      -7.611  21.411 -11.547  1.00  0.00     0.279 HD
ATOM     12  H22 UNL     1      -8.814  21.593 -10.638  1.00  0.00     0.279 HD
HETATM   13  C15 UNL     1      -7.121  21.064  -9.560  1.00  0.00     0.287 C 
HETATM   14  C16 UNL     1      -6.647  19.731 -10.153  1.00  0.00     0.059 C 
HETATM   15  C17 UNL     1      -5.778  18.991  -9.224  1.00  0.00     0.044 C 
ENDROOT
BRANCH   1  16
HETATM   16  O3  UNL     1      -2.101  19.323  -6.115  1.00  0.00    -0.346 OA
BRANCH  16  17
HETATM   17  C4  UNL     1      -0.931  18.703  -6.145  1.00  0.00     0.209 C 
BRANCH  17  18
HETATM   18  C3  UNL     1       0.125  19.046  -7.135  1.00  0.00     0.166 C 
BRANCH  18  19
HETATM   19  C2  UNL     1       1.382  18.270  -6.688  1.00  0.00     0.200 C 
BRANCH  19  20
HETATM   20  O1  UNL     1       2.082  17.868  -7.830  1.00  0.00    -0.393 OA
HETATM   21  C1  UNL     1       3.094  18.804  -8.043  1.00  0.00     0.201 C 
ENDBRANCH  19  20
ENDBRANCH  18  19
BRANCH  18  22
HETATM   22  O2  UNL     1      -0.077  18.762  -8.442  1.00  0.00    -0.391 OA
ATOM     23  H2  UNL     1       0.563  19.259  -8.939  1.00  0.00     0.210 HD
ENDBRANCH  18  22
ENDBRANCH  17  18
ENDBRANCH  16  17
ENDBRANCH   1  16
BRANCH   6  24
HETATM   24  O5  UNL     1      -2.289  22.018  -6.108  1.00  0.00    -0.351 OA
HETATM   25  C12 UNL     1      -1.111  22.616  -6.556  1.00  0.00     0.210 C 
ENDBRANCH   6  24
BRANCH   5  26
HETATM   26  O4  UNL     1      -4.196  23.347  -7.636  1.00  0.00    -0.351 OA
HETATM   27  C10 UNL     1      -4.998  23.972  -6.596  1.00  0.00     0.210 C 
ENDBRANCH   5  26
TORSDOF 8
ENDMDL
MODEL 2
REMARK VINA RESULT: -6.701543125      1.422      1.905
REMARK  8 active torsions:
REMARK  status: ('A' for Active; 'I' for Inactive)
REMARK    1  A    between atoms: O1_2  and  C2_3 
REMARK    2  A    between atoms: C2_3  and  C3_4 
REMARK    3  A    between atoms: C3_4  and  O2_5 
REMARK    4  A    between atoms: C3_4  and  C4_7 
REMARK    5  A    between atoms: C4_7  and  O3_8 
REMARK    6  A    between atoms: O3_8  and  C5_9 
REMARK    7  A    between atoms: C9_13  and  O4_14 
REMARK    8  A    between atoms: C11_16  and  O5_17 
ROOT
HETATM    1  C5  UNL     1      -2.604  19.776  -7.036  1.00  0.00     0.105 A 
HETATM    2  C6  UNL     1      -3.582  19.021  -7.630  1.00  0.00     0.049 A 
HETATM    3  C7  UNL     1      -4.638  19.645  -8.289  1.00  0.00    -0.026 A 
HETATM    4  C8  UNL     1      -4.730  21.038  -8.364  1.00  0.00     0.075 A 
HETATM    5  C9  UNL     1      -3.762  21.793  -7.772  1.00  0.00     0.131 A 
HETATM    6  C11 UNL     1      -2.723  21.183  -7.124  1.00  0.00     0.137 A 
HETATM    7  N1  UNL     1      -5.795  21.635  -9.095  1.00  0.00    -0.349 N 
HETATM    8  C13 UNL     1      -5.951  22.815  -9.834  1.00  0.00     0.153 C 
HETATM    9  C14 UNL     1      -7.484  22.826 -10.056  1.00  0.00     0.254 C 
HETATM   10  N2  UNL     1      -7.867  21.454 -10.113  1.00  0.00    -0.053 N 
ATOM     11  H21 UNL     1      -7.813  21.041 -11.044  1.00  0.00     0.279 HD
ATOM     12  H22 UNL     1      -8.865  21.292  -9.978  1.00  0.00     0.279 HD
HETATM   13  C15 UNL     1      -7.029  20.816  -9.136  1.00  0.00     0.287 C 
HETATM   14  C16 UNL     1      -6.649  19.443  -9.706  1.00  0.00     0.059 C 
HETATM   15  C17 UNL     1      -5.650  18.756  -8.874  1.00  0.00     0.044 C 
ENDROOT
BRANCH   1  16
HETATM   16  O3  UNL     1      -1.545  19.248  -6.383  1.00  0.00    -0.346 OA
BRANCH  16  17
HETATM   17  C4  UNL     1      -0.241  19.027  -6.463  1.00  0.00     0.209 C 
BRANCH  17  18
HETATM   18  C3  UNL     1       0.408  17.859  -5.810  1.00  0.00     0.166 C 
BRANCH  18  19
HETATM   19  C2  UNL     1      -0.739  16.892  -5.451  1.00  0.00     0.200 C 
BRANCH  19  20
HETATM   20  O1  UNL     1      -0.236  15.588  -5.458  1.00  0.00    -0.393 OA
HETATM   21  C1  UNL     1      -1.277  14.742  -5.074  1.00  0.00     0.201 C 
ENDBRANCH  19  20
ENDBRANCH  18  19
BRANCH  18  22
HETATM   22  O2  UNL     1       1.331  17.148  -6.497  1.00  0.00    -0.391 OA
ATOM     23  H2  UNL     1       1.971  17.766  -6.830  1.00  0.00     0.210 HD
ENDBRANCH  18  22
ENDBRANCH  17  18
ENDBRANCH  16  17
ENDBRANCH   1  16
BRANCH   6  24
HETATM   24  O5  UNL     1      -1.730  21.940  -6.520  1.00  0.00    -0.351 OA
HETATM   25  C12 UNL     1      -1.687  22.275  -5.166  1.00  0.00     0.210 C 
ENDBRANCH   6  24
BRANCH   5  26
HETATM   26  O4  UNL     1      -3.846  23.188  -7.826  1.00  0.00    -0.351 OA
HETATM   27  C10 UNL     1      -4.526  23.881  -6.744  1.00  0.00     0.210 C 
ENDBRANCH   5  26
TORSDOF 8
ENDMDL
MODEL 3
REMARK VINA RESULT: -6.598259265      1.199      1.610
REMARK  8 active torsions:
REMARK  status: ('A' for Active; 'I' for Inactive)
REMARK    1  A    between atoms: O1_2  and  C2_3 
REMARK    2  A    between atoms: C2_3  and  C3_4 
REMARK    3  A    between atoms: C3_4  and  O2_5 
REMARK    4  A    between atoms: C3_4  and  C4_7 
REMARK    5  A    between atoms: C4_7  and  O3_8 
REMARK    6  A    between atoms: O3_8  and  C5_9 
REMARK    7  A    between atoms: C9_13  and  O4_14 
REMARK    8  A    between atoms: C11_16  and  O5_17 
ROOT
HETATM    1  C5  UNL     1      -3.109  20.816  -7.005  1.00  0.00     0.105 A 
HETATM    2  C6  UNL     1      -3.854  19.911  -7.715  1.00  0.00     0.049 A 
HETATM    3  C7  UNL     1      -4.915  20.349  -8.504  1.00  0.00    -0.026 A 
HETATM    4  C8  UNL     1      -5.245  21.705  -8.593  1.00  0.00     0.075 A 
HETATM    5  C9  UNL     1      -4.509  22.608  -7.886  1.00  0.00     0.131 A 
HETATM    6  C11 UNL     1      -3.467  22.181  -7.112  1.00  0.00     0.137 A 
HETATM    7  N1  UNL     1      -6.301  22.117  -9.455  1.00  0.00    -0.349 N 
HETATM    8  C13 UNL     1      -6.572  23.265 -10.211  1.00  0.00     0.153 C 
HETATM    9  C14 UNL     1      -8.043  23.007 -10.624  1.00  0.00     0.254 C 
HETATM   10  N2  UNL     1      -8.164  21.590 -10.725  1.00  0.00    -0.053 N 
ATOM     11  H21 UNL     1      -7.921  21.212 -11.641  1.00  0.00     0.279 HD
ATOM     12  H22 UNL     1      -9.125  21.249 -10.716  1.00  0.00     0.279 HD
HETATM   13  C15 UNL     1      -7.353  21.092  -9.648  1.00  0.00     0.287 C 
HETATM   14  C16 UNL     1      -6.665  19.821 -10.162  1.00  0.00     0.059 C 
HETATM   15  C17 UNL     1      -5.670  19.306  -9.209  1.00  0.00     0.044 C 
ENDROOT
BRANCH   1  16
HETATM   16  O3  UNL     1      -2.062  20.473  -6.223  1.00  0.00    -0.346 OA
BRANCH  16  17
HETATM   17  C4  UNL     1      -0.768  20.192  -6.231  1.00  0.00     0.209 C 
BRANCH  17  18
HETATM   18  C3  UNL     1      -0.235  18.919  -6.786  1.00  0.00     0.166 C 
BRANCH  18  19
HETATM   19  C2  UNL     1      -0.941  17.794  -5.999  1.00  0.00     0.200 C 
BRANCH  19  20
HETATM   20  O1  UNL     1      -0.047  16.729  -5.852  1.00  0.00    -0.393 OA
HETATM   21  C1  UNL     1      -0.695  15.748  -5.103  1.00  0.00     0.201 C 
ENDBRANCH  19  20
ENDBRANCH  18  19
BRANCH  18  22
HETATM   22  O2  UNL     1      -0.401  18.651  -8.101  1.00  0.00    -0.391 OA
ATOM     23  H2  UNL     1       0.093  19.303  -8.585  1.00  0.00     0.210 HD
ENDBRANCH  18  22
ENDBRANCH  17  18
ENDBRANCH  16  17
ENDBRANCH   1  16
BRANCH   6  24
HETATM   24  O5  UNL     1      -2.709  23.091  -6.389  1.00  0.00    -0.351 OA
HETATM   25  C12 UNL     1      -1.627  23.814  -6.894  1.00  0.00     0.210 C 
ENDBRANCH   6  24
BRANCH   5  26
HETATM   26  O4  UNL     1      -4.835  23.967  -7.954  1.00  0.00    -0.351 OA
HETATM   27  C10 UNL     1      -5.632  24.541  -6.882  1.00  0.00     0.210 C 
ENDBRANCH   5  26
TORSDOF 8
ENDMDL
MODEL 4
REMARK VINA RESULT: -6.525140123      2.400      2.882
REMARK  8 active torsions:
REMARK  status: ('A' for Active; 'I' for Inactive)
REMARK    1  A    between atoms: O1_2  and  C2_3 
REMARK    2  A    between atoms: C2_3  and  C3_4 
REMARK    3  A    between atoms: C3_4  and  O2_5 
REMARK    4  A    between atoms: C3_4  and  C4_7 
REMARK    5  A    between atoms: C4_7  and  O3_8 
REMARK    6  A    between atoms: O3_8  and  C5_9 
REMARK    7  A    between atoms: C9_13  and  O4_14 
REMARK    8  A    between atoms: C11_16  and  O5_17 
ROOT
HETATM    1  C5  UNL     1      -2.167  18.795  -6.973  1.00  0.00     0.105 A 
HETATM    2  C6  UNL     1      -3.228  18.268  -7.664  1.00  0.00     0.049 A 
HETATM    3  C7  UNL     1      -4.300  19.082  -8.020  1.00  0.00    -0.026 A 
HETATM    4  C8  UNL     1      -4.326  20.441  -7.688  1.00  0.00     0.075 A 
HETATM    5  C9  UNL     1      -3.276  20.968  -6.999  1.00  0.00     0.131 A 
HETATM    6  C11 UNL     1      -2.221  20.172  -6.649  1.00  0.00     0.137 A 
HETATM    7  N1  UNL     1      -5.414  21.249  -8.120  1.00  0.00    -0.349 N 
HETATM    8  C13 UNL     1      -5.568  22.596  -8.478  1.00  0.00     0.153 C 
HETATM    9  C14 UNL     1      -7.112  22.710  -8.546  1.00  0.00     0.254 C 
HETATM   10  N2  UNL     1      -7.569  21.422  -8.952  1.00  0.00    -0.053 N 
ATOM     11  H21 UNL     1      -7.611  21.291  -9.963  1.00  0.00     0.279 HD
ATOM     12  H22 UNL     1      -8.559  21.254  -8.777  1.00  0.00     0.279 HD
HETATM   13  C15 UNL     1      -6.688  20.509  -8.277  1.00  0.00     0.287 C 
HETATM   14  C16 UNL     1      -6.427  19.347  -9.244  1.00  0.00     0.059 C 
HETATM   15  C17 UNL     1      -5.400  18.425  -8.736  1.00  0.00     0.044 C 
ENDROOT
BRANCH   1  16
HETATM   16  O3  UNL     1      -1.088  18.076  -6.597  1.00  0.00    -0.346 OA
BRANCH  16  17
HETATM   17  C4  UNL     1      -0.615  17.268  -5.659  1.00  0.00     0.209 C 
BRANCH  17  18
HETATM   18  C3  UNL     1      -1.276  15.981  -5.312  1.00  0.00     0.166 C 
BRANCH  18  19
HETATM   19  C2  UNL     1      -0.289  15.244  -4.381  1.00  0.00     0.200 C 
BRANCH  19  20
HETATM   20  O1  UNL     1       0.062  14.031  -4.980  1.00  0.00    -0.393 OA
HETATM   21  C1  UNL     1      -0.662  13.028  -4.335  1.00  0.00     0.201 C 
ENDBRANCH  19  20
ENDBRANCH  18  19
BRANCH  18  22
HETATM   22  O2  UNL     1      -2.475  16.002  -4.687  1.00  0.00    -0.391 OA
ATOM     23  H2  UNL     1      -2.341  15.656  -3.812  1.00  0.00     0.210 HD
ENDBRANCH  18  22
ENDBRANCH  17  18
ENDBRANCH  16  17
ENDBRANCH   1  16
BRANCH   6  24
HETATM   24  O5  UNL     1      -1.144  20.698  -5.950  1.00  0.00    -0.351 OA
HETATM   25  C12 UNL     1      -1.072  20.823  -4.562  1.00  0.00     0.210 C 
ENDBRANCH   6  24
BRANCH   5  26
HETATM   26  O4  UNL     1      -3.292  22.323  -6.649  1.00  0.00    -0.351 OA
HETATM   27  C10 UNL     1      -2.390  23.227  -7.345  1.00  0.00     0.210 C 
ENDBRANCH   5  26
TORSDOF 8
ENDMDL
MODEL 5
REMARK VINA RESULT: -6.456348948      1.514      2.026
REMARK  8 active torsions:
REMARK  status: ('A' for Active; 'I' for Inactive)
REMARK    1  A    between atoms: O1_2  and  C2_3 
REMARK    2  A    between atoms: C2_3  and  C3_4 
REMARK    3  A    between atoms: C3_4  and  O2_5 
REMARK    4  A    between atoms: C3_4  and  C4_7 
REMARK    5  A    between atoms: C4_7  and  O3_8 
REMARK    6  A    between atoms: O3_8  and  C5_9 
REMARK    7  A    between atoms: C9_13  and  O4_14 
REMARK    8  A    between atoms: C11_16  and  O5_17 
ROOT
HETATM    1  C5  UNL     1      -1.897  19.899  -6.677  1.00  0.00     0.105 A 
HETATM    2  C6  UNL     1      -2.745  19.034  -7.317  1.00  0.00     0.049 A 
HETATM    3  C7  UNL     1      -3.966  19.491  -7.809  1.00  0.00    -0.026 A 
HETATM    4  C8  UNL     1      -4.354  20.827  -7.667  1.00  0.00     0.075 A 
HETATM    5  C9  UNL     1      -3.516  21.690  -7.028  1.00  0.00     0.131 A 
HETATM    6  C11 UNL     1      -2.317  21.245  -6.545  1.00  0.00     0.137 A 
HETATM    7  N1  UNL     1      -5.584  21.266  -8.234  1.00  0.00    -0.349 N 
HETATM    8  C13 UNL     1      -6.052  22.470  -8.776  1.00  0.00     0.153 C 
HETATM    9  C14 UNL     1      -7.567  22.172  -8.899  1.00  0.00     0.254 C 
HETATM   10  N2  UNL     1      -7.657  20.769  -9.138  1.00  0.00    -0.053 N 
ATOM     11  H21 UNL     1      -7.604  20.507 -10.123  1.00  0.00     0.279 HD
ATOM     12  H22 UNL     1      -8.582  20.373  -8.968  1.00  0.00     0.279 HD
HETATM   13  C15 UNL     1      -6.617  20.207  -8.322  1.00  0.00     0.287 C 
HETATM   14  C16 UNL     1      -6.012  19.041  -9.114  1.00  0.00     0.059 C 
HETATM   15  C17 UNL     1      -4.818  18.487  -8.458  1.00  0.00     0.044 C 
ENDROOT
BRANCH   1  16
HETATM   16  O3  UNL     1      -0.696  19.537  -6.177  1.00  0.00    -0.346 OA
BRANCH  16  17
HETATM   17  C4  UNL     1       0.593  19.427  -6.465  1.00  0.00     0.209 C 
BRANCH  17  18
HETATM   18  C3  UNL     1       1.392  18.230  -6.088  1.00  0.00     0.166 C 
BRANCH  18  19
HETATM   19  C2  UNL     1       0.528  17.457  -5.069  1.00  0.00     0.200 C 
BRANCH  19  20
HETATM   20  O1  UNL     1       0.034  16.307  -5.691  1.00  0.00    -0.393 OA
HETATM   21  C1  UNL     1      -1.262  16.107  -5.218  1.00  0.00     0.201 C 
ENDBRANCH  19  20
ENDBRANCH  18  19
BRANCH  18  22
HETATM   22  O2  UNL     1       1.757  17.352  -7.050  1.00  0.00    -0.391 OA
ATOM     23  H2  UNL     1       1.514  16.485  -6.745  1.00  0.00     0.210 HD
ENDBRANCH  18  22
ENDBRANCH  17  18
ENDBRANCH  16  17
ENDBRANCH   1  16
BRANCH   6  24
HETATM   24  O5  UNL     1      -1.454  22.115  -5.896  1.00  0.00    -0.351 OA
HETATM   25  C12 UNL     1      -1.441  22.357  -4.522  1.00  0.00     0.210 C 
ENDBRANCH   6  24
BRANCH   5  26
HETATM   26  O4  UNL     1      -3.896  23.027  -6.867  1.00  0.00    -0.351 OA
HETATM   27  C10 UNL     1      -3.090  24.056  -7.505  1.00  0.00     0.210 C 
ENDBRANCH   5  26
TORSDOF 8
ENDMDL
