MODEL 1
REMARK VINA RESULT: -7.134673140      0.000      0.000
REMARK  11 active torsions:
REMARK  status: ('A' for Active; 'I' for Inactive)
REMARK    1  A    between atoms: C2_2  and  C3_3 
REMARK    2  A    between atoms: C4_4  and  C5_5 
REMARK    3  A    between atoms: C6_6  and  C7_7 
REMARK    4  A    between atoms: C7_7  and  C8_8 
REMARK    5  A    between atoms: C8_8  and  N1_9 
REMARK    6  A    between atoms: N1_9  and  C9_11 
REMARK    7  A    between atoms: C9_11  and  C10_12 
REMARK    8  A    between atoms: C10_12  and  O1_13 
REMARK    9  A    between atoms: C10_12  and  C11_15 
REMARK   10  A    between atoms: C11_15  and  N2_16 
REMARK   11  A    between atoms: C14_19  and  N3_20 
ROOT
HETATM    1  C10 UNL     1      -6.135  19.178  -8.382  1.00  0.00     0.173 C 
ENDROOT
BRANCH   1   2
HETATM    2  C9  UNL     1      -4.834  18.496  -8.416  1.00  0.00     0.150 C 
BRANCH   2   3
HETATM    3  N1  UNL     1      -3.874  19.033  -7.445  1.00  0.00    -0.418 N 
ATOM      4  H1  UNL     1      -4.137  19.714  -6.733  1.00  0.00     0.153 HD
BRANCH   3   5
HETATM    5  C8  UNL     1      -2.552  18.534  -7.571  1.00  0.00     0.126 C 
BRANCH   5   6
HETATM    6  C7  UNL     1      -1.722  18.694  -6.317  1.00  0.00     0.114 C 
BRANCH   6   7
HETATM    7  C6  UNL     1      -1.468  17.315  -5.840  1.00  0.00    -0.091 C 
HETATM    8  C5  UNL     1      -1.279  16.186  -5.447  1.00  0.00    -0.015 C 
BRANCH   8   9
HETATM    9  C4  UNL     1      -1.078  14.849  -4.991  1.00  0.00    -0.015 C 
HETATM   10  C3  UNL     1      -0.911  13.723  -4.587  1.00  0.00    -0.093 C 
BRANCH  10  11
HETATM   11  C2  UNL     1      -0.692  12.365  -4.077  1.00  0.00     0.090 C 
HETATM   12  C1  UNL     1       0.352  11.724  -4.964  1.00  0.00     0.018 C 
ENDBRANCH  10  11
ENDBRANCH   8   9
ENDBRANCH   6   7
ENDBRANCH   5   6
ENDBRANCH   3   5
ENDBRANCH   2   3
ENDBRANCH   1   2
BRANCH   1  13
HETATM   13  O1  UNL     1      -7.196  18.275  -8.288  1.00  0.00    -0.389 OA
ATOM     14  H1  UNL     1      -7.959  18.665  -7.876  1.00  0.00     0.210 HD
ENDBRANCH   1  13
BRANCH   1  15
HETATM   15  C11 UNL     1      -6.309  20.218  -9.438  1.00  0.00     0.096 C 
BRANCH  15  16
HETATM   16  N2  UNL     1      -7.349  21.122  -9.211  1.00  0.00    -0.371 N 
HETATM   17  C12 UNL     1      -7.977  21.719 -10.303  1.00  0.00     0.065 C 
HETATM   18  C13 UNL     1      -8.343  23.185 -10.121  1.00  0.00     0.072 C 
HETATM   19  C14 UNL     1      -7.308  24.012  -9.453  1.00  0.00     0.122 C 
HETATM   20  C17 UNL     1      -6.366  23.261  -8.548  1.00  0.00     0.048 C 
HETATM   21  C18 UNL     1      -7.071  22.000  -8.085  1.00  0.00     0.129 C 
BRANCH  19  22
HETATM   22  N3  UNL     1      -7.980  25.013  -8.635  1.00  0.00    -0.254 N 
HETATM   23  N4  UNL     1      -7.833  26.326  -8.540  1.00  0.00    -0.288 N 
HETATM   24  C15 UNL     1      -8.689  26.825  -7.638  1.00  0.00     0.081 A 
ATOM     25  H4  UNL     1      -7.163  26.878  -9.076  1.00  0.00     0.188 HD
HETATM   26  C16 UNL     1      -9.091  28.105  -7.027  1.00  0.00     0.079 C 
HETATM   27  S1  UNL     1      -9.175  25.206  -7.468  1.00  0.00     0.019 SA
ENDBRANCH  19  22
ENDBRANCH  15  16
ENDBRANCH   1  15
TORSDOF 11
ENDMDL
MODEL 2
REMARK VINA RESULT: -6.896084739      0.976      1.438
REMARK  11 active torsions:
REMARK  status: ('A' for Active; 'I' for Inactive)
REMARK    1  A    between atoms: C2_2  and  C3_3 
REMARK    2  A    between atoms: C4_4  and  C5_5 
REMARK    3  A    between atoms: C6_6  and  C7_7 
REMARK    4  A    between atoms: C7_7  and  C8_8 
REMARK    5  A    between atoms: C8_8  and  N1_9 
REMARK    6  A    between atoms: N1_9  and  C9_11 
REMARK    7  A    between atoms: C9_11  and  C10_12 
REMARK    8  A    between atoms: C10_12  and  O1_13 
REMARK    9  A    between atoms: C10_12  and  C11_15 
REMARK   10  A    between atoms: C11_15  and  N2_16 
REMARK   11  A    between atoms: C14_19  and  N3_20 
ROOT
HETATM    1  C10 UNL     1      -6.151  19.181  -8.297  1.00  0.00     0.173 C 
ENDROOT
BRANCH   1   2
HETATM    2  C9  UNL     1      -4.825  18.559  -8.419  1.00  0.00     0.150 C 
BRANCH   2   3
HETATM    3  N1  UNL     1      -3.857  19.063  -7.438  1.00  0.00    -0.418 N 
ATOM      4  H1  UNL     1      -4.103  19.757  -6.732  1.00  0.00     0.153 HD
BRANCH   3   5
HETATM    5  C8  UNL     1      -2.554  18.514  -7.545  1.00  0.00     0.126 C 
BRANCH   5   6
HETATM    6  C7  UNL     1      -1.730  18.660  -6.285  1.00  0.00     0.114 C 
BRANCH   6   7
HETATM    7  C6  UNL     1      -1.473  17.276  -5.824  1.00  0.00    -0.091 C 
HETATM    8  C5  UNL     1      -1.269  16.150  -5.430  1.00  0.00    -0.015 C 
BRANCH   8   9
HETATM    9  C4  UNL     1      -1.044  14.826  -4.949  1.00  0.00    -0.015 C 
HETATM   10  C3  UNL     1      -0.871  13.699  -4.551  1.00  0.00    -0.093 C 
BRANCH  10  11
HETATM   11  C2  UNL     1      -0.686  12.329  -4.059  1.00  0.00     0.090 C 
HETATM   12  C1  UNL     1       0.371  11.686  -4.929  1.00  0.00     0.018 C 
ENDBRANCH  10  11
ENDBRANCH   8   9
ENDBRANCH   6   7
ENDBRANCH   5   6
ENDBRANCH   3   5
ENDBRANCH   2   3
ENDBRANCH   1   2
BRANCH   1  13
HETATM   13  O1  UNL     1      -7.180  18.242  -8.392  1.00  0.00    -0.389 OA
ATOM     14  H1  UNL     1      -8.036  18.653  -8.394  1.00  0.00     0.210 HD
ENDBRANCH   1  13
BRANCH   1  15
HETATM   15  C11 UNL     1      -6.342  20.387  -9.155  1.00  0.00     0.096 C 
BRANCH  15  16
HETATM   16  N2  UNL     1      -6.289  21.608  -8.480  1.00  0.00    -0.371 N 
HETATM   17  C12 UNL     1      -6.599  21.643  -7.121  1.00  0.00     0.065 C 
HETATM   18  C13 UNL     1      -7.395  22.858  -6.668  1.00  0.00     0.072 C 
HETATM   19  C14 UNL     1      -8.491  23.267  -7.581  1.00  0.00     0.122 C 
HETATM   20  C17 UNL     1      -8.313  22.867  -9.023  1.00  0.00     0.048 C 
HETATM   21  C18 UNL     1      -6.827  22.696  -9.279  1.00  0.00     0.129 C 
BRANCH  19  22
HETATM   22  N3  UNL     1      -8.594  24.720  -7.550  1.00  0.00    -0.254 N 
HETATM   23  N4  UNL     1      -9.549  25.533  -7.123  1.00  0.00    -0.288 N 
HETATM   24  C15 UNL     1      -9.185  26.810  -7.302  1.00  0.00     0.081 A 
ATOM     25  H4  UNL     1     -10.434  25.230  -6.717  1.00  0.00     0.188 HD
HETATM   26  C16 UNL     1      -9.682  28.182  -7.090  1.00  0.00     0.079 C 
HETATM   27  S1  UNL     1      -7.766  26.131  -7.941  1.00  0.00     0.019 SA
ENDBRANCH  19  22
ENDBRANCH  15  16
ENDBRANCH   1  15
TORSDOF 11
ENDMDL
MODEL 3
REMARK VINA RESULT: -6.870798797      1.443      1.694
REMARK  11 active torsions:
REMARK  status: ('A' for Active; 'I' for Inactive)
REMARK    1  A    between atoms: C2_2  and  C3_3 
REMARK    2  A    between atoms: C4_4  and  C5_5 
REMARK    3  A    between atoms: C6_6  and  C7_7 
REMARK    4  A    between atoms: C7_7  and  C8_8 
REMARK    5  A    between atoms: C8_8  and  N1_9 
REMARK    6  A    between atoms: N1_9  and  C9_11 
REMARK    7  A    between atoms: C9_11  and  C10_12 
REMARK    8  A    between atoms: C10_12  and  O1_13 
REMARK    9  A    between atoms: C10_12  and  C11_15 
REMARK   10  A    between atoms: C11_15  and  N2_16 
REMARK   11  A    between atoms: C14_19  and  N3_20 
ROOT
HETATM    1  C10 UNL     1      -6.084  19.240  -8.276  1.00  0.00     0.173 C 
ENDROOT
BRANCH   1   2
HETATM    2  C9  UNL     1      -4.788  18.553  -8.361  1.00  0.00     0.150 C 
BRANCH   2   3
HETATM    3  N1  UNL     1      -3.787  19.090  -7.431  1.00  0.00    -0.418 N 
ATOM      4  H1  UNL     1      -3.997  19.843  -6.775  1.00  0.00     0.153 HD
BRANCH   3   5
HETATM    5  C8  UNL     1      -2.508  18.483  -7.512  1.00  0.00     0.126 C 
BRANCH   5   6
HETATM    6  C7  UNL     1      -1.689  18.627  -6.249  1.00  0.00     0.114 C 
BRANCH   6   7
HETATM    7  C6  UNL     1      -1.429  17.242  -5.792  1.00  0.00    -0.091 C 
HETATM    8  C5  UNL     1      -1.230  16.113  -5.405  1.00  0.00    -0.015 C 
BRANCH   8   9
HETATM    9  C4  UNL     1      -1.017  14.781  -4.941  1.00  0.00    -0.015 C 
HETATM   10  C3  UNL     1      -0.856  13.651  -4.545  1.00  0.00    -0.093 C 
BRANCH  10  11
HETATM   11  C2  UNL     1      -0.674  12.285  -4.040  1.00  0.00     0.090 C 
HETATM   12  C1  UNL     1       0.357  11.622  -4.925  1.00  0.00     0.018 C 
ENDBRANCH  10  11
ENDBRANCH   8   9
ENDBRANCH   6   7
ENDBRANCH   5   6
ENDBRANCH   3   5
ENDBRANCH   2   3
ENDBRANCH   1   2
BRANCH   1  13
HETATM   13  O1  UNL     1      -7.154  18.344  -8.325  1.00  0.00    -0.389 OA
ATOM     14  H1  UNL     1      -7.987  18.790  -8.420  1.00  0.00     0.210 HD
ENDBRANCH   1  13
BRANCH   1  15
HETATM   15  C11 UNL     1      -6.221  20.406  -9.197  1.00  0.00     0.096 C 
BRANCH  15  16
HETATM   16  N2  UNL     1      -6.095  21.657  -8.589  1.00  0.00    -0.371 N 
HETATM   17  C12 UNL     1      -7.088  22.084  -7.710  1.00  0.00     0.065 C 
HETATM   18  C13 UNL     1      -7.445  23.561  -7.799  1.00  0.00     0.072 C 
HETATM   19  C14 UNL     1      -7.543  24.100  -9.179  1.00  0.00     0.122 C 
HETATM   20  C17 UNL     1      -6.739  23.363 -10.218  1.00  0.00     0.048 C 
HETATM   21  C18 UNL     1      -5.594  22.663  -9.512  1.00  0.00     0.129 C 
BRANCH  19  22
HETATM   22  N3  UNL     1      -7.066  25.477  -9.166  1.00  0.00    -0.254 N 
HETATM   23  N4  UNL     1      -6.643  26.278 -10.132  1.00  0.00    -0.288 N 
HETATM   24  C15 UNL     1      -6.304  27.473  -9.629  1.00  0.00     0.081 A 
ATOM     25  H4  UNL     1      -6.583  26.021 -11.118  1.00  0.00     0.188 HD
HETATM   26  C16 UNL     1      -5.784  28.786 -10.051  1.00  0.00     0.079 C 
HETATM   27  S1  UNL     1      -6.767  26.782  -8.149  1.00  0.00     0.019 SA
ENDBRANCH  19  22
ENDBRANCH  15  16
ENDBRANCH   1  15
TORSDOF 11
ENDMDL
MODEL 4
REMARK VINA RESULT: -6.817344008      1.930      2.638
REMARK  11 active torsions:
REMARK  status: ('A' for Active; 'I' for Inactive)
REMARK    1  A    between atoms: C2_2  and  C3_3 
REMARK    2  A    between atoms: C4_4  and  C5_5 
REMARK    3  A    between atoms: C6_6  and  C7_7 
REMARK    4  A    between atoms: C7_7  and  C8_8 
REMARK    5  A    between atoms: C8_8  and  N1_9 
REMARK    6  A    between atoms: N1_9  and  C9_11 
REMARK    7  A    between atoms: C9_11  and  C10_12 
REMARK    8  A    between atoms: C10_12  and  O1_13 
REMARK    9  A    between atoms: C10_12  and  C11_15 
REMARK   10  A    between atoms: C11_15  and  N2_16 
REMARK   11  A    between atoms: C14_19  and  N3_20 
ROOT
HETATM    1  C10 UNL     1      -6.032  19.326  -7.702  1.00  0.00     0.173 C 
ENDROOT
BRANCH   1   2
HETATM    2  C9  UNL     1      -4.666  19.118  -8.200  1.00  0.00     0.150 C 
BRANCH   2   3
HETATM    3  N1  UNL     1      -3.648  19.198  -7.146  1.00  0.00    -0.418 N 
ATOM      4  H1  UNL     1      -3.780  19.747  -6.296  1.00  0.00     0.153 HD
BRANCH   3   5
HETATM    5  C8  UNL     1      -2.465  18.457  -7.398  1.00  0.00     0.126 C 
BRANCH   5   6
HETATM    6  C7  UNL     1      -1.447  18.544  -6.283  1.00  0.00     0.114 C 
BRANCH   6   7
HETATM    7  C6  UNL     1      -1.321  17.164  -5.761  1.00  0.00    -0.091 C 
HETATM    8  C5  UNL     1      -1.204  16.032  -5.347  1.00  0.00    -0.015 C 
BRANCH   8   9
HETATM    9  C4  UNL     1      -1.044  14.699  -4.865  1.00  0.00    -0.015 C 
HETATM   10  C3  UNL     1      -0.888  13.572  -4.461  1.00  0.00    -0.093 C 
BRANCH  10  11
HETATM   11  C2  UNL     1      -0.686  12.196  -3.992  1.00  0.00     0.090 C 
HETATM   12  C1  UNL     1       0.383  11.583  -4.869  1.00  0.00     0.018 C 
ENDBRANCH  10  11
ENDBRANCH   8   9
ENDBRANCH   6   7
ENDBRANCH   5   6
ENDBRANCH   3   5
ENDBRANCH   2   3
ENDBRANCH   1   2
BRANCH   1  13
HETATM   13  O1  UNL     1      -6.978  18.639  -8.467  1.00  0.00    -0.389 OA
ATOM     14  H1  UNL     1      -7.361  19.192  -9.138  1.00  0.00     0.210 HD
ENDBRANCH   1  13
BRANCH   1  15
HETATM   15  C11 UNL     1      -6.378  20.754  -7.441  1.00  0.00     0.096 C 
BRANCH  15  16
HETATM   16  N2  UNL     1      -5.774  21.675  -8.300  1.00  0.00    -0.371 N 
HETATM   17  C12 UNL     1      -5.135  22.788  -7.756  1.00  0.00     0.065 C 
HETATM   18  C13 UNL     1      -5.318  24.086  -8.529  1.00  0.00     0.072 C 
HETATM   19  C14 UNL     1      -6.694  24.326  -9.033  1.00  0.00     0.122 C 
HETATM   20  C17 UNL     1      -7.526  23.089  -9.253  1.00  0.00     0.048 C 
HETATM   21  C18 UNL     1      -6.580  21.926  -9.484  1.00  0.00     0.129 C 
BRANCH  19  22
HETATM   22  N3  UNL     1      -6.597  25.010 -10.316  1.00  0.00    -0.254 N 
HETATM   23  N4  UNL     1      -7.108  24.738 -11.507  1.00  0.00    -0.288 N 
HETATM   24  C15 UNL     1      -6.738  25.671 -12.395  1.00  0.00     0.081 A 
ATOM     25  H4  UNL     1      -7.699  23.933 -11.718  1.00  0.00     0.188 HD
HETATM   26  C16 UNL     1      -6.898  26.025 -13.817  1.00  0.00     0.079 C 
HETATM   27  S1  UNL     1      -5.921  26.352 -11.071  1.00  0.00     0.019 SA
ENDBRANCH  19  22
ENDBRANCH  15  16
ENDBRANCH   1  15
TORSDOF 11
ENDMDL
MODEL 5
REMARK VINA RESULT: -6.657043988      1.254      1.523
REMARK  11 active torsions:
REMARK  status: ('A' for Active; 'I' for Inactive)
REMARK    1  A    between atoms: C2_2  and  C3_3 
REMARK    2  A    between atoms: C4_4  and  C5_5 
REMARK    3  A    between atoms: C6_6  and  C7_7 
REMARK    4  A    between atoms: C7_7  and  C8_8 
REMARK    5  A    between atoms: C8_8  and  N1_9 
REMARK    6  A    between atoms: N1_9  and  C9_11 
REMARK    7  A    between atoms: C9_11  and  C10_12 
REMARK    8  A    between atoms: C10_12  and  O1_13 
REMARK    9  A    between atoms: C10_12  and  C11_15 
REMARK   10  A    between atoms: C11_15  and  N2_16 
REMARK   11  A    between atoms: C14_19  and  N3_20 
ROOT
HETATM    1  C10 UNL     1      -5.200  20.045  -8.625  1.00  0.00     0.173 C 
ENDROOT
BRANCH   1   2
HETATM    2  C9  UNL     1      -4.530  18.833  -8.133  1.00  0.00     0.150 C 
BRANCH   2   3
HETATM    3  N1  UNL     1      -3.505  19.111  -7.119  1.00  0.00    -0.418 N 
ATOM      4  H1  UNL     1      -3.680  19.708  -6.311  1.00  0.00     0.153 HD
BRANCH   3   5
HETATM    5  C8  UNL     1      -2.252  18.487  -7.348  1.00  0.00     0.126 C 
BRANCH   5   6
HETATM    6  C7  UNL     1      -1.324  18.535  -6.155  1.00  0.00     0.114 C 
BRANCH   6   7
HETATM    7  C6  UNL     1      -1.225  17.136  -5.681  1.00  0.00    -0.091 C 
HETATM    8  C5  UNL     1      -1.126  15.992  -5.297  1.00  0.00    -0.015 C 
BRANCH   8   9
HETATM    9  C4  UNL     1      -0.987  14.649  -4.837  1.00  0.00    -0.015 C 
HETATM   10  C3  UNL     1      -0.865  13.518  -4.429  1.00  0.00    -0.093 C 
BRANCH  10  11
HETATM   11  C2  UNL     1      -0.692  12.152  -3.924  1.00  0.00     0.090 C 
HETATM   12  C1  UNL     1       0.358  11.491  -4.789  1.00  0.00     0.018 C 
ENDBRANCH  10  11
ENDBRANCH   8   9
ENDBRANCH   6   7
ENDBRANCH   5   6
ENDBRANCH   3   5
ENDBRANCH   2   3
ENDBRANCH   1   2
BRANCH   1  13
HETATM   13  O1  UNL     1      -5.449  19.982  -9.998  1.00  0.00    -0.389 OA
ATOM     14  H1  UNL     1      -4.861  19.380 -10.438  1.00  0.00     0.210 HD
ENDBRANCH   1  13
BRANCH   1  15
HETATM   15  C11 UNL     1      -4.569  21.320  -8.176  1.00  0.00     0.096 C 
BRANCH  15  16
HETATM   16  N2  UNL     1      -5.410  22.177  -7.464  1.00  0.00    -0.371 N 
HETATM   17  C12 UNL     1      -6.694  21.745  -7.134  1.00  0.00     0.065 C 
HETATM   18  C13 UNL     1      -7.783  22.803  -7.240  1.00  0.00     0.072 C 
HETATM   19  C14 UNL     1      -7.694  23.678  -8.435  1.00  0.00     0.122 C 
HETATM   20  C17 UNL     1      -6.315  23.826  -9.025  1.00  0.00     0.048 C 
HETATM   21  C18 UNL     1      -5.306  23.551  -7.926  1.00  0.00     0.129 C 
BRANCH  19  22
HETATM   22  N3  UNL     1      -8.144  25.012  -8.060  1.00  0.00    -0.254 N 
HETATM   23  N4  UNL     1      -7.810  26.216  -8.497  1.00  0.00    -0.288 N 
HETATM   24  C15 UNL     1      -8.503  27.157  -7.841  1.00  0.00     0.081 A 
ATOM     25  H4  UNL     1      -7.124  26.402  -9.229  1.00  0.00     0.188 HD
HETATM   26  C16 UNL     1      -8.667  28.621  -7.774  1.00  0.00     0.079 C 
HETATM   27  S1  UNL     1      -9.188  25.832  -7.028  1.00  0.00     0.019 SA
ENDBRANCH  19  22
ENDBRANCH  15  16
ENDBRANCH   1  15
TORSDOF 11
ENDMDL
