MODEL 1
REMARK VINA RESULT: -6.132547965      0.000      0.000
REMARK  7 active torsions:
REMARK  status: ('A' for Active; 'I' for Inactive)
REMARK    1  A    between atoms: C2_2  and  C3_3 
REMARK    2  A    between atoms: C3_3  and  O1_4 
REMARK    3  A    between atoms: C3_3  and  C4_6 
REMARK    4  A    between atoms: C4_6  and  N1_7 
REMARK    5  A    between atoms: N2_11  and  C8_12 
REMARK    6  A    between atoms: C12_16  and  C13_17 
REMARK    7  A    between atoms: C13_17  and  N3_18 
ROOT
HETATM    1  N1  UNL     1      -3.880  19.258  -7.061  1.00  0.00     0.092 N 
HETATM    2  C5  UNL     1      -3.661  20.640  -6.876  1.00  0.00     0.277 C 
HETATM    3  C6  UNL     1      -3.636  21.432  -8.162  1.00  0.00     0.074 C 
HETATM    4  C7  UNL     1      -4.998  21.670  -8.770  1.00  0.00     0.060 C 
HETATM    5  N2  UNL     1      -6.082  21.212  -8.038  1.00  0.00    -0.387 N 
HETATM    6  C15 UNL     1      -6.161  19.797  -7.821  1.00  0.00     0.152 C 
HETATM    7  C16 UNL     1      -4.881  19.071  -8.083  1.00  0.00     0.292 C 
ENDROOT
BRANCH   5   8
HETATM    8  C8  UNL     1      -7.122  21.985  -7.574  1.00  0.00     0.089 C 
HETATM    9  C9  UNL     1      -6.752  23.225  -6.782  1.00  0.00     0.026 C 
HETATM   10  C10 UNL     1      -7.077  24.399  -7.667  1.00  0.00     0.002 C 
HETATM   11  C11 UNL     1      -7.799  23.875  -8.886  1.00  0.00     0.008 C 
HETATM   12  C12 UNL     1      -8.201  22.495  -8.435  1.00  0.00     0.034 C 
BRANCH  12  13
HETATM   13  C13 UNL     1      -8.813  21.619  -9.439  1.00  0.00     0.238 C 
BRANCH  13  14
HETATM   14  N3  UNL     1      -8.385  21.682 -10.779  1.00  0.00    -0.079 N 
HETATM   15  C14 UNL     1      -7.609  20.483 -11.092  1.00  0.00     0.267 C 
ATOM     16  H32 UNL     1      -9.160  21.822 -11.427  1.00  0.00     0.276 HD
ATOM     17  H31 UNL     1      -7.872  22.541 -10.982  1.00  0.00     0.276 HD
ENDBRANCH  13  14
ENDBRANCH  12  13
ENDBRANCH   5   8
BRANCH   1  18
HETATM   18  C4  UNL     1      -2.794  18.384  -7.229  1.00  0.00     0.303 C 
BRANCH  18  19
HETATM   19  C3  UNL     1      -1.427  18.940  -7.053  1.00  0.00     0.146 C 
BRANCH  19  20
HETATM   20  C2  UNL     1      -0.651  18.209  -5.957  1.00  0.00     0.029 C 
HETATM   21  C1  UNL     1      -1.296  16.938  -5.522  1.00  0.00     0.007 C 
ENDBRANCH  19  20
BRANCH  19  22
HETATM   22  O1  UNL     1      -0.611  18.917  -8.170  1.00  0.00    -0.394 OA
ATOM     23  H1  UNL     1      -0.831  19.696  -8.667  1.00  0.00     0.210 HD
ENDBRANCH  19  22
ENDBRANCH  18  19
ENDBRANCH   1  18
TORSDOF 7
ENDMDL
MODEL 2
REMARK VINA RESULT: -5.852621722      0.992      1.261
REMARK  7 active torsions:
REMARK  status: ('A' for Active; 'I' for Inactive)
REMARK    1  A    between atoms: C2_2  and  C3_3 
REMARK    2  A    between atoms: C3_3  and  O1_4 
REMARK    3  A    between atoms: C3_3  and  C4_6 
REMARK    4  A    between atoms: C4_6  and  N1_7 
REMARK    5  A    between atoms: N2_11  and  C8_12 
REMARK    6  A    between atoms: C12_16  and  C13_17 
REMARK    7  A    between atoms: C13_17  and  N3_18 
ROOT
HETATM    1  N1  UNL     1      -4.187  19.057  -7.329  1.00  0.00     0.092 N 
HETATM    2  C5  UNL     1      -4.085  20.413  -6.952  1.00  0.00     0.277 C 
HETATM    3  C6  UNL     1      -3.934  21.362  -8.117  1.00  0.00     0.074 C 
HETATM    4  C7  UNL     1      -5.210  21.610  -8.885  1.00  0.00     0.060 C 
HETATM    5  N2  UNL     1      -6.354  21.013  -8.378  1.00  0.00    -0.387 N 
HETATM    6  C15 UNL     1      -6.369  19.579  -8.345  1.00  0.00     0.152 C 
HETATM    7  C16 UNL     1      -5.021  18.954  -8.501  1.00  0.00     0.292 C 
ENDROOT
BRANCH   5   8
HETATM    8  C8  UNL     1      -7.496  21.670  -7.982  1.00  0.00     0.089 C 
HETATM    9  C9  UNL     1      -7.551  22.137  -6.540  1.00  0.00     0.026 C 
HETATM   10  C10 UNL     1      -7.432  23.637  -6.581  1.00  0.00     0.002 C 
HETATM   11  C11 UNL     1      -7.493  24.068  -8.027  1.00  0.00     0.008 C 
HETATM   12  C12 UNL     1      -8.048  22.835  -8.691  1.00  0.00     0.034 C 
BRANCH  12  13
HETATM   13  C13 UNL     1      -8.111  22.839 -10.156  1.00  0.00     0.238 C 
BRANCH  13  14
HETATM   14  N3  UNL     1      -8.077  24.060 -10.857  1.00  0.00    -0.079 N 
HETATM   15  C14 UNL     1      -6.684  24.423 -11.118  1.00  0.00     0.267 C 
ATOM     16  H32 UNL     1      -8.637  24.034 -11.708  1.00  0.00     0.276 HD
ATOM     17  H31 UNL     1      -8.586  24.799 -10.372  1.00  0.00     0.276 HD
ENDBRANCH  13  14
ENDBRANCH  12  13
ENDBRANCH   5   8
BRANCH   1  18
HETATM   18  C4  UNL     1      -3.033  18.264  -7.440  1.00  0.00     0.303 C 
BRANCH  18  19
HETATM   19  C3  UNL     1      -1.730  18.888  -7.091  1.00  0.00     0.146 C 
BRANCH  19  20
HETATM   20  C2  UNL     1      -1.035  18.152  -5.945  1.00  0.00     0.029 C 
HETATM   21  C1  UNL     1      -1.638  16.825  -5.641  1.00  0.00     0.007 C 
ENDBRANCH  19  20
BRANCH  19  22
HETATM   22  O1  UNL     1      -0.798  18.961  -8.111  1.00  0.00    -0.394 OA
ATOM     23  H1  UNL     1      -0.006  18.566  -7.766  1.00  0.00     0.210 HD
ENDBRANCH  19  22
ENDBRANCH  18  19
ENDBRANCH   1  18
TORSDOF 7
ENDMDL
MODEL 3
REMARK VINA RESULT: -5.801972494      1.330      2.843
REMARK  7 active torsions:
REMARK  status: ('A' for Active; 'I' for Inactive)
REMARK    1  A    between atoms: C2_2  and  C3_3 
REMARK    2  A    between atoms: C3_3  and  O1_4 
REMARK    3  A    between atoms: C3_3  and  C4_6 
REMARK    4  A    between atoms: C4_6  and  N1_7 
REMARK    5  A    between atoms: N2_11  and  C8_12 
REMARK    6  A    between atoms: C12_16  and  C13_17 
REMARK    7  A    between atoms: C13_17  and  N3_18 
ROOT
HETATM    1  N1  UNL     1      -3.742  19.463  -8.004  1.00  0.00     0.092 N 
HETATM    2  C5  UNL     1      -5.066  19.132  -8.364  1.00  0.00     0.277 C 
HETATM    3  C6  UNL     1      -6.109  19.660  -7.408  1.00  0.00     0.074 C 
HETATM    4  C7  UNL     1      -6.380  21.140  -7.542  1.00  0.00     0.060 C 
HETATM    5  N2  UNL     1      -5.711  21.794  -8.565  1.00  0.00    -0.387 N 
HETATM    6  C15 UNL     1      -4.279  21.819  -8.482  1.00  0.00     0.152 C 
HETATM    7  C16 UNL     1      -3.709  20.823  -7.526  1.00  0.00     0.292 C 
ENDROOT
BRANCH   5   8
HETATM    8  C8  UNL     1      -6.300  22.483  -9.600  1.00  0.00     0.089 C 
HETATM    9  C9  UNL     1      -7.410  21.771 -10.350  1.00  0.00     0.026 C 
HETATM   10  C10 UNL     1      -8.689  22.465  -9.966  1.00  0.00     0.002 C 
HETATM   11  C11 UNL     1      -8.328  23.683  -9.149  1.00  0.00     0.008 C 
HETATM   12  C12 UNL     1      -6.861  23.836  -9.458  1.00  0.00     0.034 C 
BRANCH  12  13
HETATM   13  C13 UNL     1      -6.125  24.858  -8.707  1.00  0.00     0.238 C 
BRANCH  13  14
HETATM   14  N3  UNL     1      -6.521  25.186  -7.396  1.00  0.00    -0.079 N 
HETATM   15  C14 UNL     1      -5.479  24.760  -6.462  1.00  0.00     0.267 C 
ATOM     16  H32 UNL     1      -6.751  26.174  -7.296  1.00  0.00     0.276 HD
ATOM     17  H31 UNL     1      -7.435  24.801  -7.160  1.00  0.00     0.276 HD
ENDBRANCH  13  14
ENDBRANCH  12  13
ENDBRANCH   5   8
BRANCH   1  18
HETATM   18  C4  UNL     1      -2.995  18.603  -7.183  1.00  0.00     0.303 C 
BRANCH  18  19
HETATM   19  C3  UNL     1      -1.557  18.920  -6.980  1.00  0.00     0.146 C 
BRANCH  19  20
HETATM   20  C2  UNL     1      -0.926  18.037  -5.902  1.00  0.00     0.029 C 
HETATM   21  C1  UNL     1      -1.648  16.752  -5.691  1.00  0.00     0.007 C 
ENDBRANCH  19  20
BRANCH  19  22
HETATM   22  O1  UNL     1      -0.744  18.795  -8.092  1.00  0.00    -0.394 OA
ATOM     23  H1  UNL     1      -1.140  19.338  -8.764  1.00  0.00     0.210 HD
ENDBRANCH  19  22
ENDBRANCH  18  19
ENDBRANCH   1  18
TORSDOF 7
ENDMDL
MODEL 4
REMARK VINA RESULT: -5.736910916      1.618      2.971
REMARK  7 active torsions:
REMARK  status: ('A' for Active; 'I' for Inactive)
REMARK    1  A    between atoms: C2_2  and  C3_3 
REMARK    2  A    between atoms: C3_3  and  O1_4 
REMARK    3  A    between atoms: C3_3  and  C4_6 
REMARK    4  A    between atoms: C4_6  and  N1_7 
REMARK    5  A    between atoms: N2_11  and  C8_12 
REMARK    6  A    between atoms: C12_16  and  C13_17 
REMARK    7  A    between atoms: C13_17  and  N3_18 
ROOT
HETATM    1  N1  UNL     1      -3.871  19.399  -8.073  1.00  0.00     0.092 N 
HETATM    2  C5  UNL     1      -5.212  19.094  -8.390  1.00  0.00     0.277 C 
HETATM    3  C6  UNL     1      -6.216  19.680  -7.426  1.00  0.00     0.074 C 
HETATM    4  C7  UNL     1      -6.450  21.162  -7.599  1.00  0.00     0.060 C 
HETATM    5  N2  UNL     1      -5.789  21.765  -8.658  1.00  0.00    -0.387 N 
HETATM    6  C15 UNL     1      -4.356  21.753  -8.611  1.00  0.00     0.152 C 
HETATM    7  C16 UNL     1      -3.789  20.771  -7.638  1.00  0.00     0.292 C 
ENDROOT
BRANCH   5   8
HETATM    8  C8  UNL     1      -6.386  22.438  -9.699  1.00  0.00     0.089 C 
HETATM    9  C9  UNL     1      -7.525  21.730 -10.407  1.00  0.00     0.026 C 
HETATM   10  C10 UNL     1      -8.781  22.462 -10.016  1.00  0.00     0.002 C 
HETATM   11  C11 UNL     1      -8.377  23.694  -9.240  1.00  0.00     0.008 C 
HETATM   12  C12 UNL     1      -6.915  23.807  -9.583  1.00  0.00     0.034 C 
BRANCH  12  13
HETATM   13  C13 UNL     1      -6.142  24.833  -8.876  1.00  0.00     0.238 C 
BRANCH  13  14
HETATM   14  N3  UNL     1      -5.699  25.977  -9.566  1.00  0.00    -0.079 N 
HETATM   15  C14 UNL     1      -5.745  27.128  -8.665  1.00  0.00     0.267 C 
ATOM     16  H32 UNL     1      -4.776  25.846  -9.981  1.00  0.00     0.276 HD
ATOM     17  H31 UNL     1      -6.222  26.137 -10.428  1.00  0.00     0.276 HD
ENDBRANCH  13  14
ENDBRANCH  12  13
ENDBRANCH   5   8
BRANCH   1  18
HETATM   18  C4  UNL     1      -3.127  18.544  -7.243  1.00  0.00     0.303 C 
BRANCH  18  19
HETATM   19  C3  UNL     1      -1.694  18.870  -7.025  1.00  0.00     0.146 C 
BRANCH  19  20
HETATM   20  C2  UNL     1      -1.062  17.977  -5.956  1.00  0.00     0.029 C 
HETATM   21  C1  UNL     1       0.413  17.834  -6.100  1.00  0.00     0.007 C 
ENDBRANCH  19  20
BRANCH  19  22
HETATM   22  O1  UNL     1      -0.871  18.767  -8.133  1.00  0.00    -0.394 OA
ATOM     23  H1  UNL     1      -1.448  18.808  -8.888  1.00  0.00     0.210 HD
ENDBRANCH  19  22
ENDBRANCH  18  19
ENDBRANCH   1  18
TORSDOF 7
ENDMDL
MODEL 5
REMARK VINA RESULT: -5.691936048      1.035      1.197
REMARK  7 active torsions:
REMARK  status: ('A' for Active; 'I' for Inactive)
REMARK    1  A    between atoms: C2_2  and  C3_3 
REMARK    2  A    between atoms: C3_3  and  O1_4 
REMARK    3  A    between atoms: C3_3  and  C4_6 
REMARK    4  A    between atoms: C4_6  and  N1_7 
REMARK    5  A    between atoms: N2_11  and  C8_12 
REMARK    6  A    between atoms: C12_16  and  C13_17 
REMARK    7  A    between atoms: C13_17  and  N3_18 
ROOT
HETATM    1  N1  UNL     1      -3.416  19.836  -7.222  1.00  0.00     0.092 N 
HETATM    2  C5  UNL     1      -3.427  21.241  -7.087  1.00  0.00     0.277 C 
HETATM    3  C6  UNL     1      -3.628  21.978  -8.389  1.00  0.00     0.074 C 
HETATM    4  C7  UNL     1      -5.050  21.958  -8.900  1.00  0.00     0.060 C 
HETATM    5  N2  UNL     1      -5.985  21.348  -8.078  1.00  0.00    -0.387 N 
HETATM    6  C15 UNL     1      -5.802  19.949  -7.823  1.00  0.00     0.152 C 
HETATM    7  C16 UNL     1      -4.437  19.444  -8.162  1.00  0.00     0.292 C 
ENDROOT
BRANCH   5   8
HETATM    8  C8  UNL     1      -7.108  21.948  -7.556  1.00  0.00     0.089 C 
HETATM    9  C9  UNL     1      -6.889  23.179  -6.697  1.00  0.00     0.026 C 
HETATM   10  C10 UNL     1      -7.384  24.348  -7.506  1.00  0.00     0.002 C 
HETATM   11  C11 UNL     1      -8.055  23.804  -8.746  1.00  0.00     0.008 C 
HETATM   12  C12 UNL     1      -8.262  22.359  -8.372  1.00  0.00     0.034 C 
BRANCH  12  13
HETATM   13  C13 UNL     1      -8.773  21.468  -9.419  1.00  0.00     0.238 C 
BRANCH  13  14
HETATM   14  N3  UNL     1      -8.322  21.612 -10.745  1.00  0.00    -0.079 N 
HETATM   15  C14 UNL     1      -7.527  20.440 -11.111  1.00  0.00     0.267 C 
ATOM     16  H32 UNL     1      -9.087  21.781 -11.398  1.00  0.00     0.276 HD
ATOM     17  H31 UNL     1      -7.815  22.486 -10.888  1.00  0.00     0.276 HD
ENDBRANCH  13  14
ENDBRANCH  12  13
ENDBRANCH   5   8
BRANCH   1  18
HETATM   18  C4  UNL     1      -2.209  19.155  -7.451  1.00  0.00     0.303 C 
BRANCH  18  19
HETATM   19  C3  UNL     1      -1.709  18.257  -6.377  1.00  0.00     0.146 C 
BRANCH  19  20
HETATM   20  C2  UNL     1      -1.263  19.040  -5.141  1.00  0.00     0.029 C 
HETATM   21  C1  UNL     1      -0.237  20.078  -5.437  1.00  0.00     0.007 C 
ENDBRANCH  19  20
BRANCH  19  22
HETATM   22  O1  UNL     1      -2.601  17.305  -5.917  1.00  0.00    -0.394 OA
ATOM     23  H1  UNL     1      -3.056  16.983  -6.687  1.00  0.00     0.210 HD
ENDBRANCH  19  22
ENDBRANCH  18  19
ENDBRANCH   1  18
TORSDOF 7
ENDMDL
