MODEL 1
REMARK VINA RESULT: -6.488013246      0.000      0.000
REMARK  7 active torsions:
REMARK  status: ('A' for Active; 'I' for Inactive)
REMARK    1  A    between atoms: C4_7  and  C5_8 
REMARK    2  A    between atoms: C5_8  and  C6_9 
REMARK    3  A    between atoms: C6_9  and  C7_10 
REMARK    4  A    between atoms: C7_10  and  C8_11 
REMARK    5  A    between atoms: C8_11  and  C9_12 
REMARK    6  A    between atoms: C9_12  and  N2_13 
REMARK    7  A    between atoms: C12_16  and  O2_17 
ROOT
HETATM    1  C6  UNL     1      -1.555  16.776  -5.623  1.00  0.00     0.001 C 
ENDROOT
BRANCH   1   2
HETATM    2  C5  UNL     1      -0.538  15.981  -4.878  1.00  0.00     0.016 C 
BRANCH   2   3
HETATM    3  C4  UNL     1      -1.093  14.802  -4.116  1.00  0.00     0.102 C 
HETATM    4  C3  UNL     1       0.032  14.250  -3.317  1.00  0.00     0.225 C 
HETATM    5  N1  UNL     1       0.011  12.867  -3.008  1.00  0.00    -0.335 N 
HETATM    6  O1  UNL     1       0.991  14.960  -2.911  1.00  0.00    -0.273 OA
HETATM    7  C2  UNL     1      -0.680  11.975  -3.902  1.00  0.00     0.218 C 
ATOM      8  H1  UNL     1       0.476  12.512  -2.172  1.00  0.00     0.165 HD
HETATM    9  C1  UNL     1       0.344  11.419  -4.867  1.00  0.00     0.063 C 
HETATM   10  O3  UNL     1      -1.768  12.530  -4.539  1.00  0.00    -0.366 OA
HETATM   11  C15 UNL     1      -1.491  13.752  -5.130  1.00  0.00     0.184 C 
ENDBRANCH   2   3
ENDBRANCH   1   2
BRANCH   1  12
HETATM   12  C7  UNL     1      -1.023  18.163  -5.896  1.00  0.00     0.002 C 
BRANCH  12  13
HETATM   13  C8  UNL     1      -1.780  18.728  -7.075  1.00  0.00     0.030 C 
BRANCH  13  14
HETATM   14  C9  UNL     1      -2.590  19.937  -6.664  1.00  0.00     0.272 C 
BRANCH  14  15
HETATM   15  N2  UNL     1      -4.013  19.645  -6.839  1.00  0.00     0.088 N 
HETATM   16  C10 UNL     1      -4.605  20.842  -7.407  1.00  0.00     0.275 C 
HETATM   17  C11 UNL     1      -6.086  20.671  -7.661  1.00  0.00     0.062 C 
HETATM   18  C12 UNL     1      -6.423  19.224  -7.960  1.00  0.00     0.121 C 
HETATM   19  C13 UNL     1      -5.252  18.641  -8.715  1.00  0.00     0.062 C 
HETATM   20  C14 UNL     1      -4.095  18.523  -7.758  1.00  0.00     0.275 C 
BRANCH  18  21
HETATM   21  O2  UNL     1      -7.588  19.172  -8.723  1.00  0.00    -0.395 OA
ATOM     22  H2  UNL     1      -7.957  18.298  -8.671  1.00  0.00     0.210 HD
ENDBRANCH  18  21
ENDBRANCH  14  15
ENDBRANCH  13  14
ENDBRANCH  12  13
ENDBRANCH   1  12
TORSDOF 7
ENDMDL
MODEL 2
REMARK VINA RESULT: -6.423519485      0.571      1.215
REMARK  7 active torsions:
REMARK  status: ('A' for Active; 'I' for Inactive)
REMARK    1  A    between atoms: C4_7  and  C5_8 
REMARK    2  A    between atoms: C5_8  and  C6_9 
REMARK    3  A    between atoms: C6_9  and  C7_10 
REMARK    4  A    between atoms: C7_10  and  C8_11 
REMARK    5  A    between atoms: C8_11  and  C9_12 
REMARK    6  A    between atoms: C9_12  and  N2_13 
REMARK    7  A    between atoms: C12_16  and  O2_17 
ROOT
HETATM    1  C6  UNL     1      -0.954  17.597  -4.954  1.00  0.00     0.001 C 
ENDROOT
BRANCH   1   2
HETATM    2  C5  UNL     1      -0.311  16.256  -5.056  1.00  0.00     0.016 C 
BRANCH   2   3
HETATM    3  C4  UNL     1      -1.043  15.149  -4.338  1.00  0.00     0.102 C 
HETATM    4  C3  UNL     1      -0.057  14.515  -3.425  1.00  0.00     0.225 C 
HETATM    5  N1  UNL     1      -0.234  13.146  -3.103  1.00  0.00    -0.335 N 
HETATM    6  O1  UNL     1       0.919  15.144  -2.935  1.00  0.00    -0.273 OA
HETATM    7  C2  UNL     1      -0.914  12.301  -4.050  1.00  0.00     0.218 C 
ATOM      8  H1  UNL     1       0.112  12.768  -2.221  1.00  0.00     0.165 HD
HETATM    9  C1  UNL     1       0.145  11.635  -4.901  1.00  0.00     0.063 C 
HETATM   10  O3  UNL     1      -1.878  12.938  -4.799  1.00  0.00    -0.366 OA
HETATM   11  C15 UNL     1      -1.434  14.117  -5.374  1.00  0.00     0.184 C 
ENDBRANCH   2   3
ENDBRANCH   1   2
BRANCH   1  12
HETATM   12  C7  UNL     1      -0.886  18.301  -6.290  1.00  0.00     0.002 C 
BRANCH  12  13
HETATM   13  C8  UNL     1      -2.295  18.416  -6.826  1.00  0.00     0.030 C 
BRANCH  13  14
HETATM   14  C9  UNL     1      -2.635  19.856  -7.137  1.00  0.00     0.272 C 
BRANCH  14  15
HETATM   15  N2  UNL     1      -3.859  19.899  -7.939  1.00  0.00     0.088 N 
HETATM   16  C10 UNL     1      -4.382  18.546  -7.951  1.00  0.00     0.275 C 
HETATM   17  C11 UNL     1      -5.671  18.448  -8.735  1.00  0.00     0.062 C 
HETATM   18  C12 UNL     1      -6.441  19.752  -8.682  1.00  0.00     0.121 C 
HETATM   19  C13 UNL     1      -6.197  20.358  -7.320  1.00  0.00     0.062 C 
HETATM   20  C14 UNL     1      -4.763  20.814  -7.265  1.00  0.00     0.275 C 
BRANCH  18  21
HETATM   21  O2  UNL     1      -7.795  19.494  -8.881  1.00  0.00    -0.395 OA
ATOM     22  H2  UNL     1      -8.141  19.035  -8.125  1.00  0.00     0.210 HD
ENDBRANCH  18  21
ENDBRANCH  14  15
ENDBRANCH  13  14
ENDBRANCH  12  13
ENDBRANCH   1  12
TORSDOF 7
ENDMDL
MODEL 3
REMARK VINA RESULT: -6.368000368      3.374      4.644
REMARK  7 active torsions:
REMARK  status: ('A' for Active; 'I' for Inactive)
REMARK    1  A    between atoms: C4_7  and  C5_8 
REMARK    2  A    between atoms: C5_8  and  C6_9 
REMARK    3  A    between atoms: C6_9  and  C7_10 
REMARK    4  A    between atoms: C7_10  and  C8_11 
REMARK    5  A    between atoms: C8_11  and  C9_12 
REMARK    6  A    between atoms: C9_12  and  N2_13 
REMARK    7  A    between atoms: C12_16  and  O2_17 
ROOT
HETATM    1  C6  UNL     1      -3.014  22.334  -6.398  1.00  0.00     0.001 C 
ENDROOT
BRANCH   1   2
HETATM    2  C5  UNL     1      -1.870  21.384  -6.294  1.00  0.00     0.016 C 
BRANCH   2   3
HETATM    3  C4  UNL     1      -2.257  19.965  -5.959  1.00  0.00     0.102 C 
HETATM    4  C3  UNL     1      -1.565  19.628  -4.688  1.00  0.00     0.225 C 
HETATM    5  N1  UNL     1      -1.231  18.271  -4.451  1.00  0.00    -0.335 N 
HETATM    6  O1  UNL     1      -1.267  20.497  -3.824  1.00  0.00    -0.273 OA
HETATM    7  C2  UNL     1      -1.010  17.412  -5.585  1.00  0.00     0.218 C 
ATOM      8  H1  UNL     1      -1.150  17.911  -3.500  1.00  0.00     0.165 HD
HETATM    9  C1  UNL     1       0.479  17.399  -5.857  1.00  0.00     0.063 C 
HETATM   10  O3  UNL     1      -1.753  17.729  -6.700  1.00  0.00    -0.366 OA
HETATM   11  C15 UNL     1      -1.687  19.071  -7.039  1.00  0.00     0.184 C 
ENDBRANCH   2   3
ENDBRANCH   1   2
BRANCH   1  12
HETATM   12  C7  UNL     1      -3.116  22.861  -7.811  1.00  0.00     0.002 C 
BRANCH  12  13
HETATM   13  C8  UNL     1      -4.127  22.015  -8.550  1.00  0.00     0.030 C 
BRANCH  13  14
HETATM   14  C9  UNL     1      -5.478  22.078  -7.872  1.00  0.00     0.272 C 
BRANCH  14  15
HETATM   15  N2  UNL     1      -6.222  20.854  -8.168  1.00  0.00     0.088 N 
HETATM   16  C10 UNL     1      -6.231  20.725  -9.613  1.00  0.00     0.275 C 
HETATM   17  C11 UNL     1      -6.958  19.478 -10.062  1.00  0.00     0.062 C 
HETATM   18  C12 UNL     1      -6.850  18.380  -9.022  1.00  0.00     0.121 C 
HETATM   19  C13 UNL     1      -5.491  18.512  -8.376  1.00  0.00     0.062 C 
HETATM   20  C14 UNL     1      -5.494  19.765  -7.541  1.00  0.00     0.275 C 
BRANCH  18  21
HETATM   21  O2  UNL     1      -6.992  17.143  -9.645  1.00  0.00    -0.395 OA
ATOM     22  H2  UNL     1      -6.161  16.682  -9.619  1.00  0.00     0.210 HD
ENDBRANCH  18  21
ENDBRANCH  14  15
ENDBRANCH  13  14
ENDBRANCH  12  13
ENDBRANCH   1  12
TORSDOF 7
ENDMDL
MODEL 4
REMARK VINA RESULT: -6.259668039      5.891      7.579
REMARK  7 active torsions:
REMARK  status: ('A' for Active; 'I' for Inactive)
REMARK    1  A    between atoms: C4_7  and  C5_8 
REMARK    2  A    between atoms: C5_8  and  C6_9 
REMARK    3  A    between atoms: C6_9  and  C7_10 
REMARK    4  A    between atoms: C7_10  and  C8_11 
REMARK    5  A    between atoms: C8_11  and  C9_12 
REMARK    6  A    between atoms: C9_12  and  N2_13 
REMARK    7  A    between atoms: C12_16  and  O2_17 
ROOT
HETATM    1  C6  UNL     1      -3.947  18.635  -7.392  1.00  0.00     0.001 C 
ENDROOT
BRANCH   1   2
HETATM    2  C5  UNL     1      -3.047  19.800  -7.627  1.00  0.00     0.016 C 
BRANCH   2   3
HETATM    3  C4  UNL     1      -3.511  21.093  -7.001  1.00  0.00     0.102 C 
HETATM    4  C3  UNL     1      -3.603  22.085  -8.104  1.00  0.00     0.225 C 
HETATM    5  N1  UNL     1      -3.409  23.452  -7.785  1.00  0.00    -0.335 N 
HETATM    6  O1  UNL     1      -3.844  21.757  -9.296  1.00  0.00    -0.273 OA
HETATM    7  C2  UNL     1      -2.586  23.782  -6.651  1.00  0.00     0.218 C 
ATOM      8  H1  UNL     1      -3.842  24.186  -8.346  1.00  0.00     0.165 HD
HETATM    9  C1  UNL     1      -1.186  24.033  -7.167  1.00  0.00     0.063 C 
HETATM   10  O3  UNL     1      -2.620  22.860  -5.629  1.00  0.00    -0.366 OA
HETATM   11  C15 UNL     1      -2.422  21.558  -6.059  1.00  0.00     0.184 C 
ENDBRANCH   2   3
ENDBRANCH   1   2
BRANCH   1  12
HETATM   12  C7  UNL     1      -4.915  18.495  -8.544  1.00  0.00     0.002 C 
BRANCH  12  13
HETATM   13  C8  UNL     1      -6.206  19.175  -8.151  1.00  0.00     0.030 C 
BRANCH  13  14
HETATM   14  C9  UNL     1      -7.094  19.378  -9.358  1.00  0.00     0.272 C 
BRANCH  14  15
HETATM   15  N2  UNL     1      -7.779  20.666  -9.240  1.00  0.00     0.088 N 
HETATM   16  C10 UNL     1      -7.172  21.345  -8.111  1.00  0.00     0.275 C 
HETATM   17  C11 UNL     1      -7.777  22.712  -7.885  1.00  0.00     0.062 C 
HETATM   18  C12 UNL     1      -8.271  23.311  -9.187  1.00  0.00     0.121 C 
HETATM   19  C13 UNL     1      -7.326  22.854 -10.273  1.00  0.00     0.062 C 
HETATM   20  C14 UNL     1      -7.539  21.378 -10.482  1.00  0.00     0.275 C 
BRANCH  18  21
HETATM   21  O2  UNL     1      -8.277  24.700  -9.079  1.00  0.00    -0.395 OA
ATOM     22  H2  UNL     1      -9.166  25.018  -9.189  1.00  0.00     0.210 HD
ENDBRANCH  18  21
ENDBRANCH  14  15
ENDBRANCH  13  14
ENDBRANCH  12  13
ENDBRANCH   1  12
TORSDOF 7
ENDMDL
MODEL 5
REMARK VINA RESULT: -6.232861289      5.022      9.821
REMARK  7 active torsions:
REMARK  status: ('A' for Active; 'I' for Inactive)
REMARK    1  A    between atoms: C4_7  and  C5_8 
REMARK    2  A    between atoms: C5_8  and  C6_9 
REMARK    3  A    between atoms: C6_9  and  C7_10 
REMARK    4  A    between atoms: C7_10  and  C8_11 
REMARK    5  A    between atoms: C8_11  and  C9_12 
REMARK    6  A    between atoms: C9_12  and  N2_13 
REMARK    7  A    between atoms: C12_16  and  O2_17 
ROOT
HETATM    1  C6  UNL     1      -7.658  20.496  -9.687  1.00  0.00     0.001 C 
ENDROOT
BRANCH   1   2
HETATM    2  C5  UNL     1      -7.669  21.787 -10.431  1.00  0.00     0.016 C 
BRANCH   2   3
HETATM    3  C4  UNL     1      -8.173  22.968  -9.639  1.00  0.00     0.102 C 
HETATM    4  C3  UNL     1      -7.361  24.138 -10.064  1.00  0.00     0.225 C 
HETATM    5  N1  UNL     1      -7.162  25.184  -9.128  1.00  0.00    -0.335 N 
HETATM    6  O1  UNL     1      -6.849  24.230 -11.212  1.00  0.00    -0.273 OA
HETATM    7  C2  UNL     1      -7.198  24.865  -7.724  1.00  0.00     0.218 C 
ATOM      8  H1  UNL     1      -6.997  26.140  -9.441  1.00  0.00     0.165 HD
HETATM    9  C1  UNL     1      -5.772  24.625  -7.279  1.00  0.00     0.063 C 
HETATM   10  O3  UNL     1      -8.042  23.828  -7.393  1.00  0.00    -0.366 OA
HETATM   11  C15 UNL     1      -7.863  22.703  -8.182  1.00  0.00     0.184 C 
ENDBRANCH   2   3
ENDBRANCH   1   2
BRANCH   1  12
HETATM   12  C7  UNL     1      -6.704  19.530 -10.350  1.00  0.00     0.002 C 
BRANCH  12  13
HETATM   13  C8  UNL     1      -6.110  18.651  -9.273  1.00  0.00     0.030 C 
BRANCH  13  14
HETATM   14  C9  UNL     1      -6.322  19.261  -7.905  1.00  0.00     0.272 C 
BRANCH  14  15
HETATM   15  N2  UNL     1      -5.022  19.488  -7.272  1.00  0.00     0.088 N 
HETATM   16  C10 UNL     1      -4.086  18.607  -7.945  1.00  0.00     0.275 C 
HETATM   17  C11 UNL     1      -2.684  18.755  -7.399  1.00  0.00     0.062 C 
HETATM   18  C12 UNL     1      -2.446  20.159  -6.881  1.00  0.00     0.121 C 
HETATM   19  C13 UNL     1      -3.228  21.099  -7.768  1.00  0.00     0.062 C 
HETATM   20  C14 UNL     1      -4.693  20.885  -7.493  1.00  0.00     0.275 C 
BRANCH  18  21
HETATM   21  O2  UNL     1      -1.083  20.441  -6.929  1.00  0.00    -0.395 OA
ATOM     22  H2  UNL     1      -0.914  21.052  -7.637  1.00  0.00     0.210 HD
ENDBRANCH  18  21
ENDBRANCH  14  15
ENDBRANCH  13  14
ENDBRANCH  12  13
ENDBRANCH   1  12
TORSDOF 7
ENDMDL
