MODEL 1
REMARK VINA RESULT: -6.540346702      0.000      0.000
REMARK  11 active torsions:
REMARK  status: ('A' for Active; 'I' for Inactive)
REMARK    1  A    between atoms: C2_2  and  C3_3 
REMARK    2  A    between atoms: C2_2  and  C9_9 
REMARK    3  A    between atoms: C3_3  and  C4_4 
REMARK    4  A    between atoms: C9_9  and  N1_10 
REMARK    5  A    between atoms: N1_10  and  O1_11 
REMARK    6  A    between atoms: N1_10  and  C10_13 
REMARK    7  A    between atoms: C10_13  and  C11_14 
REMARK    8  A    between atoms: C11_14  and  C12_15 
REMARK    9  A    between atoms: C12_15  and  O2_16 
REMARK   10  A    between atoms: C12_15  and  N2_18 
REMARK   11  A    between atoms: C14_20  and  O3_21 
ROOT
HETATM    1  N1  UNL     1      -2.125  18.630  -7.153  1.00  0.00    -0.272 N 
ENDROOT
BRANCH   1   2
HETATM    2  C9  UNL     1      -1.658  18.364  -5.825  1.00  0.00     0.159 C 
BRANCH   2   3
HETATM    3  C2  UNL     1      -0.808  17.093  -5.839  1.00  0.00     0.002 C 
HETATM    4  C1  UNL     1       0.529  17.429  -5.283  1.00  0.00     0.011 C 
BRANCH   3   5
HETATM    5  C3  UNL     1      -1.597  16.035  -5.176  1.00  0.00     0.010 C 
BRANCH   5   6
HETATM    6  C4  UNL     1      -0.844  14.804  -4.841  1.00  0.00    -0.014 C 
HETATM    7  C5  UNL     1      -0.808  14.394  -3.402  1.00  0.00     0.005 C 
HETATM    8  C6  UNL     1      -0.791  12.844  -3.397  1.00  0.00     0.000 C 
HETATM    9  C7  UNL     1      -0.653  12.467  -4.865  1.00  0.00     0.000 C 
HETATM   10  C8  UNL     1      -1.504  13.568  -5.492  1.00  0.00     0.005 C 
ENDBRANCH   5   6
ENDBRANCH   3   5
ENDBRANCH   2   3
ENDBRANCH   1   2
BRANCH   1  11
HETATM   11  O1  UNL     1      -1.248  18.949  -8.165  1.00  0.00    -0.288 OA
ATOM     12  H1  UNL     1      -1.236  19.817  -8.550  1.00  0.00     0.244 HD
ENDBRANCH   1  11
BRANCH   1  13
HETATM   13  C10 UNL     1      -3.526  18.568  -7.445  1.00  0.00     0.121 C 
BRANCH  13  14
HETATM   14  C11 UNL     1      -4.335  19.522  -7.074  1.00  0.00     0.075 C 
BRANCH  14  15
HETATM   15  C12 UNL     1      -5.656  19.703  -7.579  1.00  0.00     0.139 C 
BRANCH  15  16
HETATM   16  O2  UNL     1      -6.550  20.103  -6.723  1.00  0.00    -0.346 OA
ATOM     17  H2  UNL     1      -7.383  20.381  -7.084  1.00  0.00     0.219 HD
ENDBRANCH  15  16
BRANCH  15  18
HETATM   18  N2  UNL     1      -6.065  19.488  -8.910  1.00  0.00    -0.357 N 
HETATM   19  C13 UNL     1      -6.653  18.515  -9.787  1.00  0.00     0.158 C 
HETATM   20  C14 UNL     1      -7.088  19.608 -10.738  1.00  0.00     0.154 C 
HETATM   21  C15 UNL     1      -5.973  20.374 -10.110  1.00  0.00     0.158 C 
BRANCH  20  22
HETATM   22  O3  UNL     1      -6.801  19.302 -12.070  1.00  0.00    -0.392 OA
ATOM     23  H3  UNL     1      -7.500  18.817 -12.491  1.00  0.00     0.210 HD
ENDBRANCH  20  22
ENDBRANCH  15  18
ENDBRANCH  14  15
ENDBRANCH  13  14
ENDBRANCH   1  13
TORSDOF 11
ENDMDL
MODEL 2
REMARK VINA RESULT: -6.521724779      1.684      2.789
REMARK  11 active torsions:
REMARK  status: ('A' for Active; 'I' for Inactive)
REMARK    1  A    between atoms: C2_2  and  C3_3 
REMARK    2  A    between atoms: C2_2  and  C9_9 
REMARK    3  A    between atoms: C3_3  and  C4_4 
REMARK    4  A    between atoms: C9_9  and  N1_10 
REMARK    5  A    between atoms: N1_10  and  O1_11 
REMARK    6  A    between atoms: N1_10  and  C10_13 
REMARK    7  A    between atoms: C10_13  and  C11_14 
REMARK    8  A    between atoms: C11_14  and  C12_15 
REMARK    9  A    between atoms: C12_15  and  O2_16 
REMARK   10  A    between atoms: C12_15  and  N2_18 
REMARK   11  A    between atoms: C14_20  and  O3_21 
ROOT
HETATM    1  N1  UNL     1      -0.669  17.166  -5.272  1.00  0.00    -0.272 N 
ENDROOT
BRANCH   1   2
HETATM    2  C9  UNL     1      -0.929  16.794  -3.914  1.00  0.00     0.159 C 
BRANCH   2   3
HETATM    3  C2  UNL     1      -0.067  15.585  -3.551  1.00  0.00     0.002 C 
HETATM    4  C1  UNL     1       1.079  16.064  -2.736  1.00  0.00     0.011 C 
BRANCH   3   5
HETATM    5  C3  UNL     1      -0.966  14.568  -2.968  1.00  0.00     0.010 C 
BRANCH   5   6
HETATM    6  C4  UNL     1      -0.987  13.265  -3.673  1.00  0.00    -0.014 C 
HETATM    7  C5  UNL     1      -0.908  13.294  -5.167  1.00  0.00     0.005 C 
HETATM    8  C6  UNL     1      -0.113  12.029  -5.579  1.00  0.00     0.000 C 
HETATM    9  C7  UNL     1       0.073  11.263  -4.277  1.00  0.00     0.000 C 
HETATM   10  C8  UNL     1       0.266  12.435  -3.318  1.00  0.00     0.005 C 
ENDBRANCH   5   6
ENDBRANCH   3   5
ENDBRANCH   2   3
ENDBRANCH   1   2
BRANCH   1  11
HETATM   11  O1  UNL     1       0.274  16.502  -6.023  1.00  0.00    -0.288 OA
ATOM     12  H1  UNL     1       0.489  15.593  -5.850  1.00  0.00     0.244 HD
ENDBRANCH   1  11
BRANCH   1  13
HETATM   13  C10 UNL     1      -1.394  18.247  -5.870  1.00  0.00     0.121 C 
BRANCH  13  14
HETATM   14  C11 UNL     1      -2.394  18.023  -6.677  1.00  0.00     0.075 C 
BRANCH  14  15
HETATM   15  C12 UNL     1      -3.019  19.018  -7.485  1.00  0.00     0.139 C 
BRANCH  15  16
HETATM   16  O2  UNL     1      -2.234  19.916  -8.003  1.00  0.00    -0.346 OA
ATOM     17  H2  UNL     1      -2.587  20.794  -8.071  1.00  0.00     0.219 HD
ENDBRANCH  15  16
BRANCH  15  18
HETATM   18  N2  UNL     1      -4.397  19.106  -7.764  1.00  0.00    -0.357 N 
HETATM   19  C13 UNL     1      -5.586  19.852  -7.459  1.00  0.00     0.158 C 
HETATM   20  C14 UNL     1      -6.232  19.384  -8.743  1.00  0.00     0.154 C 
HETATM   21  C15 UNL     1      -5.271  18.250  -8.624  1.00  0.00     0.158 C 
BRANCH  20  22
HETATM   22  O3  UNL     1      -7.546  18.952  -8.554  1.00  0.00    -0.392 OA
ATOM     23  H3  UNL     1      -8.075  19.042  -9.338  1.00  0.00     0.210 HD
ENDBRANCH  20  22
ENDBRANCH  15  18
ENDBRANCH  14  15
ENDBRANCH  13  14
ENDBRANCH   1  13
TORSDOF 11
ENDMDL
MODEL 3
REMARK VINA RESULT: -6.484555642      1.500      1.879
REMARK  11 active torsions:
REMARK  status: ('A' for Active; 'I' for Inactive)
REMARK    1  A    between atoms: C2_2  and  C3_3 
REMARK    2  A    between atoms: C2_2  and  C9_9 
REMARK    3  A    between atoms: C3_3  and  C4_4 
REMARK    4  A    between atoms: C9_9  and  N1_10 
REMARK    5  A    between atoms: N1_10  and  O1_11 
REMARK    6  A    between atoms: N1_10  and  C10_13 
REMARK    7  A    between atoms: C10_13  and  C11_14 
REMARK    8  A    between atoms: C11_14  and  C12_15 
REMARK    9  A    between atoms: C12_15  and  O2_16 
REMARK   10  A    between atoms: C12_15  and  N2_18 
REMARK   11  A    between atoms: C14_20  and  O3_21 
ROOT
HETATM    1  N1  UNL     1      -1.496  18.887  -6.972  1.00  0.00    -0.272 N 
ENDROOT
BRANCH   1   2
HETATM    2  C9  UNL     1      -2.145  17.800  -6.303  1.00  0.00     0.159 C 
BRANCH   2   3
HETATM    3  C2  UNL     1      -1.090  16.940  -5.606  1.00  0.00     0.002 C 
HETATM    4  C1  UNL     1      -0.377  17.795  -4.621  1.00  0.00     0.011 C 
BRANCH   3   5
HETATM    5  C3  UNL     1      -1.772  15.726  -5.115  1.00  0.00     0.010 C 
BRANCH   5   6
HETATM    6  C4  UNL     1      -0.884  14.576  -4.825  1.00  0.00    -0.014 C 
HETATM    7  C5  UNL     1      -0.800  14.117  -3.403  1.00  0.00     0.005 C 
HETATM    8  C6  UNL     1      -0.606  12.580  -3.459  1.00  0.00     0.000 C 
HETATM    9  C7  UNL     1      -0.427  12.279  -4.941  1.00  0.00     0.000 C 
HETATM   10  C8  UNL     1      -1.400  13.300  -5.526  1.00  0.00     0.005 C 
ENDBRANCH   5   6
ENDBRANCH   3   5
ENDBRANCH   2   3
ENDBRANCH   1   2
BRANCH   1  11
HETATM   11  O1  UNL     1      -0.623  18.663  -8.013  1.00  0.00    -0.288 OA
ATOM     12  H1  UNL     1      -0.107  19.370  -8.382  1.00  0.00     0.244 HD
ENDBRANCH   1  11
BRANCH   1  13
HETATM   13  C10 UNL     1      -1.751  20.235  -6.560  1.00  0.00     0.121 C 
BRANCH  13  14
HETATM   14  C11 UNL     1      -2.945  20.753  -6.648  1.00  0.00     0.075 C 
BRANCH  14  15
HETATM   15  C12 UNL     1      -3.732  20.773  -7.837  1.00  0.00     0.139 C 
BRANCH  15  16
HETATM   16  O2  UNL     1      -3.294  21.524  -8.804  1.00  0.00    -0.346 OA
ATOM     17  H2  UNL     1      -3.070  21.080  -9.613  1.00  0.00     0.219 HD
ENDBRANCH  15  16
BRANCH  15  18
HETATM   18  N2  UNL     1      -4.927  20.056  -8.046  1.00  0.00    -0.357 N 
HETATM   19  C13 UNL     1      -6.352  20.202  -8.143  1.00  0.00     0.158 C 
HETATM   20  C14 UNL     1      -6.451  18.909  -8.919  1.00  0.00     0.154 C 
HETATM   21  C15 UNL     1      -5.159  18.593  -8.243  1.00  0.00     0.158 C 
BRANCH  20  22
HETATM   22  O3  UNL     1      -7.477  18.084  -8.455  1.00  0.00    -0.392 OA
ATOM     23  H3  UNL     1      -7.348  17.174  -8.693  1.00  0.00     0.210 HD
ENDBRANCH  20  22
ENDBRANCH  15  18
ENDBRANCH  14  15
ENDBRANCH  13  14
ENDBRANCH   1  13
TORSDOF 11
ENDMDL
MODEL 4
REMARK VINA RESULT: -6.275494092      1.857      3.510
REMARK  11 active torsions:
REMARK  status: ('A' for Active; 'I' for Inactive)
REMARK    1  A    between atoms: C2_2  and  C3_3 
REMARK    2  A    between atoms: C2_2  and  C9_9 
REMARK    3  A    between atoms: C3_3  and  C4_4 
REMARK    4  A    between atoms: C9_9  and  N1_10 
REMARK    5  A    between atoms: N1_10  and  O1_11 
REMARK    6  A    between atoms: N1_10  and  C10_13 
REMARK    7  A    between atoms: C10_13  and  C11_14 
REMARK    8  A    between atoms: C11_14  and  C12_15 
REMARK    9  A    between atoms: C12_15  and  O2_16 
REMARK   10  A    between atoms: C12_15  and  N2_18 
REMARK   11  A    between atoms: C14_20  and  O3_21 
ROOT
HETATM    1  N1  UNL     1      -1.450  16.628  -4.632  1.00  0.00    -0.272 N 
ENDROOT
BRANCH   1   2
HETATM    2  C9  UNL     1      -0.907  16.520  -3.311  1.00  0.00     0.159 C 
BRANCH   2   3
HETATM    3  C2  UNL     1       0.003  15.293  -3.244  1.00  0.00     0.002 C 
HETATM    4  C1  UNL     1       1.252  15.685  -2.539  1.00  0.00     0.011 C 
BRANCH   3   5
HETATM    5  C3  UNL     1      -0.798  14.186  -2.686  1.00  0.00     0.010 C 
BRANCH   5   6
HETATM    6  C4  UNL     1      -0.889  12.979  -3.541  1.00  0.00    -0.014 C 
HETATM    7  C5  UNL     1      -0.720  13.170  -5.015  1.00  0.00     0.005 C 
HETATM    8  C6  UNL     1      -0.013  11.894  -5.536  1.00  0.00     0.000 C 
HETATM    9  C7  UNL     1       0.032  10.970  -4.327  1.00  0.00     0.000 C 
HETATM   10  C8  UNL     1       0.268  12.004  -3.227  1.00  0.00     0.005 C 
ENDBRANCH   5   6
ENDBRANCH   3   5
ENDBRANCH   2   3
ENDBRANCH   1   2
BRANCH   1  11
HETATM   11  O1  UNL     1      -2.641  16.022  -4.963  1.00  0.00    -0.288 OA
ATOM     12  H1  UNL     1      -2.769  15.089  -4.839  1.00  0.00     0.244 HD
ENDBRANCH   1  11
BRANCH   1  13
HETATM   13  C10 UNL     1      -0.751  17.376  -5.634  1.00  0.00     0.121 C 
BRANCH  13  14
HETATM   14  C11 UNL     1      -1.137  18.576  -5.972  1.00  0.00     0.075 C 
BRANCH  14  15
HETATM   15  C12 UNL     1      -1.836  18.892  -7.174  1.00  0.00     0.139 C 
BRANCH  15  16
HETATM   16  O2  UNL     1      -1.127  18.909  -8.264  1.00  0.00    -0.346 OA
ATOM     17  H2  UNL     1      -1.444  19.467  -8.964  1.00  0.00     0.219 HD
ENDBRANCH  15  16
BRANCH  15  18
HETATM   18  N2  UNL     1      -3.210  19.183  -7.276  1.00  0.00    -0.357 N 
HETATM   19  C13 UNL     1      -4.219  20.120  -6.868  1.00  0.00     0.158 C 
HETATM   20  C14 UNL     1      -5.101  19.702  -8.023  1.00  0.00     0.154 C 
HETATM   21  C15 UNL     1      -4.314  18.437  -7.955  1.00  0.00     0.158 C 
BRANCH  20  22
HETATM   22  O3  UNL     1      -6.426  19.492  -7.635  1.00  0.00    -0.392 OA
ATOM     23  H3  UNL     1      -6.789  18.694  -8.000  1.00  0.00     0.210 HD
ENDBRANCH  20  22
ENDBRANCH  15  18
ENDBRANCH  14  15
ENDBRANCH  13  14
ENDBRANCH   1  13
TORSDOF 11
ENDMDL
MODEL 5
REMARK VINA RESULT: -6.232361547      4.324      6.728
REMARK  11 active torsions:
REMARK  status: ('A' for Active; 'I' for Inactive)
REMARK    1  A    between atoms: C2_2  and  C3_3 
REMARK    2  A    between atoms: C2_2  and  C9_9 
REMARK    3  A    between atoms: C3_3  and  C4_4 
REMARK    4  A    between atoms: C9_9  and  N1_10 
REMARK    5  A    between atoms: N1_10  and  O1_11 
REMARK    6  A    between atoms: N1_10  and  C10_13 
REMARK    7  A    between atoms: C10_13  and  C11_14 
REMARK    8  A    between atoms: C11_14  and  C12_15 
REMARK    9  A    between atoms: C12_15  and  O2_16 
REMARK   10  A    between atoms: C12_15  and  N2_18 
REMARK   11  A    between atoms: C14_20  and  O3_21 
ROOT
HETATM    1  N1  UNL     1      -5.992  19.419  -7.578  1.00  0.00    -0.272 N 
ENDROOT
BRANCH   1   2
HETATM    2  C9  UNL     1      -4.569  19.278  -7.511  1.00  0.00     0.159 C 
BRANCH   2   3
HETATM    3  C2  UNL     1      -3.961  20.580  -6.989  1.00  0.00     0.002 C 
HETATM    4  C1  UNL     1      -2.866  20.232  -6.045  1.00  0.00     0.011 C 
BRANCH   3   5
HETATM    5  C3  UNL     1      -3.633  21.411  -8.166  1.00  0.00     0.010 C 
BRANCH   5   6
HETATM    6  C4  UNL     1      -3.853  22.865  -7.993  1.00  0.00    -0.014 C 
HETATM    7  C5  UNL     1      -4.922  23.287  -7.034  1.00  0.00     0.005 C 
HETATM    8  C6  UNL     1      -4.426  24.606  -6.389  1.00  0.00     0.000 C 
HETATM    9  C7  UNL     1      -3.154  24.942  -7.156  1.00  0.00     0.000 C 
HETATM   10  C8  UNL     1      -2.607  23.532  -7.369  1.00  0.00     0.005 C 
ENDBRANCH   5   6
ENDBRANCH   3   5
ENDBRANCH   2   3
ENDBRANCH   1   2
BRANCH   1  11
HETATM   11  O1  UNL     1      -6.666  20.253  -6.714  1.00  0.00    -0.288 OA
ATOM     12  H1  UNL     1      -7.578  20.101  -6.496  1.00  0.00     0.244 HD
ENDBRANCH   1  11
BRANCH   1  13
HETATM   13  C10 UNL     1      -6.740  18.683  -8.554  1.00  0.00     0.121 C 
BRANCH  13  14
HETATM   14  C11 UNL     1      -6.464  18.778  -9.826  1.00  0.00     0.075 C 
BRANCH  14  15
HETATM   15  C12 UNL     1      -6.977  19.788 -10.691  1.00  0.00     0.139 C 
BRANCH  15  16
HETATM   16  O2  UNL     1      -6.917  19.539 -11.966  1.00  0.00    -0.346 OA
ATOM     17  H2  UNL     1      -6.057  19.341 -12.316  1.00  0.00     0.219 HD
ENDBRANCH  15  16
BRANCH  15  18
HETATM   18  N2  UNL     1      -7.535  21.016 -10.283  1.00  0.00    -0.357 N 
HETATM   19  C13 UNL     1      -8.766  21.644  -9.891  1.00  0.00     0.158 C 
HETATM   20  C14 UNL     1      -8.002  22.739  -9.181  1.00  0.00     0.154 C 
HETATM   21  C15 UNL     1      -6.907  22.363 -10.121  1.00  0.00     0.158 C 
BRANCH  20  22
HETATM   22  O3  UNL     1      -8.499  24.012  -9.471  1.00  0.00    -0.392 OA
ATOM     23  H3  UNL     1      -9.380  24.142  -9.141  1.00  0.00     0.210 HD
ENDBRANCH  20  22
ENDBRANCH  15  18
ENDBRANCH  14  15
ENDBRANCH  13  14
ENDBRANCH   1  13
TORSDOF 11
ENDMDL
