MODEL 1
REMARK VINA RESULT: -5.880290702      0.000      0.000
REMARK  8 active torsions:
REMARK  status: ('A' for Active; 'I' for Inactive)
REMARK    1  A    between atoms: O1_1  and  C1_3 
REMARK    2  A    between atoms: C1_3  and  C2_4 
REMARK    3  A    between atoms: C2_4  and  C3_5 
REMARK    4  A    between atoms: C3_5  and  C4_6 
REMARK    5  A    between atoms: C4_6  and  O2_7 
REMARK    6  A    between atoms: O2_7  and  C5_8 
REMARK    7  A    between atoms: N1_11  and  C8_12 
REMARK    8  A    between atoms: C15_19  and  O3_20 
ROOT
HETATM    1  C5  UNL     1      -7.278  20.030  -8.789  1.00  0.00     0.153 C 
HETATM    2  C6  UNL     1      -6.629  20.786  -7.642  1.00  0.00     0.054 C 
HETATM    3  C7  UNL     1      -5.130  20.903  -7.854  1.00  0.00     0.120 C 
HETATM    4  N1  UNL     1      -4.479  19.649  -7.952  1.00  0.00    -0.406 N 
HETATM    5  C14 UNL     1      -5.249  18.591  -8.504  1.00  0.00     0.151 C 
HETATM    6  C15 UNL     1      -6.254  19.137  -9.465  1.00  0.00     0.164 C 
ENDROOT
BRANCH   1   7
HETATM    7  O2  UNL     1      -7.797  20.932  -9.697  1.00  0.00    -0.383 OA
BRANCH   7   8
HETATM    8  C4  UNL     1      -8.799  21.745  -9.232  1.00  0.00     0.168 C 
BRANCH   8   9
HETATM    9  C3  UNL     1      -8.764  23.071  -9.904  1.00  0.00     0.028 C 
BRANCH   9  10
HETATM   10  C2  UNL     1      -7.687  23.980  -9.330  1.00  0.00     0.028 C 
BRANCH  10  11
HETATM   11  C1  UNL     1      -6.578  24.199 -10.325  1.00  0.00     0.164 C 
BRANCH  11  12
HETATM   12  O1  UNL     1      -5.769  23.051 -10.292  1.00  0.00    -0.401 OA
ATOM     13  H1  UNL     1      -4.925  23.318  -9.948  1.00  0.00     0.209 HD
ENDBRANCH  11  12
ENDBRANCH  10  11
ENDBRANCH   9  10
ENDBRANCH   8   9
ENDBRANCH   7   8
ENDBRANCH   1   7
BRANCH   6  14
HETATM   14  O3  UNL     1      -5.626  19.769 -10.534  1.00  0.00    -0.391 OA
ATOM     15  H3  UNL     1      -4.736  19.460 -10.663  1.00  0.00     0.210 HD
ENDBRANCH   6  14
BRANCH   4  16
HETATM   16  C8  UNL     1      -3.567  19.305  -6.935  1.00  0.00     0.079 C 
HETATM   17  C9  UNL     1      -2.440  18.405  -7.365  1.00  0.00     0.025 C 
HETATM   18  C10 UNL     1      -1.572  18.161  -6.141  1.00  0.00     0.002 C 
HETATM   19  C11 UNL     1      -0.935  19.440  -5.652  1.00  0.00     0.000 C 
HETATM   20  C12 UNL     1      -2.078  20.345  -5.193  1.00  0.00     0.002 C 
HETATM   21  C13 UNL     1      -3.003  20.591  -6.343  1.00  0.00     0.025 C 
ENDBRANCH   4  16
TORSDOF 8
ENDMDL
MODEL 2
REMARK VINA RESULT: -5.449216186      0.936      1.486
REMARK  8 active torsions:
REMARK  status: ('A' for Active; 'I' for Inactive)
REMARK    1  A    between atoms: O1_1  and  C1_3 
REMARK    2  A    between atoms: C1_3  and  C2_4 
REMARK    3  A    between atoms: C2_4  and  C3_5 
REMARK    4  A    between atoms: C3_5  and  C4_6 
REMARK    5  A    between atoms: C4_6  and  O2_7 
REMARK    6  A    between atoms: O2_7  and  C5_8 
REMARK    7  A    between atoms: N1_11  and  C8_12 
REMARK    8  A    between atoms: C15_19  and  O3_20 
ROOT
HETATM    1  C5  UNL     1      -6.504  20.257  -7.873  1.00  0.00     0.153 C 
HETATM    2  C6  UNL     1      -5.489  21.018  -7.037  1.00  0.00     0.054 C 
HETATM    3  C7  UNL     1      -4.145  21.073  -7.740  1.00  0.00     0.120 C 
HETATM    4  N1  UNL     1      -3.597  19.794  -8.003  1.00  0.00    -0.406 N 
HETATM    5  C14 UNL     1      -4.535  18.752  -8.229  1.00  0.00     0.151 C 
HETATM    6  C15 UNL     1      -5.790  19.309  -8.818  1.00  0.00     0.164 C 
ENDROOT
BRANCH   1   7
HETATM    7  O2  UNL     1      -7.273  21.154  -8.587  1.00  0.00    -0.383 OA
BRANCH   7   8
HETATM    8  C4  UNL     1      -7.989  22.058  -7.846  1.00  0.00     0.168 C 
BRANCH   8   9
HETATM    9  C3  UNL     1      -8.154  23.340  -8.582  1.00  0.00     0.028 C 
BRANCH   9  10
HETATM   10  C2  UNL     1      -7.946  23.175 -10.080  1.00  0.00     0.028 C 
BRANCH  10  11
HETATM   11  C1  UNL     1      -6.676  23.847 -10.527  1.00  0.00     0.164 C 
BRANCH  11  12
HETATM   12  O1  UNL     1      -5.619  22.985 -10.191  1.00  0.00    -0.401 OA
ATOM     13  H1  UNL     1      -5.887  22.110 -10.444  1.00  0.00     0.209 HD
ENDBRANCH  11  12
ENDBRANCH  10  11
ENDBRANCH   9  10
ENDBRANCH   8   9
ENDBRANCH   7   8
ENDBRANCH   1   7
BRANCH   6  14
HETATM   14  O3  UNL     1      -5.539  19.890 -10.058  1.00  0.00    -0.391 OA
ATOM     15  H3  UNL     1      -4.865  20.559 -10.013  1.00  0.00     0.210 HD
ENDBRANCH   6  14
BRANCH   4  16
HETATM   16  C8  UNL     1      -2.408  19.442  -7.337  1.00  0.00     0.079 C 
HETATM   17  C9  UNL     1      -1.922  20.444  -6.324  1.00  0.00     0.025 C 
HETATM   18  C10 UNL     1      -0.647  19.881  -5.717  1.00  0.00     0.002 C 
HETATM   19  C11 UNL     1      -0.913  18.602  -4.959  1.00  0.00     0.000 C 
HETATM   20  C12 UNL     1      -1.384  17.578  -5.991  1.00  0.00     0.002 C 
HETATM   21  C13 UNL     1      -2.617  18.091  -6.666  1.00  0.00     0.025 C 
ENDBRANCH   4  16
TORSDOF 8
ENDMDL
MODEL 3
REMARK VINA RESULT: -5.436130712      0.812      1.377
REMARK  8 active torsions:
REMARK  status: ('A' for Active; 'I' for Inactive)
REMARK    1  A    between atoms: O1_1  and  C1_3 
REMARK    2  A    between atoms: C1_3  and  C2_4 
REMARK    3  A    between atoms: C2_4  and  C3_5 
REMARK    4  A    between atoms: C3_5  and  C4_6 
REMARK    5  A    between atoms: C4_6  and  O2_7 
REMARK    6  A    between atoms: O2_7  and  C5_8 
REMARK    7  A    between atoms: N1_11  and  C8_12 
REMARK    8  A    between atoms: C15_19  and  O3_20 
ROOT
HETATM    1  C5  UNL     1      -7.152  19.861  -8.535  1.00  0.00     0.153 C 
HETATM    2  C6  UNL     1      -6.394  20.915  -7.747  1.00  0.00     0.054 C 
HETATM    3  C7  UNL     1      -5.017  21.147  -8.344  1.00  0.00     0.120 C 
HETATM    4  N1  UNL     1      -4.213  19.982  -8.368  1.00  0.00    -0.406 N 
HETATM    5  C14 UNL     1      -4.908  18.751  -8.505  1.00  0.00     0.151 C 
HETATM    6  C15 UNL     1      -6.176  18.960  -9.268  1.00  0.00     0.164 C 
ENDROOT
BRANCH   1   7
HETATM    7  O2  UNL     1      -7.997  20.481  -9.435  1.00  0.00    -0.383 OA
BRANCH   7   8
HETATM    8  C4  UNL     1      -8.621  21.618  -8.990  1.00  0.00     0.168 C 
BRANCH   8   9
HETATM    9  C3  UNL     1      -8.624  22.671 -10.041  1.00  0.00     0.028 C 
BRANCH   9  10
HETATM   10  C2  UNL     1      -7.806  23.889  -9.638  1.00  0.00     0.028 C 
BRANCH  10  11
HETATM   11  C1  UNL     1      -6.736  24.182 -10.657  1.00  0.00     0.164 C 
BRANCH  11  12
HETATM   12  O1  UNL     1      -7.391  24.620 -11.820  1.00  0.00    -0.401 OA
ATOM     13  H1  UNL     1      -8.053  23.970 -12.025  1.00  0.00     0.209 HD
ENDBRANCH  11  12
ENDBRANCH  10  11
ENDBRANCH   9  10
ENDBRANCH   8   9
ENDBRANCH   7   8
ENDBRANCH   1   7
BRANCH   6  14
HETATM   14  O3  UNL     1      -5.908  19.410 -10.558  1.00  0.00    -0.391 OA
ATOM     15  H3  UNL     1      -6.513  20.088 -10.836  1.00  0.00     0.210 HD
ENDBRANCH   6  14
BRANCH   4  16
HETATM   16  C8  UNL     1      -3.056  19.969  -7.565  1.00  0.00     0.079 C 
HETATM   17  C9  UNL     1      -3.065  20.939  -6.414  1.00  0.00     0.025 C 
HETATM   18  C10 UNL     1      -1.749  20.766  -5.675  1.00  0.00     0.002 C 
HETATM   19  C11 UNL     1      -1.632  19.388  -5.069  1.00  0.00     0.000 C 
HETATM   20  C12 UNL     1      -1.599  18.404  -6.239  1.00  0.00     0.002 C 
HETATM   21  C13 UNL     1      -2.851  18.553  -7.043  1.00  0.00     0.025 C 
ENDBRANCH   4  16
TORSDOF 8
ENDMDL
MODEL 4
REMARK VINA RESULT: -5.436054064      2.934      6.808
REMARK  8 active torsions:
REMARK  status: ('A' for Active; 'I' for Inactive)
REMARK    1  A    between atoms: O1_1  and  C1_3 
REMARK    2  A    between atoms: C1_3  and  C2_4 
REMARK    3  A    between atoms: C2_4  and  C3_5 
REMARK    4  A    between atoms: C3_5  and  C4_6 
REMARK    5  A    between atoms: C4_6  and  O2_7 
REMARK    6  A    between atoms: O2_7  and  C5_8 
REMARK    7  A    between atoms: N1_11  and  C8_12 
REMARK    8  A    between atoms: C15_19  and  O3_20 
ROOT
HETATM    1  C5  UNL     1      -1.876  19.466  -7.430  1.00  0.00     0.153 C 
HETATM    2  C6  UNL     1      -2.688  20.734  -7.227  1.00  0.00     0.054 C 
HETATM    3  C7  UNL     1      -4.023  20.422  -6.577  1.00  0.00     0.120 C 
HETATM    4  N1  UNL     1      -4.820  19.531  -7.336  1.00  0.00    -0.406 N 
HETATM    5  C14 UNL     1      -4.114  18.585  -8.125  1.00  0.00     0.151 C 
HETATM    6  C15 UNL     1      -2.801  18.264  -7.489  1.00  0.00     0.164 C 
ENDROOT
BRANCH   1   7
HETATM    7  O2  UNL     1      -0.977  19.326  -6.391  1.00  0.00    -0.383 OA
BRANCH   7   8
HETATM    8  C4  UNL     1      -0.215  20.428  -6.102  1.00  0.00     0.168 C 
BRANCH   8   9
HETATM    9  C3  UNL     1       1.159  20.286  -6.653  1.00  0.00     0.028 C 
BRANCH   9  10
HETATM   10  C2  UNL     1       1.611  18.833  -6.704  1.00  0.00     0.028 C 
BRANCH  10  11
HETATM   11  C1  UNL     1       2.028  18.447  -8.098  1.00  0.00     0.164 C 
BRANCH  11  12
HETATM   12  O1  UNL     1       0.867  18.467  -8.890  1.00  0.00    -0.401 OA
ATOM     13  H1  UNL     1       0.159  18.140  -8.349  1.00  0.00     0.209 HD
ENDBRANCH  11  12
ENDBRANCH  10  11
ENDBRANCH   9  10
ENDBRANCH   8   9
ENDBRANCH   7   8
ENDBRANCH   1   7
BRANCH   6  14
HETATM   14  O3  UNL     1      -2.986  17.678  -6.241  1.00  0.00    -0.391 OA
ATOM     15  H3  UNL     1      -2.535  16.845  -6.163  1.00  0.00     0.210 HD
ENDBRANCH   6  14
BRANCH   4  16
HETATM   16  C8  UNL     1      -6.027  20.025  -7.868  1.00  0.00     0.079 C 
HETATM   17  C9  UNL     1      -6.335  21.459  -7.531  1.00  0.00     0.025 C 
HETATM   18  C10 UNL     1      -7.657  21.800  -8.198  1.00  0.00     0.002 C 
HETATM   19  C11 UNL     1      -7.552  21.729  -9.703  1.00  0.00     0.000 C 
HETATM   20  C12 UNL     1      -7.262  20.268 -10.047  1.00  0.00     0.002 C 
HETATM   21  C13 UNL     1      -5.991  19.848  -9.381  1.00  0.00     0.025 C 
ENDBRANCH   4  16
TORSDOF 8
ENDMDL
MODEL 5
REMARK VINA RESULT: -5.397785243      2.998      7.166
REMARK  8 active torsions:
REMARK  status: ('A' for Active; 'I' for Inactive)
REMARK    1  A    between atoms: O1_1  and  C1_3 
REMARK    2  A    between atoms: C1_3  and  C2_4 
REMARK    3  A    between atoms: C2_4  and  C3_5 
REMARK    4  A    between atoms: C3_5  and  C4_6 
REMARK    5  A    between atoms: C4_6  and  O2_7 
REMARK    6  A    between atoms: O2_7  and  C5_8 
REMARK    7  A    between atoms: N1_11  and  C8_12 
REMARK    8  A    between atoms: C15_19  and  O3_20 
ROOT
HETATM    1  C5  UNL     1      -1.835  19.448  -7.435  1.00  0.00     0.153 C 
HETATM    2  C6  UNL     1      -2.653  20.716  -7.262  1.00  0.00     0.054 C 
HETATM    3  C7  UNL     1      -3.991  20.410  -6.614  1.00  0.00     0.120 C 
HETATM    4  N1  UNL     1      -4.780  19.501  -7.360  1.00  0.00    -0.406 N 
HETATM    5  C14 UNL     1      -4.065  18.543  -8.127  1.00  0.00     0.151 C 
HETATM    6  C15 UNL     1      -2.754  18.241  -7.477  1.00  0.00     0.164 C 
ENDROOT
BRANCH   1   7
HETATM    7  O2  UNL     1      -0.942  19.332  -6.388  1.00  0.00    -0.383 OA
BRANCH   7   8
HETATM    8  C4  UNL     1       0.368  19.122  -6.734  1.00  0.00     0.168 C 
BRANCH   8   9
HETATM    9  C3  UNL     1       0.877  17.853  -6.147  1.00  0.00     0.028 C 
BRANCH   9  10
HETATM   10  C2  UNL     1       0.446  17.675  -4.699  1.00  0.00     0.028 C 
BRANCH  10  11
HETATM   11  C1  UNL     1      -0.224  16.342  -4.496  1.00  0.00     0.164 C 
BRANCH  11  12
HETATM   12  O1  UNL     1      -0.486  15.819  -5.773  1.00  0.00    -0.401 OA
ATOM     13  H1  UNL     1       0.232  16.089  -6.334  1.00  0.00     0.209 HD
ENDBRANCH  11  12
ENDBRANCH  10  11
ENDBRANCH   9  10
ENDBRANCH   8   9
ENDBRANCH   7   8
ENDBRANCH   1   7
BRANCH   6  14
HETATM   14  O3  UNL     1      -2.944  17.678  -6.218  1.00  0.00    -0.391 OA
ATOM     15  H3  UNL     1      -3.681  17.079  -6.198  1.00  0.00     0.210 HD
ENDBRANCH   6  14
BRANCH   4  16
HETATM   16  C8  UNL     1      -5.985  19.979  -7.909  1.00  0.00     0.079 C 
HETATM   17  C9  UNL     1      -6.300  21.419  -7.606  1.00  0.00     0.025 C 
HETATM   18  C10 UNL     1      -7.620  21.741  -8.287  1.00  0.00     0.002 C 
HETATM   19  C11 UNL     1      -7.506  21.637  -9.790  1.00  0.00     0.000 C 
HETATM   20  C12 UNL     1      -7.210  20.170 -10.100  1.00  0.00     0.002 C 
HETATM   21  C13 UNL     1      -5.940  19.769  -9.418  1.00  0.00     0.025 C 
ENDBRANCH   4  16
TORSDOF 8
ENDMDL
