MODEL 1
REMARK VINA RESULT: -6.063241257      0.000      0.000
REMARK  6 active torsions:
REMARK  status: ('A' for Active; 'I' for Inactive)
REMARK    1  A    between atoms: C2_2  and  C4_4 
REMARK    2  A    between atoms: C4_4  and  C5_5 
REMARK    3  A    between atoms: C7_8  and  N1_9 
REMARK    4  A    between atoms: N1_9  and  C8_12 
REMARK    5  A    between atoms: C8_12  and  C9_13 
REMARK    6  A    between atoms: C9_13  and  N2_14 
ROOT
HETATM    1  N1  UNL     1      -0.279  17.747  -5.903  1.00  0.00    -0.021 N 
ATOM      2  H11 UNL     1       0.276  18.602  -5.856  1.00  0.00     0.282 HD
ATOM      3  H12 UNL     1       0.443  17.161  -6.323  1.00  0.00     0.282 HD
ENDROOT
BRANCH   1   4
HETATM    4  C7  UNL     1      -1.497  17.872  -6.722  1.00  0.00     0.524 C 
HETATM    5  O1  UNL     1      -1.201  18.797  -7.685  1.00  0.00    -0.337 OA
HETATM    6  C6  UNL     1      -1.960  19.953  -7.375  1.00  0.00     0.205 C 
HETATM    7  C5  UNL     1      -3.205  19.349  -6.844  1.00  0.00     0.215 C 
HETATM    8  N3  UNL     1      -2.606  18.334  -5.933  1.00  0.00    -0.017 N 
ATOM      9  H32 UNL     1      -2.368  18.670  -5.000  1.00  0.00     0.282 HD
ATOM     10  H31 UNL     1      -3.244  17.608  -5.609  1.00  0.00     0.282 HD
BRANCH   7  11
HETATM   11  C4  UNL     1      -4.047  18.626  -7.791  1.00  0.00     0.039 C 
BRANCH  11  12
HETATM   12  C2  UNL     1      -5.225  19.214  -8.440  1.00  0.00    -0.021 C 
HETATM   13  C1  UNL     1      -6.206  18.233  -8.975  1.00  0.00     0.009 C 
HETATM   14  C3  UNL     1      -5.892  20.124  -7.379  1.00  0.00     0.009 C 
ENDBRANCH  11  12
ENDBRANCH   7  11
ENDBRANCH   1   4
BRANCH   1  15
HETATM   15  C8  UNL     1      -0.741  17.272  -4.603  1.00  0.00     0.268 C 
BRANCH  15  16
HETATM   16  C9  UNL     1      -0.185  15.938  -4.253  1.00  0.00     0.300 C 
BRANCH  16  17
HETATM   17  N2  UNL     1      -1.203  15.083  -3.730  1.00  0.00     0.090 N 
HETATM   18  C10 UNL     1      -1.854  14.373  -4.832  1.00  0.00     0.273 C 
HETATM   19  C11 UNL     1      -0.984  13.282  -5.379  1.00  0.00     0.034 C 
HETATM   20  C12 UNL     1      -0.662  12.319  -4.245  1.00  0.00    -0.015 C 
HETATM   21  C13 UNL     1       0.081  11.113  -4.753  1.00  0.00     0.010 C 
HETATM   22  C14 UNL     1       0.138  13.105  -3.216  1.00  0.00     0.034 C 
HETATM   23  C15 UNL     1      -0.795  14.179  -2.700  1.00  0.00     0.273 C 
ENDBRANCH  16  17
ENDBRANCH  15  16
ENDBRANCH   1  15
TORSDOF 6
ENDMDL
MODEL 2
REMARK VINA RESULT: -5.886691395      5.621      7.894
REMARK  6 active torsions:
REMARK  status: ('A' for Active; 'I' for Inactive)
REMARK    1  A    between atoms: C2_2  and  C4_4 
REMARK    2  A    between atoms: C4_4  and  C5_5 
REMARK    3  A    between atoms: C7_8  and  N1_9 
REMARK    4  A    between atoms: N1_9  and  C8_12 
REMARK    5  A    between atoms: C8_12  and  C9_13 
REMARK    6  A    between atoms: C9_13  and  N2_14 
ROOT
HETATM    1  N1  UNL     1      -7.409  20.585 -11.126  1.00  0.00    -0.021 N 
ATOM      2  H11 UNL     1      -7.023  20.771 -12.052  1.00  0.00     0.282 HD
ATOM      3  H12 UNL     1      -8.381  20.493 -11.420  1.00  0.00     0.282 HD
ENDROOT
BRANCH   1   4
HETATM    4  C7  UNL     1      -7.181  21.672 -10.156  1.00  0.00     0.524 C 
HETATM    5  O1  UNL     1      -8.370  21.836  -9.500  1.00  0.00    -0.337 OA
HETATM    6  C6  UNL     1      -8.894  23.080  -9.931  1.00  0.00     0.205 C 
HETATM    7  C5  UNL     1      -7.656  23.881 -10.081  1.00  0.00     0.215 C 
HETATM    8  N3  UNL     1      -6.825  22.893 -10.823  1.00  0.00    -0.017 N 
ATOM      9  H32 UNL     1      -6.948  22.891 -11.836  1.00  0.00     0.282 HD
ATOM     10  H31 UNL     1      -5.826  23.099 -10.855  1.00  0.00     0.282 HD
BRANCH   7  11
HETATM   11  C4  UNL     1      -6.930  24.215  -8.860  1.00  0.00     0.039 C 
BRANCH  11  12
HETATM   12  C2  UNL     1      -7.590  24.590  -7.603  1.00  0.00    -0.021 C 
HETATM   13  C1  UNL     1      -7.529  23.566  -6.528  1.00  0.00     0.009 C 
HETATM   14  C3  UNL     1      -6.915  25.904  -7.139  1.00  0.00     0.009 C 
ENDBRANCH  11  12
ENDBRANCH   7  11
ENDBRANCH   1   4
BRANCH   1  15
HETATM   15  C8  UNL     1      -6.869  19.389 -10.490  1.00  0.00     0.268 C 
BRANCH  15  16
HETATM   16  C9  UNL     1      -5.645  19.669  -9.694  1.00  0.00     0.300 C 
BRANCH  16  17
HETATM   17  N2  UNL     1      -5.750  19.110  -8.383  1.00  0.00     0.090 N 
HETATM   18  C10 UNL     1      -4.559  18.308  -8.102  1.00  0.00     0.273 C 
HETATM   19  C11 UNL     1      -3.364  19.169  -7.820  1.00  0.00     0.034 C 
HETATM   20  C12 UNL     1      -3.694  20.064  -6.633  1.00  0.00    -0.015 C 
HETATM   21  C13 UNL     1      -2.486  20.848  -6.196  1.00  0.00     0.010 C 
HETATM   22  C14 UNL     1      -4.845  20.960  -7.067  1.00  0.00     0.034 C 
HETATM   23  C15 UNL     1      -6.015  20.035  -7.325  1.00  0.00     0.273 C 
ENDBRANCH  16  17
ENDBRANCH  15  16
ENDBRANCH   1  15
TORSDOF 6
ENDMDL
MODEL 3
REMARK VINA RESULT: -5.885975279      5.132      9.504
REMARK  6 active torsions:
REMARK  status: ('A' for Active; 'I' for Inactive)
REMARK    1  A    between atoms: C2_2  and  C4_4 
REMARK    2  A    between atoms: C4_4  and  C5_5 
REMARK    3  A    between atoms: C7_8  and  N1_9 
REMARK    4  A    between atoms: N1_9  and  C8_12 
REMARK    5  A    between atoms: C8_12  and  C9_13 
REMARK    6  A    between atoms: C9_13  and  N2_14 
ROOT
HETATM    1  N1  UNL     1      -8.030  20.773 -10.520  1.00  0.00    -0.021 N 
ATOM      2  H11 UNL     1      -8.751  20.110 -10.804  1.00  0.00     0.282 HD
ATOM      3  H12 UNL     1      -7.918  21.222 -11.429  1.00  0.00     0.282 HD
ENDROOT
BRANCH   1   4
HETATM    4  C7  UNL     1      -6.800  20.138 -10.014  1.00  0.00     0.524 C 
HETATM    5  O1  UNL     1      -6.736  18.917 -10.628  1.00  0.00    -0.337 OA
HETATM    6  C6  UNL     1      -6.987  17.951  -9.623  1.00  0.00     0.205 C 
HETATM    7  C5  UNL     1      -6.329  18.574  -8.450  1.00  0.00     0.215 C 
HETATM    8  N3  UNL     1      -6.859  19.959  -8.589  1.00  0.00    -0.017 N 
ATOM      9  H32 UNL     1      -7.772  20.122  -8.166  1.00  0.00     0.282 HD
ATOM     10  H31 UNL     1      -6.376  20.669  -8.039  1.00  0.00     0.282 HD
BRANCH   7  11
HETATM   11  C4  UNL     1      -4.873  18.671  -8.482  1.00  0.00     0.039 C 
BRANCH  11  12
HETATM   12  C2  UNL     1      -4.065  19.102  -7.334  1.00  0.00    -0.021 C 
HETATM   13  C1  UNL     1      -2.879  18.255  -7.044  1.00  0.00     0.009 C 
HETATM   14  C3  UNL     1      -3.630  20.558  -7.637  1.00  0.00     0.009 C 
ENDBRANCH  11  12
ENDBRANCH   7  11
ENDBRANCH   1   4
BRANCH   1  15
HETATM   15  C8  UNL     1      -8.450  21.684  -9.460  1.00  0.00     0.268 C 
BRANCH  15  16
HETATM   16  C9  UNL     1      -7.922  23.061  -9.650  1.00  0.00     0.300 C 
BRANCH  16  17
HETATM   17  N2  UNL     1      -8.193  23.873  -8.505  1.00  0.00     0.090 N 
HETATM   18  C10 UNL     1      -7.792  23.154  -7.296  1.00  0.00     0.273 C 
HETATM   19  C11 UNL     1      -6.302  23.128  -7.133  1.00  0.00     0.034 C 
HETATM   20  C12 UNL     1      -5.806  24.566  -7.083  1.00  0.00    -0.015 C 
HETATM   21  C13 UNL     1      -4.336  24.620  -6.766  1.00  0.00     0.010 C 
HETATM   22  C14 UNL     1      -6.134  25.189  -8.432  1.00  0.00     0.034 C 
HETATM   23  C15 UNL     1      -7.645  25.194  -8.529  1.00  0.00     0.273 C 
ENDBRANCH  16  17
ENDBRANCH  15  16
ENDBRANCH   1  15
TORSDOF 6
ENDMDL
MODEL 4
REMARK VINA RESULT: -5.872197287      0.951      1.302
REMARK  6 active torsions:
REMARK  status: ('A' for Active; 'I' for Inactive)
REMARK    1  A    between atoms: C2_2  and  C4_4 
REMARK    2  A    between atoms: C4_4  and  C5_5 
REMARK    3  A    between atoms: C7_8  and  N1_9 
REMARK    4  A    between atoms: N1_9  and  C8_12 
REMARK    5  A    between atoms: C8_12  and  C9_13 
REMARK    6  A    between atoms: C9_13  and  N2_14 
ROOT
HETATM    1  N1  UNL     1      -0.022  18.145  -4.477  1.00  0.00    -0.021 N 
ATOM      2  H11 UNL     1       0.184  19.090  -4.153  1.00  0.00     0.282 HD
ATOM      3  H12 UNL     1       0.901  17.949  -4.864  1.00  0.00     0.282 HD
ENDROOT
BRANCH   1   4
HETATM    4  C7  UNL     1      -1.110  18.080  -5.470  1.00  0.00     0.524 C 
HETATM    5  O1  UNL     1      -0.499  17.862  -6.674  1.00  0.00    -0.337 OA
HETATM    6  C6  UNL     1      -0.641  19.060  -7.416  1.00  0.00     0.205 C 
HETATM    7  C5  UNL     1      -1.986  19.511  -6.986  1.00  0.00     0.215 C 
HETATM    8  N3  UNL     1      -1.842  19.316  -5.516  1.00  0.00    -0.017 N 
ATOM      9  H32 UNL     1      -1.417  20.095  -5.012  1.00  0.00     0.282 HD
ATOM     10  H31 UNL     1      -2.713  19.329  -4.986  1.00  0.00     0.282 HD
BRANCH   7  11
HETATM   11  C4  UNL     1      -3.123  18.702  -7.411  1.00  0.00     0.039 C 
BRANCH  11  12
HETATM   12  C2  UNL     1      -4.509  19.189  -7.414  1.00  0.00    -0.021 C 
HETATM   13  C1  UNL     1      -4.660  20.659  -7.577  1.00  0.00     0.009 C 
HETATM   14  C3  UNL     1      -5.227  18.440  -8.563  1.00  0.00     0.009 C 
ENDBRANCH  11  12
ENDBRANCH   7  11
ENDBRANCH   1   4
BRANCH   1  15
HETATM   15  C8  UNL     1      -0.423  17.230  -3.414  1.00  0.00     0.268 C 
BRANCH  15  16
HETATM   16  C9  UNL     1      -0.044  15.822  -3.702  1.00  0.00     0.300 C 
BRANCH  16  17
HETATM   17  N2  UNL     1      -1.091  14.925  -3.323  1.00  0.00     0.090 N 
HETATM   18  C10 UNL     1      -1.721  14.380  -4.526  1.00  0.00     0.273 C 
HETATM   19  C11 UNL     1      -0.854  13.353  -5.190  1.00  0.00     0.034 C 
HETATM   20  C12 UNL     1      -0.580  12.242  -4.185  1.00  0.00    -0.015 C 
HETATM   21  C13 UNL     1       0.157  11.100  -4.829  1.00  0.00     0.010 C 
HETATM   22  C14 UNL     1       0.203  12.870  -3.041  1.00  0.00     0.034 C 
HETATM   23  C15 UNL     1      -0.727  13.885  -2.411  1.00  0.00     0.273 C 
ENDBRANCH  16  17
ENDBRANCH  15  16
ENDBRANCH   1  15
TORSDOF 6
ENDMDL
MODEL 5
REMARK VINA RESULT: -5.808338363      1.773      7.787
REMARK  6 active torsions:
REMARK  status: ('A' for Active; 'I' for Inactive)
REMARK    1  A    between atoms: C2_2  and  C4_4 
REMARK    2  A    between atoms: C4_4  and  C5_5 
REMARK    3  A    between atoms: C7_8  and  N1_9 
REMARK    4  A    between atoms: N1_9  and  C8_12 
REMARK    5  A    between atoms: C8_12  and  C9_13 
REMARK    6  A    between atoms: C9_13  and  N2_14 
ROOT
HETATM    1  N1  UNL     1      -1.658  17.739  -5.710  1.00  0.00    -0.021 N 
ATOM      2  H11 UNL     1      -0.722  18.112  -5.876  1.00  0.00     0.282 HD
ATOM      3  H12 UNL     1      -1.832  18.242  -4.840  1.00  0.00     0.282 HD
ENDROOT
BRANCH   1   4
HETATM    4  C7  UNL     1      -1.698  16.273  -5.569  1.00  0.00     0.524 C 
HETATM    5  O1  UNL     1      -2.514  16.028  -4.498  1.00  0.00    -0.337 OA
HETATM    6  C6  UNL     1      -1.677  15.549  -3.460  1.00  0.00     0.205 C 
HETATM    7  C5  UNL     1      -0.683  14.761  -4.228  1.00  0.00     0.215 C 
HETATM    8  N3  UNL     1      -0.388  15.742  -5.310  1.00  0.00    -0.017 N 
ATOM      9  H32 UNL     1       0.328  16.433  -5.089  1.00  0.00     0.282 HD
ATOM     10  H31 UNL     1       0.098  15.363  -6.122  1.00  0.00     0.282 HD
BRANCH   7  11
HETATM   11  C4  UNL     1      -1.161  13.545  -4.877  1.00  0.00     0.039 C 
BRANCH  11  12
HETATM   12  C2  UNL     1      -0.868  12.193  -4.382  1.00  0.00    -0.021 C 
HETATM   13  C1  UNL     1       0.195  11.467  -5.124  1.00  0.00     0.009 C 
HETATM   14  C3  UNL     1      -0.474  12.357  -2.893  1.00  0.00     0.009 C 
ENDBRANCH  11  12
ENDBRANCH   7  11
ENDBRANCH   1   4
BRANCH   1  15
HETATM   15  C8  UNL     1      -2.612  18.046  -6.769  1.00  0.00     0.268 C 
BRANCH  15  16
HETATM   16  C9  UNL     1      -3.125  19.439  -6.689  1.00  0.00     0.300 C 
BRANCH  16  17
HETATM   17  N2  UNL     1      -3.591  19.885  -7.964  1.00  0.00     0.090 N 
HETATM   18  C10 UNL     1      -4.877  19.253  -8.258  1.00  0.00     0.273 C 
HETATM   19  C11 UNL     1      -5.989  19.856  -7.454  1.00  0.00     0.034 C 
HETATM   20  C12 UNL     1      -6.047  21.345  -7.767  1.00  0.00    -0.015 C 
HETATM   21  C13 UNL     1      -7.239  21.989  -7.112  1.00  0.00     0.010 C 
HETATM   22  C14 UNL     1      -4.729  21.942  -7.295  1.00  0.00     0.034 C 
HETATM   23  C15 UNL     1      -3.655  21.302  -8.149  1.00  0.00     0.273 C 
ENDBRANCH  16  17
ENDBRANCH  15  16
ENDBRANCH   1  15
TORSDOF 6
ENDMDL
