MODEL 1
REMARK VINA RESULT: -6.844213152      0.000      0.000
REMARK  10 active torsions:
REMARK  status: ('A' for Active; 'I' for Inactive)
REMARK    1  A    between atoms: C4_4  and  C5_5 
REMARK    2  A    between atoms: C5_5  and  C6_6 
REMARK    3  A    between atoms: C6_6  and  O1_9 
REMARK    4  A    between atoms: O1_9  and  C9_10 
REMARK    5  A    between atoms: C10_12  and  C11_13 
REMARK    6  A    between atoms: C11_13  and  O3_14 
REMARK    7  A    between atoms: O3_14  and  S1_15 
REMARK    8  A    between atoms: S1_15  and  N1_16 
REMARK    9  A    between atoms: C12_21  and  O6_22 
REMARK   10  A    between atoms: C13_24  and  O7_25 
ROOT
HETATM    1  C9  UNL     1      -1.153  17.182  -5.794  1.00  0.00     0.292 C 
HETATM    2  O2  UNL     1      -2.500  17.545  -6.030  1.00  0.00    -0.348 OA
HETATM    3  C10 UNL     1      -2.510  18.089  -7.306  1.00  0.00     0.181 C 
HETATM    4  C12 UNL     1      -1.320  19.046  -7.233  1.00  0.00     0.182 C 
HETATM    5  C13 UNL     1      -0.389  18.401  -6.250  1.00  0.00     0.204 C 
ENDROOT
BRANCH   1   6
HETATM    6  O1  UNL     1      -1.069  16.947  -4.442  1.00  0.00    -0.348 OA
BRANCH   6   7
HETATM    7  C6  UNL     1      -0.532  15.745  -4.064  1.00  0.00     0.060 C 
HETATM    8  C7  UNL     1       0.926  15.677  -4.436  1.00  0.00     0.046 C 
HETATM    9  C8  UNL     1      -0.599  15.554  -2.551  1.00  0.00     0.046 C 
BRANCH   7  10
HETATM   10  C5  UNL     1      -1.320  14.607  -4.660  1.00  0.00     0.064 C 
BRANCH  10  11
HETATM   11  C4  UNL     1      -0.462  13.519  -5.164  1.00  0.00    -0.022 C 
HETATM   12  C2  UNL     1      -0.460  12.345  -4.578  1.00  0.00    -0.091 C 
HETATM   13  C1  UNL     1      -1.328  12.108  -3.400  1.00  0.00     0.042 C 
HETATM   14  C3  UNL     1       0.412  11.239  -5.091  1.00  0.00     0.042 C 
ENDBRANCH  10  11
ENDBRANCH   7  10
ENDBRANCH   6   7
ENDBRANCH   1   6
BRANCH   5  15
HETATM   15  O7  UNL     1       0.769  18.061  -6.981  1.00  0.00    -0.388 OA
ATOM     16  H7  UNL     1       0.921  18.656  -7.706  1.00  0.00     0.210 HD
ENDBRANCH   5  15
BRANCH   3  17
HETATM   17  C11 UNL     1      -3.731  18.929  -7.564  1.00  0.00     0.226 C 
BRANCH  17  18
HETATM   18  O3  UNL     1      -4.788  18.143  -8.075  1.00  0.00    -0.257 OA
BRANCH  18  19
HETATM   19  S1  UNL     1      -6.066  19.136  -8.512  1.00  0.00     0.355 S 
HETATM   20  O4  UNL     1      -7.178  18.311  -9.047  1.00  0.00    -0.176 OA
HETATM   21  O5  UNL     1      -5.535  20.068  -9.588  1.00  0.00    -0.176 OA
BRANCH  19  22
HETATM   22  N1  UNL     1      -6.598  20.126  -7.213  1.00  0.00    -0.306 N 
ATOM     23  H12 UNL     1      -6.024  20.865  -6.806  1.00  0.00     0.171 HD
ATOM     24  H11 UNL     1      -7.540  19.888  -6.905  1.00  0.00     0.171 HD
ENDBRANCH  19  22
ENDBRANCH  18  19
ENDBRANCH  17  18
ENDBRANCH   3  17
BRANCH   4  25
HETATM   25  O6  UNL     1      -1.765  20.256  -6.708  1.00  0.00    -0.390 OA
ATOM     26  H6  UNL     1      -2.434  20.604  -7.285  1.00  0.00     0.210 HD
ENDBRANCH   4  25
TORSDOF 10
ENDMDL
MODEL 2
REMARK VINA RESULT: -6.772139516      1.341      1.711
REMARK  10 active torsions:
REMARK  status: ('A' for Active; 'I' for Inactive)
REMARK    1  A    between atoms: C4_4  and  C5_5 
REMARK    2  A    between atoms: C5_5  and  C6_6 
REMARK    3  A    between atoms: C6_6  and  O1_9 
REMARK    4  A    between atoms: O1_9  and  C9_10 
REMARK    5  A    between atoms: C10_12  and  C11_13 
REMARK    6  A    between atoms: C11_13  and  O3_14 
REMARK    7  A    between atoms: O3_14  and  S1_15 
REMARK    8  A    between atoms: S1_15  and  N1_16 
REMARK    9  A    between atoms: C12_21  and  O6_22 
REMARK   10  A    between atoms: C13_24  and  O7_25 
ROOT
HETATM    1  C9  UNL     1      -1.678  18.219  -6.283  1.00  0.00     0.292 C 
HETATM    2  O2  UNL     1      -2.967  17.781  -6.670  1.00  0.00    -0.348 OA
HETATM    3  C10 UNL     1      -3.293  18.552  -7.777  1.00  0.00     0.181 C 
HETATM    4  C12 UNL     1      -2.930  19.953  -7.285  1.00  0.00     0.182 C 
HETATM    5  C13 UNL     1      -1.807  19.722  -6.316  1.00  0.00     0.204 C 
ENDROOT
BRANCH   1   6
HETATM    6  O1  UNL     1      -1.483  17.707  -5.022  1.00  0.00    -0.348 OA
BRANCH   6   7
HETATM    7  C6  UNL     1      -0.484  16.778  -4.890  1.00  0.00     0.060 C 
HETATM    8  C7  UNL     1       0.691  17.137  -5.761  1.00  0.00     0.046 C 
HETATM    9  C8  UNL     1       0.043  16.724  -3.459  1.00  0.00     0.046 C 
BRANCH   7  10
HETATM   10  C5  UNL     1      -1.008  15.398  -5.191  1.00  0.00     0.064 C 
BRANCH  10  11
HETATM   11  C4  UNL     1      -0.975  14.505  -4.017  1.00  0.00    -0.022 C 
HETATM   12  C2  UNL     1      -0.720  13.226  -4.158  1.00  0.00    -0.091 C 
HETATM   13  C1  UNL     1      -0.461  12.671  -5.508  1.00  0.00     0.042 C 
HETATM   14  C3  UNL     1      -0.687  12.320  -2.965  1.00  0.00     0.042 C 
ENDBRANCH  10  11
ENDBRANCH   7  10
ENDBRANCH   6   7
ENDBRANCH   1   6
BRANCH   5  15
HETATM   15  O7  UNL     1      -0.674  20.341  -6.885  1.00  0.00    -0.388 OA
ATOM     16  H7  UNL     1      -0.706  21.287  -6.808  1.00  0.00     0.210 HD
ENDBRANCH   5  15
BRANCH   3  17
HETATM   17  C11 UNL     1      -4.771  18.558  -8.058  1.00  0.00     0.226 C 
BRANCH  17  18
HETATM   18  O3  UNL     1      -5.084  19.461  -9.099  1.00  0.00    -0.257 OA
BRANCH  18  19
HETATM   19  S1  UNL     1      -6.677  19.237  -9.576  1.00  0.00     0.355 S 
HETATM   20  O4  UNL     1      -7.172  17.935  -9.063  1.00  0.00    -0.176 OA
HETATM   21  O5  UNL     1      -6.673  19.240 -11.095  1.00  0.00    -0.176 OA
BRANCH  19  22
HETATM   22  N1  UNL     1      -7.695  20.528  -9.077  1.00  0.00    -0.306 N 
ATOM     23  H12 UNL     1      -7.470  21.143  -8.296  1.00  0.00     0.171 HD
ATOM     24  H11 UNL     1      -8.536  20.601  -9.650  1.00  0.00     0.171 HD
ENDBRANCH  19  22
ENDBRANCH  18  19
ENDBRANCH  17  18
ENDBRANCH   3  17
BRANCH   4  25
HETATM   25  O6  UNL     1      -4.022  20.471  -6.596  1.00  0.00    -0.390 OA
ATOM     26  H6  UNL     1      -4.299  21.268  -7.033  1.00  0.00     0.210 HD
ENDBRANCH   4  25
TORSDOF 10
ENDMDL
MODEL 3
REMARK VINA RESULT: -6.667348246      1.230      1.294
REMARK  10 active torsions:
REMARK  status: ('A' for Active; 'I' for Inactive)
REMARK    1  A    between atoms: C4_4  and  C5_5 
REMARK    2  A    between atoms: C5_5  and  C6_6 
REMARK    3  A    between atoms: C6_6  and  O1_9 
REMARK    4  A    between atoms: O1_9  and  C9_10 
REMARK    5  A    between atoms: C10_12  and  C11_13 
REMARK    6  A    between atoms: C11_13  and  O3_14 
REMARK    7  A    between atoms: O3_14  and  S1_15 
REMARK    8  A    between atoms: S1_15  and  N1_16 
REMARK    9  A    between atoms: C12_21  and  O6_22 
REMARK   10  A    between atoms: C13_24  and  O7_25 
ROOT
HETATM    1  C9  UNL     1      -1.445  18.018  -6.084  1.00  0.00     0.292 C 
HETATM    2  O2  UNL     1      -2.788  17.698  -6.395  1.00  0.00    -0.348 OA
HETATM    3  C10 UNL     1      -3.053  18.365  -7.582  1.00  0.00     0.181 C 
HETATM    4  C12 UNL     1      -2.510  19.760  -7.271  1.00  0.00     0.182 C 
HETATM    5  C13 UNL     1      -1.394  19.511  -6.298  1.00  0.00     0.204 C 
ENDROOT
BRANCH   1   6
HETATM    6  O1  UNL     1      -1.274  17.640  -4.772  1.00  0.00    -0.348 OA
BRANCH   6   7
HETATM    7  C6  UNL     1      -0.499  16.531  -4.554  1.00  0.00     0.060 C 
HETATM    8  C7  UNL     1       0.609  16.452  -5.572  1.00  0.00     0.046 C 
HETATM    9  C8  UNL     1       0.177  16.583  -3.187  1.00  0.00     0.046 C 
BRANCH   7  10
HETATM   10  C5  UNL     1      -1.350  15.288  -4.549  1.00  0.00     0.064 C 
BRANCH  10  11
HETATM   11  C4  UNL     1      -0.715  14.157  -5.250  1.00  0.00    -0.022 C 
HETATM   12  C2  UNL     1      -0.440  13.045  -4.611  1.00  0.00    -0.091 C 
HETATM   13  C1  UNL     1      -0.769  12.923  -3.171  1.00  0.00     0.042 C 
HETATM   14  C3  UNL     1       0.205  11.896  -5.324  1.00  0.00     0.042 C 
ENDBRANCH  10  11
ENDBRANCH   7  10
ENDBRANCH   6   7
ENDBRANCH   1   6
BRANCH   5  15
HETATM   15  O7  UNL     1      -0.213  19.914  -6.956  1.00  0.00    -0.388 OA
ATOM     16  H7  UNL     1      -0.099  20.858  -6.941  1.00  0.00     0.210 HD
ENDBRANCH   5  15
BRANCH   3  17
HETATM   17  C11 UNL     1      -4.526  18.518  -7.840  1.00  0.00     0.226 C 
BRANCH  17  18
HETATM   18  O3  UNL     1      -4.763  19.375  -8.939  1.00  0.00    -0.257 OA
BRANCH  18  19
HETATM   19  S1  UNL     1      -6.399  19.377  -9.307  1.00  0.00     0.355 S 
HETATM   20  O4  UNL     1      -6.588  19.010 -10.733  1.00  0.00    -0.176 OA
HETATM   21  O5  UNL     1      -6.892  20.792  -9.056  1.00  0.00    -0.176 OA
BRANCH  19  22
HETATM   22  N1  UNL     1      -7.302  18.343  -8.275  1.00  0.00    -0.306 N 
ATOM     23  H12 UNL     1      -7.193  17.329  -8.271  1.00  0.00     0.171 HD
ATOM     24  H11 UNL     1      -7.948  18.860  -7.678  1.00  0.00     0.171 HD
ENDBRANCH  19  22
ENDBRANCH  18  19
ENDBRANCH  17  18
ENDBRANCH   3  17
BRANCH   4  25
HETATM   25  O6  UNL     1      -3.511  20.486  -6.634  1.00  0.00    -0.390 OA
ATOM     26  H6  UNL     1      -3.273  21.405  -6.656  1.00  0.00     0.210 HD
ENDBRANCH   4  25
TORSDOF 10
ENDMDL
MODEL 4
REMARK VINA RESULT: -6.626218188      5.203      8.530
REMARK  10 active torsions:
REMARK  status: ('A' for Active; 'I' for Inactive)
REMARK    1  A    between atoms: C4_4  and  C5_5 
REMARK    2  A    between atoms: C5_5  and  C6_6 
REMARK    3  A    between atoms: C6_6  and  O1_9 
REMARK    4  A    between atoms: O1_9  and  C9_10 
REMARK    5  A    between atoms: C10_12  and  C11_13 
REMARK    6  A    between atoms: C11_13  and  O3_14 
REMARK    7  A    between atoms: O3_14  and  S1_15 
REMARK    8  A    between atoms: S1_15  and  N1_16 
REMARK    9  A    between atoms: C12_21  and  O6_22 
REMARK   10  A    between atoms: C13_24  and  O7_25 
ROOT
HETATM    1  C9  UNL     1      -4.351  22.492  -7.141  1.00  0.00     0.292 C 
HETATM    2  O2  UNL     1      -5.022  21.448  -7.822  1.00  0.00    -0.348 OA
HETATM    3  C10 UNL     1      -4.718  20.297  -7.110  1.00  0.00     0.181 C 
HETATM    4  C12 UNL     1      -3.204  20.437  -6.947  1.00  0.00     0.182 C 
HETATM    5  C13 UNL     1      -2.972  21.919  -6.919  1.00  0.00     0.204 C 
ENDROOT
BRANCH   1   6
HETATM    6  O1  UNL     1      -4.374  23.564  -8.003  1.00  0.00    -0.348 OA
BRANCH   6   7
HETATM    7  C6  UNL     1      -4.787  24.759  -7.476  1.00  0.00     0.060 C 
HETATM    8  C7  UNL     1      -5.310  24.568  -6.077  1.00  0.00     0.046 C 
HETATM    9  C8  UNL     1      -3.631  25.751  -7.371  1.00  0.00     0.046 C 
BRANCH   7  10
HETATM   10  C5  UNL     1      -5.807  25.406  -8.376  1.00  0.00     0.064 C 
BRANCH  10  11
HETATM   11  C4  UNL     1      -7.095  24.689  -8.388  1.00  0.00    -0.022 C 
HETATM   12  C2  UNL     1      -7.506  24.070  -9.469  1.00  0.00    -0.091 C 
HETATM   13  C1  UNL     1      -6.667  24.089 -10.692  1.00  0.00     0.042 C 
HETATM   14  C3  UNL     1      -8.816  23.342  -9.480  1.00  0.00     0.042 C 
ENDBRANCH  10  11
ENDBRANCH   7  10
ENDBRANCH   6   7
ENDBRANCH   1   6
BRANCH   5  15
HETATM   15  O7  UNL     1      -2.479  22.207  -5.629  1.00  0.00    -0.388 OA
ATOM     16  H7  UNL     1      -2.868  21.651  -4.964  1.00  0.00     0.210 HD
ENDBRANCH   5  15
BRANCH   3  17
HETATM   17  C11 UNL     1      -4.957  19.046  -7.909  1.00  0.00     0.226 C 
BRANCH  17  18
HETATM   18  O3  UNL     1      -5.079  19.340  -9.286  1.00  0.00    -0.257 OA
BRANCH  18  19
HETATM   19  S1  UNL     1      -6.665  19.098  -9.774  1.00  0.00     0.355 S 
HETATM   20  O4  UNL     1      -7.043  17.680  -9.551  1.00  0.00    -0.176 OA
HETATM   21  O5  UNL     1      -6.713  19.431 -11.256  1.00  0.00    -0.176 OA
BRANCH  19  22
HETATM   22  N1  UNL     1      -7.759  20.163  -8.988  1.00  0.00    -0.306 N 
ATOM     23  H12 UNL     1      -7.795  20.274  -7.974  1.00  0.00     0.171 HD
ATOM     24  H11 UNL     1      -8.357  20.660  -9.647  1.00  0.00     0.171 HD
ENDBRANCH  19  22
ENDBRANCH  18  19
ENDBRANCH  17  18
ENDBRANCH   3  17
BRANCH   4  25
HETATM   25  O6  UNL     1      -2.592  19.905  -8.077  1.00  0.00    -0.390 OA
ATOM     26  H6  UNL     1      -2.209  20.618  -8.573  1.00  0.00     0.210 HD
ENDBRANCH   4  25
TORSDOF 10
ENDMDL
MODEL 5
REMARK VINA RESULT: -6.452535927      4.906      7.938
REMARK  10 active torsions:
REMARK  status: ('A' for Active; 'I' for Inactive)
REMARK    1  A    between atoms: C4_4  and  C5_5 
REMARK    2  A    between atoms: C5_5  and  C6_6 
REMARK    3  A    between atoms: C6_6  and  O1_9 
REMARK    4  A    between atoms: O1_9  and  C9_10 
REMARK    5  A    between atoms: C10_12  and  C11_13 
REMARK    6  A    between atoms: C11_13  and  O3_14 
REMARK    7  A    between atoms: O3_14  and  S1_15 
REMARK    8  A    between atoms: S1_15  and  N1_16 
REMARK    9  A    between atoms: C12_21  and  O6_22 
REMARK   10  A    between atoms: C13_24  and  O7_25 
ROOT
HETATM    1  C9  UNL     1      -3.761  22.175  -6.638  1.00  0.00     0.292 C 
HETATM    2  O2  UNL     1      -4.521  21.382  -7.530  1.00  0.00    -0.348 OA
HETATM    3  C10 UNL     1      -4.413  20.087  -7.044  1.00  0.00     0.181 C 
HETATM    4  C12 UNL     1      -2.907  19.980  -6.805  1.00  0.00     0.182 C 
HETATM    5  C13 UNL     1      -2.486  21.384  -6.483  1.00  0.00     0.204 C 
ENDROOT
BRANCH   1   6
HETATM    6  O1  UNL     1      -3.592  23.382  -7.276  1.00  0.00    -0.348 OA
BRANCH   6   7
HETATM    7  C6  UNL     1      -4.063  24.489  -6.620  1.00  0.00     0.060 C 
HETATM    8  C7  UNL     1      -3.290  24.718  -5.348  1.00  0.00     0.046 C 
HETATM    9  C8  UNL     1      -3.890  25.751  -7.461  1.00  0.00     0.046 C 
BRANCH   7  10
HETATM   10  C5  UNL     1      -5.542  24.360  -6.367  1.00  0.00     0.064 C 
BRANCH  10  11
HETATM   11  C4  UNL     1      -6.340  24.396  -7.606  1.00  0.00    -0.022 C 
HETATM   12  C2  UNL     1      -7.366  23.593  -7.763  1.00  0.00    -0.091 C 
HETATM   13  C1  UNL     1      -7.728  22.641  -6.686  1.00  0.00     0.042 C 
HETATM   14  C3  UNL     1      -8.177  23.630  -9.023  1.00  0.00     0.042 C 
ENDBRANCH  10  11
ENDBRANCH   7  10
ENDBRANCH   6   7
ENDBRANCH   1   6
BRANCH   5  15
HETATM   15  O7  UNL     1      -2.038  21.355  -5.146  1.00  0.00    -0.388 OA
ATOM     16  H7  UNL     1      -2.652  21.772  -4.553  1.00  0.00     0.210 HD
ENDBRANCH   5  15
BRANCH   3  17
HETATM   17  C11 UNL     1      -4.765  19.053  -8.078  1.00  0.00     0.226 C 
BRANCH  17  18
HETATM   18  O3  UNL     1      -5.111  19.661  -9.306  1.00  0.00    -0.257 OA
BRANCH  18  19
HETATM   19  S1  UNL     1      -6.615  19.109  -9.802  1.00  0.00     0.355 S 
HETATM   20  O4  UNL     1      -6.700  19.158 -11.283  1.00  0.00    -0.176 OA
HETATM   21  O5  UNL     1      -7.640  20.045  -9.183  1.00  0.00    -0.176 OA
BRANCH  19  22
HETATM   22  N1  UNL     1      -6.959  17.533  -9.213  1.00  0.00    -0.306 N 
ATOM     23  H12 UNL     1      -7.557  16.872  -9.709  1.00  0.00     0.171 HD
ATOM     24  H11 UNL     1      -6.498  17.343  -8.322  1.00  0.00     0.171 HD
ENDBRANCH  19  22
ENDBRANCH  18  19
ENDBRANCH  17  18
ENDBRANCH   3  17
BRANCH   4  25
HETATM   25  O6  UNL     1      -2.302  19.589  -7.995  1.00  0.00    -0.390 OA
ATOM     26  H6  UNL     1      -1.403  19.348  -7.808  1.00  0.00     0.210 HD
ENDBRANCH   4  25
TORSDOF 10
ENDMDL
