MODEL 1
REMARK VINA RESULT: -6.458846119      0.000      0.000
REMARK  9 active torsions:
REMARK  status: ('A' for Active; 'I' for Inactive)
REMARK    1  A    between atoms: C2_2  and  C4_4 
REMARK    2  A    between atoms: C4_4  and  C5_5 
REMARK    3  A    between atoms: C4_4  and  C6_7 
REMARK    4  A    between atoms: C6_7  and  C7_8 
REMARK    5  A    between atoms: N1_10  and  O2_12 
REMARK    6  A    between atoms: O2_12  and  O3_13 
REMARK    7  A    between atoms: C11_18  and  C12_19 
REMARK    8  A    between atoms: C12_19  and  O5_20 
REMARK    9  A    between atoms: C12_19  and  C13_22 
ROOT
HETATM    1  C7  UNL     1      -7.553  24.257  -7.839  1.00  0.00     0.041 C 
HETATM    2  C8  UNL     1      -7.471  24.262  -9.343  1.00  0.00     0.020 C 
HETATM    3  N1  UNL     1      -6.774  24.990 -10.104  1.00  0.00    -0.243 N 
ATOM      4  H1  UNL     1      -6.156  25.697  -9.707  1.00  0.00     0.196 HD
HETATM    5  C9  UNL     1      -8.412  23.198  -9.760  1.00  0.00     0.087 C 
HETATM    6  C10 UNL     1      -8.481  22.235  -8.581  1.00  0.00     0.132 C 
HETATM    7  O4  UNL     1      -8.038  20.979  -8.914  1.00  0.00    -0.377 OA
HETATM    8  C11 UNL     1      -6.787  20.777  -8.407  1.00  0.00     0.161 C 
HETATM    9  C14 UNL     1      -6.245  22.119  -7.963  1.00  0.00     0.043 C 
HETATM   10  C15 UNL     1      -7.537  22.804  -7.541  1.00  0.00     0.027 C 
ENDROOT
BRANCH   1  11
HETATM   11  C6  UNL     1      -6.394  25.028  -7.329  1.00  0.00     0.023 C 
BRANCH  11  12
HETATM   12  C4  UNL     1      -5.952  24.622  -5.942  1.00  0.00     0.051 C 
BRANCH  12  13
HETATM   13  C2  UNL     1      -4.453  24.642  -5.803  1.00  0.00    -0.012 C 
HETATM   14  C1  UNL     1      -3.727  24.821  -7.090  1.00  0.00     0.010 C 
HETATM   15  C3  UNL     1      -4.091  25.814  -4.893  1.00  0.00     0.010 C 
ENDBRANCH  12  13
BRANCH  12  16
HETATM   16  C5  UNL     1      -6.661  25.339  -4.879  1.00  0.00     0.236 C 
HETATM   17  O1  UNL     1      -7.636  24.878  -4.280  1.00  0.00    -0.306 OA
ENDBRANCH  12  16
ENDBRANCH  11  12
ENDBRANCH   1  11
BRANCH   3  18
HETATM   18  O2  UNL     1      -6.850  24.830 -11.463  1.00  0.00    -0.115 OA
BRANCH  18  19
HETATM   19  O3  UNL     1      -7.720  25.498 -12.222  1.00  0.00    -0.227 OA
ATOM     20  H3  UNL     1      -7.460  25.987 -12.994  1.00  0.00     0.256 HD
ENDBRANCH  18  19
ENDBRANCH   3  18
BRANCH   8  21
HETATM   21  C12 UNL     1      -5.911  20.136  -9.457  1.00  0.00     0.247 C 
BRANCH  21  22
HETATM   22  O5  UNL     1      -4.774  19.570  -8.936  1.00  0.00    -0.382 OA
ATOM     23  H5  UNL     1      -4.635  18.678  -9.231  1.00  0.00     0.210 HD
ENDBRANCH  21  22
BRANCH  21  24
HETATM   24  C13 UNL     1      -6.644  19.164 -10.288  1.00  0.00     0.205 C 
HETATM   25  O6  UNL     1      -7.039  18.092  -9.787  1.00  0.00    -0.646 OA
HETATM   26  O7  UNL     1      -6.884  19.446 -11.610  1.00  0.00    -0.646 OA
ENDBRANCH  21  24
ENDBRANCH   8  21
TORSDOF 9
ENDMDL
MODEL 2
REMARK VINA RESULT: -6.435052318      1.418      1.881
REMARK  9 active torsions:
REMARK  status: ('A' for Active; 'I' for Inactive)
REMARK    1  A    between atoms: C2_2  and  C4_4 
REMARK    2  A    between atoms: C4_4  and  C5_5 
REMARK    3  A    between atoms: C4_4  and  C6_7 
REMARK    4  A    between atoms: C6_7  and  C7_8 
REMARK    5  A    between atoms: N1_10  and  O2_12 
REMARK    6  A    between atoms: O2_12  and  O3_13 
REMARK    7  A    between atoms: C11_18  and  C12_19 
REMARK    8  A    between atoms: C12_19  and  O5_20 
REMARK    9  A    between atoms: C12_19  and  C13_22 
ROOT
HETATM    1  C7  UNL     1      -7.662  24.072  -7.956  1.00  0.00     0.041 C 
HETATM    2  C8  UNL     1      -7.584  24.152  -9.458  1.00  0.00     0.020 C 
HETATM    3  N1  UNL     1      -6.776  24.797 -10.184  1.00  0.00    -0.243 N 
ATOM      4  H1  UNL     1      -6.046  25.365  -9.754  1.00  0.00     0.196 HD
HETATM    5  C9  UNL     1      -8.691  23.288  -9.925  1.00  0.00     0.087 C 
HETATM    6  C10 UNL     1      -8.919  22.282  -8.804  1.00  0.00     0.132 C 
HETATM    7  O4  UNL     1      -8.694  20.992  -9.214  1.00  0.00    -0.377 OA
HETATM    8  C11 UNL     1      -7.495  20.552  -8.735  1.00  0.00     0.161 C 
HETATM    9  C14 UNL     1      -6.733  21.756  -8.220  1.00  0.00     0.043 C 
HETATM   10  C15 UNL     1      -7.891  22.622  -7.743  1.00  0.00     0.027 C 
ENDROOT
BRANCH   1  11
HETATM   11  C6  UNL     1      -6.388  24.606  -7.417  1.00  0.00     0.023 C 
BRANCH  11  12
HETATM   12  C4  UNL     1      -6.549  25.882  -6.623  1.00  0.00     0.051 C 
BRANCH  12  13
HETATM   13  C2  UNL     1      -6.029  25.736  -5.218  1.00  0.00    -0.012 C 
HETATM   14  C1  UNL     1      -6.880  24.887  -4.341  1.00  0.00     0.010 C 
HETATM   15  C3  UNL     1      -4.649  25.089  -5.303  1.00  0.00     0.010 C 
ENDBRANCH  12  13
BRANCH  12  16
HETATM   16  C5  UNL     1      -6.047  27.065  -7.327  1.00  0.00     0.236 C 
HETATM   17  O1  UNL     1      -5.622  27.039  -8.485  1.00  0.00    -0.306 OA
ENDBRANCH  12  16
ENDBRANCH  11  12
ENDBRANCH   1  11
BRANCH   3  18
HETATM   18  O2  UNL     1      -6.880  24.732 -11.549  1.00  0.00    -0.115 OA
BRANCH  18  19
HETATM   19  O3  UNL     1      -7.658  25.555 -12.254  1.00  0.00    -0.227 OA
ATOM     20  H3  UNL     1      -7.618  26.500 -12.168  1.00  0.00     0.256 HD
ENDBRANCH  18  19
ENDBRANCH   3  18
BRANCH   8  21
HETATM   21  C12 UNL     1      -6.741  19.837  -9.831  1.00  0.00     0.247 C 
BRANCH  21  22
HETATM   22  O5  UNL     1      -5.582  20.478 -10.192  1.00  0.00    -0.382 OA
ATOM     23  H5  UNL     1      -4.800  20.010  -9.926  1.00  0.00     0.210 HD
ENDBRANCH  21  22
BRANCH  21  24
HETATM   24  C13 UNL     1      -6.476  18.424  -9.505  1.00  0.00     0.205 C 
HETATM   25  O6  UNL     1      -7.189  17.529 -10.001  1.00  0.00    -0.646 OA
HETATM   26  O7  UNL     1      -5.445  18.105  -8.657  1.00  0.00    -0.646 OA
ENDBRANCH  21  24
ENDBRANCH   8  21
TORSDOF 9
ENDMDL
MODEL 3
REMARK VINA RESULT: -6.272368957      2.002      2.836
REMARK  9 active torsions:
REMARK  status: ('A' for Active; 'I' for Inactive)
REMARK    1  A    between atoms: C2_2  and  C4_4 
REMARK    2  A    between atoms: C4_4  and  C5_5 
REMARK    3  A    between atoms: C4_4  and  C6_7 
REMARK    4  A    between atoms: C6_7  and  C7_8 
REMARK    5  A    between atoms: N1_10  and  O2_12 
REMARK    6  A    between atoms: O2_12  and  O3_13 
REMARK    7  A    between atoms: C11_18  and  C12_19 
REMARK    8  A    between atoms: C12_19  and  O5_20 
REMARK    9  A    between atoms: C12_19  and  C13_22 
ROOT
HETATM    1  C7  UNL     1      -5.144  23.726  -7.163  1.00  0.00     0.041 C 
HETATM    2  C8  UNL     1      -5.897  24.506  -8.208  1.00  0.00     0.020 C 
HETATM    3  N1  UNL     1      -5.455  25.285  -9.099  1.00  0.00    -0.243 N 
ATOM      4  H1  UNL     1      -4.452  25.454  -9.176  1.00  0.00     0.196 HD
HETATM    5  C9  UNL     1      -7.316  24.159  -7.967  1.00  0.00     0.087 C 
HETATM    6  C10 UNL     1      -7.289  22.787  -7.304  1.00  0.00     0.132 C 
HETATM    7  O4  UNL     1      -7.930  21.836  -8.059  1.00  0.00    -0.377 OA
HETATM    8  C11 UNL     1      -7.014  21.039  -8.681  1.00  0.00     0.161 C 
HETATM    9  C14 UNL     1      -5.662  21.711  -8.565  1.00  0.00     0.043 C 
HETATM   10  C15 UNL     1      -5.823  22.409  -7.222  1.00  0.00     0.027 C 
ENDROOT
BRANCH   1  11
HETATM   11  C6  UNL     1      -3.714  23.728  -7.554  1.00  0.00     0.023 C 
BRANCH  11  12
HETATM   12  C4  UNL     1      -2.810  24.423  -6.562  1.00  0.00     0.051 C 
BRANCH  12  13
HETATM   13  C2  UNL     1      -1.780  23.487  -5.989  1.00  0.00    -0.012 C 
HETATM   14  C1  UNL     1      -2.087  22.046  -6.200  1.00  0.00     0.010 C 
HETATM   15  C3  UNL     1      -0.451  23.790  -6.675  1.00  0.00     0.010 C 
ENDBRANCH  12  13
BRANCH  12  16
HETATM   16  C5  UNL     1      -2.257  25.682  -7.071  1.00  0.00     0.236 C 
HETATM   17  O1  UNL     1      -2.835  26.396  -7.894  1.00  0.00    -0.306 OA
ENDBRANCH  12  16
ENDBRANCH  11  12
ENDBRANCH   1  11
BRANCH   3  18
HETATM   18  O2  UNL     1      -6.323  25.903  -9.961  1.00  0.00    -0.115 OA
BRANCH  18  19
HETATM   19  O3  UNL     1      -6.236  25.779 -11.286  1.00  0.00    -0.227 OA
ATOM     20  H3  UNL     1      -5.422  25.894 -11.762  1.00  0.00     0.256 HD
ENDBRANCH  18  19
ENDBRANCH   3  18
BRANCH   8  21
HETATM   21  C12 UNL     1      -7.417  20.832 -10.122  1.00  0.00     0.247 C 
BRANCH  21  22
HETATM   22  O5  UNL     1      -7.027  21.862 -10.942  1.00  0.00    -0.382 OA
ATOM     23  H5  UNL     1      -7.751  22.253 -11.417  1.00  0.00     0.210 HD
ENDBRANCH  21  22
BRANCH  21  24
HETATM   24  C13 UNL     1      -6.958  19.538 -10.656  1.00  0.00     0.205 C 
HETATM   25  O6  UNL     1      -6.669  19.433 -11.865  1.00  0.00    -0.646 OA
HETATM   26  O7  UNL     1      -6.854  18.455  -9.818  1.00  0.00    -0.646 OA
ENDBRANCH  21  24
ENDBRANCH   8  21
TORSDOF 9
ENDMDL
MODEL 4
REMARK VINA RESULT: -6.247195575      8.262     10.702
REMARK  9 active torsions:
REMARK  status: ('A' for Active; 'I' for Inactive)
REMARK    1  A    between atoms: C2_2  and  C4_4 
REMARK    2  A    between atoms: C4_4  and  C5_5 
REMARK    3  A    between atoms: C4_4  and  C6_7 
REMARK    4  A    between atoms: C6_7  and  C7_8 
REMARK    5  A    between atoms: N1_10  and  O2_12 
REMARK    6  A    between atoms: O2_12  and  O3_13 
REMARK    7  A    between atoms: C11_18  and  C12_19 
REMARK    8  A    between atoms: C12_19  and  O5_20 
REMARK    9  A    between atoms: C12_19  and  C13_22 
ROOT
HETATM    1  C7  UNL     1       0.282  16.289  -4.545  1.00  0.00     0.041 C 
HETATM    2  C8  UNL     1       1.196  17.031  -5.484  1.00  0.00     0.020 C 
HETATM    3  N1  UNL     1       1.891  16.588  -6.441  1.00  0.00    -0.243 N 
ATOM      4  H1  UNL     1       1.877  15.593  -6.664  1.00  0.00     0.196 HD
HETATM    5  C9  UNL     1       1.108  18.439  -5.037  1.00  0.00     0.087 C 
HETATM    6  C10 UNL     1      -0.253  18.565  -4.363  1.00  0.00     0.132 C 
HETATM    7  O4  UNL     1      -1.064  19.469  -5.003  1.00  0.00    -0.377 OA
HETATM    8  C11 UNL     1      -2.007  18.811  -5.737  1.00  0.00     0.161 C 
HETATM    9  C14 UNL     1      -1.592  17.357  -5.827  1.00  0.00     0.043 C 
HETATM   10  C15 UNL     1      -0.890  17.195  -4.486  1.00  0.00     0.027 C 
ENDROOT
BRANCH   1  11
HETATM   11  C6  UNL     1       0.029  14.953  -5.137  1.00  0.00     0.023 C 
BRANCH  11  12
HETATM   12  C4  UNL     1       0.347  13.803  -4.208  1.00  0.00     0.051 C 
BRANCH  12  13
HETATM   13  C2  UNL     1      -0.472  12.582  -4.528  1.00  0.00    -0.012 C 
HETATM   14  C1  UNL     1       0.314  11.460  -5.110  1.00  0.00     0.010 C 
HETATM   15  C3  UNL     1      -1.095  12.091  -3.223  1.00  0.00     0.010 C 
ENDBRANCH  12  13
BRANCH  12  16
HETATM   16  C5  UNL     1       1.785  13.545  -4.083  1.00  0.00     0.236 C 
HETATM   17  O1  UNL     1       2.478  13.983  -3.162  1.00  0.00    -0.306 OA
ENDBRANCH  12  16
ENDBRANCH  11  12
ENDBRANCH   1  11
BRANCH   3  18
HETATM   18  O2  UNL     1       2.665  17.445  -7.180  1.00  0.00    -0.115 OA
BRANCH  18  19
HETATM   19  O3  UNL     1       2.403  17.738  -8.454  1.00  0.00    -0.227 OA
ATOM     20  H3  UNL     1       2.000  18.555  -8.723  1.00  0.00     0.256 HD
ENDBRANCH  18  19
ENDBRANCH   3  18
BRANCH   8  21
HETATM   21  C12 UNL     1      -2.123  19.447  -7.102  1.00  0.00     0.247 C 
BRANCH  21  22
HETATM   22  O5  UNL     1      -1.253  18.912  -8.020  1.00  0.00    -0.382 OA
ATOM     23  H5  UNL     1      -1.629  18.838  -8.889  1.00  0.00     0.210 HD
ENDBRANCH  21  22
BRANCH  21  24
HETATM   24  C13 UNL     1      -3.503  19.428  -7.619  1.00  0.00     0.205 C 
HETATM   25  O6  UNL     1      -4.154  18.364  -7.611  1.00  0.00    -0.646 OA
HETATM   26  O7  UNL     1      -4.060  20.583  -8.109  1.00  0.00    -0.646 OA
ENDBRANCH  21  24
ENDBRANCH   8  21
TORSDOF 9
ENDMDL
MODEL 5
REMARK VINA RESULT: -6.162664867      3.268      5.976
REMARK  9 active torsions:
REMARK  status: ('A' for Active; 'I' for Inactive)
REMARK    1  A    between atoms: C2_2  and  C4_4 
REMARK    2  A    between atoms: C4_4  and  C5_5 
REMARK    3  A    between atoms: C4_4  and  C6_7 
REMARK    4  A    between atoms: C6_7  and  C7_8 
REMARK    5  A    between atoms: N1_10  and  O2_12 
REMARK    6  A    between atoms: O2_12  and  O3_13 
REMARK    7  A    between atoms: C11_18  and  C12_19 
REMARK    8  A    between atoms: C12_19  and  O5_20 
REMARK    9  A    between atoms: C12_19  and  C13_22 
ROOT
HETATM    1  C7  UNL     1      -4.005  20.091  -8.205  1.00  0.00     0.041 C 
HETATM    2  C8  UNL     1      -5.357  19.561  -8.605  1.00  0.00     0.020 C 
HETATM    3  N1  UNL     1      -5.970  18.537  -8.190  1.00  0.00    -0.243 N 
ATOM      4  H1  UNL     1      -5.544  17.939  -7.482  1.00  0.00     0.196 HD
HETATM    5  C9  UNL     1      -5.837  20.523  -9.623  1.00  0.00     0.087 C 
HETATM    6  C10 UNL     1      -5.125  21.833  -9.308  1.00  0.00     0.132 C 
HETATM    7  O4  UNL     1      -6.005  22.835  -8.984  1.00  0.00    -0.377 OA
HETATM    8  C11 UNL     1      -5.998  23.045  -7.637  1.00  0.00     0.161 C 
HETATM    9  C14 UNL     1      -5.276  21.881  -6.991  1.00  0.00     0.043 C 
HETATM   10  C15 UNL     1      -4.275  21.544  -8.086  1.00  0.00     0.027 C 
ENDROOT
BRANCH   1  11
HETATM   11  C6  UNL     1      -3.615  19.407  -6.949  1.00  0.00     0.023 C 
BRANCH  11  12
HETATM   12  C4  UNL     1      -2.191  19.680  -6.522  1.00  0.00     0.051 C 
BRANCH  12  13
HETATM   13  C2  UNL     1      -2.131  20.556  -5.300  1.00  0.00    -0.012 C 
HETATM   14  C1  UNL     1      -1.371  19.965  -4.165  1.00  0.00     0.010 C 
HETATM   15  C3  UNL     1      -1.439  21.857  -5.701  1.00  0.00     0.010 C 
ENDBRANCH  12  13
BRANCH  12  16
HETATM   16  C5  UNL     1      -1.375  18.465  -6.428  1.00  0.00     0.236 C 
HETATM   17  O1  UNL     1      -1.832  17.326  -6.552  1.00  0.00    -0.306 OA
ENDBRANCH  12  16
ENDBRANCH  11  12
ENDBRANCH   1  11
BRANCH   3  18
HETATM   18  O2  UNL     1      -7.208  18.230  -8.692  1.00  0.00    -0.115 OA
BRANCH  18  19
HETATM   19  O3  UNL     1      -7.412  17.226  -9.547  1.00  0.00    -0.227 OA
ATOM     20  H3  UNL     1      -7.274  16.315  -9.314  1.00  0.00     0.256 HD
ENDBRANCH  18  19
ENDBRANCH   3  18
BRANCH   8  21
HETATM   21  C12 UNL     1      -7.416  23.176  -7.135  1.00  0.00     0.247 C 
BRANCH  21  22
HETATM   22  O5  UNL     1      -8.016  21.964  -6.898  1.00  0.00    -0.382 OA
ATOM     23  H5  UNL     1      -7.558  21.237  -7.302  1.00  0.00     0.210 HD
ENDBRANCH  21  22
BRANCH  21  24
HETATM   24  C13 UNL     1      -7.519  24.049  -5.952  1.00  0.00     0.205 C 
HETATM   25  O6  UNL     1      -7.915  23.579  -4.866  1.00  0.00    -0.646 OA
HETATM   26  O7  UNL     1      -7.179  25.375  -6.055  1.00  0.00    -0.646 OA
ENDBRANCH  21  24
ENDBRANCH   8  21
TORSDOF 9
ENDMDL
