MODEL 1
REMARK VINA RESULT: -5.809083231      0.000      0.000
REMARK  11 active torsions:
REMARK  status: ('A' for Active; 'I' for Inactive)
REMARK    1  A    between atoms: C2_2  and  O1_3 
REMARK    2  A    between atoms: O1_3  and  C3_4 
REMARK    3  A    between atoms: C3_4  and  C4_5 
REMARK    4  A    between atoms: C4_5  and  C5_6 
REMARK    5  A    between atoms: C4_5  and  O3_11 
REMARK    6  A    between atoms: C5_6  and  O2_7 
REMARK    7  A    between atoms: O2_7  and  C6_8 
REMARK    8  A    between atoms: O3_11  and  C9_12 
REMARK    9  A    between atoms: C10_13  and  O4_14 
REMARK   10  A    between atoms: C11_16  and  O5_17 
REMARK   11  A    between atoms: C15_23  and  O7_25 
ROOT
HETATM    1  C9  UNL     1      -6.327  21.941  -9.404  1.00  0.00     0.190 C 
HETATM    2  C10 UNL     1      -7.180  20.848  -9.941  1.00  0.00     0.179 C 
HETATM    3  C11 UNL     1      -6.271  19.608 -10.056  1.00  0.00     0.159 C 
HETATM    4  C12 UNL     1      -6.134  19.138  -8.628  1.00  0.00     0.089 A 
HETATM    5  C13 UNL     1      -4.740  19.406  -8.013  1.00  0.00     0.170 A 
HETATM    6  O6  UNL     1      -4.917  19.905  -6.594  1.00  0.00    -0.365 OA
HETATM    7  C14 UNL     1      -5.772  20.157  -7.667  1.00  0.00     0.129 A 
HETATM    8  C15 UNL     1      -5.972  21.580  -7.961  1.00  0.00     0.117 C 
HETATM    9  C16 UNL     1      -6.995  22.150  -7.003  1.00  0.00     0.052 C 
ENDROOT
BRANCH   1  10
HETATM   10  O3  UNL     1      -6.893  23.182  -9.349  1.00  0.00    -0.370 OA
BRANCH  10  11
HETATM   11  C4  UNL     1      -6.271  24.241  -9.906  1.00  0.00     0.169 C 
BRANCH  11  12
HETATM   12  C3  UNL     1      -7.006  24.721 -11.135  1.00  0.00     0.201 C 
BRANCH  12  13
HETATM   13  O1  UNL     1      -6.531  25.864 -11.712  1.00  0.00    -0.389 OA
BRANCH  13  14
HETATM   14  C2  UNL     1      -6.910  26.039 -13.024  1.00  0.00     0.163 C 
HETATM   15  C1  UNL     1      -5.843  26.909 -13.702  1.00  0.00     0.033 C 
ENDBRANCH  13  14
ENDBRANCH  12  13
ENDBRANCH  11  12
BRANCH  11  16
HETATM   16  C5  UNL     1      -6.146  25.452  -8.977  1.00  0.00     0.202 C 
BRANCH  16  17
HETATM   17  O2  UNL     1      -5.163  25.202  -8.004  1.00  0.00    -0.384 OA
BRANCH  17  18
HETATM   18  C6  UNL     1      -5.450  25.814  -6.812  1.00  0.00     0.113 C 
HETATM   19  C7  UNL     1      -4.778  25.070  -5.657  1.00  0.00     0.039 C 
HETATM   20  C8  UNL     1      -6.915  25.960  -6.542  1.00  0.00     0.039 C 
ENDBRANCH  17  18
ENDBRANCH  16  17
ENDBRANCH  11  16
ENDBRANCH  10  11
ENDBRANCH   1  10
BRANCH   2  21
HETATM   21  O4  UNL     1      -7.748  21.016 -11.163  1.00  0.00    -0.390 OA
ATOM     22  H4  UNL     1      -8.650  20.741 -11.282  1.00  0.00     0.210 HD
ENDBRANCH   2  21
BRANCH   8  23
HETATM   23  O7  UNL     1      -4.754  22.246  -7.681  1.00  0.00    -0.384 OA
ATOM     24  H7  UNL     1      -4.854  22.620  -6.814  1.00  0.00     0.210 HD
ENDBRANCH   8  23
BRANCH   3  25
HETATM   25  O5  UNL     1      -6.934  18.654 -10.814  1.00  0.00    -0.392 OA
ATOM     26  H5  UNL     1      -6.335  18.333 -11.478  1.00  0.00     0.210 HD
ENDBRANCH   3  25
TORSDOF 11
ENDMDL
MODEL 2
REMARK VINA RESULT: -5.756739220      1.366      4.364
REMARK  11 active torsions:
REMARK  status: ('A' for Active; 'I' for Inactive)
REMARK    1  A    between atoms: C2_2  and  O1_3 
REMARK    2  A    between atoms: O1_3  and  C3_4 
REMARK    3  A    between atoms: C3_4  and  C4_5 
REMARK    4  A    between atoms: C4_5  and  C5_6 
REMARK    5  A    between atoms: C4_5  and  O3_11 
REMARK    6  A    between atoms: C5_6  and  O2_7 
REMARK    7  A    between atoms: O2_7  and  C6_8 
REMARK    8  A    between atoms: O3_11  and  C9_12 
REMARK    9  A    between atoms: C10_13  and  O4_14 
REMARK   10  A    between atoms: C11_16  and  O5_17 
REMARK   11  A    between atoms: C15_23  and  O7_25 
ROOT
HETATM    1  C9  UNL     1      -6.506  21.876  -9.268  1.00  0.00     0.190 C 
HETATM    2  C10 UNL     1      -5.028  21.715  -9.228  1.00  0.00     0.179 C 
HETATM    3  C11 UNL     1      -4.723  20.837  -7.998  1.00  0.00     0.159 C 
HETATM    4  C12 UNL     1      -5.112  19.450  -8.449  1.00  0.00     0.089 A 
HETATM    5  C13 UNL     1      -6.414  18.925  -7.798  1.00  0.00     0.170 A 
HETATM    6  O6  UNL     1      -7.244  18.227  -8.855  1.00  0.00    -0.365 OA
HETATM    7  C14 UNL     1      -6.421  19.336  -9.054  1.00  0.00     0.129 A 
HETATM    8  C15 UNL     1      -7.108  20.510  -9.601  1.00  0.00     0.117 C 
HETATM    9  C16 UNL     1      -7.265  20.349 -11.097  1.00  0.00     0.052 C 
ENDROOT
BRANCH   1  10
HETATM   10  O3  UNL     1      -6.997  22.738 -10.204  1.00  0.00    -0.370 OA
BRANCH  10  11
HETATM   11  C4  UNL     1      -7.514  23.928  -9.832  1.00  0.00     0.169 C 
BRANCH  11  12
HETATM   12  C3  UNL     1      -7.547  24.061  -8.329  1.00  0.00     0.201 C 
BRANCH  12  13
HETATM   13  O1  UNL     1      -6.492  24.716  -7.760  1.00  0.00    -0.389 OA
BRANCH  13  14
HETATM   14  C2  UNL     1      -6.273  24.403  -6.437  1.00  0.00     0.163 C 
HETATM   15  C1  UNL     1      -7.367  23.417  -6.008  1.00  0.00     0.033 C 
ENDBRANCH  13  14
ENDBRANCH  12  13
ENDBRANCH  11  12
BRANCH  11  16
HETATM   16  C5  UNL     1      -6.737  25.138 -10.357  1.00  0.00     0.202 C 
BRANCH  16  17
HETATM   17  O2  UNL     1      -6.782  25.157 -11.762  1.00  0.00    -0.384 OA
BRANCH  17  18
HETATM   18  C6  UNL     1      -7.025  26.413 -12.253  1.00  0.00     0.113 C 
HETATM   19  C7  UNL     1      -8.077  26.357 -13.361  1.00  0.00     0.039 C 
HETATM   20  C8  UNL     1      -5.801  27.119 -12.747  1.00  0.00     0.039 C 
ENDBRANCH  17  18
ENDBRANCH  16  17
ENDBRANCH  11  16
ENDBRANCH  10  11
ENDBRANCH   1  10
BRANCH   2  21
HETATM   21  O4  UNL     1      -4.262  22.829  -9.099  1.00  0.00    -0.390 OA
ATOM     22  H4  UNL     1      -3.930  23.241  -9.888  1.00  0.00     0.210 HD
ENDBRANCH   2  21
BRANCH   8  23
HETATM   23  O7  UNL     1      -8.419  20.522  -9.064  1.00  0.00    -0.384 OA
ATOM     24  H7  UNL     1      -8.357  20.980  -8.234  1.00  0.00     0.210 HD
ENDBRANCH   8  23
BRANCH   3  25
HETATM   25  O5  UNL     1      -3.358  20.897  -7.752  1.00  0.00    -0.392 OA
ATOM     26  H5  UNL     1      -2.999  20.024  -7.862  1.00  0.00     0.210 HD
ENDBRANCH   3  25
TORSDOF 11
ENDMDL
MODEL 3
REMARK VINA RESULT: -5.736714290      2.274      5.131
REMARK  11 active torsions:
REMARK  status: ('A' for Active; 'I' for Inactive)
REMARK    1  A    between atoms: C2_2  and  O1_3 
REMARK    2  A    between atoms: O1_3  and  C3_4 
REMARK    3  A    between atoms: C3_4  and  C4_5 
REMARK    4  A    between atoms: C4_5  and  C5_6 
REMARK    5  A    between atoms: C4_5  and  O3_11 
REMARK    6  A    between atoms: C5_6  and  O2_7 
REMARK    7  A    between atoms: O2_7  and  C6_8 
REMARK    8  A    between atoms: O3_11  and  C9_12 
REMARK    9  A    between atoms: C10_13  and  O4_14 
REMARK   10  A    between atoms: C11_16  and  O5_17 
REMARK   11  A    between atoms: C15_23  and  O7_25 
ROOT
HETATM    1  C9  UNL     1      -6.091  23.080  -8.746  1.00  0.00     0.190 C 
HETATM    2  C10 UNL     1      -6.618  24.333  -9.351  1.00  0.00     0.179 C 
HETATM    3  C11 UNL     1      -7.360  23.913 -10.635  1.00  0.00     0.159 C 
HETATM    4  C12 UNL     1      -8.651  23.324 -10.119  1.00  0.00     0.089 A 
HETATM    5  C13 UNL     1      -8.728  21.784 -10.244  1.00  0.00     0.170 A 
HETATM    6  O6  UNL     1      -9.332  21.218  -8.976  1.00  0.00    -0.365 OA
HETATM    7  C14 UNL     1      -8.512  22.342  -9.066  1.00  0.00     0.129 A 
HETATM    8  C15 UNL     1      -7.290  22.266  -8.258  1.00  0.00     0.117 C 
HETATM    9  C16 UNL     1      -7.617  22.610  -6.822  1.00  0.00     0.052 C 
ENDROOT
BRANCH   1  10
HETATM   10  O3  UNL     1      -5.273  23.226  -7.663  1.00  0.00    -0.370 OA
BRANCH  10  11
HETATM   11  C4  UNL     1      -3.948  22.996  -7.773  1.00  0.00     0.169 C 
BRANCH  11  12
HETATM   12  C3  UNL     1      -3.148  24.102  -7.127  1.00  0.00     0.201 C 
BRANCH  12  13
HETATM   13  O1  UNL     1      -3.500  25.377  -7.466  1.00  0.00    -0.389 OA
BRANCH  13  14
HETATM   14  C2  UNL     1      -2.460  26.278  -7.453  1.00  0.00     0.163 C 
HETATM   15  C1  UNL     1      -1.258  25.587  -6.796  1.00  0.00     0.033 C 
ENDBRANCH  13  14
ENDBRANCH  12  13
ENDBRANCH  11  12
BRANCH  11  16
HETATM   16  C5  UNL     1      -3.485  21.690  -7.122  1.00  0.00     0.202 C 
BRANCH  16  17
HETATM   17  O2  UNL     1      -3.643  20.627  -8.028  1.00  0.00    -0.384 OA
BRANCH  17  18
HETATM   18  C6  UNL     1      -3.706  19.414  -7.394  1.00  0.00     0.113 C 
HETATM   19  C7  UNL     1      -2.301  18.834  -7.215  1.00  0.00     0.039 C 
HETATM   20  C8  UNL     1      -4.586  18.416  -8.080  1.00  0.00     0.039 C 
ENDBRANCH  17  18
ENDBRANCH  16  17
ENDBRANCH  11  16
ENDBRANCH  10  11
ENDBRANCH   1  10
BRANCH   2  21
HETATM   21  O4  UNL     1      -5.730  25.292  -9.722  1.00  0.00    -0.390 OA
ATOM     22  H4  UNL     1      -5.831  25.692 -10.577  1.00  0.00     0.210 HD
ENDBRANCH   2  21
BRANCH   8  23
HETATM   23  O7  UNL     1      -6.867  20.915  -8.255  1.00  0.00    -0.384 OA
ATOM     24  H7  UNL     1      -7.501  20.442  -8.783  1.00  0.00     0.210 HD
ENDBRANCH   8  23
BRANCH   3  25
HETATM   25  O5  UNL     1      -7.618  25.056 -11.379  1.00  0.00    -0.392 OA
ATOM     26  H5  UNL     1      -8.283  25.561 -10.926  1.00  0.00     0.210 HD
ENDBRANCH   3  25
TORSDOF 11
ENDMDL
MODEL 4
REMARK VINA RESULT: -5.610887020      1.390      2.642
REMARK  11 active torsions:
REMARK  status: ('A' for Active; 'I' for Inactive)
REMARK    1  A    between atoms: C2_2  and  O1_3 
REMARK    2  A    between atoms: O1_3  and  C3_4 
REMARK    3  A    between atoms: C3_4  and  C4_5 
REMARK    4  A    between atoms: C4_5  and  C5_6 
REMARK    5  A    between atoms: C4_5  and  O3_11 
REMARK    6  A    between atoms: C5_6  and  O2_7 
REMARK    7  A    between atoms: O2_7  and  C6_8 
REMARK    8  A    between atoms: O3_11  and  C9_12 
REMARK    9  A    between atoms: C10_13  and  O4_14 
REMARK   10  A    between atoms: C11_16  and  O5_17 
REMARK   11  A    between atoms: C15_23  and  O7_25 
ROOT
HETATM    1  C9  UNL     1      -6.113  21.740  -9.210  1.00  0.00     0.190 C 
HETATM    2  C10 UNL     1      -4.670  21.379  -9.187  1.00  0.00     0.179 C 
HETATM    3  C11 UNL     1      -4.481  20.437  -7.982  1.00  0.00     0.159 C 
HETATM    4  C12 UNL     1      -5.058  19.128  -8.464  1.00  0.00     0.089 A 
HETATM    5  C13 UNL     1      -6.416  18.767  -7.816  1.00  0.00     0.170 A 
HETATM    6  O6  UNL     1      -7.338  18.217  -8.882  1.00  0.00    -0.365 OA
HETATM    7  C14 UNL     1      -6.373  19.207  -9.061  1.00  0.00     0.129 A 
HETATM    8  C15 UNL     1      -6.897  20.479  -9.572  1.00  0.00     0.117 C 
HETATM    9  C16 UNL     1      -7.081  20.378 -11.070  1.00  0.00     0.052 C 
ENDROOT
BRANCH   1  10
HETATM   10  O3  UNL     1      -6.487  22.686 -10.121  1.00  0.00    -0.370 OA
BRANCH  10  11
HETATM   11  C4  UNL     1      -6.634  23.974  -9.746  1.00  0.00     0.169 C 
BRANCH  11  12
HETATM   12  C3  UNL     1      -6.959  24.852 -10.930  1.00  0.00     0.201 C 
BRANCH  12  13
HETATM   13  O1  UNL     1      -6.416  26.105 -10.917  1.00  0.00    -0.389 OA
BRANCH  13  14
HETATM   14  C2  UNL     1      -6.788  26.898 -11.979  1.00  0.00     0.163 C 
HETATM   15  C1  UNL     1      -6.907  25.994 -13.213  1.00  0.00     0.033 C 
ENDBRANCH  13  14
ENDBRANCH  12  13
ENDBRANCH  11  12
BRANCH  11  16
HETATM   16  C5  UNL     1      -7.747  24.202  -8.720  1.00  0.00     0.202 C 
BRANCH  16  17
HETATM   17  O2  UNL     1      -7.265  24.999  -7.667  1.00  0.00    -0.384 OA
BRANCH  17  18
HETATM   18  C6  UNL     1      -6.735  24.246  -6.652  1.00  0.00     0.113 C 
HETATM   19  C7  UNL     1      -7.681  23.100  -6.289  1.00  0.00     0.039 C 
HETATM   20  C8  UNL     1      -6.395  25.035  -5.426  1.00  0.00     0.039 C 
ENDBRANCH  17  18
ENDBRANCH  16  17
ENDBRANCH  11  16
ENDBRANCH  10  11
ENDBRANCH   1  10
BRANCH   2  21
HETATM   21  O4  UNL     1      -3.759  22.375  -9.037  1.00  0.00    -0.390 OA
ATOM     22  H4  UNL     1      -2.905  22.155  -8.685  1.00  0.00     0.210 HD
ENDBRANCH   2  21
BRANCH   8  23
HETATM   23  O7  UNL     1      -8.191  20.654  -9.024  1.00  0.00    -0.384 OA
ATOM     24  H7  UNL     1      -8.471  19.793  -8.736  1.00  0.00     0.210 HD
ENDBRANCH   8  23
BRANCH   3  25
HETATM   25  O5  UNL     1      -3.120  20.304  -7.746  1.00  0.00    -0.392 OA
ATOM     26  H5  UNL     1      -2.957  20.501  -6.831  1.00  0.00     0.210 HD
ENDBRANCH   3  25
TORSDOF 11
ENDMDL
MODEL 5
REMARK VINA RESULT: -5.520713428      2.331      4.893
REMARK  11 active torsions:
REMARK  status: ('A' for Active; 'I' for Inactive)
REMARK    1  A    between atoms: C2_2  and  O1_3 
REMARK    2  A    between atoms: O1_3  and  C3_4 
REMARK    3  A    between atoms: C3_4  and  C4_5 
REMARK    4  A    between atoms: C4_5  and  C5_6 
REMARK    5  A    between atoms: C4_5  and  O3_11 
REMARK    6  A    between atoms: C5_6  and  O2_7 
REMARK    7  A    between atoms: O2_7  and  C6_8 
REMARK    8  A    between atoms: O3_11  and  C9_12 
REMARK    9  A    between atoms: C10_13  and  O4_14 
REMARK   10  A    between atoms: C11_16  and  O5_17 
REMARK   11  A    between atoms: C15_23  and  O7_25 
ROOT
HETATM    1  C9  UNL     1      -6.157  23.117  -8.339  1.00  0.00     0.190 C 
HETATM    2  C10 UNL     1      -6.572  24.383  -8.999  1.00  0.00     0.179 C 
HETATM    3  C11 UNL     1      -7.098  23.991 -10.394  1.00  0.00     0.159 C 
HETATM    4  C12 UNL     1      -8.458  23.404 -10.106  1.00  0.00     0.089 A 
HETATM    5  C13 UNL     1      -8.522  21.866 -10.269  1.00  0.00     0.170 A 
HETATM    6  O6  UNL     1      -9.327  21.285  -9.126  1.00  0.00    -0.365 OA
HETATM    7  C14 UNL     1      -8.497  22.404  -9.061  1.00  0.00     0.129 A 
HETATM    8  C15 UNL     1      -7.424  22.305  -8.067  1.00  0.00     0.117 C 
HETATM    9  C16 UNL     1      -7.978  22.628  -6.697  1.00  0.00     0.052 C 
ENDROOT
BRANCH   1  10
HETATM   10  O3  UNL     1      -5.526  23.238  -7.135  1.00  0.00    -0.370 OA
BRANCH  10  11
HETATM   11  C4  UNL     1      -4.262  22.793  -6.980  1.00  0.00     0.169 C 
BRANCH  11  12
HETATM   12  C3  UNL     1      -3.741  22.175  -8.255  1.00  0.00     0.201 C 
BRANCH  12  13
HETATM   13  O1  UNL     1      -3.949  20.833  -8.402  1.00  0.00    -0.389 OA
BRANCH  13  14
HETATM   14  C2  UNL     1      -3.581  20.077  -7.312  1.00  0.00     0.163 C 
HETATM   15  C1  UNL     1      -3.907  18.613  -7.633  1.00  0.00     0.033 C 
ENDBRANCH  13  14
ENDBRANCH  12  13
ENDBRANCH  11  12
BRANCH  11  16
HETATM   16  C5  UNL     1      -3.260  23.883  -6.587  1.00  0.00     0.202 C 
BRANCH  16  17
HETATM   17  O2  UNL     1      -3.082  24.772  -7.662  1.00  0.00    -0.384 OA
BRANCH  17  18
HETATM   18  C6  UNL     1      -2.199  25.776  -7.360  1.00  0.00     0.113 C 
HETATM   19  C7  UNL     1      -1.972  25.847  -5.849  1.00  0.00     0.039 C 
HETATM   20  C8  UNL     1      -2.609  27.119  -7.878  1.00  0.00     0.039 C 
ENDBRANCH  17  18
ENDBRANCH  16  17
ENDBRANCH  11  16
ENDBRANCH  10  11
ENDBRANCH   1  10
BRANCH   2  21
HETATM   21  O4  UNL     1      -5.631  25.341  -9.204  1.00  0.00    -0.390 OA
ATOM     22  H4  UNL     1      -5.188  25.707  -8.447  1.00  0.00     0.210 HD
ENDBRANCH   2  21
BRANCH   8  23
HETATM   23  O7  UNL     1      -7.014  20.950  -8.019  1.00  0.00    -0.384 OA
ATOM     24  H7  UNL     1      -6.070  20.966  -7.915  1.00  0.00     0.210 HD
ENDBRANCH   8  23
BRANCH   3  25
HETATM   25  O5  UNL     1      -7.225  25.148 -11.150  1.00  0.00    -0.392 OA
ATOM     26  H5  UNL     1      -6.376  25.352 -11.525  1.00  0.00     0.210 HD
ENDBRANCH   3  25
TORSDOF 11
ENDMDL
